MODEL 1
REMARK VINA RESULT:     -12.0      0.000      0.000
REMARK SMILES C[C@H](NC(=O)NCCc1ccccc1F)C(=O)NCCCCNC(=O)c1ccc(-c2c3nc(c(-c4cccc(S(=O)(=O)[O-])c4F)c4ccc([nH]4)c(-c4cccc(S(=O)(=O)[O-])c4F)c4nc(c(-c5cccc(S(=O)(=O)[O-])c5F)c5ccc2[nH]5)C=C4)C=C3)cc1
REMARK SMILES IDX 20 1 19 2 18 3 16 4 17 5 2 7 1 8 3 9 4 10 5 12 6 13 7 15
REMARK SMILES IDX 8 16 9 17 10 18 14 19 11 20 13 21 15 22 12 23 21 24 22 25
REMARK SMILES IDX 23 26 24 27 25 29 26 30 27 31 88 32 28 33 87 34 29 35 30 36
REMARK SMILES IDX 31 37 81 38 32 39 86 40 80 41 82 42 33 43 85 44 79 45 78 46
REMARK SMILES IDX 34 48 66 49 46 50 65 51 47 52 50 53 64 54 83 55 48 56 49 57
REMARK SMILES IDX 63 59 84 60 51 61 35 62 36 63 44 64 37 65 39 66 45 67 38 68
REMARK SMILES IDX 40 69 41 70 42 71 43 72 67 73 68 74 76 75 69 76 71 77 77 78
REMARK SMILES IDX 70 79 72 80 73 81 74 82 75 83 52 84 53 85 61 86 54 87 56 88
REMARK SMILES IDX 62 89 55 90 57 91 58 92 59 93 60 94
REMARK H PARENT 18 6 3 11 6 14 23 28 82 47 50 58
REMARK Flexibility Score: inf
ROOT
ATOM      1  C   UNL A   1      35.002  22.750  26.310  1.00  0.00     0.023 C 
ENDROOT
BRANCH   1   2
ATOM      2  C   UNL A   1      34.234  23.436  25.187  1.00  0.00     0.116 C 
BRANCH   2   3
ATOM      3  N   UNL A   1      33.698  22.473  24.235  1.00  0.00    -0.354 N 
ATOM      4  C   UNL A   1      32.737  22.648  23.272  1.00  0.00     0.242 C 
ATOM      5  O   UNL A   1      32.490  21.720  22.502  1.00  0.00    -0.273 OA
ATOM      6  H   UNL A   1      34.080  21.567  24.290  1.00  0.00     0.163 HD
BRANCH   4   7
ATOM      7  C   UNL A   1      32.081  24.035  23.097  1.00  0.00     0.170 C 
ATOM      8  C   UNL A   1      30.611  23.846  23.461  1.00  0.00     0.041 C 
BRANCH   7   9
ATOM      9  N   UNL A   1      32.484  24.507  21.758  1.00  0.00    -0.327 N 
ATOM     10  C   UNL A   1      32.514  25.586  20.985  1.00  0.00     0.315 C 
ATOM     11  H   UNL A   1      32.868  23.751  21.259  1.00  0.00     0.166 HD
ATOM     12  O   UNL A   1      33.042  25.470  19.877  1.00  0.00    -0.249 OA
ATOM     13  N   UNL A   1      31.995  26.773  21.293  1.00  0.00    -0.338 N 
ATOM     14  H   UNL A   1      32.101  27.452  20.587  1.00  0.00     0.165 HD
BRANCH  13  15
ATOM     15  C   UNL A   1      31.311  27.247  22.464  1.00  0.00     0.122 C 
BRANCH  15  16
ATOM     16  C   UNL A   1      31.942  28.480  23.107  1.00  0.00     0.060 C 
BRANCH  16  17
ATOM     17  C   UNL A   1      32.269  28.467  24.581  1.00  0.00    -0.010 A 
ATOM     18  C   UNL A   1      31.612  29.223  25.559  1.00  0.00     0.007 A 
ATOM     19  C   UNL A   1      33.337  27.653  24.988  1.00  0.00     0.126 A 
ATOM     20  C   UNL A   1      32.026  29.164  26.896  1.00  0.00     0.000 A 
ATOM     21  C   UNL A   1      33.749  27.584  26.314  1.00  0.00     0.039 A 
ATOM     22  F   UNL A   1      33.987  26.912  24.078  1.00  0.00    -0.207 F 
ATOM     23  C   UNL A   1      33.093  28.347  27.274  1.00  0.00     0.003 A 
ENDBRANCH  16  17
ENDBRANCH  15  16
ENDBRANCH  13  15
ENDBRANCH   7   9
ENDBRANCH   4   7
ENDBRANCH   2   3
ENDBRANCH   1   2
BRANCH   1  24
ATOM     24  C   UNL A   1      35.776  21.513  25.860  1.00  0.00     0.023 C 
BRANCH  24  25
ATOM     25  C   UNL A   1      37.157  21.801  25.280  1.00  0.00     0.116 C 
BRANCH  25  26
ATOM     26  N   UNL A   1      38.126  20.754  25.573  1.00  0.00    -0.352 N 
ATOM     27  C   UNL A   1      39.371  20.890  26.144  1.00  0.00     0.251 C 
ATOM     28  H   UNL A   1      37.857  19.838  25.333  1.00  0.00     0.163 HD
ATOM     29  O   UNL A   1      40.135  19.939  26.215  1.00  0.00    -0.269 OA
BRANCH  27  30
ATOM     30  C   UNL A   1      39.772  22.221  26.642  1.00  0.00     0.039 A 
ATOM     31  C   UNL A   1      40.752  22.306  27.634  1.00  0.00     0.014 A 
ATOM     32  C   UNL A   1      39.231  23.376  26.071  1.00  0.00     0.014 A 
ATOM     33  C   UNL A   1      41.236  23.560  28.011  1.00  0.00     0.010 A 
ATOM     34  C   UNL A   1      39.763  24.618  26.401  1.00  0.00     0.010 A 
ATOM     35  C   UNL A   1      40.769  24.722  27.374  1.00  0.00    -0.014 A 
BRANCH  35  36
ATOM     36  C   UNL A   1      41.332  26.057  27.694  1.00  0.00     0.031 A 
ATOM     37  C   UNL A   1      42.738  26.400  27.291  1.00  0.00     0.074 A 
ATOM     38  C   UNL A   1      40.607  26.927  28.427  1.00  0.00     0.049 A 
ATOM     39  N   UNL A   1      43.422  27.486  27.534  1.00  0.00    -0.248 NA
ATOM     40  C   UNL A   1      43.485  25.377  26.539  1.00  0.00     0.031 C 
ATOM     41  C   UNL A   1      39.262  26.678  28.947  1.00  0.00     0.029 A 
ATOM     42  N   UNL A   1      40.911  28.186  28.882  1.00  0.00    -0.354 N 
ATOM     43  C   UNL A   1      44.685  27.268  26.999  1.00  0.00     0.074 A 
ATOM     44  C   UNL A   1      44.686  25.931  26.448  1.00  0.00     0.031 C 
ATOM     45  C   UNL A   1      38.853  27.752  29.641  1.00  0.00     0.029 A 
ATOM     46  C   UNL A   1      39.913  28.756  29.638  1.00  0.00     0.049 A 
ATOM     47  H   UNL A   1      41.763  28.639  28.685  1.00  0.00     0.167 HD
ATOM     48  C   UNL A   1      45.737  28.116  26.940  1.00  0.00     0.034 A 
ATOM     49  C   UNL A   1      39.856  29.951  30.259  1.00  0.00     0.034 A 
ATOM     50  C   UNL A   1      45.712  29.464  27.436  1.00  0.00     0.049 A 
ATOM     51  C   UNL A   1      41.020  30.897  30.132  1.00  0.00     0.074 A 
ATOM     52  C   UNL A   1      46.697  30.431  27.339  1.00  0.00     0.029 A 
ATOM     53  N   UNL A   1      44.651  30.037  28.119  1.00  0.00    -0.354 N 
ATOM     54  N   UNL A   1      42.150  30.730  29.489  1.00  0.00    -0.248 NA
ATOM     55  C   UNL A   1      40.890  32.209  30.784  1.00  0.00     0.031 C 
ATOM     56  C   UNL A   1      46.235  31.587  27.976  1.00  0.00     0.029 A 
ATOM     57  C   UNL A   1      44.956  31.345  28.454  1.00  0.00     0.049 A 
ATOM     58  H   UNL A   1      43.805  29.582  28.335  1.00  0.00     0.167 HD
ATOM     59  C   UNL A   1      42.854  31.919  29.634  1.00  0.00     0.074 A 
ATOM     60  C   UNL A   1      42.014  32.809  30.410  1.00  0.00     0.031 C 
ATOM     61  C   UNL A   1      44.090  32.239  29.178  1.00  0.00     0.034 A 
BRANCH  48  62
ATOM     62  C   UNL A   1      46.985  27.640  26.245  1.00  0.00     0.023 A 
ATOM     63  C   UNL A   1      47.918  26.863  26.961  1.00  0.00     0.012 A 
ATOM     64  C   UNL A   1      47.195  27.887  24.875  1.00  0.00     0.148 A 
ATOM     65  C   UNL A   1      49.056  26.360  26.332  1.00  0.00     0.002 A 
ATOM     66  C   UNL A   1      48.310  27.346  24.243  1.00  0.00     0.091 A 
ATOM     67  F   UNL A   1      46.308  28.646  24.217  1.00  0.00    -0.205 F 
ATOM     68  C   UNL A   1      49.245  26.591  24.972  1.00  0.00     0.022 A 
BRANCH  66  69
ATOM     69  S   UNL A   1      48.603  27.517  22.479  1.00  0.00     0.127 S 
ATOM     70  O   UNL A   1      49.900  28.192  22.460  1.00  0.00    -0.237 OA
ATOM     71  O   UNL A   1      48.636  26.123  22.036  1.00  0.00    -0.237 OA
ATOM     72  O   UNL A   1      47.485  28.293  21.960  1.00  0.00    -0.744 OA
ENDBRANCH  66  69
ENDBRANCH  48  62
BRANCH  49  73
ATOM     73  C   UNL A   1      38.611  30.346  30.975  1.00  0.00     0.023 A 
ATOM     74  C   UNL A   1      38.496  30.075  32.352  1.00  0.00     0.012 A 
ATOM     75  C   UNL A   1      37.579  31.051  30.325  1.00  0.00     0.148 A 
ATOM     76  C   UNL A   1      37.370  30.485  33.067  1.00  0.00     0.002 A 
ATOM     77  C   UNL A   1      36.486  31.504  31.054  1.00  0.00     0.091 A 
ATOM     78  F   UNL A   1      37.704  31.289  29.011  1.00  0.00    -0.205 F 
ATOM     79  C   UNL A   1      36.372  31.211  32.421  1.00  0.00     0.022 A 
BRANCH  77  80
ATOM     80  S   UNL A   1      35.223  32.565  30.341  1.00  0.00     0.127 S 
ATOM     81  O   UNL A   1      34.272  32.682  31.444  1.00  0.00    -0.237 OA
ATOM     82  O   UNL A   1      35.983  33.782  30.050  1.00  0.00    -0.237 OA
ATOM     83  O   UNL A   1      34.739  31.863  29.161  1.00  0.00    -0.744 OA
ENDBRANCH  77  80
ENDBRANCH  49  73
BRANCH  61  84
ATOM     84  C   UNL A   1      44.626  33.613  29.482  1.00  0.00     0.023 A 
ATOM     85  C   UNL A   1      45.365  33.823  30.662  1.00  0.00     0.012 A 
ATOM     86  C   UNL A   1      44.508  34.655  28.542  1.00  0.00     0.148 A 
ATOM     87  C   UNL A   1      45.969  35.055  30.909  1.00  0.00     0.002 A 
ATOM     88  C   UNL A   1      45.152  35.866  28.772  1.00  0.00     0.091 A 
ATOM     89  F   UNL A   1      43.786  34.439  27.433  1.00  0.00    -0.205 F 
ATOM     90  C   UNL A   1      45.875  36.070  29.959  1.00  0.00     0.022 A 
BRANCH  88  91
ATOM     91  S   UNL A   1      45.173  37.193  27.561  1.00  0.00     0.127 S 
ATOM     92  O   UNL A   1      45.889  36.570  26.449  1.00  0.00    -0.237 OA
ATOM     93  O   UNL A   1      43.747  37.416  27.319  1.00  0.00    -0.237 OA
ATOM     94  O   UNL A   1      45.860  38.308  28.199  1.00  0.00    -0.744 OA
ENDBRANCH  88  91
ENDBRANCH  61  84
ENDBRANCH  35  36
ENDBRANCH  27  30
ENDBRANCH  25  26
ENDBRANCH  24  25
ENDBRANCH   1  24
TORSDOF 18
ENDMDL
MODEL 2
REMARK VINA RESULT:     -11.9      5.166      9.953
REMARK SMILES C[C@H](NC(=O)NCCc1ccccc1F)C(=O)NCCCCNC(=O)c1ccc(-c2c3nc(c(-c4cccc(S(=O)(=O)[O-])c4F)c4ccc([nH]4)c(-c4cccc(S(=O)(=O)[O-])c4F)c4nc(c(-c5cccc(S(=O)(=O)[O-])c5F)c5ccc2[nH]5)C=C4)C=C3)cc1
REMARK SMILES IDX 20 1 19 2 18 3 16 4 17 5 2 7 1 8 3 9 4 10 5 12 6 13 7 15
REMARK SMILES IDX 8 16 9 17 10 18 14 19 11 20 13 21 15 22 12 23 21 24 22 25
REMARK SMILES IDX 23 26 24 27 25 29 26 30 27 31 88 32 28 33 87 34 29 35 30 36
REMARK SMILES IDX 31 37 81 38 32 39 86 40 80 41 82 42 33 43 85 44 79 45 78 46
REMARK SMILES IDX 34 48 66 49 46 50 65 51 47 52 50 53 64 54 83 55 48 56 49 57
REMARK SMILES IDX 63 59 84 60 51 61 35 62 36 63 44 64 37 65 39 66 45 67 38 68
REMARK SMILES IDX 40 69 41 70 42 71 43 72 67 73 68 74 76 75 69 76 71 77 77 78
REMARK SMILES IDX 70 79 72 80 73 81 74 82 75 83 52 84 53 85 61 86 54 87 56 88
REMARK SMILES IDX 62 89 55 90 57 91 58 92 59 93 60 94
REMARK H PARENT 18 6 3 11 6 14 23 28 82 47 50 58
REMARK Flexibility Score: inf
ROOT
ATOM      1  C   UNL A   1      31.914  27.725  27.265  1.00  0.00     0.023 C 
ENDROOT
BRANCH   1   2
ATOM      2  C   UNL A   1      31.821  26.391  26.536  1.00  0.00     0.116 C 
BRANCH   2   3
ATOM      3  N   UNL A   1      33.095  26.013  25.940  1.00  0.00    -0.354 N 
ATOM      4  C   UNL A   1      33.339  25.313  24.786  1.00  0.00     0.242 C 
ATOM      5  O   UNL A   1      34.503  25.178  24.406  1.00  0.00    -0.273 OA
ATOM      6  H   UNL A   1      33.895  26.301  26.436  1.00  0.00     0.163 HD
BRANCH   4   7
ATOM      7  C   UNL A   1      32.152  24.823  23.929  1.00  0.00     0.170 C 
ATOM      8  C   UNL A   1      31.811  23.430  24.452  1.00  0.00     0.041 C 
BRANCH   7   9
ATOM      9  N   UNL A   1      32.550  25.037  22.524  1.00  0.00    -0.327 N 
ATOM     10  C   UNL A   1      32.687  25.979  21.598  1.00  0.00     0.315 C 
ATOM     11  H   UNL A   1      32.805  24.170  22.133  1.00  0.00     0.166 HD
ATOM     12  O   UNL A   1      33.142  25.631  20.506  1.00  0.00    -0.249 OA
ATOM     13  N   UNL A   1      32.348  27.258  21.739  1.00  0.00    -0.338 N 
ATOM     14  H   UNL A   1      32.510  27.806  20.938  1.00  0.00     0.165 HD
BRANCH  13  15
ATOM     15  C   UNL A   1      31.790  27.987  22.845  1.00  0.00     0.122 C 
BRANCH  15  16
ATOM     16  C   UNL A   1      30.274  27.866  22.979  1.00  0.00     0.060 C 
BRANCH  16  17
ATOM     17  C   UNL A   1      29.443  29.108  23.194  1.00  0.00    -0.010 A 
ATOM     18  C   UNL A   1      29.949  30.367  23.535  1.00  0.00     0.007 A 
ATOM     19  C   UNL A   1      28.052  28.971  23.067  1.00  0.00     0.126 A 
ATOM     20  C   UNL A   1      29.079  31.445  23.750  1.00  0.00     0.000 A 
ATOM     21  C   UNL A   1      27.184  30.037  23.272  1.00  0.00     0.039 A 
ATOM     22  F   UNL A   1      27.532  27.779  22.737  1.00  0.00    -0.207 F 
ATOM     23  C   UNL A   1      27.699  31.281  23.620  1.00  0.00     0.003 A 
ENDBRANCH  16  17
ENDBRANCH  15  16
ENDBRANCH  13  15
ENDBRANCH   7   9
ENDBRANCH   4   7
ENDBRANCH   2   3
ENDBRANCH   1   2
BRANCH   1  24
ATOM     24  C   UNL A   1      31.563  28.929  26.393  1.00  0.00     0.023 C 
BRANCH  24  25
ATOM     25  C   UNL A   1      32.740  29.841  26.062  1.00  0.00     0.116 C 
BRANCH  25  26
ATOM     26  N   UNL A   1      32.497  31.232  26.415  1.00  0.00    -0.352 N 
ATOM     27  C   UNL A   1      33.247  32.037  27.244  1.00  0.00     0.251 C 
ATOM     28  H   UNL A   1      31.701  31.648  26.013  1.00  0.00     0.163 HD
ATOM     29  O   UNL A   1      32.857  33.152  27.556  1.00  0.00    -0.269 OA
BRANCH  27  30
ATOM     30  C   UNL A   1      34.521  31.508  27.770  1.00  0.00     0.039 A 
ATOM     31  C   UNL A   1      35.589  32.386  27.967  1.00  0.00     0.014 A 
ATOM     32  C   UNL A   1      34.625  30.162  28.134  1.00  0.00     0.014 A 
ATOM     33  C   UNL A   1      36.748  31.923  28.593  1.00  0.00     0.010 A 
ATOM     34  C   UNL A   1      35.753  29.722  28.817  1.00  0.00     0.010 A 
ATOM     35  C   UNL A   1      36.825  30.597  29.052  1.00  0.00    -0.014 A 
BRANCH  35  36
ATOM     36  C   UNL A   1      38.011  30.106  29.798  1.00  0.00     0.031 A 
ATOM     37  C   UNL A   1      38.280  30.596  31.193  1.00  0.00     0.074 A 
ATOM     38  C   UNL A   1      38.892  29.290  29.186  1.00  0.00     0.049 A 
ATOM     39  N   UNL A   1      39.291  30.330  31.977  1.00  0.00    -0.248 NA
ATOM     40  C   UNL A   1      37.299  31.528  31.774  1.00  0.00     0.031 C 
ATOM     41  C   UNL A   1      38.783  28.811  27.807  1.00  0.00     0.029 A 
ATOM     42  N   UNL A   1      40.066  28.739  29.637  1.00  0.00    -0.354 N 
ATOM     43  C   UNL A   1      39.089  31.085  33.126  1.00  0.00     0.074 A 
ATOM     44  C   UNL A   1      37.876  31.847  32.924  1.00  0.00     0.031 C 
ATOM     45  C   UNL A   1      39.840  28.032  27.527  1.00  0.00     0.029 A 
ATOM     46  C   UNL A   1      40.715  27.975  28.695  1.00  0.00     0.049 A 
ATOM     47  H   UNL A   1      40.411  28.878  30.549  1.00  0.00     0.167 HD
ATOM     48  C   UNL A   1      39.826  31.114  34.260  1.00  0.00     0.034 A 
ATOM     49  C   UNL A   1      41.881  27.302  28.763  1.00  0.00     0.034 A 
ATOM     50  C   UNL A   1      40.996  30.310  34.478  1.00  0.00     0.049 A 
ATOM     51  C   UNL A   1      42.654  27.308  30.054  1.00  0.00     0.074 A 
ATOM     52  C   UNL A   1      41.758  30.200  35.628  1.00  0.00     0.029 A 
ATOM     53  N   UNL A   1      41.575  29.479  33.532  1.00  0.00    -0.354 N 
ATOM     54  N   UNL A   1      42.366  27.907  31.184  1.00  0.00    -0.248 NA
ATOM     55  C   UNL A   1      43.894  26.517  30.095  1.00  0.00     0.031 C 
ATOM     56  C   UNL A   1      42.806  29.311  35.372  1.00  0.00     0.029 A 
ATOM     57  C   UNL A   1      42.687  28.854  34.069  1.00  0.00     0.049 A 
ATOM     58  H   UNL A   1      41.245  29.353  32.613  1.00  0.00     0.167 HD
ATOM     59  C   UNL A   1      43.368  27.547  32.076  1.00  0.00     0.074 A 
ATOM     60  C   UNL A   1      44.264  26.660  31.362  1.00  0.00     0.031 C 
ATOM     61  C   UNL A   1      43.539  27.930  33.365  1.00  0.00     0.034 A 
BRANCH  48  62
ATOM     62  C   UNL A   1      39.346  31.987  35.388  1.00  0.00     0.023 A 
ATOM     63  C   UNL A   1      38.471  31.446  36.353  1.00  0.00     0.012 A 
ATOM     64  C   UNL A   1      39.819  33.304  35.543  1.00  0.00     0.148 A 
ATOM     65  C   UNL A   1      38.053  32.211  37.440  1.00  0.00     0.002 A 
ATOM     66  C   UNL A   1      39.432  34.047  36.653  1.00  0.00     0.091 A 
ATOM     67  F   UNL A   1      40.632  33.808  34.603  1.00  0.00    -0.205 F 
ATOM     68  C   UNL A   1      38.542  33.505  37.597  1.00  0.00     0.022 A 
BRANCH  66  69
ATOM     69  S   UNL A   1      40.068  35.692  36.989  1.00  0.00     0.127 S 
ATOM     70  O   UNL A   1      41.506  35.441  37.075  1.00  0.00    -0.237 OA
ATOM     71  O   UNL A   1      39.650  36.433  35.797  1.00  0.00    -0.237 OA
ATOM     72  O   UNL A   1      39.432  36.124  38.226  1.00  0.00    -0.744 OA
ENDBRANCH  66  69
ENDBRANCH  48  62
BRANCH  49  73
ATOM     73  C   UNL A   1      42.331  26.495  27.594  1.00  0.00     0.023 A 
ATOM     74  C   UNL A   1      43.216  27.071  26.663  1.00  0.00     0.012 A 
ATOM     75  C   UNL A   1      41.951  25.147  27.440  1.00  0.00     0.148 A 
ATOM     76  C   UNL A   1      43.705  26.324  25.590  1.00  0.00     0.002 A 
ATOM     77  C   UNL A   1      42.483  24.394  26.400  1.00  0.00     0.091 A 
ATOM     78  F   UNL A   1      41.098  24.623  28.331  1.00  0.00    -0.205 F 
ATOM     79  C   UNL A   1      43.350  24.983  25.467  1.00  0.00     0.022 A 
BRANCH  77  80
ATOM     80  S   UNL A   1      42.196  22.627  26.242  1.00  0.00     0.127 S 
ATOM     81  O   UNL A   1      42.869  22.325  24.982  1.00  0.00    -0.237 OA
ATOM     82  O   UNL A   1      42.861  22.107  27.437  1.00  0.00    -0.237 OA
ATOM     83  O   UNL A   1      40.749  22.462  26.240  1.00  0.00    -0.744 OA
ENDBRANCH  77  80
ENDBRANCH  49  73
BRANCH  61  84
ATOM     84  C   UNL A   1      44.727  27.390  34.116  1.00  0.00     0.023 A 
ATOM     85  C   UNL A   1      45.916  28.144  34.166  1.00  0.00     0.012 A 
ATOM     86  C   UNL A   1      44.624  26.206  34.872  1.00  0.00     0.148 A 
ATOM     87  C   UNL A   1      46.989  27.720  34.949  1.00  0.00     0.002 A 
ATOM     88  C   UNL A   1      45.680  25.815  35.687  1.00  0.00     0.091 A 
ATOM     89  F   UNL A   1      43.489  25.495  34.796  1.00  0.00    -0.205 F 
ATOM     90  C   UNL A   1      46.866  26.566  35.720  1.00  0.00     0.022 A 
BRANCH  88  91
ATOM     91  S   UNL A   1      45.574  24.401  36.791  1.00  0.00     0.127 S 
ATOM     92  O   UNL A   1      44.928  23.405  35.939  1.00  0.00    -0.237 OA
ATOM     93  O   UNL A   1      46.981  24.131  37.087  1.00  0.00    -0.237 OA
ATOM     94  O   UNL A   1      44.790  24.845  37.937  1.00  0.00    -0.744 OA
ENDBRANCH  88  91
ENDBRANCH  61  84
ENDBRANCH  35  36
ENDBRANCH  27  30
ENDBRANCH  25  26
ENDBRANCH  24  25
ENDBRANCH   1  24
TORSDOF 18
ENDMDL
MODEL 3
REMARK VINA RESULT:     -11.9      1.860      3.423
REMARK SMILES C[C@H](NC(=O)NCCc1ccccc1F)C(=O)NCCCCNC(=O)c1ccc(-c2c3nc(c(-c4cccc(S(=O)(=O)[O-])c4F)c4ccc([nH]4)c(-c4cccc(S(=O)(=O)[O-])c4F)c4nc(c(-c5cccc(S(=O)(=O)[O-])c5F)c5ccc2[nH]5)C=C4)C=C3)cc1
REMARK SMILES IDX 20 1 19 2 18 3 16 4 17 5 2 7 1 8 3 9 4 10 5 12 6 13 7 15
REMARK SMILES IDX 8 16 9 17 10 18 14 19 11 20 13 21 15 22 12 23 21 24 22 25
REMARK SMILES IDX 23 26 24 27 25 29 26 30 27 31 88 32 28 33 87 34 29 35 30 36
REMARK SMILES IDX 31 37 81 38 32 39 86 40 80 41 82 42 33 43 85 44 79 45 78 46
REMARK SMILES IDX 34 48 66 49 46 50 65 51 47 52 50 53 64 54 83 55 48 56 49 57
REMARK SMILES IDX 63 59 84 60 51 61 35 62 36 63 44 64 37 65 39 66 45 67 38 68
REMARK SMILES IDX 40 69 41 70 42 71 43 72 67 73 68 74 76 75 69 76 71 77 77 78
REMARK SMILES IDX 70 79 72 80 73 81 74 82 75 83 52 84 53 85 61 86 54 87 56 88
REMARK SMILES IDX 62 89 55 90 57 91 58 92 59 93 60 94
REMARK H PARENT 18 6 3 11 6 14 23 28 82 47 50 58
REMARK Flexibility Score: inf
ROOT
ATOM      1  C   UNL A   1      35.816  23.649  23.901  1.00  0.00     0.023 C 
ENDROOT
BRANCH   1   2
ATOM      2  C   UNL A   1      34.321  23.763  23.634  1.00  0.00     0.116 C 
BRANCH   2   3
ATOM      3  N   UNL A   1      33.723  24.862  24.380  1.00  0.00    -0.354 N 
ATOM      4  C   UNL A   1      32.415  25.053  24.744  1.00  0.00     0.242 C 
ATOM      5  O   UNL A   1      32.130  26.013  25.460  1.00  0.00    -0.273 OA
ATOM      6  H   UNL A   1      34.348  25.568  24.665  1.00  0.00     0.163 HD
BRANCH   4   7
ATOM      7  C   UNL A   1      31.356  23.999  24.355  1.00  0.00     0.170 C 
ATOM      8  C   UNL A   1      30.674  24.542  23.102  1.00  0.00     0.041 C 
BRANCH   7   9
ATOM      9  N   UNL A   1      30.590  23.720  25.584  1.00  0.00    -0.327 N 
ATOM     10  C   UNL A   1      30.678  23.132  26.771  1.00  0.00     0.315 C 
ATOM     11  H   UNL A   1      29.691  24.111  25.491  1.00  0.00     0.166 HD
ATOM     12  O   UNL A   1      29.703  23.230  27.521  1.00  0.00    -0.249 OA
ATOM     13  N   UNL A   1      31.714  22.420  27.208  1.00  0.00    -0.338 N 
ATOM     14  H   UNL A   1      31.592  22.047  28.111  1.00  0.00     0.165 HD
BRANCH  13  15
ATOM     15  C   UNL A   1      32.979  22.097  26.606  1.00  0.00     0.122 C 
BRANCH  15  16
ATOM     16  C   UNL A   1      33.219  20.603  26.406  1.00  0.00     0.060 C 
BRANCH  16  17
ATOM     17  C   UNL A   1      32.884  19.965  25.079  1.00  0.00    -0.010 A 
ATOM     18  C   UNL A   1      32.608  20.661  23.897  1.00  0.00     0.007 A 
ATOM     19  C   UNL A   1      32.818  18.564  25.047  1.00  0.00     0.126 A 
ATOM     20  C   UNL A   1      32.268  19.965  22.729  1.00  0.00     0.000 A 
ATOM     21  C   UNL A   1      32.489  17.867  23.890  1.00  0.00     0.039 A 
ATOM     22  F   UNL A   1      33.081  17.864  26.161  1.00  0.00    -0.207 F 
ATOM     23  C   UNL A   1      32.207  18.571  22.724  1.00  0.00     0.003 A 
ENDBRANCH  16  17
ENDBRANCH  15  16
ENDBRANCH  13  15
ENDBRANCH   7   9
ENDBRANCH   4   7
ENDBRANCH   2   3
ENDBRANCH   1   2
BRANCH   1  24
ATOM     24  C   UNL A   1      36.284  22.220  24.177  1.00  0.00     0.023 C 
BRANCH  24  25
ATOM     25  C   UNL A   1      36.770  21.972  25.601  1.00  0.00     0.116 C 
BRANCH  25  26
ATOM     26  N   UNL A   1      37.784  20.931  25.682  1.00  0.00    -0.352 N 
ATOM     27  C   UNL A   1      39.098  21.059  26.073  1.00  0.00     0.251 C 
ATOM     28  H   UNL A   1      37.495  20.025  25.426  1.00  0.00     0.163 HD
ATOM     29  O   UNL A   1      39.877  20.123  25.971  1.00  0.00    -0.269 OA
BRANCH  27  30
ATOM     30  C   UNL A   1      39.551  22.366  26.590  1.00  0.00     0.039 A 
ATOM     31  C   UNL A   1      40.550  22.398  27.565  1.00  0.00     0.014 A 
ATOM     32  C   UNL A   1      39.038  23.550  26.054  1.00  0.00     0.014 A 
ATOM     33  C   UNL A   1      41.081  23.628  27.959  1.00  0.00     0.010 A 
ATOM     34  C   UNL A   1      39.615  24.766  26.398  1.00  0.00     0.010 A 
ATOM     35  C   UNL A   1      40.641  24.817  27.354  1.00  0.00    -0.014 A 
BRANCH  35  36
ATOM     36  C   UNL A   1      41.253  26.127  27.692  1.00  0.00     0.031 A 
ATOM     37  C   UNL A   1      42.668  26.426  27.284  1.00  0.00     0.074 A 
ATOM     38  C   UNL A   1      40.564  27.009  28.443  1.00  0.00     0.049 A 
ATOM     39  N   UNL A   1      43.391  27.484  27.539  1.00  0.00    -0.248 NA
ATOM     40  C   UNL A   1      43.374  25.390  26.511  1.00  0.00     0.031 C 
ATOM     41  C   UNL A   1      39.214  26.800  28.968  1.00  0.00     0.029 A 
ATOM     42  N   UNL A   1      40.915  28.250  28.915  1.00  0.00    -0.354 N 
ATOM     43  C   UNL A   1      44.642  27.230  26.992  1.00  0.00     0.074 A 
ATOM     44  C   UNL A   1      44.593  25.902  26.421  1.00  0.00     0.031 C 
ATOM     45  C   UNL A   1      38.848  27.876  29.682  1.00  0.00     0.029 A 
ATOM     46  C   UNL A   1      39.943  28.842  29.688  1.00  0.00     0.049 A 
ATOM     47  H   UNL A   1      41.781  28.675  28.720  1.00  0.00     0.167 HD
ATOM     48  C   UNL A   1      45.724  28.041  26.939  1.00  0.00     0.034 A 
ATOM     49  C   UNL A   1      39.932  30.028  30.327  1.00  0.00     0.034 A 
ATOM     50  C   UNL A   1      45.749  29.381  27.456  1.00  0.00     0.049 A 
ATOM     51  C   UNL A   1      41.128  30.935  30.207  1.00  0.00     0.074 A 
ATOM     52  C   UNL A   1      46.766  30.314  27.368  1.00  0.00     0.029 A 
ATOM     53  N   UNL A   1      44.713  29.980  28.156  1.00  0.00    -0.354 N 
ATOM     54  N   UNL A   1      42.247  30.738  29.554  1.00  0.00    -0.248 NA
ATOM     55  C   UNL A   1      41.048  32.240  30.880  1.00  0.00     0.031 C 
ATOM     56  C   UNL A   1      46.350  31.476  28.026  1.00  0.00     0.029 A 
ATOM     57  C   UNL A   1      45.067  31.271  28.509  1.00  0.00     0.049 A 
ATOM     58  H   UNL A   1      43.853  29.551  28.370  1.00  0.00     0.167 HD
ATOM     59  C   UNL A   1      42.993  31.900  29.712  1.00  0.00     0.074 A 
ATOM     60  C   UNL A   1      42.190  32.806  30.508  1.00  0.00     0.031 C 
ATOM     61  C   UNL A   1      44.237  32.183  29.253  1.00  0.00     0.034 A 
BRANCH  48  62
ATOM     62  C   UNL A   1      46.950  27.533  26.228  1.00  0.00     0.023 A 
ATOM     63  C   UNL A   1      47.838  26.679  26.913  1.00  0.00     0.012 A 
ATOM     64  C   UNL A   1      47.179  27.827  24.871  1.00  0.00     0.148 A 
ATOM     65  C   UNL A   1      48.952  26.147  26.266  1.00  0.00     0.002 A 
ATOM     66  C   UNL A   1      48.268  27.258  24.220  1.00  0.00     0.091 A 
ATOM     67  F   UNL A   1      46.335  28.659  24.243  1.00  0.00    -0.205 F 
ATOM     68  C   UNL A   1      49.160  26.425  24.918  1.00  0.00     0.022 A 
BRANCH  66  69
ATOM     69  S   UNL A   1      48.579  27.490  22.466  1.00  0.00     0.127 S 
ATOM     70  O   UNL A   1      47.428  28.299  22.067  1.00  0.00    -0.237 OA
ATOM     71  O   UNL A   1      49.854  28.208  22.471  1.00  0.00    -0.237 OA
ATOM     72  O   UNL A   1      48.636  26.154  21.888  1.00  0.00    -0.744 OA
ENDBRANCH  66  69
ENDBRANCH  48  62
BRANCH  49  73
ATOM     73  C   UNL A   1      38.706  30.456  31.058  1.00  0.00     0.023 A 
ATOM     74  C   UNL A   1      38.649  30.292  32.455  1.00  0.00     0.012 A 
ATOM     75  C   UNL A   1      37.636  31.088  30.396  1.00  0.00     0.148 A 
ATOM     76  C   UNL A   1      37.541  30.736  33.179  1.00  0.00     0.002 A 
ATOM     77  C   UNL A   1      36.561  31.577  31.129  1.00  0.00     0.091 A 
ATOM     78  F   UNL A   1      37.707  31.224  29.063  1.00  0.00    -0.205 F 
ATOM     79  C   UNL A   1      36.505  31.390  32.518  1.00  0.00     0.022 A 
BRANCH  77  80
ATOM     80  S   UNL A   1      35.250  32.555  30.385  1.00  0.00     0.127 S 
ATOM     81  O   UNL A   1      34.282  32.637  31.475  1.00  0.00    -0.237 OA
ATOM     82  O   UNL A   1      35.945  33.807  30.081  1.00  0.00    -0.237 OA
ATOM     83  O   UNL A   1      34.819  31.808  29.212  1.00  0.00    -0.744 OA
ENDBRANCH  77  80
ENDBRANCH  49  73
BRANCH  61  84
ATOM     84  C   UNL A   1      44.822  33.532  29.574  1.00  0.00     0.023 A 
ATOM     85  C   UNL A   1      45.534  33.710  30.777  1.00  0.00     0.012 A 
ATOM     86  C   UNL A   1      44.780  34.579  28.632  1.00  0.00     0.148 A 
ATOM     87  C   UNL A   1      46.183  34.915  31.043  1.00  0.00     0.002 A 
ATOM     88  C   UNL A   1      45.469  35.760  28.883  1.00  0.00     0.091 A 
ATOM     89  F   UNL A   1      44.083  34.394  27.502  1.00  0.00    -0.205 F 
ATOM     90  C   UNL A   1      46.163  35.932  30.092  1.00  0.00     0.022 A 
BRANCH  88  91
ATOM     91  S   UNL A   1      45.585  37.084  27.674  1.00  0.00     0.127 S 
ATOM     92  O   UNL A   1      46.001  36.358  26.476  1.00  0.00    -0.237 OA
ATOM     93  O   UNL A   1      44.213  37.591  27.635  1.00  0.00    -0.237 OA
ATOM     94  O   UNL A   1      46.563  38.026  28.204  1.00  0.00    -0.744 OA
ENDBRANCH  88  91
ENDBRANCH  61  84
ENDBRANCH  35  36
ENDBRANCH  27  30
ENDBRANCH  25  26
ENDBRANCH  24  25
ENDBRANCH   1  24
TORSDOF 18
ENDMDL
