MODEL 1
REMARK VINA RESULT:     -11.7      0.000      0.000
REMARK SMILES C[C@@H](c1ccccn1)S(=O)(=O)N1CC[NH2+]C[C@@H]1C(=O)NCCCCNC(=O)c1ccc(-c2c3nc(c(-c4cccc(S(=O)(=O)[O-])c4F)c4ccc([nH]4)c(-c4cccc(S(=O)(=O)[O-])c4F)c4nc(c(-c5cccc(S(=O)(=O)[O-])c5F)c5ccc2[nH]5)C=C4)C=C3)cc1
REMARK SMILES IDX 22 1 21 2 20 3 18 4 19 5 17 7 12 8 13 9 14 10 16 11 15 12
REMARK SMILES IDX 9 15 10 16 11 17 2 18 1 19 3 20 4 21 8 22 5 23 7 24 6 25
REMARK SMILES IDX 23 26 24 27 25 28 26 29 27 31 28 32 29 33 90 34 30 35 89 36
REMARK SMILES IDX 31 37 32 38 33 39 83 40 34 41 88 42 82 43 84 44 35 45 87 46
REMARK SMILES IDX 81 47 80 48 36 50 68 51 48 52 67 53 49 54 52 55 66 56 85 57
REMARK SMILES IDX 50 58 51 59 65 61 86 62 53 63 37 64 38 65 46 66 39 67 41 68
REMARK SMILES IDX 47 69 40 70 42 71 43 72 44 73 45 74 69 75 70 76 78 77 71 78
REMARK SMILES IDX 73 79 79 80 72 81 74 82 75 83 76 84 77 85 54 86 55 87 63 88
REMARK SMILES IDX 56 89 58 90 64 91 57 92 59 93 60 94 61 95 62 96
REMARK H PARENT 20 6 15 13 15 14 25 30 84 49 52 60
REMARK Flexibility Score: inf
ROOT
ATOM      1  C   UNL A   1      32.263  27.687  26.962  1.00  0.00     0.023 C 
ENDROOT
BRANCH   1   2
ATOM      2  C   UNL A   1      33.593  27.401  26.269  1.00  0.00     0.116 C 
BRANCH   2   3
ATOM      3  N   UNL A   1      33.793  25.980  26.064  1.00  0.00    -0.355 N 
ATOM      4  C   UNL A   1      33.385  25.168  25.041  1.00  0.00     0.244 C 
ATOM      5  O   UNL A   1      33.622  23.967  25.185  1.00  0.00    -0.273 OA
ATOM      6  H   UNL A   1      34.303  25.528  26.774  1.00  0.00     0.163 HD
BRANCH   4   7
ATOM      7  C   UNL A   1      32.687  25.763  23.792  1.00  0.00     0.216 C 
ATOM      8  N   UNL A   1      31.252  26.171  24.034  1.00  0.00    -0.177 NA
ATOM      9  C   UNL A   1      30.425  24.910  24.275  1.00  0.00     0.164 C 
ATOM     10  C   UNL A   1      30.623  23.847  23.164  1.00  0.00     0.277 C 
ATOM     11  C   UNL A   1      32.787  24.766  22.617  1.00  0.00     0.291 C 
ATOM     12  N   UNL A   1      32.024  23.522  22.833  1.00  0.00    -0.343 N 
ATOM     13  H   UNL A   1      32.050  22.957  21.983  1.00  0.00     0.346 HD
ATOM     14  H   UNL A   1      32.442  23.000  23.603  1.00  0.00     0.346 HD
BRANCH   8  15
ATOM     15  S   UNL A   1      30.449  27.213  22.948  1.00  0.00     0.223 S 
ATOM     16  O   UNL A   1      29.059  27.188  23.371  1.00  0.00    -0.211 OA
ATOM     17  O   UNL A   1      30.742  26.756  21.604  1.00  0.00    -0.211 OA
BRANCH  15  18
ATOM     18  C   UNL A   1      30.996  28.941  23.140  1.00  0.00     0.170 C 
ATOM     19  C   UNL A   1      32.367  29.194  22.524  1.00  0.00     0.033 C 
BRANCH  18  20
ATOM     20  C   UNL A   1      29.890  29.906  22.790  1.00  0.00     0.060 A 
ATOM     21  C   UNL A   1      29.234  30.692  23.739  1.00  0.00     0.025 A 
ATOM     22  N   UNL A   1      29.517  29.945  21.488  1.00  0.00    -0.260 NA
ATOM     23  C   UNL A   1      28.271  31.610  23.322  1.00  0.00     0.004 A 
ATOM     24  C   UNL A   1      28.573  30.831  21.105  1.00  0.00     0.111 A 
ATOM     25  C   UNL A   1      27.943  31.694  21.976  1.00  0.00     0.020 A 
ENDBRANCH  18  20
ENDBRANCH  15  18
ENDBRANCH   8  15
ENDBRANCH   4   7
ENDBRANCH   2   3
ENDBRANCH   1   2
BRANCH   1  26
ATOM     26  C   UNL A   1      31.751  29.122  26.807  1.00  0.00     0.023 C 
BRANCH  26  27
ATOM     27  C   UNL A   1      32.692  30.079  26.083  1.00  0.00     0.116 C 
BRANCH  27  28
ATOM     28  N   UNL A   1      32.530  31.463  26.507  1.00  0.00    -0.352 N 
ATOM     29  C   UNL A   1      33.285  32.192  27.396  1.00  0.00     0.251 C 
ATOM     30  H   UNL A   1      31.773  31.943  26.102  1.00  0.00     0.163 HD
ATOM     31  O   UNL A   1      32.909  33.310  27.740  1.00  0.00    -0.269 OA
BRANCH  29  32
ATOM     32  C   UNL A   1      34.528  31.617  27.955  1.00  0.00     0.039 A 
ATOM     33  C   UNL A   1      35.657  32.432  28.078  1.00  0.00     0.014 A 
ATOM     34  C   UNL A   1      34.577  30.285  28.375  1.00  0.00     0.014 A 
ATOM     35  C   UNL A   1      36.810  31.931  28.688  1.00  0.00     0.010 A 
ATOM     36  C   UNL A   1      35.696  29.815  29.055  1.00  0.00     0.010 A 
ATOM     37  C   UNL A   1      36.827  30.630  29.218  1.00  0.00    -0.014 A 
BRANCH  37  38
ATOM     38  C   UNL A   1      38.006  30.111  29.959  1.00  0.00     0.031 A 
ATOM     39  C   UNL A   1      38.294  30.579  31.360  1.00  0.00     0.074 A 
ATOM     40  C   UNL A   1      38.876  29.289  29.336  1.00  0.00     0.049 A 
ATOM     41  N   UNL A   1      39.305  30.286  32.136  1.00  0.00    -0.248 NA
ATOM     42  C   UNL A   1      37.336  31.525  31.954  1.00  0.00     0.031 C 
ATOM     43  C   UNL A   1      38.758  28.826  27.953  1.00  0.00     0.029 A 
ATOM     44  N   UNL A   1      40.047  28.723  29.777  1.00  0.00    -0.354 N 
ATOM     45  C   UNL A   1      39.127  31.038  33.291  1.00  0.00     0.074 A 
ATOM     46  C   UNL A   1      37.931  31.829  33.097  1.00  0.00     0.031 C 
ATOM     47  C   UNL A   1      39.810  28.046  27.659  1.00  0.00     0.029 A 
ATOM     48  C   UNL A   1      40.695  27.981  28.818  1.00  0.00     0.049 A 
ATOM     49  H   UNL A   1      40.389  28.836  30.693  1.00  0.00     0.167 HD
ATOM     50  C   UNL A   1      39.873  31.051  34.422  1.00  0.00     0.034 A 
ATOM     51  C   UNL A   1      41.876  27.333  28.857  1.00  0.00     0.034 A 
ATOM     52  C   UNL A   1      41.045  30.241  34.623  1.00  0.00     0.049 A 
ATOM     53  C   UNL A   1      42.673  27.335  30.133  1.00  0.00     0.074 A 
ATOM     54  C   UNL A   1      41.815  30.112  35.766  1.00  0.00     0.029 A 
ATOM     55  N   UNL A   1      41.629  29.439  33.655  1.00  0.00    -0.354 N 
ATOM     56  N   UNL A   1      42.403  27.924  31.272  1.00  0.00    -0.248 NA
ATOM     57  C   UNL A   1      43.919  26.554  30.141  1.00  0.00     0.031 C 
ATOM     58  C   UNL A   1      42.887  29.261  35.475  1.00  0.00     0.029 A 
ATOM     59  C   UNL A   1      42.761  28.825  34.166  1.00  0.00     0.049 A 
ATOM     60  H   UNL A   1      41.289  29.322  32.739  1.00  0.00     0.167 HD
ATOM     61  C   UNL A   1      43.424  27.557  32.143  1.00  0.00     0.074 A 
ATOM     62  C   UNL A   1      44.308  26.681  31.402  1.00  0.00     0.031 C 
ATOM     63  C   UNL A   1      43.613  27.923  33.435  1.00  0.00     0.034 A 
BRANCH  50  64
ATOM     64  C   UNL A   1      39.420  31.951  35.544  1.00  0.00     0.023 A 
ATOM     65  C   UNL A   1      38.541  31.454  36.529  1.00  0.00     0.012 A 
ATOM     66  C   UNL A   1      39.886  33.276  35.643  1.00  0.00     0.148 A 
ATOM     67  C   UNL A   1      38.092  32.276  37.563  1.00  0.00     0.002 A 
ATOM     68  C   UNL A   1      39.475  34.073  36.706  1.00  0.00     0.091 A 
ATOM     69  F   UNL A   1      40.705  33.740  34.690  1.00  0.00    -0.205 F 
ATOM     70  C   UNL A   1      38.566  33.580  37.657  1.00  0.00     0.022 A 
BRANCH  68  71
ATOM     71  S   UNL A   1      40.097  35.738  36.961  1.00  0.00     0.127 S 
ATOM     72  O   UNL A   1      39.447  36.105  38.219  1.00  0.00    -0.237 OA
ATOM     73  O   UNL A   1      41.539  35.517  37.063  1.00  0.00    -0.237 OA
ATOM     74  O   UNL A   1      39.682  36.504  35.795  1.00  0.00    -0.744 OA
ENDBRANCH  68  71
ENDBRANCH  50  64
BRANCH  51  75
ATOM     75  C   UNL A   1      42.344  26.582  27.658  1.00  0.00     0.023 A 
ATOM     76  C   UNL A   1      43.150  27.231  26.703  1.00  0.00     0.012 A 
ATOM     77  C   UNL A   1      42.038  25.219  27.487  1.00  0.00     0.148 A 
ATOM     78  C   UNL A   1      43.624  26.541  25.586  1.00  0.00     0.002 A 
ATOM     79  C   UNL A   1      42.561  24.523  26.404  1.00  0.00     0.091 A 
ATOM     80  F   UNL A   1      41.265  24.623  28.406  1.00  0.00    -0.205 F 
ATOM     81  C   UNL A   1      43.339  25.186  25.443  1.00  0.00     0.022 A 
BRANCH  79  82
ATOM     82  S   UNL A   1      42.363  22.748  26.208  1.00  0.00     0.127 S 
ATOM     83  O   UNL A   1      40.909  22.606  26.217  1.00  0.00    -0.237 OA
ATOM     84  O   UNL A   1      42.999  22.520  24.911  1.00  0.00    -0.237 OA
ATOM     85  O   UNL A   1      43.061  22.146  27.336  1.00  0.00    -0.744 OA
ENDBRANCH  79  82
ENDBRANCH  51  75
BRANCH  63  86
ATOM     86  C   UNL A   1      44.805  27.348  34.159  1.00  0.00     0.023 A 
ATOM     87  C   UNL A   1      46.048  28.009  34.111  1.00  0.00     0.012 A 
ATOM     88  C   UNL A   1      44.668  26.189  34.950  1.00  0.00     0.148 A 
ATOM     89  C   UNL A   1      47.145  27.507  34.812  1.00  0.00     0.002 A 
ATOM     90  C   UNL A   1      45.750  25.726  35.688  1.00  0.00     0.091 A 
ATOM     91  F   UNL A   1      43.483  25.564  34.968  1.00  0.00    -0.205 F 
ATOM     92  C   UNL A   1      46.993  26.375  35.610  1.00  0.00     0.022 A 
BRANCH  90  93
ATOM     93  S   UNL A   1      45.622  24.335  36.819  1.00  0.00     0.127 S 
ATOM     94  O   UNL A   1      46.965  24.295  37.393  1.00  0.00    -0.237 OA
ATOM     95  O   UNL A   1      44.577  24.782  37.741  1.00  0.00    -0.237 OA
ATOM     96  O   UNL A   1      45.258  23.184  36.003  1.00  0.00    -0.744 OA
ENDBRANCH  90  93
ENDBRANCH  63  86
ENDBRANCH  37  38
ENDBRANCH  29  32
ENDBRANCH  27  28
ENDBRANCH  26  27
ENDBRANCH   1  26
TORSDOF 17
ENDMDL
MODEL 2
REMARK VINA RESULT:     -11.4      1.808      2.107
REMARK SMILES C[C@@H](c1ccccn1)S(=O)(=O)N1CC[NH2+]C[C@@H]1C(=O)NCCCCNC(=O)c1ccc(-c2c3nc(c(-c4cccc(S(=O)(=O)[O-])c4F)c4ccc([nH]4)c(-c4cccc(S(=O)(=O)[O-])c4F)c4nc(c(-c5cccc(S(=O)(=O)[O-])c5F)c5ccc2[nH]5)C=C4)C=C3)cc1
REMARK SMILES IDX 22 1 21 2 20 3 18 4 19 5 17 7 12 8 13 9 14 10 16 11 15 12
REMARK SMILES IDX 9 15 10 16 11 17 2 18 1 19 3 20 4 21 8 22 5 23 7 24 6 25
REMARK SMILES IDX 23 26 24 27 25 28 26 29 27 31 28 32 29 33 90 34 30 35 89 36
REMARK SMILES IDX 31 37 32 38 33 39 83 40 34 41 88 42 82 43 84 44 35 45 87 46
REMARK SMILES IDX 81 47 80 48 36 50 68 51 48 52 67 53 49 54 52 55 66 56 85 57
REMARK SMILES IDX 50 58 51 59 65 61 86 62 53 63 37 64 38 65 46 66 39 67 41 68
REMARK SMILES IDX 47 69 40 70 42 71 43 72 44 73 45 74 69 75 70 76 78 77 71 78
REMARK SMILES IDX 73 79 79 80 72 81 74 82 75 83 76 84 77 85 54 86 55 87 63 88
REMARK SMILES IDX 56 89 58 90 64 91 57 92 59 93 60 94 61 95 62 96
REMARK H PARENT 20 6 15 13 15 14 25 30 84 49 52 60
REMARK Flexibility Score: inf
ROOT
ATOM      1  C   UNL A   1      32.477  27.683  27.042  1.00  0.00     0.023 C 
ENDROOT
BRANCH   1   2
ATOM      2  C   UNL A   1      33.727  27.298  26.254  1.00  0.00     0.116 C 
BRANCH   2   3
ATOM      3  N   UNL A   1      33.820  25.863  26.071  1.00  0.00    -0.355 N 
ATOM      4  C   UNL A   1      33.340  25.066  25.068  1.00  0.00     0.244 C 
ATOM      5  O   UNL A   1      33.492  23.853  25.230  1.00  0.00    -0.273 OA
ATOM      6  H   UNL A   1      34.305  25.387  26.783  1.00  0.00     0.163 HD
BRANCH   4   7
ATOM      7  C   UNL A   1      32.671  25.689  23.817  1.00  0.00     0.216 C 
ATOM      8  N   UNL A   1      31.250  26.146  24.053  1.00  0.00    -0.177 NA
ATOM      9  C   UNL A   1      30.378  24.914  24.284  1.00  0.00     0.164 C 
ATOM     10  C   UNL A   1      30.546  23.848  23.170  1.00  0.00     0.277 C 
ATOM     11  C   UNL A   1      32.743  24.694  22.639  1.00  0.00     0.291 C 
ATOM     12  N   UNL A   1      31.936  23.476  22.845  1.00  0.00    -0.343 N 
ATOM     13  H   UNL A   1      31.947  22.914  21.994  1.00  0.00     0.346 HD
ATOM     14  H   UNL A   1      32.331  22.937  23.616  1.00  0.00     0.346 HD
BRANCH   8  15
ATOM     15  S   UNL A   1      30.489  27.219  22.965  1.00  0.00     0.223 S 
ATOM     16  O   UNL A   1      29.083  27.179  23.330  1.00  0.00    -0.211 OA
ATOM     17  O   UNL A   1      30.840  26.804  21.622  1.00  0.00    -0.211 OA
BRANCH  15  18
ATOM     18  C   UNL A   1      31.023  28.941  23.232  1.00  0.00     0.170 C 
ATOM     19  C   UNL A   1      32.419  29.215  22.684  1.00  0.00     0.033 C 
BRANCH  18  20
ATOM     20  C   UNL A   1      29.930  29.915  22.864  1.00  0.00     0.060 A 
ATOM     21  C   UNL A   1      29.299  30.741  23.795  1.00  0.00     0.025 A 
ATOM     22  N   UNL A   1      29.545  29.921  21.565  1.00  0.00    -0.260 NA
ATOM     23  C   UNL A   1      28.348  31.663  23.359  1.00  0.00     0.004 A 
ATOM     24  C   UNL A   1      28.613  30.811  21.164  1.00  0.00     0.111 A 
ATOM     25  C   UNL A   1      28.007  31.712  22.015  1.00  0.00     0.020 A 
ENDBRANCH  18  20
ENDBRANCH  15  18
ENDBRANCH   8  15
ENDBRANCH   4   7
ENDBRANCH   2   3
ENDBRANCH   1   2
BRANCH   1  26
ATOM     26  C   UNL A   1      32.020  29.133  26.856  1.00  0.00     0.023 C 
BRANCH  26  27
ATOM     27  C   UNL A   1      33.062  30.080  26.270  1.00  0.00     0.116 C 
BRANCH  27  28
ATOM     28  N   UNL A   1      32.929  31.444  26.761  1.00  0.00    -0.352 N 
ATOM     29  C   UNL A   1      33.720  32.124  27.657  1.00  0.00     0.251 C 
ATOM     30  H   UNL A   1      32.165  31.950  26.402  1.00  0.00     0.163 HD
ATOM     31  O   UNL A   1      33.368  33.229  28.063  1.00  0.00    -0.269 OA
BRANCH  29  32
ATOM     32  C   UNL A   1      34.974  31.512  28.149  1.00  0.00     0.039 A 
ATOM     33  C   UNL A   1      36.141  32.281  28.171  1.00  0.00     0.014 A 
ATOM     34  C   UNL A   1      34.996  30.192  28.605  1.00  0.00     0.014 A 
ATOM     35  C   UNL A   1      37.311  31.748  28.718  1.00  0.00     0.010 A 
ATOM     36  C   UNL A   1      36.139  29.693  29.223  1.00  0.00     0.010 A 
ATOM     37  C   UNL A   1      37.311  30.463  29.285  1.00  0.00    -0.014 A 
BRANCH  37  38
ATOM     38  C   UNL A   1      38.516  29.914  29.961  1.00  0.00     0.031 A 
ATOM     39  C   UNL A   1      38.938  30.435  31.308  1.00  0.00     0.074 A 
ATOM     40  C   UNL A   1      39.288  29.014  29.319  1.00  0.00     0.049 A 
ATOM     41  N   UNL A   1      39.990  30.124  32.021  1.00  0.00    -0.248 NA
ATOM     42  C   UNL A   1      38.083  31.463  31.921  1.00  0.00     0.031 C 
ATOM     43  C   UNL A   1      39.036  28.490  27.976  1.00  0.00     0.029 A 
ATOM     44  N   UNL A   1      40.458  28.404  29.700  1.00  0.00    -0.354 N 
ATOM     45  C   UNL A   1      39.945  30.941  33.143  1.00  0.00     0.074 A 
ATOM     46  C   UNL A   1      38.781  31.789  32.998  1.00  0.00     0.031 C 
ATOM     47  C   UNL A   1      40.018  27.636  27.646  1.00  0.00     0.029 A 
ATOM     48  C   UNL A   1      40.988  27.579  28.736  1.00  0.00     0.049 A 
ATOM     49  H   UNL A   1      40.877  28.543  30.580  1.00  0.00     0.167 HD
ATOM     50  C   UNL A   1      40.777  30.968  34.211  1.00  0.00     0.034 A 
ATOM     51  C   UNL A   1      42.132  26.866  28.720  1.00  0.00     0.034 A 
ATOM     52  C   UNL A   1      41.917  30.103  34.366  1.00  0.00     0.049 A 
ATOM     53  C   UNL A   1      43.027  26.886  29.929  1.00  0.00     0.074 A 
ATOM     54  C   UNL A   1      42.767  29.986  35.452  1.00  0.00     0.029 A 
ATOM     55  N   UNL A   1      42.378  29.221  33.402  1.00  0.00    -0.354 N 
ATOM     56  N   UNL A   1      42.879  27.546  31.052  1.00  0.00    -0.248 NA
ATOM     57  C   UNL A   1      44.225  26.036  29.885  1.00  0.00     0.031 C 
ATOM     58  C   UNL A   1      43.765  29.061  35.127  1.00  0.00     0.029 A 
ATOM     59  C   UNL A   1      43.513  28.569  33.857  1.00  0.00     0.049 A 
ATOM     60  H   UNL A   1      41.961  29.078  32.522  1.00  0.00     0.167 HD
ATOM     61  C   UNL A   1      43.944  27.165  31.861  1.00  0.00     0.074 A 
ATOM     62  C   UNL A   1      44.719  26.204  31.104  1.00  0.00     0.031 C 
ATOM     63  C   UNL A   1      44.255  27.584  33.114  1.00  0.00     0.034 A 
BRANCH  50  64
ATOM     64  C   UNL A   1      40.464  31.947  35.314  1.00  0.00     0.023 A 
ATOM     65  C   UNL A   1      41.231  33.123  35.447  1.00  0.00     0.012 A 
ATOM     66  C   UNL A   1      39.392  31.721  36.200  1.00  0.00     0.148 A 
ATOM     67  C   UNL A   1      40.972  34.031  36.473  1.00  0.00     0.002 A 
ATOM     68  C   UNL A   1      39.108  32.656  37.189  1.00  0.00     0.091 A 
ATOM     69  F   UNL A   1      38.685  30.590  36.075  1.00  0.00    -0.205 F 
ATOM     70  C   UNL A   1      39.906  33.803  37.337  1.00  0.00     0.022 A 
BRANCH  68  71
ATOM     71  S   UNL A   1      37.704  32.494  38.297  1.00  0.00     0.127 S 
ATOM     72  O   UNL A   1      38.059  33.431  39.362  1.00  0.00    -0.237 OA
ATOM     73  O   UNL A   1      36.592  32.929  37.450  1.00  0.00    -0.237 OA
ATOM     74  O   UNL A   1      37.659  31.092  38.684  1.00  0.00    -0.744 OA
ENDBRANCH  68  71
ENDBRANCH  50  64
BRANCH  51  75
ATOM     75  C   UNL A   1      42.462  26.031  27.532  1.00  0.00     0.023 A 
ATOM     76  C   UNL A   1      43.245  26.576  26.495  1.00  0.00     0.012 A 
ATOM     77  C   UNL A   1      42.051  24.687  27.448  1.00  0.00     0.148 A 
ATOM     78  C   UNL A   1      43.591  25.805  25.385  1.00  0.00     0.002 A 
ATOM     79  C   UNL A   1      42.448  23.907  26.369  1.00  0.00     0.091 A 
ATOM     80  F   UNL A   1      41.303  24.191  28.444  1.00  0.00    -0.205 F 
ATOM     81  C   UNL A   1      43.203  24.468  25.327  1.00  0.00     0.022 A 
BRANCH  79  82
ATOM     82  S   UNL A   1      42.114  22.145  26.274  1.00  0.00     0.127 S 
ATOM     83  O   UNL A   1      40.664  22.125  26.097  1.00  0.00    -0.237 OA
ATOM     84  O   UNL A   1      42.886  21.760  25.093  1.00  0.00    -0.237 OA
ATOM     85  O   UNL A   1      42.603  21.582  27.525  1.00  0.00    -0.744 OA
ENDBRANCH  79  82
ENDBRANCH  51  75
BRANCH  63  86
ATOM     86  C   UNL A   1      45.468  26.977  33.774  1.00  0.00     0.023 A 
ATOM     87  C   UNL A   1      45.343  25.798  34.536  1.00  0.00     0.012 A 
ATOM     88  C   UNL A   1      46.745  27.538  33.574  1.00  0.00     0.148 A 
ATOM     89  C   UNL A   1      46.466  25.207  35.115  1.00  0.00     0.002 A 
ATOM     90  C   UNL A   1      47.865  26.914  34.109  1.00  0.00     0.091 A 
ATOM     91  F   UNL A   1      46.841  28.670  32.862  1.00  0.00    -0.205 F 
ATOM     92  C   UNL A   1      47.726  25.756  34.891  1.00  0.00     0.022 A 
BRANCH  90  93
ATOM     93  S   UNL A   1      49.536  27.493  33.790  1.00  0.00     0.127 S 
ATOM     94  O   UNL A   1      50.338  26.430  34.394  1.00  0.00    -0.237 OA
ATOM     95  O   UNL A   1      49.576  27.532  32.328  1.00  0.00    -0.237 OA
ATOM     96  O   UNL A   1      49.641  28.796  34.434  1.00  0.00    -0.744 OA
ENDBRANCH  90  93
ENDBRANCH  63  86
ENDBRANCH  37  38
ENDBRANCH  29  32
ENDBRANCH  27  28
ENDBRANCH  26  27
ENDBRANCH   1  26
TORSDOF 17
ENDMDL
MODEL 3
REMARK VINA RESULT:     -11.3      1.494      2.135
REMARK SMILES C[C@@H](c1ccccn1)S(=O)(=O)N1CC[NH2+]C[C@@H]1C(=O)NCCCCNC(=O)c1ccc(-c2c3nc(c(-c4cccc(S(=O)(=O)[O-])c4F)c4ccc([nH]4)c(-c4cccc(S(=O)(=O)[O-])c4F)c4nc(c(-c5cccc(S(=O)(=O)[O-])c5F)c5ccc2[nH]5)C=C4)C=C3)cc1
REMARK SMILES IDX 22 1 21 2 20 3 18 4 19 5 17 7 12 8 13 9 14 10 16 11 15 12
REMARK SMILES IDX 9 15 10 16 11 17 2 18 1 19 3 20 4 21 8 22 5 23 7 24 6 25
REMARK SMILES IDX 23 26 24 27 25 28 26 29 27 31 28 32 29 33 90 34 30 35 89 36
REMARK SMILES IDX 31 37 32 38 33 39 83 40 34 41 88 42 82 43 84 44 35 45 87 46
REMARK SMILES IDX 81 47 80 48 36 50 68 51 48 52 67 53 49 54 52 55 66 56 85 57
REMARK SMILES IDX 50 58 51 59 65 61 86 62 53 63 37 64 38 65 46 66 39 67 41 68
REMARK SMILES IDX 47 69 40 70 42 71 43 72 44 73 45 74 69 75 70 76 78 77 71 78
REMARK SMILES IDX 73 79 79 80 72 81 74 82 75 83 76 84 77 85 54 86 55 87 63 88
REMARK SMILES IDX 56 89 58 90 64 91 57 92 59 93 60 94 61 95 62 96
REMARK H PARENT 20 6 15 13 15 14 25 30 84 49 52 60
REMARK Flexibility Score: inf
ROOT
ATOM      1  C   UNL A   1      31.716  27.723  26.903  1.00  0.00     0.023 C 
ENDROOT
BRANCH   1   2
ATOM      2  C   UNL A   1      30.991  26.765  25.961  1.00  0.00     0.116 C 
BRANCH   2   3
ATOM      3  N   UNL A   1      30.587  25.551  26.643  1.00  0.00    -0.355 N 
ATOM      4  C   UNL A   1      31.153  24.305  26.642  1.00  0.00     0.244 C 
ATOM      5  O   UNL A   1      30.527  23.434  27.248  1.00  0.00    -0.273 OA
ATOM      6  H   UNL A   1      29.776  25.637  27.194  1.00  0.00     0.163 HD
BRANCH   4   7
ATOM      7  C   UNL A   1      32.505  24.054  25.927  1.00  0.00     0.216 C 
ATOM      8  N   UNL A   1      32.398  24.021  24.420  1.00  0.00    -0.177 NA
ATOM      9  C   UNL A   1      31.604  22.780  24.019  1.00  0.00     0.164 C 
ATOM     10  C   UNL A   1      32.159  21.484  24.663  1.00  0.00     0.277 C 
ATOM     11  C   UNL A   1      33.142  22.754  26.464  1.00  0.00     0.291 C 
ATOM     12  N   UNL A   1      32.381  21.538  26.121  1.00  0.00    -0.343 N 
ATOM     13  H   UNL A   1      32.907  20.715  26.415  1.00  0.00     0.346 HD
ATOM     14  H   UNL A   1      31.480  21.558  26.599  1.00  0.00     0.346 HD
BRANCH   8  15
ATOM     15  S   UNL A   1      33.790  24.180  23.446  1.00  0.00     0.223 S 
ATOM     16  O   UNL A   1      34.073  22.831  22.985  1.00  0.00    -0.211 OA
ATOM     17  O   UNL A   1      34.808  24.839  24.239  1.00  0.00    -0.211 OA
BRANCH  15  18
ATOM     18  C   UNL A   1      33.454  25.158  21.945  1.00  0.00     0.170 C 
ATOM     19  C   UNL A   1      32.903  24.311  20.803  1.00  0.00     0.033 C 
BRANCH  18  20
ATOM     20  C   UNL A   1      32.722  26.435  22.277  1.00  0.00     0.060 A 
ATOM     21  C   UNL A   1      33.364  27.587  22.731  1.00  0.00     0.025 A 
ATOM     22  N   UNL A   1      31.372  26.400  22.159  1.00  0.00    -0.260 NA
ATOM     23  C   UNL A   1      32.620  28.747  22.947  1.00  0.00     0.004 A 
ATOM     24  C   UNL A   1      30.667  27.528  22.385  1.00  0.00     0.111 A 
ATOM     25  C   UNL A   1      31.246  28.724  22.757  1.00  0.00     0.020 A 
ENDBRANCH  18  20
ENDBRANCH  15  18
ENDBRANCH   8  15
ENDBRANCH   4   7
ENDBRANCH   2   3
ENDBRANCH   1   2
BRANCH   1  26
ATOM     26  C   UNL A   1      31.447  29.208  26.644  1.00  0.00     0.023 C 
BRANCH  26  27
ATOM     27  C   UNL A   1      32.649  30.019  26.170  1.00  0.00     0.116 C 
BRANCH  27  28
ATOM     28  N   UNL A   1      32.552  31.430  26.514  1.00  0.00    -0.352 N 
ATOM     29  C   UNL A   1      33.358  32.179  27.340  1.00  0.00     0.251 C 
ATOM     30  H   UNL A   1      31.804  31.917  26.100  1.00  0.00     0.163 HD
ATOM     31  O   UNL A   1      33.036  33.329  27.626  1.00  0.00    -0.269 OA
BRANCH  29  32
ATOM     32  C   UNL A   1      34.593  31.587  27.903  1.00  0.00     0.039 A 
ATOM     33  C   UNL A   1      35.727  32.392  28.044  1.00  0.00     0.014 A 
ATOM     34  C   UNL A   1      34.627  30.251  28.307  1.00  0.00     0.014 A 
ATOM     35  C   UNL A   1      36.871  31.875  28.657  1.00  0.00     0.010 A 
ATOM     36  C   UNL A   1      35.738  29.763  28.990  1.00  0.00     0.010 A 
ATOM     37  C   UNL A   1      36.873  30.567  29.172  1.00  0.00    -0.014 A 
BRANCH  37  38
ATOM     38  C   UNL A   1      38.043  30.030  29.916  1.00  0.00     0.031 A 
ATOM     39  C   UNL A   1      38.346  30.510  31.310  1.00  0.00     0.074 A 
ATOM     40  C   UNL A   1      38.890  29.180  29.302  1.00  0.00     0.049 A 
ATOM     41  N   UNL A   1      39.352  30.204  32.087  1.00  0.00    -0.248 NA
ATOM     42  C   UNL A   1      37.413  31.486  31.894  1.00  0.00     0.031 C 
ATOM     43  C   UNL A   1      38.757  28.702  27.925  1.00  0.00     0.029 A 
ATOM     44  N   UNL A   1      40.049  28.592  29.747  1.00  0.00    -0.354 N 
ATOM     45  C   UNL A   1      39.196  30.975  33.233  1.00  0.00     0.074 A 
ATOM     46  C   UNL A   1      38.019  31.791  33.032  1.00  0.00     0.031 C 
ATOM     47  C   UNL A   1      39.789  27.893  27.639  1.00  0.00     0.029 A 
ATOM     48  C   UNL A   1      40.676  27.823  28.796  1.00  0.00     0.049 A 
ATOM     49  H   UNL A   1      40.397  28.709  30.660  1.00  0.00     0.167 HD
ATOM     50  C   UNL A   1      39.946  30.985  34.360  1.00  0.00     0.034 A 
ATOM     51  C   UNL A   1      41.842  27.147  28.840  1.00  0.00     0.034 A 
ATOM     52  C   UNL A   1      41.099  30.150  34.569  1.00  0.00     0.049 A 
ATOM     53  C   UNL A   1      42.643  27.147  30.113  1.00  0.00     0.074 A 
ATOM     54  C   UNL A   1      41.869  30.017  35.711  1.00  0.00     0.029 A 
ATOM     55  N   UNL A   1      41.660  29.321  33.610  1.00  0.00    -0.354 N 
ATOM     56  N   UNL A   1      42.391  27.757  31.245  1.00  0.00    -0.248 NA
ATOM     57  C   UNL A   1      43.869  26.337  30.127  1.00  0.00     0.031 C 
ATOM     58  C   UNL A   1      42.920  29.137  35.429  1.00  0.00     0.029 A 
ATOM     59  C   UNL A   1      42.779  28.688  34.126  1.00  0.00     0.049 A 
ATOM     60  H   UNL A   1      41.315  29.200  32.697  1.00  0.00     0.167 HD
ATOM     61  C   UNL A   1      43.405  27.378  32.117  1.00  0.00     0.074 A 
ATOM     62  C   UNL A   1      44.266  26.471  31.386  1.00  0.00     0.031 C 
ATOM     63  C   UNL A   1      43.608  27.756  33.404  1.00  0.00     0.034 A 
BRANCH  50  64
ATOM     64  C   UNL A   1      39.518  31.910  35.472  1.00  0.00     0.023 A 
ATOM     65  C   UNL A   1      38.608  31.457  36.450  1.00  0.00     0.012 A 
ATOM     66  C   UNL A   1      40.038  33.215  35.569  1.00  0.00     0.148 A 
ATOM     67  C   UNL A   1      38.182  32.303  37.474  1.00  0.00     0.002 A 
ATOM     68  C   UNL A   1      39.649  34.035  36.622  1.00  0.00     0.091 A 
ATOM     69  F   UNL A   1      40.886  33.639  34.621  1.00  0.00    -0.205 F 
ATOM     70  C   UNL A   1      38.709  33.587  37.565  1.00  0.00     0.022 A 
BRANCH  68  71
ATOM     71  S   UNL A   1      40.335  35.675  36.874  1.00  0.00     0.127 S 
ATOM     72  O   UNL A   1      39.618  36.453  35.864  1.00  0.00    -0.237 OA
ATOM     73  O   UNL A   1      39.945  35.964  38.254  1.00  0.00    -0.237 OA
ATOM     74  O   UNL A   1      41.770  35.546  36.664  1.00  0.00    -0.744 OA
ENDBRANCH  68  71
ENDBRANCH  50  64
BRANCH  51  75
ATOM     75  C   UNL A   1      42.288  26.370  27.649  1.00  0.00     0.023 A 
ATOM     76  C   UNL A   1      43.077  26.997  26.666  1.00  0.00     0.012 A 
ATOM     77  C   UNL A   1      41.978  25.003  27.515  1.00  0.00     0.148 A 
ATOM     78  C   UNL A   1      43.530  26.282  25.556  1.00  0.00     0.002 A 
ATOM     79  C   UNL A   1      42.481  24.282  26.437  1.00  0.00     0.091 A 
ATOM     80  F   UNL A   1      41.222  24.428  28.460  1.00  0.00    -0.205 F 
ATOM     81  C   UNL A   1      43.242  24.924  25.448  1.00  0.00     0.022 A 
BRANCH  79  82
ATOM     82  S   UNL A   1      42.280  22.504  26.285  1.00  0.00     0.127 S 
ATOM     83  O   UNL A   1      40.826  22.365  26.303  1.00  0.00    -0.237 OA
ATOM     84  O   UNL A   1      42.910  22.244  24.991  1.00  0.00    -0.237 OA
ATOM     85  O   UNL A   1      42.982  21.927  27.424  1.00  0.00    -0.744 OA
ENDBRANCH  79  82
ENDBRANCH  51  75
BRANCH  63  86
ATOM     86  C   UNL A   1      44.788  27.162  34.132  1.00  0.00     0.023 A 
ATOM     87  C   UNL A   1      46.046  27.794  34.074  1.00  0.00     0.012 A 
ATOM     88  C   UNL A   1      44.627  26.016  34.936  1.00  0.00     0.148 A 
ATOM     89  C   UNL A   1      47.132  27.276  34.779  1.00  0.00     0.002 A 
ATOM     90  C   UNL A   1      45.700  25.537  35.677  1.00  0.00     0.091 A 
ATOM     91  F   UNL A   1      43.427  25.418  34.964  1.00  0.00    -0.205 F 
ATOM     92  C   UNL A   1      46.957  26.157  35.590  1.00  0.00     0.022 A 
BRANCH  90  93
ATOM     93  S   UNL A   1      45.543  24.162  36.824  1.00  0.00     0.127 S 
ATOM     94  O   UNL A   1      44.498  24.645  37.725  1.00  0.00    -0.237 OA
ATOM     95  O   UNL A   1      45.131  23.069  35.942  1.00  0.00    -0.237 OA
ATOM     96  O   UNL A   1      46.857  23.989  37.428  1.00  0.00    -0.744 OA
ENDBRANCH  90  93
ENDBRANCH  63  86
ENDBRANCH  37  38
ENDBRANCH  29  32
ENDBRANCH  27  28
ENDBRANCH  26  27
ENDBRANCH   1  26
TORSDOF 17
ENDMDL
