MODEL 1
REMARK VINA RESULT:     -11.7      0.000      0.000
REMARK SMILES C[C@H](C1CC1)n1c(SCC(=O)NCCCCNC(=O)c2ccc(-c3c4nc(c(-c5cccc(S(=O)(=O)[O-])c5F)c5ccc([nH]5)c(-c5cccc(S(=O)(=O)[O-])c5F)c5nc(c(-c6cccc(S(=O)(=O)[O-])c6F)c6ccc3[nH]6)C=C5)C=C4)cc2)nc2cc(Cl)c(Cl)cc21
REMARK SMILES IDX 14 1 13 2 12 3 10 4 11 5 9 7 8 8 7 9 6 10 91 11 83 12 84 13
REMARK SMILES IDX 90 14 85 15 88 16 86 17 89 18 87 19 2 20 1 21 3 22 4 23 5 24
REMARK SMILES IDX 15 25 16 26 17 27 18 28 19 30 20 31 21 32 82 33 22 34 81 35
REMARK SMILES IDX 23 36 24 37 25 38 75 39 26 40 80 41 74 42 76 43 27 44 79 45
REMARK SMILES IDX 73 46 72 47 28 49 60 50 40 51 59 52 41 53 44 54 58 55 77 56
REMARK SMILES IDX 42 57 43 58 57 60 78 61 45 62 29 63 30 64 38 65 31 66 33 67
REMARK SMILES IDX 39 68 32 69 34 70 35 71 36 72 37 73 61 74 62 75 70 76 63 77
REMARK SMILES IDX 65 78 71 79 64 80 66 81 67 82 68 83 69 84 46 85 47 86 55 87
REMARK SMILES IDX 48 88 50 89 56 90 49 91 51 92 52 93 53 94 54 95
REMARK H PARENT 12 6 17 29 76 48 44 59
REMARK Flexibility Score: inf
ROOT
ATOM      1  C   UNL A   1      31.832  28.940  27.381  1.00  0.00     0.023 C 
ENDROOT
BRANCH   1   2
ATOM      2  C   UNL A   1      31.867  27.753  26.427  1.00  0.00     0.116 C 
BRANCH   2   3
ATOM      3  N   UNL A   1      31.023  26.660  26.865  1.00  0.00    -0.355 N 
ATOM      4  C   UNL A   1      30.476  25.645  26.161  1.00  0.00     0.230 C 
ATOM      5  O   UNL A   1      30.097  24.667  26.818  1.00  0.00    -0.274 OA
ATOM      6  H   UNL A   1      30.816  26.657  27.827  1.00  0.00     0.163 HD
BRANCH   4   7
ATOM      7  C   UNL A   1      30.419  25.604  24.654  1.00  0.00     0.178 C 
BRANCH   7   8
ATOM      8  S   UNL A   1      30.952  24.140  23.810  1.00  0.00    -0.078 SA
BRANCH   8   9
ATOM      9  C   UNL A   1      32.534  23.533  24.141  1.00  0.00     0.169 A 
ATOM     10  N   UNL A   1      33.164  22.317  23.967  1.00  0.00    -0.316 N 
ATOM     11  C   UNL A   1      34.487  22.480  24.404  1.00  0.00     0.071 A 
ATOM     12  N   UNL A   1      33.337  24.384  24.753  1.00  0.00    -0.222 NA
ATOM     13  C   UNL A   1      34.536  23.767  24.916  1.00  0.00     0.091 A 
ATOM     14  C   UNL A   1      35.618  21.646  24.410  1.00  0.00     0.050 A 
ATOM     15  C   UNL A   1      35.716  24.253  25.500  1.00  0.00     0.052 A 
ATOM     16  C   UNL A   1      36.799  22.140  24.988  1.00  0.00     0.061 A 
ATOM     17  C   UNL A   1      36.844  23.424  25.538  1.00  0.00     0.061 A 
ATOM     18  Cl  UNL A   1      38.165  21.076  24.997  1.00  0.00    -0.083 Cl
ATOM     19  Cl  UNL A   1      38.263  24.041  26.310  1.00  0.00    -0.083 Cl
BRANCH  10  20
ATOM     20  C   UNL A   1      32.705  21.030  23.442  1.00  0.00     0.090 C 
ATOM     21  C   UNL A   1      32.036  21.096  22.080  1.00  0.00     0.032 C 
BRANCH  20  22
ATOM     22  C   UNL A   1      32.236  20.034  24.483  1.00  0.00     0.012 C 
ATOM     23  C   UNL A   1      32.270  18.528  24.359  1.00  0.00     0.006 C 
ATOM     24  C   UNL A   1      33.170  19.215  25.346  1.00  0.00     0.006 C 
ENDBRANCH  20  22
ENDBRANCH  10  20
ENDBRANCH   8   9
ENDBRANCH   7   8
ENDBRANCH   4   7
ENDBRANCH   2   3
ENDBRANCH   1   2
BRANCH   1  25
ATOM     25  C   UNL A   1      32.209  30.297  26.774  1.00  0.00     0.023 C 
BRANCH  25  26
ATOM     26  C   UNL A   1      33.643  30.782  27.015  1.00  0.00     0.116 C 
BRANCH  26  27
ATOM     27  N   UNL A   1      33.854  31.503  28.252  1.00  0.00    -0.352 N 
ATOM     28  C   UNL A   1      34.921  31.695  29.084  1.00  0.00     0.251 C 
ATOM     29  H   UNL A   1      33.041  31.960  28.566  1.00  0.00     0.163 HD
ATOM     30  O   UNL A   1      34.756  32.520  29.985  1.00  0.00    -0.269 OA
BRANCH  28  31
ATOM     31  C   UNL A   1      36.201  30.947  29.007  1.00  0.00     0.039 A 
ATOM     32  C   UNL A   1      36.315  29.588  28.727  1.00  0.00     0.014 A 
ATOM     33  C   UNL A   1      37.370  31.673  29.304  1.00  0.00     0.014 A 
ATOM     34  C   UNL A   1      37.530  28.940  28.869  1.00  0.00     0.010 A 
ATOM     35  C   UNL A   1      38.603  31.036  29.406  1.00  0.00     0.010 A 
ATOM     36  C   UNL A   1      38.668  29.657  29.241  1.00  0.00    -0.014 A 
BRANCH  36  37
ATOM     37  C   UNL A   1      39.901  28.894  29.376  1.00  0.00     0.031 A 
ATOM     38  C   UNL A   1      40.424  28.768  30.764  1.00  0.00     0.074 A 
ATOM     39  C   UNL A   1      40.539  28.316  28.342  1.00  0.00     0.049 A 
ATOM     40  N   UNL A   1      41.519  29.261  31.246  1.00  0.00    -0.248 NA
ATOM     41  C   UNL A   1      39.563  28.122  31.762  1.00  0.00     0.031 C 
ATOM     42  C   UNL A   1      40.059  28.120  26.973  1.00  0.00     0.029 A 
ATOM     43  N   UNL A   1      41.740  27.674  28.349  1.00  0.00    -0.354 N 
ATOM     44  C   UNL A   1      41.583  28.825  32.570  1.00  0.00     0.074 A 
ATOM     45  C   UNL A   1      40.297  28.251  32.868  1.00  0.00     0.031 C 
ATOM     46  C   UNL A   1      40.839  27.198  26.362  1.00  0.00     0.029 A 
ATOM     47  C   UNL A   1      41.944  26.863  27.242  1.00  0.00     0.049 A 
ATOM     48  H   UNL A   1      42.401  27.773  29.071  1.00  0.00     0.167 HD
ATOM     49  C   UNL A   1      42.752  28.805  33.267  1.00  0.00     0.034 A 
ATOM     50  C   UNL A   1      42.917  25.935  27.095  1.00  0.00     0.034 A 
ATOM     51  C   UNL A   1      43.762  29.618  32.644  1.00  0.00     0.049 A 
ATOM     52  C   UNL A   1      44.007  26.272  28.037  1.00  0.00     0.074 A 
ATOM     53  C   UNL A   1      43.899  30.957  32.347  1.00  0.00     0.029 A 
ATOM     54  N   UNL A   1      44.741  28.968  31.934  1.00  0.00    -0.354 N 
ATOM     55  N   UNL A   1      44.778  27.315  27.909  1.00  0.00    -0.248 NA
ATOM     56  C   UNL A   1      44.005  25.653  29.353  1.00  0.00     0.031 C 
ATOM     57  C   UNL A   1      44.639  30.990  31.131  1.00  0.00     0.029 A 
ATOM     58  C   UNL A   1      44.930  29.671  30.776  1.00  0.00     0.049 A 
ATOM     59  H   UNL A   1      45.218  28.151  32.206  1.00  0.00     0.167 HD
ATOM     60  C   UNL A   1      45.009  27.739  29.210  1.00  0.00     0.074 A 
ATOM     61  C   UNL A   1      44.620  26.611  30.051  1.00  0.00     0.031 C 
ATOM     62  C   UNL A   1      45.221  29.058  29.497  1.00  0.00     0.034 A 
BRANCH  49  63
ATOM     63  C   UNL A   1      43.116  27.812  34.347  1.00  0.00     0.023 A 
ATOM     64  C   UNL A   1      43.441  28.328  35.624  1.00  0.00     0.012 A 
ATOM     65  C   UNL A   1      43.429  26.455  34.109  1.00  0.00     0.148 A 
ATOM     66  C   UNL A   1      44.102  27.556  36.585  1.00  0.00     0.002 A 
ATOM     67  C   UNL A   1      44.015  25.670  35.096  1.00  0.00     0.091 A 
ATOM     68  F   UNL A   1      43.288  25.939  32.884  1.00  0.00    -0.205 F 
ATOM     69  C   UNL A   1      44.386  26.223  36.323  1.00  0.00     0.022 A 
BRANCH  67  70
ATOM     70  S   UNL A   1      44.347  23.925  34.825  1.00  0.00     0.127 S 
ATOM     71  O   UNL A   1      45.326  23.976  33.745  1.00  0.00    -0.237 OA
ATOM     72  O   UNL A   1      44.878  23.513  36.126  1.00  0.00    -0.237 OA
ATOM     73  O   UNL A   1      43.055  23.335  34.499  1.00  0.00    -0.744 OA
ENDBRANCH  67  70
ENDBRANCH  49  63
BRANCH  50  74
ATOM     74  C   UNL A   1      42.888  24.663  26.342  1.00  0.00     0.023 A 
ATOM     75  C   UNL A   1      43.763  24.472  25.257  1.00  0.00     0.012 A 
ATOM     76  C   UNL A   1      42.191  23.542  26.848  1.00  0.00     0.148 A 
ATOM     77  C   UNL A   1      43.959  23.201  24.706  1.00  0.00     0.002 A 
ATOM     78  C   UNL A   1      42.385  22.281  26.294  1.00  0.00     0.091 A 
ATOM     79  F   UNL A   1      41.409  23.700  27.924  1.00  0.00    -0.205 F 
ATOM     80  C   UNL A   1      43.276  22.104  25.228  1.00  0.00     0.022 A 
BRANCH  78  81
ATOM     81  S   UNL A   1      41.568  20.812  26.934  1.00  0.00     0.127 S 
ATOM     82  O   UNL A   1      41.508  19.959  25.748  1.00  0.00    -0.237 OA
ATOM     83  O   UNL A   1      42.508  20.368  27.961  1.00  0.00    -0.237 OA
ATOM     84  O   UNL A   1      40.268  21.256  27.423  1.00  0.00    -0.744 OA
ENDBRANCH  78  81
ENDBRANCH  50  74
BRANCH  62  85
ATOM     85  C   UNL A   1      45.449  30.020  28.357  1.00  0.00     0.023 A 
ATOM     86  C   UNL A   1      44.372  30.605  27.660  1.00  0.00     0.012 A 
ATOM     87  C   UNL A   1      46.746  30.526  28.157  1.00  0.00     0.148 A 
ATOM     88  C   UNL A   1      44.583  31.667  26.777  1.00  0.00     0.002 A 
ATOM     89  C   UNL A   1      46.943  31.621  27.324  1.00  0.00     0.091 A 
ATOM     90  F   UNL A   1      47.759  29.961  28.833  1.00  0.00    -0.205 F 
ATOM     91  C   UNL A   1      45.866  32.188  26.626  1.00  0.00     0.022 A 
BRANCH  89  92
ATOM     92  S   UNL A   1      48.534  32.448  27.219  1.00  0.00     0.127 S 
ATOM     93  O   UNL A   1      48.887  32.610  28.631  1.00  0.00    -0.237 OA
ATOM     94  O   UNL A   1      49.346  31.464  26.497  1.00  0.00    -0.237 OA
ATOM     95  O   UNL A   1      48.302  33.681  26.486  1.00  0.00    -0.744 OA
ENDBRANCH  89  92
ENDBRANCH  62  85
ENDBRANCH  36  37
ENDBRANCH  28  31
ENDBRANCH  26  27
ENDBRANCH  25  26
ENDBRANCH   1  25
TORSDOF 18
ENDMDL
MODEL 2
REMARK VINA RESULT:     -11.6      1.326      2.358
REMARK SMILES C[C@H](C1CC1)n1c(SCC(=O)NCCCCNC(=O)c2ccc(-c3c4nc(c(-c5cccc(S(=O)(=O)[O-])c5F)c5ccc([nH]5)c(-c5cccc(S(=O)(=O)[O-])c5F)c5nc(c(-c6cccc(S(=O)(=O)[O-])c6F)c6ccc3[nH]6)C=C5)C=C4)cc2)nc2cc(Cl)c(Cl)cc21
REMARK SMILES IDX 14 1 13 2 12 3 10 4 11 5 9 7 8 8 7 9 6 10 91 11 83 12 84 13
REMARK SMILES IDX 90 14 85 15 88 16 86 17 89 18 87 19 2 20 1 21 3 22 4 23 5 24
REMARK SMILES IDX 15 25 16 26 17 27 18 28 19 30 20 31 21 32 82 33 22 34 81 35
REMARK SMILES IDX 23 36 24 37 25 38 75 39 26 40 80 41 74 42 76 43 27 44 79 45
REMARK SMILES IDX 73 46 72 47 28 49 60 50 40 51 59 52 41 53 44 54 58 55 77 56
REMARK SMILES IDX 42 57 43 58 57 60 78 61 45 62 29 63 30 64 38 65 31 66 33 67
REMARK SMILES IDX 39 68 32 69 34 70 35 71 36 72 37 73 61 74 62 75 70 76 63 77
REMARK SMILES IDX 65 78 71 79 64 80 66 81 67 82 68 83 69 84 46 85 47 86 55 87
REMARK SMILES IDX 48 88 50 89 56 90 49 91 51 92 52 93 53 94 54 95
REMARK H PARENT 12 6 17 29 76 48 44 59
REMARK Flexibility Score: inf
ROOT
ATOM      1  C   UNL A   1      32.368  30.010  27.191  1.00  0.00     0.023 C 
ENDROOT
BRANCH   1   2
ATOM      2  C   UNL A   1      32.057  29.141  25.978  1.00  0.00     0.116 C 
BRANCH   2   3
ATOM      3  N   UNL A   1      31.387  27.908  26.333  1.00  0.00    -0.355 N 
ATOM      4  C   UNL A   1      31.798  26.627  26.211  1.00  0.00     0.230 C 
ATOM      5  O   UNL A   1      31.197  25.792  26.901  1.00  0.00    -0.274 OA
ATOM      6  H   UNL A   1      30.491  28.021  26.725  1.00  0.00     0.163 HD
BRANCH   4   7
ATOM      7  C   UNL A   1      32.990  26.202  25.391  1.00  0.00     0.178 C 
BRANCH   7   8
ATOM      8  S   UNL A   1      32.731  25.233  23.930  1.00  0.00    -0.078 SA
BRANCH   8   9
ATOM      9  C   UNL A   1      32.974  23.527  24.023  1.00  0.00     0.169 A 
ATOM     10  N   UNL A   1      33.748  22.697  24.809  1.00  0.00    -0.316 N 
ATOM     11  C   UNL A   1      33.462  21.382  24.415  1.00  0.00     0.071 A 
ATOM     12  N   UNL A   1      32.330  22.824  23.109  1.00  0.00    -0.222 NA
ATOM     13  C   UNL A   1      32.606  21.513  23.333  1.00  0.00     0.091 A 
ATOM     14  C   UNL A   1      33.865  20.118  24.881  1.00  0.00     0.050 A 
ATOM     15  C   UNL A   1      32.155  20.378  22.644  1.00  0.00     0.052 A 
ATOM     16  C   UNL A   1      33.404  18.985  24.192  1.00  0.00     0.061 A 
ATOM     17  C   UNL A   1      32.569  19.112  23.079  1.00  0.00     0.061 A 
ATOM     18  Cl  UNL A   1      33.939  17.447  24.781  1.00  0.00    -0.083 Cl
ATOM     19  Cl  UNL A   1      32.033  17.741  22.173  1.00  0.00    -0.083 Cl
BRANCH  10  20
ATOM     20  C   UNL A   1      34.708  22.963  25.882  1.00  0.00     0.090 C 
ATOM     21  C   UNL A   1      34.106  23.044  27.274  1.00  0.00     0.032 C 
BRANCH  20  22
ATOM     22  C   UNL A   1      35.884  23.838  25.499  1.00  0.00     0.012 C 
ATOM     23  C   UNL A   1      37.268  23.791  26.105  1.00  0.00     0.006 C 
ATOM     24  C   UNL A   1      37.062  23.355  24.682  1.00  0.00     0.006 C 
ENDBRANCH  20  22
ENDBRANCH  10  20
ENDBRANCH   8   9
ENDBRANCH   7   8
ENDBRANCH   4   7
ENDBRANCH   2   3
ENDBRANCH   1   2
BRANCH   1  25
ATOM     25  C   UNL A   1      33.839  30.411  27.366  1.00  0.00     0.023 C 
BRANCH  25  26
ATOM     26  C   UNL A   1      34.111  31.871  27.743  1.00  0.00     0.116 C 
BRANCH  26  27
ATOM     27  N   UNL A   1      34.241  32.130  29.161  1.00  0.00    -0.352 N 
ATOM     28  C   UNL A   1      35.223  31.933  30.091  1.00  0.00     0.251 C 
ATOM     29  H   UNL A   1      33.434  32.546  29.545  1.00  0.00     0.163 HD
ATOM     30  O   UNL A   1      35.023  32.438  31.198  1.00  0.00    -0.269 OA
BRANCH  28  31
ATOM     31  C   UNL A   1      36.445  31.119  29.872  1.00  0.00     0.039 A 
ATOM     32  C   UNL A   1      36.468  29.733  29.746  1.00  0.00     0.014 A 
ATOM     33  C   UNL A   1      37.668  31.817  29.855  1.00  0.00     0.014 A 
ATOM     34  C   UNL A   1      37.672  29.048  29.740  1.00  0.00     0.010 A 
ATOM     35  C   UNL A   1      38.881  31.137  29.805  1.00  0.00     0.010 A 
ATOM     36  C   UNL A   1      38.877  29.747  29.803  1.00  0.00    -0.014 A 
BRANCH  36  37
ATOM     37  C   UNL A   1      40.093  28.946  29.801  1.00  0.00     0.031 A 
ATOM     38  C   UNL A   1      40.736  28.758  31.132  1.00  0.00     0.074 A 
ATOM     39  C   UNL A   1      40.618  28.386  28.696  1.00  0.00     0.049 A 
ATOM     40  N   UNL A   1      41.884  29.203  31.528  1.00  0.00    -0.248 NA
ATOM     41  C   UNL A   1      39.948  28.102  32.183  1.00  0.00     0.031 C 
ATOM     42  C   UNL A   1      40.011  28.250  27.370  1.00  0.00     0.029 A 
ATOM     43  N   UNL A   1      41.794  27.710  28.573  1.00  0.00    -0.354 N 
ATOM     44  C   UNL A   1      42.054  28.720  32.825  1.00  0.00     0.074 A 
ATOM     45  C   UNL A   1      40.783  28.173  33.221  1.00  0.00     0.031 C 
ATOM     46  C   UNL A   1      40.703  27.329  26.663  1.00  0.00     0.029 A 
ATOM     47  C   UNL A   1      41.873  26.933  27.427  1.00  0.00     0.049 A 
ATOM     48  H   UNL A   1      42.520  27.767  29.235  1.00  0.00     0.167 HD
ATOM     49  C   UNL A   1      43.280  28.644  33.412  1.00  0.00     0.034 A 
ATOM     50  C   UNL A   1      42.799  25.983  27.163  1.00  0.00     0.034 A 
ATOM     51  C   UNL A   1      44.254  29.449  32.726  1.00  0.00     0.049 A 
ATOM     52  C   UNL A   1      43.980  26.258  28.012  1.00  0.00     0.074 A 
ATOM     53  C   UNL A   1      44.405  30.794  32.460  1.00  0.00     0.029 A 
ATOM     54  N   UNL A   1      45.144  28.797  31.909  1.00  0.00    -0.354 N 
ATOM     55  N   UNL A   1      44.768  27.283  27.847  1.00  0.00    -0.248 NA
ATOM     56  C   UNL A   1      44.077  25.594  29.303  1.00  0.00     0.031 C 
ATOM     57  C   UNL A   1      45.033  30.848  31.184  1.00  0.00     0.029 A 
ATOM     58  C   UNL A   1      45.249  29.534  30.762  1.00  0.00     0.049 A 
ATOM     59  H   UNL A   1      45.618  27.959  32.111  1.00  0.00     0.167 HD
ATOM     60  C   UNL A   1      45.128  27.655  29.135  1.00  0.00     0.074 A 
ATOM     61  C   UNL A   1      44.782  26.510  29.972  1.00  0.00     0.031 C 
ATOM     62  C   UNL A   1      45.405  28.957  29.443  1.00  0.00     0.034 A 
BRANCH  49  63
ATOM     63  C   UNL A   1      43.708  27.605  34.422  1.00  0.00     0.023 A 
ATOM     64  C   UNL A   1      44.308  28.067  35.619  1.00  0.00     0.012 A 
ATOM     65  C   UNL A   1      43.816  26.224  34.147  1.00  0.00     0.148 A 
ATOM     66  C   UNL A   1      45.032  27.214  36.458  1.00  0.00     0.002 A 
ATOM     67  C   UNL A   1      44.470  25.366  35.026  1.00  0.00     0.091 A 
ATOM     68  F   UNL A   1      43.406  25.739  32.972  1.00  0.00    -0.205 F 
ATOM     69  C   UNL A   1      45.110  25.860  36.165  1.00  0.00     0.022 A 
BRANCH  67  70
ATOM     70  S   UNL A   1      44.546  23.598  34.719  1.00  0.00     0.127 S 
ATOM     71  O   UNL A   1      45.199  23.117  35.932  1.00  0.00    -0.237 OA
ATOM     72  O   UNL A   1      43.129  23.250  34.598  1.00  0.00    -0.237 OA
ATOM     73  O   UNL A   1      45.299  23.455  33.480  1.00  0.00    -0.744 OA
ENDBRANCH  67  70
ENDBRANCH  49  63
BRANCH  50  74
ATOM     74  C   UNL A   1      42.664  24.739  26.376  1.00  0.00     0.023 A 
ATOM     75  C   UNL A   1      43.545  24.487  25.309  1.00  0.00     0.012 A 
ATOM     76  C   UNL A   1      41.843  23.683  26.834  1.00  0.00     0.148 A 
ATOM     77  C   UNL A   1      43.627  23.215  24.730  1.00  0.00     0.002 A 
ATOM     78  C   UNL A   1      41.924  22.423  26.252  1.00  0.00     0.091 A 
ATOM     79  F   UNL A   1      41.050  23.894  27.893  1.00  0.00    -0.205 F 
ATOM     80  C   UNL A   1      42.823  22.182  25.205  1.00  0.00     0.022 A 
BRANCH  78  81
ATOM     81  S   UNL A   1      40.945  21.029  26.832  1.00  0.00     0.127 S 
ATOM     82  O   UNL A   1      41.816  19.897  26.518  1.00  0.00    -0.237 OA
ATOM     83  O   UNL A   1      40.814  21.325  28.256  1.00  0.00    -0.237 OA
ATOM     84  O   UNL A   1      39.704  21.065  26.066  1.00  0.00    -0.744 OA
ENDBRANCH  78  81
ENDBRANCH  50  74
BRANCH  62  85
ATOM     85  C   UNL A   1      45.560  29.950  28.318  1.00  0.00     0.023 A 
ATOM     86  C   UNL A   1      44.439  30.536  27.694  1.00  0.00     0.012 A 
ATOM     87  C   UNL A   1      46.837  30.482  28.063  1.00  0.00     0.148 A 
ATOM     88  C   UNL A   1      44.589  31.623  26.829  1.00  0.00     0.002 A 
ATOM     89  C   UNL A   1      46.975  31.600  27.251  1.00  0.00     0.091 A 
ATOM     90  F   UNL A   1      47.892  29.916  28.671  1.00  0.00    -0.205 F 
ATOM     91  C   UNL A   1      45.854  32.168  26.624  1.00  0.00     0.022 A 
BRANCH  89  92
ATOM     92  S   UNL A   1      48.545  32.454  27.084  1.00  0.00     0.127 S 
ATOM     93  O   UNL A   1      49.373  31.444  26.422  1.00  0.00    -0.237 OA
ATOM     94  O   UNL A   1      48.187  33.598  26.238  1.00  0.00    -0.237 OA
ATOM     95  O   UNL A   1      48.956  32.816  28.430  1.00  0.00    -0.744 OA
ENDBRANCH  89  92
ENDBRANCH  62  85
ENDBRANCH  36  37
ENDBRANCH  28  31
ENDBRANCH  26  27
ENDBRANCH  25  26
ENDBRANCH   1  25
TORSDOF 18
ENDMDL
MODEL 3
REMARK VINA RESULT:     -11.6      1.481      2.049
REMARK SMILES C[C@H](C1CC1)n1c(SCC(=O)NCCCCNC(=O)c2ccc(-c3c4nc(c(-c5cccc(S(=O)(=O)[O-])c5F)c5ccc([nH]5)c(-c5cccc(S(=O)(=O)[O-])c5F)c5nc(c(-c6cccc(S(=O)(=O)[O-])c6F)c6ccc3[nH]6)C=C5)C=C4)cc2)nc2cc(Cl)c(Cl)cc21
REMARK SMILES IDX 14 1 13 2 12 3 10 4 11 5 9 7 8 8 7 9 6 10 91 11 83 12 84 13
REMARK SMILES IDX 90 14 85 15 88 16 86 17 89 18 87 19 2 20 1 21 3 22 4 23 5 24
REMARK SMILES IDX 15 25 16 26 17 27 18 28 19 30 20 31 21 32 82 33 22 34 81 35
REMARK SMILES IDX 23 36 24 37 25 38 75 39 26 40 80 41 74 42 76 43 27 44 79 45
REMARK SMILES IDX 73 46 72 47 28 49 60 50 40 51 59 52 41 53 44 54 58 55 77 56
REMARK SMILES IDX 42 57 43 58 57 60 78 61 45 62 29 63 30 64 38 65 31 66 33 67
REMARK SMILES IDX 39 68 32 69 34 70 35 71 36 72 37 73 61 74 62 75 70 76 63 77
REMARK SMILES IDX 65 78 71 79 64 80 66 81 67 82 68 83 69 84 46 85 47 86 55 87
REMARK SMILES IDX 48 88 50 89 56 90 49 91 51 92 52 93 53 94 54 95
REMARK H PARENT 12 6 17 29 76 48 44 59
REMARK Flexibility Score: inf
ROOT
ATOM      1  C   UNL A   1      31.872  30.253  26.034  1.00  0.00     0.023 C 
ENDROOT
BRANCH   1   2
ATOM      2  C   UNL A   1      31.745  29.412  24.770  1.00  0.00     0.116 C 
BRANCH   2   3
ATOM      3  N   UNL A   1      32.984  29.334  24.025  1.00  0.00    -0.355 N 
ATOM      4  C   UNL A   1      33.542  28.295  23.368  1.00  0.00     0.230 C 
ATOM      5  O   UNL A   1      34.410  28.579  22.533  1.00  0.00    -0.274 OA
ATOM      6  H   UNL A   1      33.501  30.171  23.993  1.00  0.00     0.163 HD
BRANCH   4   7
ATOM      7  C   UNL A   1      33.085  26.865  23.517  1.00  0.00     0.178 C 
BRANCH   7   8
ATOM      8  S   UNL A   1      33.442  25.998  25.021  1.00  0.00    -0.078 SA
BRANCH   8   9
ATOM      9  C   UNL A   1      33.768  24.305  24.934  1.00  0.00     0.169 A 
ATOM     10  N   UNL A   1      32.994  23.174  24.769  1.00  0.00    -0.316 N 
ATOM     11  C   UNL A   1      33.874  22.082  24.740  1.00  0.00     0.071 A 
ATOM     12  N   UNL A   1      35.032  23.974  25.122  1.00  0.00    -0.222 NA
ATOM     13  C   UNL A   1      35.122  22.624  25.000  1.00  0.00     0.091 A 
ATOM     14  C   UNL A   1      33.704  20.703  24.526  1.00  0.00     0.050 A 
ATOM     15  C   UNL A   1      36.248  21.794  25.102  1.00  0.00     0.052 A 
ATOM     16  C   UNL A   1      34.836  19.877  24.621  1.00  0.00     0.061 A 
ATOM     17  C   UNL A   1      36.092  20.414  24.919  1.00  0.00     0.061 A 
ATOM     18  Cl  UNL A   1      34.585  18.182  24.374  1.00  0.00    -0.083 Cl
ATOM     19  Cl  UNL A   1      37.494  19.419  25.102  1.00  0.00    -0.083 Cl
BRANCH  10  20
ATOM     20  C   UNL A   1      31.551  22.974  24.625  1.00  0.00     0.090 C 
ATOM     21  C   UNL A   1      30.903  23.767  23.503  1.00  0.00     0.032 C 
BRANCH  20  22
ATOM     22  C   UNL A   1      30.800  22.710  25.915  1.00  0.00     0.012 C 
ATOM     23  C   UNL A   1      31.314  22.953  27.315  1.00  0.00     0.006 C 
ATOM     24  C   UNL A   1      30.195  23.797  26.774  1.00  0.00     0.006 C 
ENDBRANCH  20  22
ENDBRANCH  10  20
ENDBRANCH   8   9
ENDBRANCH   7   8
ENDBRANCH   4   7
ENDBRANCH   2   3
ENDBRANCH   1   2
BRANCH   1  25
ATOM     25  C   UNL A   1      32.926  29.784  27.046  1.00  0.00     0.023 C 
BRANCH  25  26
ATOM     26  C   UNL A   1      34.134  30.703  27.252  1.00  0.00     0.116 C 
BRANCH  26  27
ATOM     27  N   UNL A   1      34.094  31.523  28.445  1.00  0.00    -0.352 N 
ATOM     28  C   UNL A   1      34.991  31.843  29.424  1.00  0.00     0.251 C 
ATOM     29  H   UNL A   1      33.217  31.949  28.581  1.00  0.00     0.163 HD
ATOM     30  O   UNL A   1      34.633  32.718  30.215  1.00  0.00    -0.269 OA
BRANCH  28  31
ATOM     31  C   UNL A   1      36.303  31.175  29.622  1.00  0.00     0.039 A 
ATOM     32  C   UNL A   1      37.542  31.796  29.489  1.00  0.00     0.014 A 
ATOM     33  C   UNL A   1      36.267  29.796  29.905  1.00  0.00     0.014 A 
ATOM     34  C   UNL A   1      38.707  31.048  29.501  1.00  0.00     0.010 A 
ATOM     35  C   UNL A   1      37.437  29.046  29.962  1.00  0.00     0.010 A 
ATOM     36  C   UNL A   1      38.653  29.668  29.704  1.00  0.00    -0.014 A 
BRANCH  36  37
ATOM     37  C   UNL A   1      39.926  28.961  29.692  1.00  0.00     0.031 A 
ATOM     38  C   UNL A   1      40.588  28.816  31.019  1.00  0.00     0.074 A 
ATOM     39  C   UNL A   1      40.485  28.447  28.582  1.00  0.00     0.049 A 
ATOM     40  N   UNL A   1      41.701  29.345  31.411  1.00  0.00    -0.248 NA
ATOM     41  C   UNL A   1      39.858  28.098  32.071  1.00  0.00     0.031 C 
ATOM     42  C   UNL A   1      39.883  28.271  27.259  1.00  0.00     0.029 A 
ATOM     43  N   UNL A   1      41.708  27.862  28.450  1.00  0.00    -0.354 N 
ATOM     44  C   UNL A   1      41.914  28.870  32.705  1.00  0.00     0.074 A 
ATOM     45  C   UNL A   1      40.690  28.227  33.105  1.00  0.00     0.031 C 
ATOM     46  C   UNL A   1      40.639  27.408  26.543  1.00  0.00     0.029 A 
ATOM     47  C   UNL A   1      41.839  27.098  27.300  1.00  0.00     0.049 A 
ATOM     48  H   UNL A   1      42.432  27.970  29.109  1.00  0.00     0.167 HD
ATOM     49  C   UNL A   1      43.146  28.884  33.286  1.00  0.00     0.034 A 
ATOM     50  C   UNL A   1      42.833  26.222  27.027  1.00  0.00     0.034 A 
ATOM     51  C   UNL A   1      44.053  29.763  32.598  1.00  0.00     0.049 A 
ATOM     52  C   UNL A   1      43.994  26.581  27.871  1.00  0.00     0.074 A 
ATOM     53  C   UNL A   1      44.100  31.117  32.338  1.00  0.00     0.029 A 
ATOM     54  N   UNL A   1      44.985  29.184  31.774  1.00  0.00    -0.354 N 
ATOM     55  N   UNL A   1      44.702  27.663  27.707  1.00  0.00    -0.248 NA
ATOM     56  C   UNL A   1      44.148  25.921  29.158  1.00  0.00     0.031 C 
ATOM     57  C   UNL A   1      44.716  31.223  31.059  1.00  0.00     0.029 A 
ATOM     58  C   UNL A   1      45.028  29.931  30.630  1.00  0.00     0.049 A 
ATOM     59  H   UNL A   1      45.522  28.383  31.970  1.00  0.00     0.167 HD
ATOM     60  C   UNL A   1      45.040  28.056  28.995  1.00  0.00     0.074 A 
ATOM     61  C   UNL A   1      44.786  26.885  29.828  1.00  0.00     0.031 C 
ATOM     62  C   UNL A   1      45.220  29.373  29.307  1.00  0.00     0.034 A 
BRANCH  49  63
ATOM     63  C   UNL A   1      43.657  27.876  34.289  1.00  0.00     0.023 A 
ATOM     64  C   UNL A   1      44.163  28.374  35.513  1.00  0.00     0.012 A 
ATOM     65  C   UNL A   1      43.928  26.522  33.990  1.00  0.00     0.148 A 
ATOM     66  C   UNL A   1      44.952  27.588  36.359  1.00  0.00     0.002 A 
ATOM     67  C   UNL A   1      44.646  25.723  34.873  1.00  0.00     0.091 A 
ATOM     68  F   UNL A   1      43.611  26.023  32.792  1.00  0.00    -0.205 F 
ATOM     69  C   UNL A   1      45.191  26.258  36.042  1.00  0.00     0.022 A 
BRANCH  67  70
ATOM     70  S   UNL A   1      44.931  23.982  34.534  1.00  0.00     0.127 S 
ATOM     71  O   UNL A   1      43.780  23.653  33.699  1.00  0.00    -0.237 OA
ATOM     72  O   UNL A   1      46.216  24.015  33.834  1.00  0.00    -0.237 OA
ATOM     73  O   UNL A   1      44.985  23.340  35.842  1.00  0.00    -0.744 OA
ENDBRANCH  67  70
ENDBRANCH  49  63
BRANCH  50  74
ATOM     74  C   UNL A   1      42.787  24.975  26.235  1.00  0.00     0.023 A 
ATOM     75  C   UNL A   1      43.763  24.735  25.250  1.00  0.00     0.012 A 
ATOM     76  C   UNL A   1      41.947  23.906  26.622  1.00  0.00     0.148 A 
ATOM     77  C   UNL A   1      43.916  23.464  24.683  1.00  0.00     0.002 A 
ATOM     78  C   UNL A   1      42.099  22.646  26.053  1.00  0.00     0.091 A 
ATOM     79  F   UNL A   1      41.061  24.106  27.607  1.00  0.00    -0.205 F 
ATOM     80  C   UNL A   1      43.090  22.418  25.090  1.00  0.00     0.022 A 
BRANCH  78  81
ATOM     81  S   UNL A   1      41.096  21.238  26.549  1.00  0.00     0.127 S 
ATOM     82  O   UNL A   1      39.760  21.653  26.123  1.00  0.00    -0.237 OA
ATOM     83  O   UNL A   1      41.682  20.158  25.758  1.00  0.00    -0.237 OA
ATOM     84  O   UNL A   1      41.257  21.119  27.993  1.00  0.00    -0.744 OA
ENDBRANCH  78  81
ENDBRANCH  50  74
BRANCH  62  85
ATOM     85  C   UNL A   1      45.293  30.381  28.186  1.00  0.00     0.023 A 
ATOM     86  C   UNL A   1      44.127  30.927  27.610  1.00  0.00     0.012 A 
ATOM     87  C   UNL A   1      46.539  30.963  27.888  1.00  0.00     0.148 A 
ATOM     88  C   UNL A   1      44.202  32.026  26.750  1.00  0.00     0.002 A 
ATOM     89  C   UNL A   1      46.602  32.092  27.081  1.00  0.00     0.091 A 
ATOM     90  F   UNL A   1      47.637  30.434  28.450  1.00  0.00    -0.205 F 
ATOM     91  C   UNL A   1      45.437  32.621  26.502  1.00  0.00     0.022 A 
BRANCH  89  92
ATOM     92  S   UNL A   1      48.131  33.008  26.862  1.00  0.00     0.127 S 
ATOM     93  O   UNL A   1      49.072  31.946  26.497  1.00  0.00    -0.237 OA
ATOM     94  O   UNL A   1      47.790  33.922  25.768  1.00  0.00    -0.237 OA
ATOM     95  O   UNL A   1      48.393  33.668  28.129  1.00  0.00    -0.744 OA
ENDBRANCH  89  92
ENDBRANCH  62  85
ENDBRANCH  36  37
ENDBRANCH  28  31
ENDBRANCH  26  27
ENDBRANCH  25  26
ENDBRANCH   1  25
TORSDOF 18
ENDMDL
