MODEL 1
REMARK VINA RESULT:     -11.9      0.000      0.000
REMARK SMILES Cc1ccc(S(=O)(=O)n2cc(C(=O)C(=O)NCC(=O)NCC(=O)NCCCCNC(=O)c3ccc(-c4c5nc(c(-c6cccc(S(=O)(=O)[O-])c6F)c6ccc([nH]6)c(-c6cccc(S(=O)(=O)[O-])c6F)c6nc(c(-c7cccc(S(=O)(=O)[O-])c7F)c7ccc4[nH]7)C=C6)C=C5)cc3)c3ccccc32)cc1
REMARK SMILES IDX 22 1 23 2 24 3 21 5 20 6 18 7 19 8 17 10 16 11 14 12 15 13
REMARK SMILES IDX 12 15 13 16 11 17 9 18 10 19 100 20 95 21 99 22 96 23 98 24
REMARK SMILES IDX 97 25 6 26 7 27 8 28 5 29 1 30 2 31 3 32 102 33 4 34 101 35
REMARK SMILES IDX 25 36 26 37 27 38 28 39 29 40 30 41 31 43 32 44 33 45 94 46
REMARK SMILES IDX 34 47 93 48 35 49 36 50 37 51 87 52 38 53 92 54 86 55 88 56
REMARK SMILES IDX 39 57 91 58 85 59 84 60 40 62 72 63 52 64 71 65 53 66 56 67
REMARK SMILES IDX 70 68 89 69 54 70 55 71 69 73 90 74 57 75 41 76 42 77 50 78
REMARK SMILES IDX 43 79 45 80 51 81 44 82 46 83 47 84 48 85 49 86 73 87 74 88
REMARK SMILES IDX 82 89 75 90 77 91 83 92 76 93 78 94 79 95 80 96 81 97 58 98
REMARK SMILES IDX 59 99 67 100 60 101 62 102 68 103 61 104 63 105 64 106
REMARK SMILES IDX 65 107 66 108
REMARK H PARENT 24 4 20 9 16 14 29 42 88 61 56 72
REMARK Flexibility Score: inf
ROOT
ATOM      1  C   UNL A   1      33.540  21.823  26.535  1.00  0.00     0.239 C 
ATOM      2  O   UNL A   1      33.159  21.988  27.696  1.00  0.00    -0.273 OA
ATOM      3  N   UNL A   1      34.658  21.067  26.326  1.00  0.00    -0.355 N 
ATOM      4  H   UNL A   1      35.181  20.847  27.130  1.00  0.00     0.163 HD
ENDROOT
BRANCH   1   5
ATOM      5  C   UNL A   1      32.686  22.320  25.355  1.00  0.00     0.216 C 
BRANCH   5   6
ATOM      6  N   UNL A   1      31.685  23.314  25.708  1.00  0.00    -0.346 N 
ATOM      7  C   UNL A   1      30.831  24.050  24.946  1.00  0.00     0.239 C 
ATOM      8  O   UNL A   1      30.083  24.830  25.545  1.00  0.00    -0.273 OA
ATOM      9  H   UNL A   1      31.612  23.486  26.675  1.00  0.00     0.164 HD
BRANCH   7  10
ATOM     10  C   UNL A   1      30.710  23.878  23.420  1.00  0.00     0.216 C 
BRANCH  10  11
ATOM     11  N   UNL A   1      31.900  23.392  22.724  1.00  0.00    -0.340 N 
ATOM     12  C   UNL A   1      32.877  24.042  21.998  1.00  0.00     0.292 C 
ATOM     13  O   UNL A   1      33.691  23.364  21.385  1.00  0.00    -0.265 OA
ATOM     14  H   UNL A   1      32.027  22.418  22.783  1.00  0.00     0.164 HD
BRANCH  12  15
ATOM     15  C   UNL A   1      32.935  25.580  21.950  1.00  0.00     0.252 C 
ATOM     16  O   UNL A   1      33.324  26.092  20.902  1.00  0.00    -0.283 OA
BRANCH  15  17
ATOM     17  C   UNL A   1      32.566  26.444  23.078  1.00  0.00     0.054 A 
ATOM     18  N   UNL A   1      32.357  27.398  25.089  1.00  0.00    -0.240 N 
ATOM     19  C   UNL A   1      32.980  26.385  24.397  1.00  0.00     0.117 A 
ATOM     20  C   UNL A   1      31.533  28.134  24.262  1.00  0.00     0.065 A 
ATOM     21  C   UNL A   1      31.645  27.551  22.995  1.00  0.00     0.012 A 
ATOM     22  C   UNL A   1      30.678  29.227  24.497  1.00  0.00     0.028 A 
ATOM     23  C   UNL A   1      30.882  28.093  21.935  1.00  0.00     0.011 A 
ATOM     24  C   UNL A   1      29.918  29.721  23.433  1.00  0.00     0.002 A 
ATOM     25  C   UNL A   1      30.020  29.165  22.165  1.00  0.00     0.001 A 
BRANCH  18  26
ATOM     26  S   UNL A   1      32.510  27.652  26.771  1.00  0.00     0.268 S 
ATOM     27  O   UNL A   1      33.351  26.568  27.232  1.00  0.00    -0.201 OA
ATOM     28  O   UNL A   1      31.155  27.846  27.257  1.00  0.00    -0.201 OA
BRANCH  26  29
ATOM     29  C   UNL A   1      33.403  29.167  27.010  1.00  0.00     0.088 A 
ATOM     30  C   UNL A   1      35.333  32.900  27.948  1.00  0.00     0.044 C 
ATOM     31  C   UNL A   1      34.668  31.598  27.607  1.00  0.00    -0.051 A 
ATOM     32  C   UNL A   1      33.275  31.541  27.468  1.00  0.00     0.005 A 
ATOM     33  C   UNL A   1      35.421  30.435  27.409  1.00  0.00     0.005 A 
ATOM     34  C   UNL A   1      32.642  30.331  27.177  1.00  0.00     0.022 A 
ATOM     35  C   UNL A   1      34.796  29.225  27.097  1.00  0.00     0.022 A 
ENDBRANCH  26  29
ENDBRANCH  18  26
ENDBRANCH  15  17
ENDBRANCH  12  15
ENDBRANCH  10  11
ENDBRANCH   7  10
ENDBRANCH   5   6
ENDBRANCH   1   5
BRANCH   3  36
ATOM     36  C   UNL A   1      35.175  20.548  25.080  1.00  0.00     0.116 C 
BRANCH  36  37
ATOM     37  C   UNL A   1      36.703  20.481  25.012  1.00  0.00     0.023 C 
BRANCH  37  38
ATOM     38  C   UNL A   1      37.373  21.779  24.576  1.00  0.00     0.023 C 
BRANCH  38  39
ATOM     39  C   UNL A   1      37.758  22.676  25.735  1.00  0.00     0.116 C 
BRANCH  39  40
ATOM     40  N   UNL A   1      38.932  22.302  26.481  1.00  0.00    -0.352 N 
ATOM     41  C   UNL A   1      39.910  23.146  26.988  1.00  0.00     0.251 C 
ATOM     42  H   UNL A   1      39.055  21.340  26.650  1.00  0.00     0.163 HD
ATOM     43  O   UNL A   1      40.992  22.652  27.291  1.00  0.00    -0.269 OA
BRANCH  41  44
ATOM     44  C   UNL A   1      39.600  24.578  27.292  1.00  0.00     0.039 A 
ATOM     45  C   UNL A   1      40.142  25.547  26.437  1.00  0.00     0.014 A 
ATOM     46  C   UNL A   1      39.053  24.984  28.506  1.00  0.00     0.014 A 
ATOM     47  C   UNL A   1      40.447  26.810  26.931  1.00  0.00     0.010 A 
ATOM     48  C   UNL A   1      39.428  26.188  29.036  1.00  0.00     0.010 A 
ATOM     49  C   UNL A   1      40.216  27.047  28.276  1.00  0.00    -0.014 A 
BRANCH  49  50
ATOM     50  C   UNL A   1      40.672  28.195  29.021  1.00  0.00     0.031 A 
ATOM     51  C   UNL A   1      39.693  29.235  29.333  1.00  0.00     0.074 A 
ATOM     52  C   UNL A   1      41.867  28.067  29.636  1.00  0.00     0.049 A 
ATOM     53  N   UNL A   1      39.991  30.427  29.695  1.00  0.00    -0.248 NA
ATOM     54  C   UNL A   1      38.257  29.000  29.210  1.00  0.00     0.031 C 
ATOM     55  C   UNL A   1      42.350  28.731  30.835  1.00  0.00     0.029 A 
ATOM     56  N   UNL A   1      42.947  27.290  29.226  1.00  0.00    -0.354 N 
ATOM     57  C   UNL A   1      38.826  30.997  30.168  1.00  0.00     0.074 A 
ATOM     58  C   UNL A   1      37.767  30.145  29.689  1.00  0.00     0.031 C 
ATOM     59  C   UNL A   1      43.677  28.524  30.944  1.00  0.00     0.029 A 
ATOM     60  C   UNL A   1      44.120  27.872  29.721  1.00  0.00     0.049 A 
ATOM     61  H   UNL A   1      42.894  26.471  28.682  1.00  0.00     0.167 HD
ATOM     62  C   UNL A   1      38.925  31.996  31.089  1.00  0.00     0.034 A 
ATOM     63  C   UNL A   1      45.027  28.395  28.837  1.00  0.00     0.034 A 
ATOM     64  C   UNL A   1      40.350  32.269  31.366  1.00  0.00     0.049 A 
ATOM     65  C   UNL A   1      45.064  29.913  28.886  1.00  0.00     0.074 A 
ATOM     66  C   UNL A   1      41.199  31.812  32.362  1.00  0.00     0.029 A 
ATOM     67  N   UNL A   1      41.167  32.777  30.359  1.00  0.00    -0.354 N 
ATOM     68  N   UNL A   1      44.203  30.643  29.539  1.00  0.00    -0.248 NA
ATOM     69  C   UNL A   1      46.080  30.725  28.222  1.00  0.00     0.031 C 
ATOM     70  C   UNL A   1      42.537  31.962  31.900  1.00  0.00     0.029 A 
ATOM     71  C   UNL A   1      42.508  32.541  30.642  1.00  0.00     0.049 A 
ATOM     72  H   UNL A   1      40.840  33.240  29.556  1.00  0.00     0.167 HD
ATOM     73  C   UNL A   1      44.428  31.968  29.297  1.00  0.00     0.074 A 
ATOM     74  C   UNL A   1      45.668  31.967  28.534  1.00  0.00     0.031 C 
ATOM     75  C   UNL A   1      43.549  32.942  29.694  1.00  0.00     0.034 A 
BRANCH  62  76
ATOM     76  C   UNL A   1      37.802  32.494  31.991  1.00  0.00     0.023 A 
ATOM     77  C   UNL A   1      37.801  32.011  33.320  1.00  0.00     0.012 A 
ATOM     78  C   UNL A   1      36.733  33.364  31.656  1.00  0.00     0.148 A 
ATOM     79  C   UNL A   1      36.781  32.304  34.233  1.00  0.00     0.002 A 
ATOM     80  C   UNL A   1      35.692  33.627  32.555  1.00  0.00     0.091 A 
ATOM     81  F   UNL A   1      36.736  34.010  30.491  1.00  0.00    -0.205 F 
ATOM     82  C   UNL A   1      35.713  33.095  33.844  1.00  0.00     0.022 A 
BRANCH  80  83
ATOM     83  S   UNL A   1      34.254  34.631  32.124  1.00  0.00     0.127 S 
ATOM     84  O   UNL A   1      33.882  34.089  30.815  1.00  0.00    -0.237 OA
ATOM     85  O   UNL A   1      33.316  34.310  33.200  1.00  0.00    -0.237 OA
ATOM     86  O   UNL A   1      34.712  36.015  32.089  1.00  0.00    -0.744 OA
ENDBRANCH  80  83
ENDBRANCH  62  76
BRANCH  63  87
ATOM     87  C   UNL A   1      45.131  27.557  27.594  1.00  0.00     0.023 A 
ATOM     88  C   UNL A   1      44.530  28.094  26.426  1.00  0.00     0.012 A 
ATOM     89  C   UNL A   1      46.150  26.600  27.451  1.00  0.00     0.148 A 
ATOM     90  C   UNL A   1      45.085  27.858  25.166  1.00  0.00     0.002 A 
ATOM     91  C   UNL A   1      46.691  26.362  26.188  1.00  0.00     0.091 A 
ATOM     92  F   UNL A   1      46.615  25.982  28.544  1.00  0.00    -0.205 F 
ATOM     93  C   UNL A   1      46.203  27.037  25.056  1.00  0.00     0.022 A 
BRANCH  91  94
ATOM     94  S   UNL A   1      48.105  25.271  25.982  1.00  0.00     0.127 S 
ATOM     95  O   UNL A   1      48.050  24.983  24.552  1.00  0.00    -0.237 OA
ATOM     96  O   UNL A   1      49.229  26.113  26.384  1.00  0.00    -0.237 OA
ATOM     97  O   UNL A   1      47.846  24.149  26.875  1.00  0.00    -0.744 OA
ENDBRANCH  91  94
ENDBRANCH  63  87
BRANCH  75  98
ATOM     98  C   UNL A   1      43.612  34.383  29.228  1.00  0.00     0.023 A 
ATOM     99  C   UNL A   1      43.061  34.797  28.000  1.00  0.00     0.012 A 
ATOM    100  C   UNL A   1      44.117  35.404  30.075  1.00  0.00     0.148 A 
ATOM    101  C   UNL A   1      43.110  36.128  27.578  1.00  0.00     0.002 A 
ATOM    102  C   UNL A   1      44.037  36.742  29.709  1.00  0.00     0.091 A 
ATOM    103  F   UNL A   1      44.704  35.083  31.237  1.00  0.00    -0.205 F 
ATOM    104  C   UNL A   1      43.582  37.105  28.440  1.00  0.00     0.022 A 
BRANCH 102 105
ATOM    105  S   UNL A   1      44.368  38.057  30.888  1.00  0.00     0.127 S 
ATOM    106  O   UNL A   1      43.707  39.197  30.259  1.00  0.00    -0.237 OA
ATOM    107  O   UNL A   1      43.708  37.560  32.098  1.00  0.00    -0.237 OA
ATOM    108  O   UNL A   1      45.819  38.132  30.990  1.00  0.00    -0.744 OA
ENDBRANCH 102 105
ENDBRANCH  75  98
ENDBRANCH  49  50
ENDBRANCH  41  44
ENDBRANCH  39  40
ENDBRANCH  38  39
ENDBRANCH  37  38
ENDBRANCH  36  37
ENDBRANCH   3  36
TORSDOF 21
ENDMDL
MODEL 2
REMARK VINA RESULT:     -11.6      3.283      9.692
REMARK SMILES Cc1ccc(S(=O)(=O)n2cc(C(=O)C(=O)NCC(=O)NCC(=O)NCCCCNC(=O)c3ccc(-c4c5nc(c(-c6cccc(S(=O)(=O)[O-])c6F)c6ccc([nH]6)c(-c6cccc(S(=O)(=O)[O-])c6F)c6nc(c(-c7cccc(S(=O)(=O)[O-])c7F)c7ccc4[nH]7)C=C6)C=C5)cc3)c3ccccc32)cc1
REMARK SMILES IDX 22 1 23 2 24 3 21 5 20 6 18 7 19 8 17 10 16 11 14 12 15 13
REMARK SMILES IDX 12 15 13 16 11 17 9 18 10 19 100 20 95 21 99 22 96 23 98 24
REMARK SMILES IDX 97 25 6 26 7 27 8 28 5 29 1 30 2 31 3 32 102 33 4 34 101 35
REMARK SMILES IDX 25 36 26 37 27 38 28 39 29 40 30 41 31 43 32 44 33 45 94 46
REMARK SMILES IDX 34 47 93 48 35 49 36 50 37 51 87 52 38 53 92 54 86 55 88 56
REMARK SMILES IDX 39 57 91 58 85 59 84 60 40 62 72 63 52 64 71 65 53 66 56 67
REMARK SMILES IDX 70 68 89 69 54 70 55 71 69 73 90 74 57 75 41 76 42 77 50 78
REMARK SMILES IDX 43 79 45 80 51 81 44 82 46 83 47 84 48 85 49 86 73 87 74 88
REMARK SMILES IDX 82 89 75 90 77 91 83 92 76 93 78 94 79 95 80 96 81 97 58 98
REMARK SMILES IDX 59 99 67 100 60 101 62 102 68 103 61 104 63 105 64 106
REMARK SMILES IDX 65 107 66 108
REMARK H PARENT 24 4 20 9 16 14 29 42 88 61 56 72
REMARK Flexibility Score: inf
ROOT
ATOM      1  C   UNL A   1      35.699  33.632  28.497  1.00  0.00     0.239 C 
ATOM      2  O   UNL A   1      34.951  34.591  28.293  1.00  0.00    -0.273 OA
ATOM      3  N   UNL A   1      36.851  33.852  29.197  1.00  0.00    -0.355 N 
ATOM      4  H   UNL A   1      37.087  34.796  29.344  1.00  0.00     0.163 HD
ENDROOT
BRANCH   1   5
ATOM      5  C   UNL A   1      35.264  32.206  28.113  1.00  0.00     0.216 C 
BRANCH   5   6
ATOM      6  N   UNL A   1      33.846  32.063  27.826  1.00  0.00    -0.346 N 
ATOM      7  C   UNL A   1      33.131  31.042  27.279  1.00  0.00     0.239 C 
ATOM      8  O   UNL A   1      31.914  31.217  27.159  1.00  0.00    -0.273 OA
ATOM      9  H   UNL A   1      33.304  32.847  28.073  1.00  0.00     0.164 HD
BRANCH   7  10
ATOM     10  C   UNL A   1      33.760  29.687  26.904  1.00  0.00     0.216 C 
BRANCH  10  11
ATOM     11  N   UNL A   1      34.111  29.498  25.499  1.00  0.00    -0.340 N 
ATOM     12  C   UNL A   1      33.641  28.628  24.536  1.00  0.00     0.292 C 
ATOM     13  O   UNL A   1      34.225  28.580  23.462  1.00  0.00    -0.265 OA
ATOM     14  H   UNL A   1      34.816  30.105  25.178  1.00  0.00     0.164 HD
BRANCH  12  15
ATOM     15  C   UNL A   1      32.419  27.730  24.811  1.00  0.00     0.252 C 
ATOM     16  O   UNL A   1      31.369  28.293  25.110  1.00  0.00    -0.283 OA
BRANCH  15  17
ATOM     17  C   UNL A   1      32.456  26.264  24.744  1.00  0.00     0.054 A 
ATOM     18  N   UNL A   1      32.467  24.080  25.223  1.00  0.00    -0.240 N 
ATOM     19  C   UNL A   1      32.379  25.339  25.771  1.00  0.00     0.117 A 
ATOM     20  C   UNL A   1      32.601  24.142  23.850  1.00  0.00     0.065 A 
ATOM     21  C   UNL A   1      32.601  25.503  23.527  1.00  0.00     0.012 A 
ATOM     22  C   UNL A   1      32.756  23.150  22.862  1.00  0.00     0.028 A 
ATOM     23  C   UNL A   1      32.749  25.873  22.171  1.00  0.00     0.011 A 
ATOM     24  C   UNL A   1      32.928  23.552  21.535  1.00  0.00     0.002 A 
ATOM     25  C   UNL A   1      32.921  24.896  21.189  1.00  0.00     0.001 A 
BRANCH  18  26
ATOM     26  S   UNL A   1      32.499  22.634  26.130  1.00  0.00     0.268 S 
ATOM     27  O   UNL A   1      31.477  21.802  25.533  1.00  0.00    -0.201 OA
ATOM     28  O   UNL A   1      32.448  23.050  27.521  1.00  0.00    -0.201 OA
BRANCH  26  29
ATOM     29  C   UNL A   1      34.067  21.851  25.846  1.00  0.00     0.088 A 
ATOM     30  C   UNL A   1      37.727  19.863  24.759  1.00  0.00     0.044 C 
ATOM     31  C   UNL A   1      36.456  20.557  25.154  1.00  0.00    -0.051 A 
ATOM     32  C   UNL A   1      35.233  19.884  25.053  1.00  0.00     0.005 A 
ATOM     33  C   UNL A   1      36.474  21.871  25.638  1.00  0.00     0.005 A 
ATOM     34  C   UNL A   1      34.040  20.528  25.392  1.00  0.00     0.022 A 
ATOM     35  C   UNL A   1      35.287  22.514  25.998  1.00  0.00     0.022 A 
ENDBRANCH  26  29
ENDBRANCH  18  26
ENDBRANCH  15  17
ENDBRANCH  12  15
ENDBRANCH  10  11
ENDBRANCH   7  10
ENDBRANCH   5   6
ENDBRANCH   1   5
BRANCH   3  36
ATOM     36  C   UNL A   1      37.768  32.883  29.751  1.00  0.00     0.116 C 
BRANCH  36  37
ATOM     37  C   UNL A   1      37.738  32.790  31.279  1.00  0.00     0.023 C 
BRANCH  37  38
ATOM     38  C   UNL A   1      36.417  32.294  31.856  1.00  0.00     0.023 C 
BRANCH  38  39
ATOM     39  C   UNL A   1      36.098  30.860  31.482  1.00  0.00     0.116 C 
BRANCH  39  40
ATOM     40  N   UNL A   1      36.599  29.835  32.363  1.00  0.00    -0.352 N 
ATOM     41  C   UNL A   1      37.656  28.967  32.127  1.00  0.00     0.251 C 
ATOM     42  H   UNL A   1      36.139  29.740  33.228  1.00  0.00     0.163 HD
ATOM     43  O   UNL A   1      37.729  27.954  32.815  1.00  0.00    -0.269 OA
BRANCH  41  44
ATOM     44  C   UNL A   1      38.745  29.334  31.168  1.00  0.00     0.039 A 
ATOM     45  C   UNL A   1      38.470  29.198  29.802  1.00  0.00     0.014 A 
ATOM     46  C   UNL A   1      40.064  29.524  31.572  1.00  0.00     0.014 A 
ATOM     47  C   UNL A   1      39.500  28.905  28.916  1.00  0.00     0.010 A 
ATOM     48  C   UNL A   1      41.077  29.147  30.734  1.00  0.00     0.010 A 
ATOM     49  C   UNL A   1      40.770  28.737  29.440  1.00  0.00    -0.014 A 
BRANCH  49  50
ATOM     50  C   UNL A   1      41.912  28.210  28.733  1.00  0.00     0.031 A 
ATOM     51  C   UNL A   1      42.069  26.757  28.683  1.00  0.00     0.074 A 
ATOM     52  C   UNL A   1      42.554  29.073  27.918  1.00  0.00     0.049 A 
ATOM     53  N   UNL A   1      43.159  26.155  28.381  1.00  0.00    -0.248 NA
ATOM     54  C   UNL A   1      40.974  25.853  29.022  1.00  0.00     0.031 C 
ATOM     55  C   UNL A   1      43.325  28.791  26.718  1.00  0.00     0.029 A 
ATOM     56  N   UNL A   1      42.667  30.452  28.071  1.00  0.00    -0.354 N 
ATOM     57  C   UNL A   1      42.830  24.833  28.162  1.00  0.00     0.074 A 
ATOM     58  C   UNL A   1      41.519  24.670  28.735  1.00  0.00     0.031 C 
ATOM     59  C   UNL A   1      44.011  29.897  26.371  1.00  0.00     0.029 A 
ATOM     60  C   UNL A   1      43.845  30.869  27.440  1.00  0.00     0.049 A 
ATOM     61  H   UNL A   1      42.027  31.034  28.543  1.00  0.00     0.167 HD
ATOM     62  C   UNL A   1      43.622  24.102  27.330  1.00  0.00     0.034 A 
ATOM     63  C   UNL A   1      44.864  31.380  28.202  1.00  0.00     0.034 A 
ATOM     64  C   UNL A   1      44.734  24.944  26.843  1.00  0.00     0.049 A 
ATOM     65  C   UNL A   1      46.048  30.433  28.282  1.00  0.00     0.074 A 
ATOM     66  C   UNL A   1      44.887  25.688  25.683  1.00  0.00     0.029 A 
ATOM     67  N   UNL A   1      45.687  25.420  27.739  1.00  0.00    -0.354 N 
ATOM     68  N   UNL A   1      46.030  29.202  27.849  1.00  0.00    -0.248 NA
ATOM     69  C   UNL A   1      47.349  30.801  28.835  1.00  0.00     0.031 C 
ATOM     70  C   UNL A   1      45.878  26.679  25.925  1.00  0.00     0.029 A 
ATOM     71  C   UNL A   1      46.354  26.522  27.217  1.00  0.00     0.049 A 
ATOM     72  H   UNL A   1      45.865  25.028  28.624  1.00  0.00     0.167 HD
ATOM     73  C   UNL A   1      47.200  28.573  28.165  1.00  0.00     0.074 A 
ATOM     74  C   UNL A   1      48.024  29.644  28.707  1.00  0.00     0.031 C 
ATOM     75  C   UNL A   1      47.367  27.222  28.009  1.00  0.00     0.034 A 
BRANCH  62  76
ATOM     76  C   UNL A   1      43.248  22.777  26.676  1.00  0.00     0.023 A 
ATOM     77  C   UNL A   1      41.898  22.372  26.801  1.00  0.00     0.012 A 
ATOM     78  C   UNL A   1      44.093  21.877  25.979  1.00  0.00     0.148 A 
ATOM     79  C   UNL A   1      41.430  21.137  26.337  1.00  0.00     0.002 A 
ATOM     80  C   UNL A   1      43.636  20.625  25.548  1.00  0.00     0.091 A 
ATOM     81  F   UNL A   1      45.333  22.239  25.653  1.00  0.00    -0.205 F 
ATOM     82  C   UNL A   1      42.305  20.252  25.730  1.00  0.00     0.022 A 
BRANCH  80  83
ATOM     83  S   UNL A   1      44.712  19.404  24.765  1.00  0.00     0.127 S 
ATOM     84  O   UNL A   1      44.039  18.145  25.093  1.00  0.00    -0.237 OA
ATOM     85  O   UNL A   1      44.637  19.781  23.354  1.00  0.00    -0.237 OA
ATOM     86  O   UNL A   1      46.026  19.555  25.381  1.00  0.00    -0.744 OA
ENDBRANCH  80  83
ENDBRANCH  62  76
BRANCH  63  87
ATOM     87  C   UNL A   1      44.338  32.220  29.332  1.00  0.00     0.023 A 
ATOM     88  C   UNL A   1      43.360  33.190  28.987  1.00  0.00     0.012 A 
ATOM     89  C   UNL A   1      44.400  31.767  30.660  1.00  0.00     0.148 A 
ATOM     90  C   UNL A   1      42.336  33.518  29.878  1.00  0.00     0.002 A 
ATOM     91  C   UNL A   1      43.380  32.108  31.548  1.00  0.00     0.091 A 
ATOM     92  F   UNL A   1      45.412  30.968  31.025  1.00  0.00    -0.205 F 
ATOM     93  C   UNL A   1      42.316  32.930  31.140  1.00  0.00     0.022 A 
BRANCH  91  94
ATOM     94  S   UNL A   1      43.332  31.417  33.206  1.00  0.00     0.127 S 
ATOM     95  O   UNL A   1      42.108  32.008  33.737  1.00  0.00    -0.237 OA
ATOM     96  O   UNL A   1      43.250  29.979  32.959  1.00  0.00    -0.237 OA
ATOM     97  O   UNL A   1      44.577  31.847  33.829  1.00  0.00    -0.744 OA
ENDBRANCH  91  94
ENDBRANCH  63  87
BRANCH  75  98
ATOM     98  C   UNL A   1      48.531  26.439  28.582  1.00  0.00     0.023 A 
ATOM     99  C   UNL A   1      49.608  26.007  27.784  1.00  0.00     0.012 A 
ATOM    100  C   UNL A   1      48.647  26.219  29.979  1.00  0.00     0.148 A 
ATOM    101  C   UNL A   1      50.686  25.295  28.316  1.00  0.00     0.002 A 
ATOM    102  C   UNL A   1      49.786  25.632  30.519  1.00  0.00     0.091 A 
ATOM    103  F   UNL A   1      47.640  26.554  30.798  1.00  0.00    -0.205 F 
ATOM    104  C   UNL A   1      50.784  25.122  29.688  1.00  0.00     0.022 A 
BRANCH 102 105
ATOM    105  S   UNL A   1      50.093  25.640  32.289  1.00  0.00     0.127 S 
ATOM    106  O   UNL A   1      51.469  25.157  32.358  1.00  0.00    -0.237 OA
ATOM    107  O   UNL A   1      49.926  27.055  32.626  1.00  0.00    -0.237 OA
ATOM    108  O   UNL A   1      49.077  24.768  32.863  1.00  0.00    -0.744 OA
ENDBRANCH 102 105
ENDBRANCH  75  98
ENDBRANCH  49  50
ENDBRANCH  41  44
ENDBRANCH  39  40
ENDBRANCH  38  39
ENDBRANCH  37  38
ENDBRANCH  36  37
ENDBRANCH   3  36
TORSDOF 21
ENDMDL
MODEL 3
REMARK VINA RESULT:     -11.5      3.366      8.464
REMARK SMILES Cc1ccc(S(=O)(=O)n2cc(C(=O)C(=O)NCC(=O)NCC(=O)NCCCCNC(=O)c3ccc(-c4c5nc(c(-c6cccc(S(=O)(=O)[O-])c6F)c6ccc([nH]6)c(-c6cccc(S(=O)(=O)[O-])c6F)c6nc(c(-c7cccc(S(=O)(=O)[O-])c7F)c7ccc4[nH]7)C=C6)C=C5)cc3)c3ccccc32)cc1
REMARK SMILES IDX 22 1 23 2 24 3 21 5 20 6 18 7 19 8 17 10 16 11 14 12 15 13
REMARK SMILES IDX 12 15 13 16 11 17 9 18 10 19 100 20 95 21 99 22 96 23 98 24
REMARK SMILES IDX 97 25 6 26 7 27 8 28 5 29 1 30 2 31 3 32 102 33 4 34 101 35
REMARK SMILES IDX 25 36 26 37 27 38 28 39 29 40 30 41 31 43 32 44 33 45 94 46
REMARK SMILES IDX 34 47 93 48 35 49 36 50 37 51 87 52 38 53 92 54 86 55 88 56
REMARK SMILES IDX 39 57 91 58 85 59 84 60 40 62 72 63 52 64 71 65 53 66 56 67
REMARK SMILES IDX 70 68 89 69 54 70 55 71 69 73 90 74 57 75 41 76 42 77 50 78
REMARK SMILES IDX 43 79 45 80 51 81 44 82 46 83 47 84 48 85 49 86 73 87 74 88
REMARK SMILES IDX 82 89 75 90 77 91 83 92 76 93 78 94 79 95 80 96 81 97 58 98
REMARK SMILES IDX 59 99 67 100 60 101 62 102 68 103 61 104 63 105 64 106
REMARK SMILES IDX 65 107 66 108
REMARK H PARENT 24 4 20 9 16 14 29 42 88 61 56 72
REMARK Flexibility Score: inf
ROOT
ATOM      1  C   UNL A   1      31.566  23.050  26.673  1.00  0.00     0.239 C 
ATOM      2  O   UNL A   1      30.923  22.792  27.693  1.00  0.00    -0.273 OA
ATOM      3  N   UNL A   1      32.929  23.006  26.743  1.00  0.00    -0.355 N 
ATOM      4  H   UNL A   1      33.308  22.937  27.649  1.00  0.00     0.163 HD
ENDROOT
BRANCH   1   5
ATOM      5  C   UNL A   1      30.847  23.256  25.327  1.00  0.00     0.216 C 
BRANCH   5   6
ATOM      6  N   UNL A   1      30.163  24.532  25.196  1.00  0.00    -0.346 N 
ATOM      7  C   UNL A   1      30.154  25.457  24.197  1.00  0.00     0.239 C 
ATOM      8  O   UNL A   1      29.461  26.464  24.378  1.00  0.00    -0.273 OA
ATOM      9  H   UNL A   1      29.603  24.770  25.970  1.00  0.00     0.164 HD
BRANCH   7  10
ATOM     10  C   UNL A   1      30.884  25.248  22.857  1.00  0.00     0.216 C 
BRANCH  10  11
ATOM     11  N   UNL A   1      32.295  24.876  22.935  1.00  0.00    -0.340 N 
ATOM     12  C   UNL A   1      33.454  25.597  22.734  1.00  0.00     0.292 C 
ATOM     13  O   UNL A   1      34.518  24.993  22.716  1.00  0.00    -0.265 OA
ATOM     14  H   UNL A   1      32.447  23.934  23.175  1.00  0.00     0.164 HD
BRANCH  12  15
ATOM     15  C   UNL A   1      33.411  27.123  22.527  1.00  0.00     0.252 C 
ATOM     16  O   UNL A   1      33.951  27.565  21.515  1.00  0.00    -0.283 OA
BRANCH  15  17
ATOM     17  C   UNL A   1      32.776  28.054  23.468  1.00  0.00     0.054 A 
ATOM     18  N   UNL A   1      32.243  29.295  25.250  1.00  0.00    -0.240 N 
ATOM     19  C   UNL A   1      33.151  28.385  24.758  1.00  0.00     0.117 A 
ATOM     20  C   UNL A   1      31.267  29.581  24.316  1.00  0.00     0.065 A 
ATOM     21  C   UNL A   1      31.579  28.810  23.190  1.00  0.00     0.012 A 
ATOM     22  C   UNL A   1      30.128  30.407  24.351  1.00  0.00     0.028 A 
ATOM     23  C   UNL A   1      30.724  28.884  22.067  1.00  0.00     0.011 A 
ATOM     24  C   UNL A   1      29.290  30.435  23.233  1.00  0.00     0.002 A 
ATOM     25  C   UNL A   1      29.584  29.687  22.101  1.00  0.00     0.001 A 
BRANCH  18  26
ATOM     26  S   UNL A   1      32.268  29.918  26.840  1.00  0.00     0.268 S 
ATOM     27  O   UNL A   1      31.749  28.847  27.663  1.00  0.00    -0.201 OA
ATOM     28  O   UNL A   1      31.621  31.216  26.756  1.00  0.00    -0.201 OA
BRANCH  26  29
ATOM     29  C   UNL A   1      33.964  30.176  27.294  1.00  0.00     0.088 A 
ATOM     30  C   UNL A   1      37.930  31.001  28.751  1.00  0.00     0.044 C 
ATOM     31  C   UNL A   1      36.554  30.708  28.229  1.00  0.00    -0.051 A 
ATOM     32  C   UNL A   1      35.642  31.754  28.038  1.00  0.00     0.005 A 
ATOM     33  C   UNL A   1      36.167  29.400  27.913  1.00  0.00     0.005 A 
ATOM     34  C   UNL A   1      34.350  31.491  27.579  1.00  0.00     0.022 A 
ATOM     35  C   UNL A   1      34.882  29.133  27.434  1.00  0.00     0.022 A 
ENDBRANCH  26  29
ENDBRANCH  18  26
ENDBRANCH  15  17
ENDBRANCH  12  15
ENDBRANCH  10  11
ENDBRANCH   7  10
ENDBRANCH   5   6
ENDBRANCH   1   5
BRANCH   3  36
ATOM     36  C   UNL A   1      33.890  23.047  25.664  1.00  0.00     0.116 C 
BRANCH  36  37
ATOM     37  C   UNL A   1      35.073  23.988  25.910  1.00  0.00     0.023 C 
BRANCH  37  38
ATOM     38  C   UNL A   1      36.417  23.450  25.433  1.00  0.00     0.023 C 
BRANCH  38  39
ATOM     39  C   UNL A   1      37.593  23.983  26.226  1.00  0.00     0.116 C 
BRANCH  39  40
ATOM     40  N   UNL A   1      38.623  23.036  26.572  1.00  0.00    -0.352 N 
ATOM     41  C   UNL A   1      39.969  23.298  26.781  1.00  0.00     0.251 C 
ATOM     42  H   UNL A   1      38.339  22.099  26.671  1.00  0.00     0.163 HD
ATOM     43  O   UNL A   1      40.751  22.353  26.730  1.00  0.00    -0.269 OA
BRANCH  41  44
ATOM     44  C   UNL A   1      40.426  24.660  27.201  1.00  0.00     0.039 A 
ATOM     45  C   UNL A   1      40.510  25.643  26.206  1.00  0.00     0.014 A 
ATOM     46  C   UNL A   1      41.021  24.903  28.436  1.00  0.00     0.014 A 
ATOM     47  C   UNL A   1      41.449  26.661  26.320  1.00  0.00     0.010 A 
ATOM     48  C   UNL A   1      42.012  25.841  28.525  1.00  0.00     0.010 A 
ATOM     49  C   UNL A   1      42.288  26.642  27.421  1.00  0.00    -0.014 A 
BRANCH  49  50
ATOM     50  C   UNL A   1      43.461  27.462  27.603  1.00  0.00     0.031 A 
ATOM     51  C   UNL A   1      44.745  26.917  27.165  1.00  0.00     0.074 A 
ATOM     52  C   UNL A   1      43.238  28.768  27.863  1.00  0.00     0.049 A 
ATOM     53  N   UNL A   1      45.888  27.366  27.533  1.00  0.00    -0.248 NA
ATOM     54  C   UNL A   1      44.827  25.758  26.280  1.00  0.00     0.031 C 
ATOM     55  C   UNL A   1      44.083  29.913  27.567  1.00  0.00     0.029 A 
ATOM     56  N   UNL A   1      42.147  29.320  28.528  1.00  0.00    -0.354 N 
ATOM     57  C   UNL A   1      46.823  26.793  26.695  1.00  0.00     0.074 A 
ATOM     58  C   UNL A   1      46.142  25.691  26.065  1.00  0.00     0.031 C 
ATOM     59  C   UNL A   1      43.612  30.986  28.232  1.00  0.00     0.029 A 
ATOM     60  C   UNL A   1      42.556  30.523  29.118  1.00  0.00     0.049 A 
ATOM     61  H   UNL A   1      41.243  28.932  28.575  1.00  0.00     0.167 HD
ATOM     62  C   UNL A   1      47.990  27.461  26.481  1.00  0.00     0.034 A 
ATOM     63  C   UNL A   1      42.580  30.618  30.485  1.00  0.00     0.034 A 
ATOM     64  C   UNL A   1      47.991  28.713  27.264  1.00  0.00     0.049 A 
ATOM     65  C   UNL A   1      43.997  30.659  31.031  1.00  0.00     0.074 A 
ATOM     66  C   UNL A   1      47.650  30.013  26.925  1.00  0.00     0.029 A 
ATOM     67  N   UNL A   1      47.987  28.660  28.656  1.00  0.00    -0.354 N 
ATOM     68  N   UNL A   1      45.063  30.432  30.313  1.00  0.00    -0.248 NA
ATOM     69  C   UNL A   1      44.327  30.977  32.417  1.00  0.00     0.031 C 
ATOM     70  C   UNL A   1      47.347  30.715  28.125  1.00  0.00     0.029 A 
ATOM     71  C   UNL A   1      47.536  29.858  29.198  1.00  0.00     0.049 A 
ATOM     72  H   UNL A   1      48.266  27.879  29.185  1.00  0.00     0.167 HD
ATOM     73  C   UNL A   1      46.173  30.426  31.107  1.00  0.00     0.074 A 
ATOM     74  C   UNL A   1      45.667  30.858  32.401  1.00  0.00     0.031 C 
ATOM     75  C   UNL A   1      47.397  30.014  30.646  1.00  0.00     0.034 A 
BRANCH  62  76
ATOM     76  C   UNL A   1      48.971  27.203  25.343  1.00  0.00     0.023 A 
ATOM     77  C   UNL A   1      50.248  26.718  25.711  1.00  0.00     0.012 A 
ATOM     78  C   UNL A   1      48.776  27.416  23.955  1.00  0.00     0.148 A 
ATOM     79  C   UNL A   1      51.282  26.527  24.788  1.00  0.00     0.002 A 
ATOM     80  C   UNL A   1      49.821  27.263  23.035  1.00  0.00     0.091 A 
ATOM     81  F   UNL A   1      47.562  27.702  23.486  1.00  0.00    -0.205 F 
ATOM     82  C   UNL A   1      51.077  26.821  23.451  1.00  0.00     0.022 A 
BRANCH  80  83
ATOM     83  S   UNL A   1      49.644  27.641  21.278  1.00  0.00     0.127 S 
ATOM     84  O   UNL A   1      50.974  27.315  20.757  1.00  0.00    -0.237 OA
ATOM     85  O   UNL A   1      48.589  26.716  20.864  1.00  0.00    -0.237 OA
ATOM     86  O   UNL A   1      49.301  29.055  21.192  1.00  0.00    -0.744 OA
ENDBRANCH  80  83
ENDBRANCH  62  76
BRANCH  63  87
ATOM     87  C   UNL A   1      41.423  29.888  31.109  1.00  0.00     0.023 A 
ATOM     88  C   UNL A   1      41.686  28.568  31.559  1.00  0.00     0.012 A 
ATOM     89  C   UNL A   1      40.343  30.590  31.669  1.00  0.00     0.148 A 
ATOM     90  C   UNL A   1      41.042  28.059  32.689  1.00  0.00     0.002 A 
ATOM     91  C   UNL A   1      39.697  30.070  32.790  1.00  0.00     0.091 A 
ATOM     92  F   UNL A   1      39.999  31.774  31.144  1.00  0.00    -0.205 F 
ATOM     93  C   UNL A   1      40.087  28.836  33.338  1.00  0.00     0.022 A 
BRANCH  91  94
ATOM     94  S   UNL A   1      38.422  31.011  33.638  1.00  0.00     0.127 S 
ATOM     95  O   UNL A   1      37.305  30.904  32.704  1.00  0.00    -0.237 OA
ATOM     96  O   UNL A   1      38.240  30.267  34.883  1.00  0.00    -0.237 OA
ATOM     97  O   UNL A   1      38.990  32.341  33.811  1.00  0.00    -0.744 OA
ENDBRANCH  91  94
ENDBRANCH  63  87
BRANCH  75  98
ATOM     98  C   UNL A   1      48.590  29.737  31.539  1.00  0.00     0.023 A 
ATOM     99  C   UNL A   1      49.648  30.657  31.680  1.00  0.00     0.012 A 
ATOM    100  C   UNL A   1      48.629  28.590  32.374  1.00  0.00     0.148 A 
ATOM    101  C   UNL A   1      50.742  30.405  32.511  1.00  0.00     0.002 A 
ATOM    102  C   UNL A   1      49.651  28.414  33.299  1.00  0.00     0.091 A 
ATOM    103  F   UNL A   1      47.686  27.645  32.260  1.00  0.00    -0.205 F 
ATOM    104  C   UNL A   1      50.736  29.291  33.336  1.00  0.00     0.022 A 
BRANCH 102 105
ATOM    105  S   UNL A   1      49.550  27.154  34.577  1.00  0.00     0.127 S 
ATOM    106  O   UNL A   1      48.243  27.428  35.167  1.00  0.00    -0.237 OA
ATOM    107  O   UNL A   1      49.619  25.916  33.796  1.00  0.00    -0.237 OA
ATOM    108  O   UNL A   1      50.704  27.379  35.437  1.00  0.00    -0.744 OA
ENDBRANCH 102 105
ENDBRANCH  75  98
ENDBRANCH  49  50
ENDBRANCH  41  44
ENDBRANCH  39  40
ENDBRANCH  38  39
ENDBRANCH  37  38
ENDBRANCH  36  37
ENDBRANCH   3  36
TORSDOF 21
ENDMDL
