MODEL 1
REMARK VINA RESULT:     -12.4      0.000      0.000
REMARK SMILES CC1(C)CCN(S(=O)(=O)c2ccc(O)c(C(=O)NCCCCNC(=O)c3ccc(-c4c5nc(c(-c6cccc(S(=O)(=O)[O-])c6F)c6ccc([nH]6)c(-c6cccc(S(=O)(=O)[O-])c6F)c6nc(c(-c7cccc(S(=O)(=O)[O-])c7F)c7ccc4[nH]7)C=C6)C=C5)cc3)c2)C1
REMARK SMILES IDX 21 1 20 2 19 3 18 4 16 5 17 6 15 8 10 9 11 10 89 11 12 12
REMARK SMILES IDX 13 13 7 14 8 15 9 16 6 17 1 18 2 19 3 20 4 21 90 22 5 23
REMARK SMILES IDX 14 24 22 26 23 27 24 28 25 30 26 31 27 32 88 33 28 34 87 35
REMARK SMILES IDX 29 36 30 37 31 38 81 39 32 40 86 41 80 42 82 43 33 44 85 45
REMARK SMILES IDX 79 46 78 47 34 49 66 50 46 51 65 52 47 53 50 54 64 55 83 56
REMARK SMILES IDX 48 57 49 58 63 60 84 61 51 62 35 63 36 64 44 65 37 66 39 67
REMARK SMILES IDX 45 68 38 69 40 70 41 71 42 72 43 73 67 74 68 75 76 76 69 77
REMARK SMILES IDX 71 78 77 79 70 80 72 81 73 82 74 83 75 84 52 85 53 86 61 87
REMARK SMILES IDX 54 88 56 89 62 90 55 91 57 92 58 93 59 94 60 95
REMARK H PARENT 18 7 14 25 23 29 82 48 50 59
REMARK Flexibility Score: inf
ROOT
ATOM      1  C   UNL A   1      31.974  31.610  26.703  1.00  0.00     0.023 C 
ENDROOT
BRANCH   1   2
ATOM      2  C   UNL A   1      32.117  30.101  26.887  1.00  0.00     0.023 C 
BRANCH   2   3
ATOM      3  C   UNL A   1      33.493  29.526  26.534  1.00  0.00     0.116 C 
BRANCH   3   4
ATOM      4  N   UNL A   1      33.709  29.537  25.105  1.00  0.00    -0.352 N 
ATOM      5  C   UNL A   1      33.124  28.878  24.058  1.00  0.00     0.255 C 
ATOM      6  O   UNL A   1      33.577  29.163  22.943  1.00  0.00    -0.269 OA
ATOM      7  H   UNL A   1      34.428  30.150  24.826  1.00  0.00     0.163 HD
BRANCH   5   8
ATOM      8  C   UNL A   1      32.002  27.877  24.117  1.00  0.00     0.082 A 
ATOM      9  C   UNL A   1      31.401  25.666  25.012  1.00  0.00     0.083 A 
ATOM     10  C   UNL A   1      30.066  25.884  24.686  1.00  0.00     0.025 A 
ATOM     11  C   UNL A   1      32.358  26.650  24.733  1.00  0.00     0.039 A 
ATOM     12  C   UNL A   1      29.701  27.047  24.027  1.00  0.00     0.048 A 
ATOM     13  C   UNL A   1      30.653  28.041  23.759  1.00  0.00     0.128 A 
BRANCH   9  14
ATOM     14  S   UNL A   1      31.832  24.226  25.961  1.00  0.00     0.243 S 
ATOM     15  O   UNL A   1      30.679  23.890  26.779  1.00  0.00    -0.207 OA
ATOM     16  O   UNL A   1      33.127  24.434  26.560  1.00  0.00    -0.207 OA
BRANCH  14  17
ATOM     17  N   UNL A   1      32.003  22.981  24.803  1.00  0.00    -0.197 NA
ATOM     18  C   UNL A   1      32.234  20.310  23.114  1.00  0.00     0.012 C 
ATOM     19  C   UNL A   1      32.811  20.727  24.474  1.00  0.00    -0.020 C 
ATOM     20  C   UNL A   1      33.215  19.476  25.260  1.00  0.00     0.012 C 
ATOM     21  C   UNL A   1      33.976  21.703  24.319  1.00  0.00     0.024 C 
ATOM     22  C   UNL A   1      31.817  21.580  25.272  1.00  0.00     0.109 C 
ATOM     23  C   UNL A   1      33.298  23.043  24.059  1.00  0.00     0.103 C 
ENDBRANCH  14  17
ENDBRANCH   9  14
BRANCH  13  24
ATOM     24  O   UNL A   1      30.160  29.172  23.191  1.00  0.00    -0.507 OA
ATOM     25  H   UNL A   1      30.743  29.858  22.931  1.00  0.00     0.293 HD
ENDBRANCH  13  24
ENDBRANCH   5   8
ENDBRANCH   3   4
ENDBRANCH   2   3
ENDBRANCH   1   2
BRANCH   1  26
ATOM     26  C   UNL A   1      32.995  32.441  27.468  1.00  0.00     0.116 C 
BRANCH  26  27
ATOM     27  N   UNL A   1      32.593  33.829  27.666  1.00  0.00    -0.352 N 
ATOM     28  C   UNL A   1      33.129  34.745  28.538  1.00  0.00     0.251 C 
ATOM     29  H   UNL A   1      31.848  34.147  27.108  1.00  0.00     0.163 HD
ATOM     30  O   UNL A   1      32.636  35.862  28.657  1.00  0.00    -0.269 OA
BRANCH  28  31
ATOM     31  C   UNL A   1      34.283  34.339  29.367  1.00  0.00     0.039 A 
ATOM     32  C   UNL A   1      34.047  33.714  30.593  1.00  0.00     0.014 A 
ATOM     33  C   UNL A   1      35.585  34.503  28.889  1.00  0.00     0.014 A 
ATOM     34  C   UNL A   1      35.121  33.186  31.310  1.00  0.00     0.010 A 
ATOM     35  C   UNL A   1      36.642  33.912  29.567  1.00  0.00     0.010 A 
ATOM     36  C   UNL A   1      36.423  33.249  30.784  1.00  0.00    -0.014 A 
BRANCH  36  37
ATOM     37  C   UNL A   1      37.573  32.626  31.483  1.00  0.00     0.031 A 
ATOM     38  C   UNL A   1      38.292  31.467  30.850  1.00  0.00     0.074 A 
ATOM     39  C   UNL A   1      37.898  33.032  32.726  1.00  0.00     0.049 A 
ATOM     40  N   UNL A   1      39.259  30.734  31.334  1.00  0.00    -0.248 NA
ATOM     41  C   UNL A   1      37.845  31.058  29.507  1.00  0.00     0.031 C 
ATOM     42  C   UNL A   1      37.215  34.086  33.480  1.00  0.00     0.029 A 
ATOM     43  N   UNL A   1      38.865  32.582  33.589  1.00  0.00    -0.354 N 
ATOM     44  C   UNL A   1      39.507  29.755  30.380  1.00  0.00     0.074 A 
ATOM     45  C   UNL A   1      38.566  29.967  29.302  1.00  0.00     0.031 C 
ATOM     46  C   UNL A   1      37.786  34.203  34.691  1.00  0.00     0.029 A 
ATOM     47  C   UNL A   1      38.857  33.218  34.809  1.00  0.00     0.049 A 
ATOM     48  H   UNL A   1      39.505  31.871  33.357  1.00  0.00     0.167 HD
ATOM     49  C   UNL A   1      40.455  28.790  30.384  1.00  0.00     0.034 A 
ATOM     50  C   UNL A   1      39.625  33.027  35.899  1.00  0.00     0.034 A 
ATOM     51  C   UNL A   1      41.427  28.623  31.429  1.00  0.00     0.049 A 
ATOM     52  C   UNL A   1      40.714  31.989  35.850  1.00  0.00     0.074 A 
ATOM     53  C   UNL A   1      42.487  27.736  31.484  1.00  0.00     0.029 A 
ATOM     54  N   UNL A   1      41.460  29.363  32.601  1.00  0.00    -0.354 N 
ATOM     55  N   UNL A   1      41.039  31.181  34.869  1.00  0.00    -0.248 NA
ATOM     56  C   UNL A   1      41.568  31.861  37.040  1.00  0.00     0.031 C 
ATOM     57  C   UNL A   1      43.158  27.937  32.695  1.00  0.00     0.029 A 
ATOM     58  C   UNL A   1      42.523  28.956  33.386  1.00  0.00     0.049 A 
ATOM     59  H   UNL A   1      40.822  30.074  32.838  1.00  0.00     0.167 HD
ATOM     60  C   UNL A   1      42.156  30.480  35.307  1.00  0.00     0.074 A 
ATOM     61  C   UNL A   1      42.463  30.970  36.635  1.00  0.00     0.031 C 
ATOM     62  C   UNL A   1      42.855  29.505  34.676  1.00  0.00     0.034 A 
BRANCH  49  63
ATOM     63  C   UNL A   1      40.533  27.883  29.185  1.00  0.00     0.023 A 
ATOM     64  C   UNL A   1      39.638  26.798  29.081  1.00  0.00     0.012 A 
ATOM     65  C   UNL A   1      41.444  28.129  28.141  1.00  0.00     0.148 A 
ATOM     66  C   UNL A   1      39.669  25.954  27.973  1.00  0.00     0.002 A 
ATOM     67  C   UNL A   1      41.441  27.307  27.018  1.00  0.00     0.091 A 
ATOM     68  F   UNL A   1      42.303  29.150  28.267  1.00  0.00    -0.205 F 
ATOM     69  C   UNL A   1      40.562  26.214  26.938  1.00  0.00     0.022 A 
BRANCH  67  70
ATOM     70  S   UNL A   1      42.501  27.603  25.599  1.00  0.00     0.127 S 
ATOM     71  O   UNL A   1      43.819  27.684  26.226  1.00  0.00    -0.237 OA
ATOM     72  O   UNL A   1      42.282  26.399  24.795  1.00  0.00    -0.237 OA
ATOM     73  O   UNL A   1      42.021  28.834  24.989  1.00  0.00    -0.744 OA
ENDBRANCH  67  70
ENDBRANCH  49  63
BRANCH  50  74
ATOM     74  C   UNL A   1      39.448  33.894  37.098  1.00  0.00     0.023 A 
ATOM     75  C   UNL A   1      39.877  35.235  37.045  1.00  0.00     0.012 A 
ATOM     76  C   UNL A   1      38.840  33.415  38.275  1.00  0.00     0.148 A 
ATOM     77  C   UNL A   1      39.735  36.074  38.151  1.00  0.00     0.002 A 
ATOM     78  C   UNL A   1      38.654  34.271  39.355  1.00  0.00     0.091 A 
ATOM     79  F   UNL A   1      38.452  32.133  38.313  1.00  0.00    -0.205 F 
ATOM     80  C   UNL A   1      39.115  35.596  39.301  1.00  0.00     0.022 A 
BRANCH  78  81
ATOM     81  S   UNL A   1      37.751  33.774  40.826  1.00  0.00     0.127 S 
ATOM     82  O   UNL A   1      38.703  32.874  41.471  1.00  0.00    -0.237 OA
ATOM     83  O   UNL A   1      37.550  35.053  41.509  1.00  0.00    -0.237 OA
ATOM     84  O   UNL A   1      36.523  33.160  40.337  1.00  0.00    -0.744 OA
ENDBRANCH  78  81
ENDBRANCH  50  74
BRANCH  62  85
ATOM     85  C   UNL A   1      44.048  28.925  35.386  1.00  0.00     0.023 A 
ATOM     86  C   UNL A   1      45.309  29.536  35.245  1.00  0.00     0.012 A 
ATOM     87  C   UNL A   1      43.901  27.833  36.263  1.00  0.00     0.148 A 
ATOM     88  C   UNL A   1      46.412  29.053  35.948  1.00  0.00     0.002 A 
ATOM     89  C   UNL A   1      44.994  27.384  36.994  1.00  0.00     0.091 A 
ATOM     90  F   UNL A   1      42.696  27.252  36.366  1.00  0.00    -0.205 F 
ATOM     91  C   UNL A   1      46.252  27.987  36.831  1.00  0.00     0.022 A 
BRANCH  89  92
ATOM     92  S   UNL A   1      44.857  26.082  38.223  1.00  0.00     0.127 S 
ATOM     93  O   UNL A   1      46.260  25.742  38.457  1.00  0.00    -0.237 OA
ATOM     94  O   UNL A   1      44.203  26.771  39.337  1.00  0.00    -0.237 OA
ATOM     95  O   UNL A   1      44.051  25.035  37.607  1.00  0.00    -0.744 OA
ENDBRANCH  89  92
ENDBRANCH  62  85
ENDBRANCH  36  37
ENDBRANCH  28  31
ENDBRANCH  26  27
ENDBRANCH   1  26
TORSDOF 17
ENDMDL
MODEL 2
REMARK VINA RESULT:     -12.4      2.548      8.099
REMARK SMILES CC1(C)CCN(S(=O)(=O)c2ccc(O)c(C(=O)NCCCCNC(=O)c3ccc(-c4c5nc(c(-c6cccc(S(=O)(=O)[O-])c6F)c6ccc([nH]6)c(-c6cccc(S(=O)(=O)[O-])c6F)c6nc(c(-c7cccc(S(=O)(=O)[O-])c7F)c7ccc4[nH]7)C=C6)C=C5)cc3)c2)C1
REMARK SMILES IDX 21 1 20 2 19 3 18 4 16 5 17 6 15 8 10 9 11 10 89 11 12 12
REMARK SMILES IDX 13 13 7 14 8 15 9 16 6 17 1 18 2 19 3 20 4 21 90 22 5 23
REMARK SMILES IDX 14 24 22 26 23 27 24 28 25 30 26 31 27 32 88 33 28 34 87 35
REMARK SMILES IDX 29 36 30 37 31 38 81 39 32 40 86 41 80 42 82 43 33 44 85 45
REMARK SMILES IDX 79 46 78 47 34 49 66 50 46 51 65 52 47 53 50 54 64 55 83 56
REMARK SMILES IDX 48 57 49 58 63 60 84 61 51 62 35 63 36 64 44 65 37 66 39 67
REMARK SMILES IDX 45 68 38 69 40 70 41 71 42 72 43 73 67 74 68 75 76 76 69 77
REMARK SMILES IDX 71 78 77 79 70 80 72 81 73 82 74 83 75 84 52 85 53 86 61 87
REMARK SMILES IDX 54 88 56 89 62 90 55 91 57 92 58 93 59 94 60 95
REMARK H PARENT 18 7 14 25 23 29 82 48 50 59
REMARK Flexibility Score: inf
ROOT
ATOM      1  C   UNL A   1      32.276  29.355  24.742  1.00  0.00     0.023 C 
ENDROOT
BRANCH   1   2
ATOM      2  C   UNL A   1      33.148  28.234  24.182  1.00  0.00     0.023 C 
BRANCH   2   3
ATOM      3  C   UNL A   1      32.571  27.502  22.965  1.00  0.00     0.116 C 
BRANCH   3   4
ATOM      4  N   UNL A   1      31.137  27.366  23.072  1.00  0.00    -0.352 N 
ATOM      5  C   UNL A   1      30.321  26.526  23.780  1.00  0.00     0.255 C 
ATOM      6  O   UNL A   1      29.109  26.723  23.626  1.00  0.00    -0.269 OA
ATOM      7  H   UNL A   1      30.643  28.017  22.522  1.00  0.00     0.163 HD
BRANCH   5   8
ATOM      8  C   UNL A   1      30.731  25.423  24.716  1.00  0.00     0.082 A 
ATOM      9  C   UNL A   1      31.578  23.114  24.763  1.00  0.00     0.083 A 
ATOM     10  C   UNL A   1      31.839  23.224  26.125  1.00  0.00     0.025 A 
ATOM     11  C   UNL A   1      31.032  24.199  24.066  1.00  0.00     0.039 A 
ATOM     12  C   UNL A   1      31.496  24.386  26.798  1.00  0.00     0.048 A 
ATOM     13  C   UNL A   1      30.963  25.479  26.101  1.00  0.00     0.128 A 
BRANCH   9  14
ATOM     14  S   UNL A   1      32.133  21.665  23.895  1.00  0.00     0.243 S 
ATOM     15  O   UNL A   1      31.525  21.696  22.575  1.00  0.00    -0.207 OA
ATOM     16  O   UNL A   1      31.974  20.518  24.755  1.00  0.00    -0.207 OA
BRANCH  14  17
ATOM     17  N   UNL A   1      33.811  21.907  23.678  1.00  0.00    -0.197 NA
ATOM     18  C   UNL A   1      36.944  22.344  23.867  1.00  0.00     0.012 C 
ATOM     19  C   UNL A   1      35.766  22.954  24.638  1.00  0.00    -0.020 C 
ATOM     20  C   UNL A   1      36.276  23.554  25.952  1.00  0.00     0.012 C 
ATOM     21  C   UNL A   1      35.011  23.983  23.798  1.00  0.00     0.024 C 
ATOM     22  C   UNL A   1      34.664  21.920  24.899  1.00  0.00     0.109 C 
ATOM     23  C   UNL A   1      34.131  23.134  22.887  1.00  0.00     0.103 C 
ENDBRANCH  14  17
ENDBRANCH   9  14
BRANCH  13  24
ATOM     24  O   UNL A   1      30.751  26.593  26.852  1.00  0.00    -0.507 OA
ATOM     25  H   UNL A   1      30.749  26.533  27.787  1.00  0.00     0.293 HD
ENDBRANCH  13  24
ENDBRANCH   5   8
ENDBRANCH   3   4
ENDBRANCH   2   3
ENDBRANCH   1   2
BRANCH   1  26
ATOM     26  C   UNL A   1      32.552  29.706  26.198  1.00  0.00     0.116 C 
BRANCH  26  27
ATOM     27  N   UNL A   1      32.354  31.116  26.510  1.00  0.00    -0.352 N 
ATOM     28  C   UNL A   1      33.181  31.944  27.231  1.00  0.00     0.251 C 
ATOM     29  H   UNL A   1      31.529  31.524  26.162  1.00  0.00     0.163 HD
ATOM     30  O   UNL A   1      32.848  33.097  27.485  1.00  0.00    -0.269 OA
BRANCH  28  31
ATOM     31  C   UNL A   1      34.458  31.399  27.735  1.00  0.00     0.039 A 
ATOM     32  C   UNL A   1      35.532  32.270  27.934  1.00  0.00     0.014 A 
ATOM     33  C   UNL A   1      34.559  30.051  28.085  1.00  0.00     0.014 A 
ATOM     34  C   UNL A   1      36.689  31.799  28.555  1.00  0.00     0.010 A 
ATOM     35  C   UNL A   1      35.681  29.605  28.770  1.00  0.00     0.010 A 
ATOM     36  C   UNL A   1      36.757  30.472  29.011  1.00  0.00    -0.014 A 
BRANCH  36  37
ATOM     37  C   UNL A   1      37.940  29.964  29.747  1.00  0.00     0.031 A 
ATOM     38  C   UNL A   1      38.212  30.445  31.146  1.00  0.00     0.074 A 
ATOM     39  C   UNL A   1      38.822  29.160  29.120  1.00  0.00     0.049 A 
ATOM     40  N   UNL A   1      39.233  30.190  31.921  1.00  0.00    -0.248 NA
ATOM     41  C   UNL A   1      37.221  31.358  31.741  1.00  0.00     0.031 C 
ATOM     42  C   UNL A   1      38.713  28.699  27.734  1.00  0.00     0.029 A 
ATOM     43  N   UNL A   1      40.003  28.615  29.558  1.00  0.00    -0.354 N 
ATOM     44  C   UNL A   1      39.031  30.939  33.073  1.00  0.00     0.074 A 
ATOM     45  C   UNL A   1      37.806  31.686  32.883  1.00  0.00     0.031 C 
ATOM     46  C   UNL A   1      39.781  27.940  27.437  1.00  0.00     0.029 A 
ATOM     47  C   UNL A   1      40.661  27.880  28.599  1.00  0.00     0.049 A 
ATOM     48  H   UNL A   1      40.347  28.738  30.472  1.00  0.00     0.167 HD
ATOM     49  C   UNL A   1      39.777  30.976  34.201  1.00  0.00     0.034 A 
ATOM     50  C   UNL A   1      41.841  27.232  28.652  1.00  0.00     0.034 A 
ATOM     51  C   UNL A   1      40.958  30.185  34.407  1.00  0.00     0.049 A 
ATOM     52  C   UNL A   1      42.617  27.238  29.943  1.00  0.00     0.074 A 
ATOM     53  C   UNL A   1      41.733  30.079  35.548  1.00  0.00     0.029 A 
ATOM     54  N   UNL A   1      41.533  29.361  33.453  1.00  0.00    -0.354 N 
ATOM     55  N   UNL A   1      42.323  27.822  31.079  1.00  0.00    -0.248 NA
ATOM     56  C   UNL A   1      43.867  26.463  29.972  1.00  0.00     0.031 C 
ATOM     57  C   UNL A   1      42.783  29.194  35.280  1.00  0.00     0.029 A 
ATOM     58  C   UNL A   1      42.652  28.740  33.978  1.00  0.00     0.049 A 
ATOM     59  H   UNL A   1      41.195  29.235  32.537  1.00  0.00     0.167 HD
ATOM     60  C   UNL A   1      43.327  27.455  31.967  1.00  0.00     0.074 A 
ATOM     61  C   UNL A   1      44.228  26.583  31.243  1.00  0.00     0.031 C 
ATOM     62  C   UNL A   1      43.498  27.820  33.262  1.00  0.00     0.034 A 
BRANCH  49  63
ATOM     63  C   UNL A   1      39.295  31.849  35.328  1.00  0.00     0.023 A 
ATOM     64  C   UNL A   1      38.406  31.314  36.284  1.00  0.00     0.012 A 
ATOM     65  C   UNL A   1      39.756  33.171  35.478  1.00  0.00     0.148 A 
ATOM     66  C   UNL A   1      37.960  32.089  37.352  1.00  0.00     0.002 A 
ATOM     67  C   UNL A   1      39.339  33.925  36.570  1.00  0.00     0.091 A 
ATOM     68  F   UNL A   1      40.581  33.670  34.547  1.00  0.00    -0.205 F 
ATOM     69  C   UNL A   1      38.434  33.389  37.501  1.00  0.00     0.022 A 
BRANCH  67  70
ATOM     70  S   UNL A   1      39.949  35.584  36.891  1.00  0.00     0.127 S 
ATOM     71  O   UNL A   1      39.293  35.899  38.159  1.00  0.00    -0.237 OA
ATOM     72  O   UNL A   1      41.393  35.367  36.990  1.00  0.00    -0.237 OA
ATOM     73  O   UNL A   1      39.534  36.390  35.753  1.00  0.00    -0.744 OA
ENDBRANCH  67  70
ENDBRANCH  49  63
BRANCH  50  74
ATOM     74  C   UNL A   1      42.320  26.453  27.476  1.00  0.00     0.023 A 
ATOM     75  C   UNL A   1      43.110  27.096  26.502  1.00  0.00     0.012 A 
ATOM     76  C   UNL A   1      42.024  25.085  27.323  1.00  0.00     0.148 A 
ATOM     77  C   UNL A   1      43.570  26.401  25.384  1.00  0.00     0.002 A 
ATOM     78  C   UNL A   1      42.529  24.385  26.232  1.00  0.00     0.091 A 
ATOM     79  F   UNL A   1      41.259  24.493  28.251  1.00  0.00    -0.205 F 
ATOM     80  C   UNL A   1      43.288  25.044  25.254  1.00  0.00     0.022 A 
BRANCH  78  81
ATOM     81  S   UNL A   1      42.322  22.609  26.056  1.00  0.00     0.127 S 
ATOM     82  O   UNL A   1      42.950  22.363  24.760  1.00  0.00    -0.237 OA
ATOM     83  O   UNL A   1      43.065  22.099  27.209  1.00  0.00    -0.237 OA
ATOM     84  O   UNL A   1      40.885  22.379  26.123  1.00  0.00    -0.744 OA
ENDBRANCH  78  81
ENDBRANCH  50  74
BRANCH  62  85
ATOM     85  C   UNL A   1      44.679  27.251  34.001  1.00  0.00     0.023 A 
ATOM     86  C   UNL A   1      45.897  27.957  34.017  1.00  0.00     0.012 A 
ATOM     87  C   UNL A   1      44.554  26.067  34.753  1.00  0.00     0.148 A 
ATOM     88  C   UNL A   1      46.982  27.480  34.752  1.00  0.00     0.002 A 
ATOM     89  C   UNL A   1      45.624  25.621  35.518  1.00  0.00     0.091 A 
ATOM     90  F   UNL A   1      43.391  25.399  34.707  1.00  0.00    -0.205 F 
ATOM     91  C   UNL A   1      46.842  26.321  35.512  1.00  0.00     0.022 A 
BRANCH  89  92
ATOM     92  S   UNL A   1      45.500  24.192  36.600  1.00  0.00     0.127 S 
ATOM     93  O   UNL A   1      46.894  23.991  36.991  1.00  0.00    -0.237 OA
ATOM     94  O   UNL A   1      44.631  24.685  37.671  1.00  0.00    -0.237 OA
ATOM     95  O   UNL A   1      44.915  23.130  35.792  1.00  0.00    -0.744 OA
ENDBRANCH  89  92
ENDBRANCH  62  85
ENDBRANCH  36  37
ENDBRANCH  28  31
ENDBRANCH  26  27
ENDBRANCH   1  26
TORSDOF 17
ENDMDL
MODEL 3
REMARK VINA RESULT:     -12.3      3.493      8.689
REMARK SMILES CC1(C)CCN(S(=O)(=O)c2ccc(O)c(C(=O)NCCCCNC(=O)c3ccc(-c4c5nc(c(-c6cccc(S(=O)(=O)[O-])c6F)c6ccc([nH]6)c(-c6cccc(S(=O)(=O)[O-])c6F)c6nc(c(-c7cccc(S(=O)(=O)[O-])c7F)c7ccc4[nH]7)C=C6)C=C5)cc3)c2)C1
REMARK SMILES IDX 21 1 20 2 19 3 18 4 16 5 17 6 15 8 10 9 11 10 89 11 12 12
REMARK SMILES IDX 13 13 7 14 8 15 9 16 6 17 1 18 2 19 3 20 4 21 90 22 5 23
REMARK SMILES IDX 14 24 22 26 23 27 24 28 25 30 26 31 27 32 88 33 28 34 87 35
REMARK SMILES IDX 29 36 30 37 31 38 81 39 32 40 86 41 80 42 82 43 33 44 85 45
REMARK SMILES IDX 79 46 78 47 34 49 66 50 46 51 65 52 47 53 50 54 64 55 83 56
REMARK SMILES IDX 48 57 49 58 63 60 84 61 51 62 35 63 36 64 44 65 37 66 39 67
REMARK SMILES IDX 45 68 38 69 40 70 41 71 42 72 43 73 67 74 68 75 76 76 69 77
REMARK SMILES IDX 71 78 77 79 70 80 72 81 73 82 74 83 75 84 52 85 53 86 61 87
REMARK SMILES IDX 54 88 56 89 62 90 55 91 57 92 58 93 59 94 60 95
REMARK H PARENT 18 7 14 25 23 29 82 48 50 59
REMARK Flexibility Score: inf
ROOT
ATOM      1  C   UNL A   1      33.900  27.744  25.250  1.00  0.00     0.023 C 
ENDROOT
BRANCH   1   2
ATOM      2  C   UNL A   1      33.872  28.831  24.178  1.00  0.00     0.023 C 
BRANCH   2   3
ATOM      3  C   UNL A   1      33.709  28.327  22.739  1.00  0.00     0.116 C 
BRANCH   3   4
ATOM      4  N   UNL A   1      32.340  28.461  22.295  1.00  0.00    -0.352 N 
ATOM      5  C   UNL A   1      31.224  27.682  22.436  1.00  0.00     0.255 C 
ATOM      6  O   UNL A   1      30.199  28.141  21.916  1.00  0.00    -0.269 OA
ATOM      7  H   UNL A   1      32.177  29.288  21.784  1.00  0.00     0.163 HD
BRANCH   5   8
ATOM      8  C   UNL A   1      31.109  26.364  23.151  1.00  0.00     0.082 A 
ATOM      9  C   UNL A   1      31.923  24.044  23.114  1.00  0.00     0.083 A 
ATOM     10  C   UNL A   1      31.377  23.819  24.373  1.00  0.00     0.025 A 
ATOM     11  C   UNL A   1      31.793  25.300  22.510  1.00  0.00     0.039 A 
ATOM     12  C   UNL A   1      30.649  24.821  24.995  1.00  0.00     0.048 A 
ATOM     13  C   UNL A   1      30.529  26.085  24.400  1.00  0.00     0.128 A 
BRANCH   9  14
ATOM     14  S   UNL A   1      32.952  22.790  22.386  1.00  0.00     0.243 S 
ATOM     15  O   UNL A   1      33.466  23.327  21.137  1.00  0.00    -0.207 OA
ATOM     16  O   UNL A   1      32.243  21.533  22.413  1.00  0.00    -0.207 OA
BRANCH  14  17
ATOM     17  N   UNL A   1      34.279  22.646  23.452  1.00  0.00    -0.197 NA
ATOM     18  C   UNL A   1      36.345  22.145  25.802  1.00  0.00     0.012 C 
ATOM     19  C   UNL A   1      34.920  22.713  25.782  1.00  0.00    -0.020 C 
ATOM     20  C   UNL A   1      34.320  22.631  27.189  1.00  0.00     0.012 C 
ATOM     21  C   UNL A   1      34.887  24.138  25.232  1.00  0.00     0.024 C 
ATOM     22  C   UNL A   1      34.034  21.984  24.764  1.00  0.00     0.109 C 
ATOM     23  C   UNL A   1      34.962  23.948  23.721  1.00  0.00     0.103 C 
ENDBRANCH  14  17
ENDBRANCH   9  14
BRANCH  13  24
ATOM     24  O   UNL A   1      29.870  27.012  25.145  1.00  0.00    -0.507 OA
ATOM     25  H   UNL A   1      29.252  27.586  24.737  1.00  0.00     0.293 HD
ENDBRANCH  13  24
ENDBRANCH   5   8
ENDBRANCH   3   4
ENDBRANCH   2   3
ENDBRANCH   1   2
BRANCH   1  26
ATOM     26  C   UNL A   1      34.219  28.245  26.652  1.00  0.00     0.116 C 
BRANCH  26  27
ATOM     27  N   UNL A   1      33.772  29.610  26.904  1.00  0.00    -0.352 N 
ATOM     28  C   UNL A   1      34.408  30.583  27.636  1.00  0.00     0.251 C 
ATOM     29  H   UNL A   1      32.911  29.865  26.500  1.00  0.00     0.163 HD
ATOM     30  O   UNL A   1      33.874  31.670  27.833  1.00  0.00    -0.269 OA
BRANCH  28  31
ATOM     31  C   UNL A   1      35.727  30.274  28.225  1.00  0.00     0.039 A 
ATOM     32  C   UNL A   1      35.781  29.689  29.492  1.00  0.00     0.014 A 
ATOM     33  C   UNL A   1      36.894  30.487  27.487  1.00  0.00     0.014 A 
ATOM     34  C   UNL A   1      37.008  29.250  29.991  1.00  0.00     0.010 A 
ATOM     35  C   UNL A   1      38.100  29.982  27.954  1.00  0.00     0.010 A 
ATOM     36  C   UNL A   1      38.170  29.360  29.209  1.00  0.00    -0.014 A 
BRANCH  36  37
ATOM     37  C   UNL A   1      39.473  28.830  29.678  1.00  0.00     0.031 A 
ATOM     38  C   UNL A   1      40.215  29.537  30.778  1.00  0.00     0.074 A 
ATOM     39  C   UNL A   1      40.034  27.781  29.044  1.00  0.00     0.049 A 
ATOM     40  N   UNL A   1      41.401  29.285  31.267  1.00  0.00    -0.248 NA
ATOM     41  C   UNL A   1      39.552  30.702  31.387  1.00  0.00     0.031 C 
ATOM     42  C   UNL A   1      39.451  27.068  27.904  1.00  0.00     0.029 A 
ATOM     43  N   UNL A   1      41.237  27.153  29.246  1.00  0.00    -0.354 N 
ATOM     44  C   UNL A   1      41.642  30.278  32.207  1.00  0.00     0.074 A 
ATOM     45  C   UNL A   1      40.495  31.159  32.197  1.00  0.00     0.031 C 
ATOM     46  C   UNL A   1      40.296  26.100  27.511  1.00  0.00     0.029 A 
ATOM     47  C   UNL A   1      41.489  26.139  28.351  1.00  0.00     0.049 A 
ATOM     48  H   UNL A   1      41.862  27.404  29.965  1.00  0.00     0.167 HD
ATOM     49  C   UNL A   1      42.706  30.425  33.030  1.00  0.00     0.034 A 
ATOM     50  C   UNL A   1      42.561  25.332  28.223  1.00  0.00     0.034 A 
ATOM     51  C   UNL A   1      43.815  29.512  33.079  1.00  0.00     0.049 A 
ATOM     52  C   UNL A   1      43.701  25.477  29.195  1.00  0.00     0.074 A 
ATOM     53  C   UNL A   1      44.897  29.518  33.940  1.00  0.00     0.029 A 
ATOM     54  N   UNL A   1      43.980  28.426  32.233  1.00  0.00    -0.354 N 
ATOM     55  N   UNL A   1      43.836  26.323  30.188  1.00  0.00    -0.248 NA
ATOM     56  C   UNL A   1      44.820  24.533  29.056  1.00  0.00     0.031 C 
ATOM     57  C   UNL A   1      45.722  28.438  33.610  1.00  0.00     0.029 A 
ATOM     58  C   UNL A   1      45.146  27.753  32.553  1.00  0.00     0.049 A 
ATOM     59  H   UNL A   1      43.360  28.171  31.512  1.00  0.00     0.167 HD
ATOM     60  C   UNL A   1      45.030  25.989  30.814  1.00  0.00     0.074 A 
ATOM     61  C   UNL A   1      45.573  24.851  30.100  1.00  0.00     0.031 C 
ATOM     62  C   UNL A   1      45.634  26.580  31.874  1.00  0.00     0.034 A 
BRANCH  49  63
ATOM     63  C   UNL A   1      42.687  31.578  33.997  1.00  0.00     0.023 A 
ATOM     64  C   UNL A   1      43.235  32.817  33.605  1.00  0.00     0.012 A 
ATOM     65  C   UNL A   1      42.085  31.459  35.264  1.00  0.00     0.148 A 
ATOM     66  C   UNL A   1      43.213  33.910  34.469  1.00  0.00     0.002 A 
ATOM     67  C   UNL A   1      42.028  32.566  36.104  1.00  0.00     0.091 A 
ATOM     68  F   UNL A   1      41.591  30.268  35.629  1.00  0.00    -0.205 F 
ATOM     69  C   UNL A   1      42.601  33.788  35.713  1.00  0.00     0.022 A 
BRANCH  67  70
ATOM     70  S   UNL A   1      41.196  32.533  37.696  1.00  0.00     0.127 S 
ATOM     71  O   UNL A   1      41.212  33.947  38.068  1.00  0.00    -0.237 OA
ATOM     72  O   UNL A   1      39.876  32.011  37.342  1.00  0.00    -0.237 OA
ATOM     73  O   UNL A   1      41.988  31.653  38.543  1.00  0.00    -0.744 OA
ENDBRANCH  67  70
ENDBRANCH  49  63
BRANCH  50  74
ATOM     74  C   UNL A   1      42.569  24.261  27.188  1.00  0.00     0.023 A 
ATOM     75  C   UNL A   1      43.231  24.492  25.965  1.00  0.00     0.012 A 
ATOM     76  C   UNL A   1      41.956  23.013  27.409  1.00  0.00     0.148 A 
ATOM     77  C   UNL A   1      43.254  23.515  24.970  1.00  0.00     0.002 A 
ATOM     78  C   UNL A   1      42.027  22.024  26.433  1.00  0.00     0.091 A 
ATOM     79  F   UNL A   1      41.319  22.815  28.572  1.00  0.00    -0.205 F 
ATOM     80  C   UNL A   1      42.661  22.278  25.207  1.00  0.00     0.022 A 
BRANCH  78  81
ATOM     81  S   UNL A   1      41.403  20.362  26.708  1.00  0.00     0.127 S 
ATOM     82  O   UNL A   1      39.972  20.603  26.869  1.00  0.00    -0.237 OA
ATOM     83  O   UNL A   1      41.779  19.685  25.465  1.00  0.00    -0.237 OA
ATOM     84  O   UNL A   1      42.106  19.875  27.888  1.00  0.00    -0.744 OA
ENDBRANCH  78  81
ENDBRANCH  50  74
BRANCH  62  85
ATOM     85  C   UNL A   1      46.930  25.991  32.362  1.00  0.00     0.023 A 
ATOM     86  C   UNL A   1      48.151  26.487  31.865  1.00  0.00     0.012 A 
ATOM     87  C   UNL A   1      46.939  25.014  33.376  1.00  0.00     0.148 A 
ATOM     88  C   UNL A   1      49.363  26.001  32.354  1.00  0.00     0.002 A 
ATOM     89  C   UNL A   1      48.150  24.567  33.890  1.00  0.00     0.091 A 
ATOM     90  F   UNL A   1      45.765  24.541  33.820  1.00  0.00    -0.205 F 
ATOM     91  C   UNL A   1      49.363  25.051  33.375  1.00  0.00     0.022 A 
BRANCH  89  92
ATOM     92  S   UNL A   1      48.241  23.418  35.269  1.00  0.00     0.127 S 
ATOM     93  O   UNL A   1      49.685  23.298  35.463  1.00  0.00    -0.237 OA
ATOM     94  O   UNL A   1      47.541  24.146  36.329  1.00  0.00    -0.237 OA
ATOM     95  O   UNL A   1      47.564  22.207  34.824  1.00  0.00    -0.744 OA
ENDBRANCH  89  92
ENDBRANCH  62  85
ENDBRANCH  36  37
ENDBRANCH  28  31
ENDBRANCH  26  27
ENDBRANCH   1  26
TORSDOF 17
ENDMDL
