MODEL 1
REMARK VINA RESULT:     -13.1      0.000      0.000
REMARK SMILES O=C(C[C@H](NC(=O)[C@]12C[C@H]3C[C@H](C[C@H](C3)C1)C2)c1cccc([N+](=O)[O-])c1)NCCCCNC(=O)c1ccc(-c2c3nc(c(-c4cccc(S(=O)(=O)[O-])c4F)c4ccc([nH]4)c(-c4cccc(S(=O)(=O)[O-])c4F)c4nc(c(-c5cccc(S(=O)(=O)[O-])c5F)c5ccc2[nH]5)C=C4)C=C3)cc1
REMARK SMILES IDX 29 1 28 2 27 3 1 4 2 5 3 7 4 8 18 9 19 10 26 11 20 12 22 13
REMARK SMILES IDX 21 14 23 15 24 16 25 17 5 18 6 19 7 21 8 22 9 23 16 24 17 25
REMARK SMILES IDX 10 26 14 27 12 28 11 29 15 30 13 31 30 32 31 33 32 34 33 35
REMARK SMILES IDX 34 37 35 38 36 39 97 40 37 41 96 42 38 43 39 44 40 45 90 46
REMARK SMILES IDX 41 47 95 48 89 49 91 50 42 51 94 52 88 53 87 54 43 56 75 57
REMARK SMILES IDX 55 58 74 59 56 60 59 61 73 62 92 63 57 64 58 65 72 67 93 68
REMARK SMILES IDX 60 69 44 70 45 71 53 72 46 73 48 74 54 75 47 76 49 77 50 78
REMARK SMILES IDX 51 79 52 80 76 81 77 82 85 83 78 84 80 85 86 86 79 87 81 88
REMARK SMILES IDX 82 89 83 90 84 91 61 92 62 93 70 94 63 95 65 96 71 97 64 98
REMARK SMILES IDX 66 99 67 100 68 101 69 102
REMARK H PARENT 27 6 5 20 32 36 91 55 59 66
REMARK Flexibility Score: inf
ROOT
ATOM      1  C   UNL A   1      31.732  30.802  26.173  1.00  0.00     0.023 C 
ENDROOT
BRANCH   1   2
ATOM      2  C   UNL A   1      32.594  29.908  27.059  1.00  0.00     0.116 C 
BRANCH   2   3
ATOM      3  N   UNL A   1      32.218  28.520  26.914  1.00  0.00    -0.356 N 
ATOM      4  O   UNL A   1      33.914  27.948  25.472  1.00  0.00    -0.275 OA
ATOM      5  C   UNL A   1      32.916  27.651  26.115  1.00  0.00     0.222 C 
ATOM      6  H   UNL A   1      31.434  28.187  27.407  1.00  0.00     0.163 HD
BRANCH   5   7
ATOM      7  C   UNL A   1      32.311  26.279  26.056  1.00  0.00     0.129 C 
BRANCH   7   8
ATOM      8  C   UNL A   1      31.728  25.905  24.694  1.00  0.00     0.122 C 
BRANCH   8   9
ATOM      9  C   UNL A   1      30.477  26.646  24.258  1.00  0.00    -0.018 A 
ATOM     10  C   UNL A   1      29.230  26.012  24.400  1.00  0.00     0.006 A 
ATOM     11  C   UNL A   1      30.516  27.919  23.662  1.00  0.00     0.091 A 
ATOM     12  C   UNL A   1      28.057  26.607  23.933  1.00  0.00     0.007 A 
ATOM     13  C   UNL A   1      29.335  28.513  23.191  1.00  0.00     0.269 A 
ATOM     14  C   UNL A   1      28.105  27.857  23.320  1.00  0.00     0.085 A 
BRANCH  13  15
ATOM     15  N   UNL A   1      29.387  29.831  22.543  1.00  0.00     0.062 N 
ATOM     16  O   UNL A   1      29.980  29.914  21.458  1.00  0.00    -0.258 OA
ATOM     17  O   UNL A   1      28.830  30.777  23.115  1.00  0.00    -0.258 OA
ENDBRANCH  13  15
ENDBRANCH   8   9
BRANCH   8  18
ATOM     18  N   UNL A   1      32.723  25.826  23.631  1.00  0.00    -0.348 N 
ATOM     19  C   UNL A   1      33.768  25.006  23.358  1.00  0.00     0.226 C 
ATOM     20  H   UNL A   1      32.610  26.530  22.953  1.00  0.00     0.164 HD
ATOM     21  O   UNL A   1      34.301  25.238  22.264  1.00  0.00    -0.274 OA
BRANCH  19  22
ATOM     22  C   UNL A   1      34.266  23.830  24.235  1.00  0.00     0.050 C 
ATOM     23  C   UNL A   1      33.194  22.879  24.799  1.00  0.00     0.020 C 
ATOM     24  C   UNL A   1      35.046  24.445  25.437  1.00  0.00     0.020 C 
ATOM     25  C   UNL A   1      35.277  22.973  23.430  1.00  0.00     0.020 C 
ATOM     26  C   UNL A   1      33.781  21.804  25.714  1.00  0.00    -0.010 C 
ATOM     27  C   UNL A   1      35.644  23.352  26.338  1.00  0.00    -0.010 C 
ATOM     28  C   UNL A   1      35.875  21.858  24.320  1.00  0.00    -0.010 C 
ATOM     29  C   UNL A   1      34.752  20.962  24.870  1.00  0.00     0.007 C 
ATOM     30  C   UNL A   1      34.511  22.472  26.879  1.00  0.00     0.007 C 
ATOM     31  C   UNL A   1      36.613  22.488  25.512  1.00  0.00     0.007 C 
ENDBRANCH  19  22
ENDBRANCH   8  18
ENDBRANCH   7   8
ENDBRANCH   5   7
ENDBRANCH   2   3
ENDBRANCH   1   2
BRANCH   1  32
ATOM     32  C   UNL A   1      31.495  32.211  26.724  1.00  0.00     0.023 C 
BRANCH  32  33
ATOM     33  C   UNL A   1      32.684  32.829  27.454  1.00  0.00     0.116 C 
BRANCH  33  34
ATOM     34  N   UNL A   1      32.473  34.236  27.753  1.00  0.00    -0.352 N 
ATOM     35  C   UNL A   1      33.074  35.023  28.706  1.00  0.00     0.251 C 
ATOM     36  H   UNL A   1      31.803  34.690  27.192  1.00  0.00     0.163 HD
ATOM     37  O   UNL A   1      32.627  36.141  28.941  1.00  0.00    -0.269 OA
BRANCH  35  38
ATOM     38  C   UNL A   1      34.238  34.511  29.460  1.00  0.00     0.039 A 
ATOM     39  C   UNL A   1      34.022  33.884  30.690  1.00  0.00     0.014 A 
ATOM     40  C   UNL A   1      35.537  34.646  28.960  1.00  0.00     0.014 A 
ATOM     41  C   UNL A   1      35.103  33.340  31.388  1.00  0.00     0.010 A 
ATOM     42  C   UNL A   1      36.600  34.035  29.618  1.00  0.00     0.010 A 
ATOM     43  C   UNL A   1      36.396  33.379  30.842  1.00  0.00    -0.014 A 
BRANCH  43  44
ATOM     44  C   UNL A   1      37.541  32.727  31.529  1.00  0.00     0.031 A 
ATOM     45  C   UNL A   1      38.251  31.562  30.891  1.00  0.00     0.074 A 
ATOM     46  C   UNL A   1      37.892  33.132  32.767  1.00  0.00     0.049 A 
ATOM     47  N   UNL A   1      39.240  30.844  31.358  1.00  0.00    -0.248 NA
ATOM     48  C   UNL A   1      37.773  31.132  29.566  1.00  0.00     0.031 C 
ATOM     49  C   UNL A   1      37.237  34.201  33.525  1.00  0.00     0.029 A 
ATOM     50  N   UNL A   1      38.871  32.677  33.615  1.00  0.00    -0.354 N 
ATOM     51  C   UNL A   1      39.476  29.858  30.407  1.00  0.00     0.074 A 
ATOM     52  C   UNL A   1      38.508  30.052  29.350  1.00  0.00     0.031 C 
ATOM     53  C   UNL A   1      37.835  34.324  34.719  1.00  0.00     0.029 A 
ATOM     54  C   UNL A   1      38.891  33.322  34.831  1.00  0.00     0.049 A 
ATOM     55  H   UNL A   1      39.498  31.956  33.378  1.00  0.00     0.167 HD
ATOM     56  C   UNL A   1      40.426  28.893  30.402  1.00  0.00     0.034 A 
ATOM     57  C   UNL A   1      39.663  33.123  35.917  1.00  0.00     0.034 A 
ATOM     58  C   UNL A   1      41.408  28.724  31.441  1.00  0.00     0.049 A 
ATOM     59  C   UNL A   1      40.727  32.060  35.875  1.00  0.00     0.074 A 
ATOM     60  C   UNL A   1      42.470  27.836  31.482  1.00  0.00     0.029 A 
ATOM     61  N   UNL A   1      41.441  29.442  32.625  1.00  0.00    -0.354 N 
ATOM     62  N   UNL A   1      41.040  31.244  34.897  1.00  0.00    -0.248 NA
ATOM     63  C   UNL A   1      41.566  31.911  37.072  1.00  0.00     0.031 C 
ATOM     64  C   UNL A   1      43.121  27.991  32.710  1.00  0.00     0.029 A 
ATOM     65  C   UNL A   1      42.491  29.006  33.415  1.00  0.00     0.049 A 
ATOM     66  H   UNL A   1      40.810  30.156  32.870  1.00  0.00     0.167 HD
ATOM     67  C   UNL A   1      42.137  30.515  35.345  1.00  0.00     0.074 A 
ATOM     68  C   UNL A   1      42.445  31.000  36.674  1.00  0.00     0.031 C 
ATOM     69  C   UNL A   1      42.820  29.527  34.717  1.00  0.00     0.034 A 
BRANCH  56  70
ATOM     70  C   UNL A   1      40.476  27.961  29.219  1.00  0.00     0.023 A 
ATOM     71  C   UNL A   1      39.548  26.904  29.119  1.00  0.00     0.012 A 
ATOM     72  C   UNL A   1      41.400  28.168  28.175  1.00  0.00     0.148 A 
ATOM     73  C   UNL A   1      39.562  26.046  28.020  1.00  0.00     0.002 A 
ATOM     74  C   UNL A   1      41.375  27.339  27.059  1.00  0.00     0.091 A 
ATOM     75  F   UNL A   1      42.287  29.166  28.294  1.00  0.00    -0.205 F 
ATOM     76  C   UNL A   1      40.467  26.270  26.986  1.00  0.00     0.022 A 
BRANCH  74  77
ATOM     77  S   UNL A   1      42.439  27.597  25.635  1.00  0.00     0.127 S 
ATOM     78  O   UNL A   1      43.758  27.671  26.261  1.00  0.00    -0.237 OA
ATOM     79  O   UNL A   1      42.203  26.384  24.852  1.00  0.00    -0.237 OA
ATOM     80  O   UNL A   1      41.979  28.826  25.004  1.00  0.00    -0.744 OA
ENDBRANCH  74  77
ENDBRANCH  56  70
BRANCH  57  81
ATOM     81  C   UNL A   1      39.499  33.989  37.119  1.00  0.00     0.023 A 
ATOM     82  C   UNL A   1      39.954  35.322  37.079  1.00  0.00     0.012 A 
ATOM     83  C   UNL A   1      38.884  33.509  38.292  1.00  0.00     0.148 A 
ATOM     84  C   UNL A   1      39.835  36.149  38.197  1.00  0.00     0.002 A 
ATOM     85  C   UNL A   1      38.717  34.354  39.382  1.00  0.00     0.091 A 
ATOM     86  F   UNL A   1      38.465  32.236  38.314  1.00  0.00    -0.205 F 
ATOM     87  C   UNL A   1      39.208  35.669  39.344  1.00  0.00     0.022 A 
BRANCH  85  88
ATOM     88  S   UNL A   1      37.809  33.865  40.854  1.00  0.00     0.127 S 
ATOM     89  O   UNL A   1      38.768  32.986  41.518  1.00  0.00    -0.237 OA
ATOM     90  O   UNL A   1      37.593  35.153  41.515  1.00  0.00    -0.237 OA
ATOM     91  O   UNL A   1      36.593  33.225  40.374  1.00  0.00    -0.744 OA
ENDBRANCH  85  88
ENDBRANCH  57  81
BRANCH  69  92
ATOM     92  C   UNL A   1      44.003  28.928  35.432  1.00  0.00     0.023 A 
ATOM     93  C   UNL A   1      45.286  29.488  35.268  1.00  0.00     0.012 A 
ATOM     94  C   UNL A   1      43.829  27.850  36.323  1.00  0.00     0.148 A 
ATOM     95  C   UNL A   1      46.382  28.961  35.953  1.00  0.00     0.002 A 
ATOM     96  C   UNL A   1      44.914  27.366  37.043  1.00  0.00     0.091 A 
ATOM     97  F   UNL A   1      42.604  27.320  36.453  1.00  0.00    -0.205 F 
ATOM     98  C   UNL A   1      46.193  27.911  36.848  1.00  0.00     0.022 A 
BRANCH  96  99
ATOM     99  S   UNL A   1      44.751  26.085  38.291  1.00  0.00     0.127 S 
ATOM    100  O   UNL A   1      46.044  26.165  38.970  1.00  0.00    -0.237 OA
ATOM    101  O   UNL A   1      43.616  26.564  39.080  1.00  0.00    -0.237 OA
ATOM    102  O   UNL A   1      44.504  24.845  37.567  1.00  0.00    -0.744 OA
ENDBRANCH  96  99
ENDBRANCH  69  92
ENDBRANCH  43  44
ENDBRANCH  35  38
ENDBRANCH  33  34
ENDBRANCH  32  33
ENDBRANCH   1  32
TORSDOF 19
ENDMDL
MODEL 2
REMARK VINA RESULT:     -12.8      6.220     11.594
REMARK SMILES O=C(C[C@H](NC(=O)[C@]12C[C@H]3C[C@H](C[C@H](C3)C1)C2)c1cccc([N+](=O)[O-])c1)NCCCCNC(=O)c1ccc(-c2c3nc(c(-c4cccc(S(=O)(=O)[O-])c4F)c4ccc([nH]4)c(-c4cccc(S(=O)(=O)[O-])c4F)c4nc(c(-c5cccc(S(=O)(=O)[O-])c5F)c5ccc2[nH]5)C=C4)C=C3)cc1
REMARK SMILES IDX 29 1 28 2 27 3 1 4 2 5 3 7 4 8 18 9 19 10 26 11 20 12 22 13
REMARK SMILES IDX 21 14 23 15 24 16 25 17 5 18 6 19 7 21 8 22 9 23 16 24 17 25
REMARK SMILES IDX 10 26 14 27 12 28 11 29 15 30 13 31 30 32 31 33 32 34 33 35
REMARK SMILES IDX 34 37 35 38 36 39 97 40 37 41 96 42 38 43 39 44 40 45 90 46
REMARK SMILES IDX 41 47 95 48 89 49 91 50 42 51 94 52 88 53 87 54 43 56 75 57
REMARK SMILES IDX 55 58 74 59 56 60 59 61 73 62 92 63 57 64 58 65 72 67 93 68
REMARK SMILES IDX 60 69 44 70 45 71 53 72 46 73 48 74 54 75 47 76 49 77 50 78
REMARK SMILES IDX 51 79 52 80 76 81 77 82 85 83 78 84 80 85 86 86 79 87 81 88
REMARK SMILES IDX 82 89 83 90 84 91 61 92 62 93 70 94 63 95 65 96 71 97 64 98
REMARK SMILES IDX 66 99 67 100 68 101 69 102
REMARK H PARENT 27 6 5 20 32 36 91 55 59 66
REMARK Flexibility Score: inf
ROOT
ATOM      1  C   UNL A   1      37.482  20.873  24.634  1.00  0.00     0.023 C 
ENDROOT
BRANCH   1   2
ATOM      2  C   UNL A   1      37.463  21.875  25.784  1.00  0.00     0.116 C 
BRANCH   2   3
ATOM      3  N   UNL A   1      36.107  22.187  26.174  1.00  0.00    -0.356 N 
ATOM      4  O   UNL A   1      36.057  24.291  25.251  1.00  0.00    -0.275 OA
ATOM      5  C   UNL A   1      35.517  23.389  25.877  1.00  0.00     0.222 C 
ATOM      6  H   UNL A   1      35.589  21.514  26.671  1.00  0.00     0.163 HD
BRANCH   5   7
ATOM      7  C   UNL A   1      34.132  23.528  26.438  1.00  0.00     0.129 C 
BRANCH   7   8
ATOM      8  C   UNL A   1      33.033  23.633  25.382  1.00  0.00     0.122 C 
BRANCH   8   9
ATOM      9  C   UNL A   1      32.785  22.404  24.526  1.00  0.00    -0.018 A 
ATOM     10  C   UNL A   1      32.461  22.577  23.169  1.00  0.00     0.006 A 
ATOM     11  C   UNL A   1      32.809  21.098  25.047  1.00  0.00     0.091 A 
ATOM     12  C   UNL A   1      32.134  21.490  22.357  1.00  0.00     0.007 A 
ATOM     13  C   UNL A   1      32.477  20.008  24.228  1.00  0.00     0.269 A 
ATOM     14  C   UNL A   1      32.133  20.201  22.885  1.00  0.00     0.085 A 
BRANCH  13  15
ATOM     15  N   UNL A   1      32.474  18.648  24.787  1.00  0.00     0.062 N 
ATOM     16  O   UNL A   1      32.499  18.534  26.021  1.00  0.00    -0.258 OA
ATOM     17  O   UNL A   1      32.441  17.699  23.992  1.00  0.00    -0.258 OA
ENDBRANCH  13  15
ENDBRANCH   8   9
BRANCH   8  18
ATOM     18  N   UNL A   1      31.793  24.219  25.879  1.00  0.00    -0.348 N 
ATOM     19  C   UNL A   1      31.226  25.450  25.820  1.00  0.00     0.226 C 
ATOM     20  H   UNL A   1      31.239  23.572  26.371  1.00  0.00     0.164 HD
ATOM     21  O   UNL A   1      30.085  25.487  26.300  1.00  0.00    -0.274 OA
BRANCH  19  22
ATOM     22  C   UNL A   1      31.844  26.716  25.176  1.00  0.00     0.050 C 
ATOM     23  C   UNL A   1      33.037  27.359  25.907  1.00  0.00     0.020 C 
ATOM     24  C   UNL A   1      30.712  27.782  25.068  1.00  0.00     0.020 C 
ATOM     25  C   UNL A   1      32.300  26.392  23.730  1.00  0.00     0.020 C 
ATOM     26  C   UNL A   1      33.519  28.644  25.234  1.00  0.00    -0.010 C 
ATOM     27  C   UNL A   1      31.209  29.062  24.374  1.00  0.00    -0.010 C 
ATOM     28  C   UNL A   1      32.818  27.667  23.024  1.00  0.00    -0.010 C 
ATOM     29  C   UNL A   1      33.989  28.272  23.817  1.00  0.00     0.007 C 
ATOM     30  C   UNL A   1      32.372  29.651  25.180  1.00  0.00     0.007 C 
ATOM     31  C   UNL A   1      31.694  28.714  22.956  1.00  0.00     0.007 C 
ENDBRANCH  19  22
ENDBRANCH   8  18
ENDBRANCH   7   8
ENDBRANCH   5   7
ENDBRANCH   2   3
ENDBRANCH   1   2
BRANCH   1  32
ATOM     32  C   UNL A   1      38.407  19.671  24.849  1.00  0.00     0.023 C 
BRANCH  32  33
ATOM     33  C   UNL A   1      39.195  19.687  26.155  1.00  0.00     0.116 C 
BRANCH  33  34
ATOM     34  N   UNL A   1      40.440  18.943  26.053  1.00  0.00    -0.352 N 
ATOM     35  C   UNL A   1      41.734  19.408  26.048  1.00  0.00     0.251 C 
ATOM     36  H   UNL A   1      40.343  17.967  25.976  1.00  0.00     0.163 HD
ATOM     37  O   UNL A   1      42.652  18.648  25.757  1.00  0.00    -0.269 OA
BRANCH  35  38
ATOM     38  C   UNL A   1      42.011  20.824  26.370  1.00  0.00     0.039 A 
ATOM     39  C   UNL A   1      42.339  21.164  27.685  1.00  0.00     0.014 A 
ATOM     40  C   UNL A   1      41.946  21.813  25.385  1.00  0.00     0.014 A 
ATOM     41  C   UNL A   1      42.663  22.487  27.997  1.00  0.00     0.010 A 
ATOM     42  C   UNL A   1      42.345  23.113  25.681  1.00  0.00     0.010 A 
ATOM     43  C   UNL A   1      42.703  23.467  26.991  1.00  0.00    -0.014 A 
BRANCH  43  44
ATOM     44  C   UNL A   1      43.131  24.858  27.289  1.00  0.00     0.031 A 
ATOM     45  C   UNL A   1      42.183  25.824  27.951  1.00  0.00     0.074 A 
ATOM     46  C   UNL A   1      44.349  25.279  26.891  1.00  0.00     0.049 A 
ATOM     47  N   UNL A   1      42.366  27.084  28.249  1.00  0.00    -0.248 NA
ATOM     48  C   UNL A   1      40.846  25.314  28.301  1.00  0.00     0.031 C 
ATOM     49  C   UNL A   1      45.333  24.463  26.174  1.00  0.00     0.029 A 
ATOM     50  N   UNL A   1      44.958  26.504  27.008  1.00  0.00    -0.354 N 
ATOM     51  C   UNL A   1      41.162  27.528  28.784  1.00  0.00     0.074 A 
ATOM     52  C   UNL A   1      40.246  26.410  28.742  1.00  0.00     0.031 C 
ATOM     53  C   UNL A   1      46.422  25.206  25.925  1.00  0.00     0.029 A 
ATOM     54  C   UNL A   1      46.204  26.558  26.427  1.00  0.00     0.049 A 
ATOM     55  H   UNL A   1      44.542  27.271  27.464  1.00  0.00     0.167 HD
ATOM     56  C   UNL A   1      40.854  28.747  29.286  1.00  0.00     0.034 A 
ATOM     57  C   UNL A   1      47.069  27.583  26.302  1.00  0.00     0.034 A 
ATOM     58  C   UNL A   1      41.779  29.847  29.356  1.00  0.00     0.049 A 
ATOM     59  C   UNL A   1      46.710  28.922  26.890  1.00  0.00     0.074 A 
ATOM     60  C   UNL A   1      41.590  31.092  29.931  1.00  0.00     0.029 A 
ATOM     61  N   UNL A   1      43.056  29.843  28.820  1.00  0.00    -0.354 N 
ATOM     62  N   UNL A   1      45.626  29.274  27.540  1.00  0.00    -0.248 NA
ATOM     63  C   UNL A   1      47.706  29.994  26.760  1.00  0.00     0.031 C 
ATOM     64  C   UNL A   1      42.741  31.855  29.708  1.00  0.00     0.029 A 
ATOM     65  C   UNL A   1      43.663  31.070  29.033  1.00  0.00     0.049 A 
ATOM     66  H   UNL A   1      43.472  29.082  28.356  1.00  0.00     0.167 HD
ATOM     67  C   UNL A   1      45.827  30.593  27.929  1.00  0.00     0.074 A 
ATOM     68  C   UNL A   1      47.145  30.971  27.460  1.00  0.00     0.031 C 
ATOM     69  C   UNL A   1      44.993  31.421  28.605  1.00  0.00     0.034 A 
BRANCH  56  70
ATOM     70  C   UNL A   1      39.465  28.951  29.835  1.00  0.00     0.023 A 
ATOM     71  C   UNL A   1      39.153  28.507  31.136  1.00  0.00     0.012 A 
ATOM     72  C   UNL A   1      38.487  29.639  29.089  1.00  0.00     0.148 A 
ATOM     73  C   UNL A   1      37.881  28.708  31.671  1.00  0.00     0.002 A 
ATOM     74  C   UNL A   1      37.238  29.881  29.647  1.00  0.00     0.091 A 
ATOM     75  F   UNL A   1      38.795  30.039  27.847  1.00  0.00    -0.205 F 
ATOM     76  C   UNL A   1      36.929  29.404  30.932  1.00  0.00     0.022 A 
BRANCH  74  77
ATOM     77  S   UNL A   1      35.971  30.843  28.813  1.00  0.00     0.127 S 
ATOM     78  O   UNL A   1      35.340  29.832  27.968  1.00  0.00    -0.237 OA
ATOM     79  O   UNL A   1      35.148  31.302  29.933  1.00  0.00    -0.237 OA
ATOM     80  O   UNL A   1      36.672  31.903  28.101  1.00  0.00    -0.744 OA
ENDBRANCH  74  77
ENDBRANCH  56  70
BRANCH  57  81
ATOM     81  C   UNL A   1      48.388  27.372  25.640  1.00  0.00     0.023 A 
ATOM     82  C   UNL A   1      49.496  26.979  26.416  1.00  0.00     0.012 A 
ATOM     83  C   UNL A   1      48.548  27.542  24.251  1.00  0.00     0.148 A 
ATOM     84  C   UNL A   1      50.749  26.796  25.828  1.00  0.00     0.002 A 
ATOM     85  C   UNL A   1      49.785  27.303  23.663  1.00  0.00     0.091 A 
ATOM     86  F   UNL A   1      47.485  27.925  23.531  1.00  0.00    -0.205 F 
ATOM     87  C   UNL A   1      50.891  26.948  24.452  1.00  0.00     0.022 A 
BRANCH  85  88
ATOM     88  S   UNL A   1      50.033  27.349  21.884  1.00  0.00     0.127 S 
ATOM     89  O   UNL A   1      48.983  26.451  21.412  1.00  0.00    -0.237 OA
ATOM     90  O   UNL A   1      49.813  28.765  21.587  1.00  0.00    -0.237 OA
ATOM     91  O   UNL A   1      51.399  26.894  21.663  1.00  0.00    -0.744 OA
ENDBRANCH  85  88
ENDBRANCH  57  81
BRANCH  69  92
ATOM     92  C   UNL A   1      45.487  32.807  28.926  1.00  0.00     0.023 A 
ATOM     93  C   UNL A   1      46.221  33.040  30.107  1.00  0.00     0.012 A 
ATOM     94  C   UNL A   1      45.284  33.867  28.020  1.00  0.00     0.148 A 
ATOM     95  C   UNL A   1      46.713  34.313  30.396  1.00  0.00     0.002 A 
ATOM     96  C   UNL A   1      45.824  35.119  28.288  1.00  0.00     0.091 A 
ATOM     97  F   UNL A   1      44.570  33.630  26.910  1.00  0.00    -0.205 F 
ATOM     98  C   UNL A   1      46.526  35.347  29.482  1.00  0.00     0.022 A 
BRANCH  96  99
ATOM     99  S   UNL A   1      45.721  36.484  27.125  1.00  0.00     0.127 S 
ATOM    100  O   UNL A   1      46.359  35.913  25.939  1.00  0.00    -0.237 OA
ATOM    101  O   UNL A   1      44.277  36.681  27.006  1.00  0.00    -0.237 OA
ATOM    102  O   UNL A   1      46.435  37.595  27.742  1.00  0.00    -0.744 OA
ENDBRANCH  96  99
ENDBRANCH  69  92
ENDBRANCH  43  44
ENDBRANCH  35  38
ENDBRANCH  33  34
ENDBRANCH  32  33
ENDBRANCH   1  32
TORSDOF 19
ENDMDL
MODEL 3
REMARK VINA RESULT:     -12.4      1.469      1.792
REMARK SMILES O=C(C[C@H](NC(=O)[C@]12C[C@H]3C[C@H](C[C@H](C3)C1)C2)c1cccc([N+](=O)[O-])c1)NCCCCNC(=O)c1ccc(-c2c3nc(c(-c4cccc(S(=O)(=O)[O-])c4F)c4ccc([nH]4)c(-c4cccc(S(=O)(=O)[O-])c4F)c4nc(c(-c5cccc(S(=O)(=O)[O-])c5F)c5ccc2[nH]5)C=C4)C=C3)cc1
REMARK SMILES IDX 29 1 28 2 27 3 1 4 2 5 3 7 4 8 18 9 19 10 26 11 20 12 22 13
REMARK SMILES IDX 21 14 23 15 24 16 25 17 5 18 6 19 7 21 8 22 9 23 16 24 17 25
REMARK SMILES IDX 10 26 14 27 12 28 11 29 15 30 13 31 30 32 31 33 32 34 33 35
REMARK SMILES IDX 34 37 35 38 36 39 97 40 37 41 96 42 38 43 39 44 40 45 90 46
REMARK SMILES IDX 41 47 95 48 89 49 91 50 42 51 94 52 88 53 87 54 43 56 75 57
REMARK SMILES IDX 55 58 74 59 56 60 59 61 73 62 92 63 57 64 58 65 72 67 93 68
REMARK SMILES IDX 60 69 44 70 45 71 53 72 46 73 48 74 54 75 47 76 49 77 50 78
REMARK SMILES IDX 51 79 52 80 76 81 77 82 85 83 78 84 80 85 86 86 79 87 81 88
REMARK SMILES IDX 82 89 83 90 84 91 61 92 62 93 70 94 63 95 65 96 71 97 64 98
REMARK SMILES IDX 66 99 67 100 68 101 69 102
REMARK H PARENT 27 6 5 20 32 36 91 55 59 66
REMARK Flexibility Score: inf
ROOT
ATOM      1  C   UNL A   1      31.463  31.245  26.374  1.00  0.00     0.023 C 
ENDROOT
BRANCH   1   2
ATOM      2  C   UNL A   1      32.797  30.509  26.449  1.00  0.00     0.116 C 
BRANCH   2   3
ATOM      3  N   UNL A   1      32.969  29.635  25.310  1.00  0.00    -0.356 N 
ATOM      4  O   UNL A   1      34.135  27.997  26.422  1.00  0.00    -0.275 OA
ATOM      5  C   UNL A   1      33.642  28.443  25.395  1.00  0.00     0.222 C 
ATOM      6  H   UNL A   1      32.591  29.907  24.442  1.00  0.00     0.163 HD
BRANCH   5   7
ATOM      7  C   UNL A   1      33.763  27.732  24.079  1.00  0.00     0.129 C 
BRANCH   7   8
ATOM      8  C   UNL A   1      32.784  26.573  23.897  1.00  0.00     0.122 C 
BRANCH   8   9
ATOM      9  C   UNL A   1      31.314  26.932  23.768  1.00  0.00    -0.018 A 
ATOM     10  C   UNL A   1      30.356  26.082  24.348  1.00  0.00     0.006 A 
ATOM     11  C   UNL A   1      30.866  28.049  23.041  1.00  0.00     0.091 A 
ATOM     12  C   UNL A   1      28.989  26.312  24.183  1.00  0.00     0.007 A 
ATOM     13  C   UNL A   1      29.491  28.275  22.875  1.00  0.00     0.269 A 
ATOM     14  C   UNL A   1      28.550  27.405  23.440  1.00  0.00     0.085 A 
BRANCH  13  15
ATOM     15  N   UNL A   1      29.029  29.428  22.089  1.00  0.00     0.062 N 
ATOM     16  O   UNL A   1      27.853  29.790  22.236  1.00  0.00    -0.258 OA
ATOM     17  O   UNL A   1      29.844  29.973  21.332  1.00  0.00    -0.258 OA
ENDBRANCH  13  15
ENDBRANCH   8   9
BRANCH   8  18
ATOM     18  N   UNL A   1      33.205  25.598  22.897  1.00  0.00    -0.348 N 
ATOM     19  C   UNL A   1      33.431  24.260  22.901  1.00  0.00     0.226 C 
ATOM     20  H   UNL A   1      33.360  26.004  22.015  1.00  0.00     0.164 HD
ATOM     21  O   UNL A   1      33.682  23.803  21.778  1.00  0.00    -0.274 OA
BRANCH  19  22
ATOM     22  C   UNL A   1      33.338  23.317  24.126  1.00  0.00     0.050 C 
ATOM     23  C   UNL A   1      31.932  22.835  24.528  1.00  0.00     0.020 C 
ATOM     24  C   UNL A   1      33.955  24.072  25.342  1.00  0.00     0.020 C 
ATOM     25  C   UNL A   1      34.212  22.060  23.882  1.00  0.00     0.020 C 
ATOM     26  C   UNL A   1      31.941  21.977  25.793  1.00  0.00    -0.010 C 
ATOM     27  C   UNL A   1      33.973  23.190  26.602  1.00  0.00    -0.010 C 
ATOM     28  C   UNL A   1      34.226  21.155  25.136  1.00  0.00    -0.010 C 
ATOM     29  C   UNL A   1      32.793  20.730  25.498  1.00  0.00     0.007 C 
ATOM     30  C   UNL A   1      32.537  22.781  26.948  1.00  0.00     0.007 C 
ATOM     31  C   UNL A   1      34.811  21.930  26.327  1.00  0.00     0.007 C 
ENDBRANCH  19  22
ENDBRANCH   8  18
ENDBRANCH   7   8
ENDBRANCH   5   7
ENDBRANCH   2   3
ENDBRANCH   1   2
BRANCH   1  32
ATOM     32  C   UNL A   1      31.511  32.702  26.844  1.00  0.00     0.023 C 
BRANCH  32  33
ATOM     33  C   UNL A   1      32.860  33.163  27.387  1.00  0.00     0.116 C 
BRANCH  33  34
ATOM     34  N   UNL A   1      32.774  34.459  28.041  1.00  0.00    -0.352 N 
ATOM     35  C   UNL A   1      33.463  34.931  29.133  1.00  0.00     0.251 C 
ATOM     36  H   UNL A   1      32.131  35.089  27.644  1.00  0.00     0.163 HD
ATOM     37  O   UNL A   1      33.118  35.981  29.662  1.00  0.00    -0.269 OA
BRANCH  35  38
ATOM     38  C   UNL A   1      34.601  34.159  29.678  1.00  0.00     0.039 A 
ATOM     39  C   UNL A   1      35.892  34.459  29.235  1.00  0.00     0.014 A 
ATOM     40  C   UNL A   1      34.399  33.144  30.618  1.00  0.00     0.014 A 
ATOM     41  C   UNL A   1      36.985  33.782  29.782  1.00  0.00     0.010 A 
ATOM     42  C   UNL A   1      35.493  32.528  31.218  1.00  0.00     0.010 A 
ATOM     43  C   UNL A   1      36.798  32.836  30.803  1.00  0.00    -0.014 A 
BRANCH  43  44
ATOM     44  C   UNL A   1      37.956  32.172  31.458  1.00  0.00     0.031 A 
ATOM     45  C   UNL A   1      38.668  31.033  30.777  1.00  0.00     0.074 A 
ATOM     46  C   UNL A   1      38.317  32.543  32.703  1.00  0.00     0.049 A 
ATOM     47  N   UNL A   1      39.667  30.309  31.212  1.00  0.00    -0.248 NA
ATOM     48  C   UNL A   1      38.179  30.639  29.445  1.00  0.00     0.031 C 
ATOM     49  C   UNL A   1      37.661  33.582  33.500  1.00  0.00     0.029 A 
ATOM     50  N   UNL A   1      39.308  32.070  33.528  1.00  0.00    -0.354 N 
ATOM     51  C   UNL A   1      39.900  29.353  30.230  1.00  0.00     0.074 A 
ATOM     52  C   UNL A   1      38.920  29.571  29.189  1.00  0.00     0.031 C 
ATOM     53  C   UNL A   1      38.272  33.674  34.692  1.00  0.00     0.029 A 
ATOM     54  C   UNL A   1      39.336  32.678  34.762  1.00  0.00     0.049 A 
ATOM     55  H   UNL A   1      39.939  31.362  33.262  1.00  0.00     0.167 HD
ATOM     56  C   UNL A   1      40.858  28.396  30.186  1.00  0.00     0.034 A 
ATOM     57  C   UNL A   1      40.121  32.453  35.833  1.00  0.00     0.034 A 
ATOM     58  C   UNL A   1      41.852  28.204  31.208  1.00  0.00     0.049 A 
ATOM     59  C   UNL A   1      41.193  31.399  35.748  1.00  0.00     0.074 A 
ATOM     60  C   UNL A   1      42.921  27.324  31.211  1.00  0.00     0.029 A 
ATOM     61  N   UNL A   1      41.892  28.886  32.413  1.00  0.00    -0.354 N 
ATOM     62  N   UNL A   1      41.502  30.616  34.742  1.00  0.00    -0.248 NA
ATOM     63  C   UNL A   1      42.046  31.222  36.931  1.00  0.00     0.031 C 
ATOM     64  C   UNL A   1      43.584  27.447  32.437  1.00  0.00     0.029 A 
ATOM     65  C   UNL A   1      42.954  28.435  33.178  1.00  0.00     0.049 A 
ATOM     66  H   UNL A   1      41.259  29.588  32.686  1.00  0.00     0.167 HD
ATOM     67  C   UNL A   1      42.609  29.883  35.157  1.00  0.00     0.074 A 
ATOM     68  C   UNL A   1      42.928  30.330  36.497  1.00  0.00     0.031 C 
ATOM     69  C   UNL A   1      43.293  28.920  34.492  1.00  0.00     0.034 A 
BRANCH  56  70
ATOM     70  C   UNL A   1      40.902  27.501  28.974  1.00  0.00     0.023 A 
ATOM     71  C   UNL A   1      39.958  26.463  28.834  1.00  0.00     0.012 A 
ATOM     72  C   UNL A   1      41.837  27.726  27.943  1.00  0.00     0.148 A 
ATOM     73  C   UNL A   1      39.967  25.640  27.709  1.00  0.00     0.002 A 
ATOM     74  C   UNL A   1      41.808  26.933  26.803  1.00  0.00     0.091 A 
ATOM     75  F   UNL A   1      42.739  28.705  28.101  1.00  0.00    -0.205 F 
ATOM     76  C   UNL A   1      40.883  25.881  26.690  1.00  0.00     0.022 A 
BRANCH  74  77
ATOM     77  S   UNL A   1      42.887  27.218  25.395  1.00  0.00     0.127 S 
ATOM     78  O   UNL A   1      42.761  25.957  24.666  1.00  0.00    -0.237 OA
ATOM     79  O   UNL A   1      42.248  28.364  24.746  1.00  0.00    -0.237 OA
ATOM     80  O   UNL A   1      44.206  27.492  25.946  1.00  0.00    -0.744 OA
ENDBRANCH  74  77
ENDBRANCH  56  70
BRANCH  57  81
ATOM     81  C   UNL A   1      39.963  33.280  37.063  1.00  0.00     0.023 A 
ATOM     82  C   UNL A   1      38.888  33.022  37.937  1.00  0.00     0.012 A 
ATOM     83  C   UNL A   1      40.874  34.306  37.380  1.00  0.00     0.148 A 
ATOM     84  C   UNL A   1      38.702  33.795  39.084  1.00  0.00     0.002 A 
ATOM     85  C   UNL A   1      40.716  35.035  38.554  1.00  0.00     0.091 A 
ATOM     86  F   UNL A   1      41.885  34.543  36.533  1.00  0.00    -0.205 F 
ATOM     87  C   UNL A   1      39.619  34.793  39.397  1.00  0.00     0.022 A 
BRANCH  85  88
ATOM     88  S   UNL A   1      41.916  36.252  39.104  1.00  0.00     0.127 S 
ATOM     89  O   UNL A   1      43.140  35.458  39.169  1.00  0.00    -0.237 OA
ATOM     90  O   UNL A   1      41.873  37.230  38.015  1.00  0.00    -0.237 OA
ATOM     91  O   UNL A   1      41.419  36.751  40.379  1.00  0.00    -0.744 OA
ENDBRANCH  85  88
ENDBRANCH  57  81
BRANCH  69  92
ATOM     92  C   UNL A   1      44.488  28.309  35.176  1.00  0.00     0.023 A 
ATOM     93  C   UNL A   1      45.770  28.865  34.991  1.00  0.00     0.012 A 
ATOM     94  C   UNL A   1      44.328  27.222  36.059  1.00  0.00     0.148 A 
ATOM     95  C   UNL A   1      46.877  28.328  35.648  1.00  0.00     0.002 A 
ATOM     96  C   UNL A   1      45.426  26.727  36.751  1.00  0.00     0.091 A 
ATOM     97  F   UNL A   1      43.104  26.695  36.209  1.00  0.00    -0.205 F 
ATOM     98  C   UNL A   1      46.703  27.269  36.536  1.00  0.00     0.022 A 
BRANCH  96  99
ATOM     99  S   UNL A   1      45.284  25.433  37.989  1.00  0.00     0.127 S 
ATOM    100  O   UNL A   1      46.657  25.345  38.486  1.00  0.00    -0.237 OA
ATOM    101  O   UNL A   1      44.329  26.012  38.934  1.00  0.00    -0.237 OA
ATOM    102  O   UNL A   1      44.800  24.253  37.286  1.00  0.00    -0.744 OA
ENDBRANCH  96  99
ENDBRANCH  69  92
ENDBRANCH  43  44
ENDBRANCH  35  38
ENDBRANCH  33  34
ENDBRANCH  32  33
ENDBRANCH   1  32
TORSDOF 19
ENDMDL
