MODEL 1
REMARK VINA RESULT:     -10.7      0.000      0.000
REMARK SMILES CC(C)[C@H](NC(=O)[C@H](C)NC(=O)CNC(=O)OCc1ccccc1)C(=O)NCCCCNC(=O)c1ccc(-c2c3nc(c(-c4cccc(S(=O)(=O)[O-])c4F)c4ccc([nH]4)c(-c4cccc(S(=O)(=O)[O-])c4F)c4nc(c(-c5cccc(S(=O)(=O)[O-])c5F)c5ccc2[nH]5)C=C4)C=C3)cc1
REMARK SMILES IDX 25 1 26 2 27 3 4 5 2 6 1 7 3 8 5 9 6 10 7 12 8 13 9 14 10 15
REMARK SMILES IDX 11 16 12 18 13 19 14 20 15 21 16 23 17 24 18 25 19 26 20 27
REMARK SMILES IDX 24 28 21 29 23 30 22 31 28 32 29 33 30 34 31 35 32 36 33 37
REMARK SMILES IDX 34 39 35 40 36 41 97 42 37 43 96 44 38 45 39 46 40 47 90 48
REMARK SMILES IDX 41 49 95 50 89 51 91 52 42 53 94 54 88 55 87 56 43 58 75 59
REMARK SMILES IDX 55 60 74 61 56 62 59 63 73 64 92 65 57 66 58 67 72 69 93 70
REMARK SMILES IDX 60 71 44 72 45 73 53 74 46 75 48 76 54 77 47 78 49 79 50 80
REMARK SMILES IDX 51 81 52 82 76 83 77 84 85 85 78 86 80 87 86 88 79 89 81 90
REMARK SMILES IDX 82 91 83 92 84 93 61 94 62 95 70 96 63 97 65 98 71 99 64 100
REMARK SMILES IDX 66 101 67 102 68 103 69 104
REMARK H PARENT 27 4 5 11 10 17 14 22 32 38 91 57 59 68
REMARK Flexibility Score: inf
ROOT
ATOM      1  C   UNL A   1      31.341  26.025  24.256  1.00  0.00     0.242 C 
ATOM      2  O   UNL A   1      30.654  25.211  23.628  1.00  0.00    -0.273 OA
ATOM      3  N   UNL A   1      30.782  26.544  25.381  1.00  0.00    -0.354 N 
ATOM      4  H   UNL A   1      29.812  26.398  25.461  1.00  0.00     0.163 HD
ENDROOT
BRANCH   1   5
ATOM      5  C   UNL A   1      32.801  26.307  23.791  1.00  0.00     0.173 C 
BRANCH   5   6
ATOM      6  C   UNL A   1      32.982  27.463  22.794  1.00  0.00     0.015 C 
ATOM      7  C   UNL A   1      34.070  28.480  23.145  1.00  0.00     0.010 C 
ATOM      8  C   UNL A   1      33.283  26.907  21.391  1.00  0.00     0.010 C 
ENDBRANCH   5   6
BRANCH   5   9
ATOM      9  N   UNL A   1      33.634  25.106  23.549  1.00  0.00    -0.342 N 
ATOM     10  C   UNL A   1      34.373  24.198  24.233  1.00  0.00     0.242 C 
ATOM     11  H   UNL A   1      33.660  24.904  22.587  1.00  0.00     0.164 HD
ATOM     12  O   UNL A   1      34.873  23.316  23.522  1.00  0.00    -0.273 OA
BRANCH  10  13
ATOM     13  C   UNL A   1      34.659  24.222  25.763  1.00  0.00     0.168 C 
ATOM     14  C   UNL A   1      35.336  22.903  26.162  1.00  0.00     0.041 C 
BRANCH  13  15
ATOM     15  N   UNL A   1      33.481  24.381  26.613  1.00  0.00    -0.343 N 
ATOM     16  C   UNL A   1      32.364  23.592  26.677  1.00  0.00     0.240 C 
ATOM     17  H   UNL A   1      33.492  25.157  27.219  1.00  0.00     0.164 HD
ATOM     18  O   UNL A   1      31.383  24.016  27.293  1.00  0.00    -0.273 OA
BRANCH  16  19
ATOM     19  C   UNL A   1      32.325  22.229  25.969  1.00  0.00     0.219 C 
BRANCH  19  20
ATOM     20  N   UNL A   1      31.833  22.379  24.617  1.00  0.00    -0.312 N 
ATOM     21  C   UNL A   1      32.078  21.548  23.571  1.00  0.00     0.407 C 
ATOM     22  H   UNL A   1      31.263  23.161  24.438  1.00  0.00     0.167 HD
ATOM     23  O   UNL A   1      31.751  21.858  22.429  1.00  0.00    -0.225 OA
BRANCH  21  24
ATOM     24  O   UNL A   1      32.746  20.426  23.925  1.00  0.00    -0.445 OA
BRANCH  24  25
ATOM     25  C   UNL A   1      32.419  19.258  23.167  1.00  0.00     0.270 C 
BRANCH  25  26
ATOM     26  C   UNL A   1      32.850  17.991  23.849  1.00  0.00    -0.011 A 
ATOM     27  C   UNL A   1      33.786  17.155  23.226  1.00  0.00     0.007 A 
ATOM     28  C   UNL A   1      32.359  17.638  25.114  1.00  0.00     0.007 A 
ATOM     29  C   UNL A   1      34.243  16.004  23.864  1.00  0.00     0.000 A 
ATOM     30  C   UNL A   1      32.825  16.489  25.756  1.00  0.00     0.000 A 
ATOM     31  C   UNL A   1      33.768  15.674  25.131  1.00  0.00     0.000 A 
ENDBRANCH  25  26
ENDBRANCH  24  25
ENDBRANCH  21  24
ENDBRANCH  19  20
ENDBRANCH  16  19
ENDBRANCH  13  15
ENDBRANCH  10  13
ENDBRANCH   5   9
ENDBRANCH   1   5
BRANCH   3  32
ATOM     32  C   UNL A   1      31.376  27.271  26.474  1.00  0.00     0.116 C 
BRANCH  32  33
ATOM     33  C   UNL A   1      31.777  28.702  26.112  1.00  0.00     0.023 C 
BRANCH  33  34
ATOM     34  C   UNL A   1      32.313  29.546  27.285  1.00  0.00     0.023 C 
BRANCH  34  35
ATOM     35  C   UNL A   1      33.585  30.352  26.993  1.00  0.00     0.116 C 
BRANCH  35  36
ATOM     36  N   UNL A   1      33.640  31.621  27.702  1.00  0.00    -0.352 N 
ATOM     37  C   UNL A   1      34.578  32.114  28.581  1.00  0.00     0.251 C 
ATOM     38  H   UNL A   1      32.883  32.225  27.524  1.00  0.00     0.163 HD
ATOM     39  O   UNL A   1      34.356  33.208  29.102  1.00  0.00    -0.269 OA
BRANCH  37  40
ATOM     40  C   UNL A   1      35.805  31.358  28.955  1.00  0.00     0.039 A 
ATOM     41  C   UNL A   1      37.028  31.770  28.403  1.00  0.00     0.014 A 
ATOM     42  C   UNL A   1      35.789  30.251  29.803  1.00  0.00     0.014 A 
ATOM     43  C   UNL A   1      38.221  31.127  28.754  1.00  0.00     0.010 A 
ATOM     44  C   UNL A   1      36.978  29.626  30.180  1.00  0.00     0.010 A 
ATOM     45  C   UNL A   1      38.204  30.067  29.670  1.00  0.00    -0.014 A 
BRANCH  45  46
ATOM     46  C   UNL A   1      39.455  29.470  30.194  1.00  0.00     0.031 A 
ATOM     47  C   UNL A   1      40.203  30.106  31.330  1.00  0.00     0.074 A 
ATOM     48  C   UNL A   1      39.987  28.424  29.532  1.00  0.00     0.049 A 
ATOM     49  N   UNL A   1      41.323  29.729  31.889  1.00  0.00    -0.248 NA
ATOM     50  C   UNL A   1      39.635  31.341  31.892  1.00  0.00     0.031 C 
ATOM     51  C   UNL A   1      39.404  27.801  28.340  1.00  0.00     0.029 A 
ATOM     52  N   UNL A   1      41.155  27.733  29.731  1.00  0.00    -0.354 N 
ATOM     53  C   UNL A   1      41.604  30.680  32.863  1.00  0.00     0.074 A 
ATOM     54  C   UNL A   1      40.551  31.673  32.794  1.00  0.00     0.031 C 
ATOM     55  C   UNL A   1      40.230  26.839  27.899  1.00  0.00     0.029 A 
ATOM     56  C   UNL A   1      41.395  26.775  28.774  1.00  0.00     0.049 A 
ATOM     57  H   UNL A   1      41.762  27.906  30.487  1.00  0.00     0.167 HD
ATOM     58  C   UNL A   1      42.630  30.706  33.748  1.00  0.00     0.034 A 
ATOM     59  C   UNL A   1      42.438  25.936  28.622  1.00  0.00     0.034 A 
ATOM     60  C   UNL A   1      43.662  29.703  33.810  1.00  0.00     0.049 A 
ATOM     61  C   UNL A   1      43.526  25.939  29.659  1.00  0.00     0.074 A 
ATOM     62  C   UNL A   1      44.689  29.577  34.728  1.00  0.00     0.029 A 
ATOM     63  N   UNL A   1      43.806  28.660  32.907  1.00  0.00    -0.354 N 
ATOM     64  N   UNL A   1      43.664  26.718  30.704  1.00  0.00    -0.248 NA
ATOM     65  C   UNL A   1      44.570  24.913  29.531  1.00  0.00     0.031 C 
ATOM     66  C   UNL A   1      45.466  28.468  34.369  1.00  0.00     0.029 A 
ATOM     67  C   UNL A   1      44.907  27.888  33.241  1.00  0.00     0.049 A 
ATOM     68  H   UNL A   1      43.211  28.491  32.141  1.00  0.00     0.167 HD
ATOM     69  C   UNL A   1      44.781  26.250  31.385  1.00  0.00     0.074 A 
ATOM     70  C   UNL A   1      45.274  25.108  30.638  1.00  0.00     0.031 C 
ATOM     71  C   UNL A   1      45.351  26.724  32.519  1.00  0.00     0.034 A 
BRANCH  58  72
ATOM     72  C   UNL A   1      42.653  31.815  34.769  1.00  0.00     0.023 A 
ATOM     73  C   UNL A   1      43.301  33.028  34.454  1.00  0.00     0.012 A 
ATOM     74  C   UNL A   1      41.976  31.698  36.000  1.00  0.00     0.148 A 
ATOM     75  C   UNL A   1      43.303  34.092  35.355  1.00  0.00     0.002 A 
ATOM     76  C   UNL A   1      41.948  32.778  36.877  1.00  0.00     0.091 A 
ATOM     77  F   UNL A   1      41.379  30.533  36.294  1.00  0.00    -0.205 F 
ATOM     78  C   UNL A   1      42.619  33.971  36.561  1.00  0.00     0.022 A 
BRANCH  76  79
ATOM     79  S   UNL A   1      41.032  32.750  38.424  1.00  0.00     0.127 S 
ATOM     80  O   UNL A   1      39.776  32.127  38.009  1.00  0.00    -0.237 OA
ATOM     81  O   UNL A   1      41.879  31.908  39.270  1.00  0.00    -0.237 OA
ATOM     82  O   UNL A   1      40.931  34.136  38.855  1.00  0.00    -0.744 OA
ENDBRANCH  76  79
ENDBRANCH  58  72
BRANCH  59  83
ATOM     83  C   UNL A   1      42.432  24.951  27.505  1.00  0.00     0.023 A 
ATOM     84  C   UNL A   1      43.063  25.287  26.292  1.00  0.00     0.012 A 
ATOM     85  C   UNL A   1      41.864  23.672  27.654  1.00  0.00     0.148 A 
ATOM     86  C   UNL A   1      43.102  24.377  25.235  1.00  0.00     0.002 A 
ATOM     87  C   UNL A   1      41.951  22.751  26.615  1.00  0.00     0.091 A 
ATOM     88  F   UNL A   1      41.263  23.373  28.816  1.00  0.00    -0.205 F 
ATOM     89  C   UNL A   1      42.556  23.107  25.400  1.00  0.00     0.022 A 
BRANCH  87  90
ATOM     90  S   UNL A   1      41.395  21.051  26.788  1.00  0.00     0.127 S 
ATOM     91  O   UNL A   1      41.669  20.509  25.460  1.00  0.00    -0.237 OA
ATOM     92  O   UNL A   1      42.269  20.551  27.850  1.00  0.00    -0.237 OA
ATOM     93  O   UNL A   1      39.989  21.137  27.163  1.00  0.00    -0.744 OA
ENDBRANCH  87  90
ENDBRANCH  59  83
BRANCH  71  94
ATOM     94  C   UNL A   1      46.554  25.989  33.052  1.00  0.00     0.023 A 
ATOM     95  C   UNL A   1      47.850  26.439  32.736  1.00  0.00     0.012 A 
ATOM     96  C   UNL A   1      46.395  24.891  33.921  1.00  0.00     0.148 A 
ATOM     97  C   UNL A   1      48.971  25.788  33.247  1.00  0.00     0.002 A 
ATOM     98  C   UNL A   1      47.516  24.276  34.465  1.00  0.00     0.091 A 
ATOM     99  F   UNL A   1      45.155  24.462  34.193  1.00  0.00    -0.205 F 
ATOM    100  C   UNL A   1      48.804  24.715  34.121  1.00  0.00     0.022 A 
BRANCH  98 101
ATOM    101  S   UNL A   1      47.391  22.949  35.670  1.00  0.00     0.127 S 
ATOM    102  O   UNL A   1      46.804  23.642  36.816  1.00  0.00    -0.237 OA
ATOM    103  O   UNL A   1      46.493  22.005  35.004  1.00  0.00    -0.237 OA
ATOM    104  O   UNL A   1      48.748  22.456  35.861  1.00  0.00    -0.744 OA
ENDBRANCH  98 101
ENDBRANCH  71  94
ENDBRANCH  45  46
ENDBRANCH  37  40
ENDBRANCH  35  36
ENDBRANCH  34  35
ENDBRANCH  33  34
ENDBRANCH  32  33
ENDBRANCH   3  32
TORSDOF 23
ENDMDL
MODEL 2
REMARK VINA RESULT:     -10.4      5.100     10.151
REMARK SMILES CC(C)[C@H](NC(=O)[C@H](C)NC(=O)CNC(=O)OCc1ccccc1)C(=O)NCCCCNC(=O)c1ccc(-c2c3nc(c(-c4cccc(S(=O)(=O)[O-])c4F)c4ccc([nH]4)c(-c4cccc(S(=O)(=O)[O-])c4F)c4nc(c(-c5cccc(S(=O)(=O)[O-])c5F)c5ccc2[nH]5)C=C4)C=C3)cc1
REMARK SMILES IDX 25 1 26 2 27 3 4 5 2 6 1 7 3 8 5 9 6 10 7 12 8 13 9 14 10 15
REMARK SMILES IDX 11 16 12 18 13 19 14 20 15 21 16 23 17 24 18 25 19 26 20 27
REMARK SMILES IDX 24 28 21 29 23 30 22 31 28 32 29 33 30 34 31 35 32 36 33 37
REMARK SMILES IDX 34 39 35 40 36 41 97 42 37 43 96 44 38 45 39 46 40 47 90 48
REMARK SMILES IDX 41 49 95 50 89 51 91 52 42 53 94 54 88 55 87 56 43 58 75 59
REMARK SMILES IDX 55 60 74 61 56 62 59 63 73 64 92 65 57 66 58 67 72 69 93 70
REMARK SMILES IDX 60 71 44 72 45 73 53 74 46 75 48 76 54 77 47 78 49 79 50 80
REMARK SMILES IDX 51 81 52 82 76 83 77 84 85 85 78 86 80 87 86 88 79 89 81 90
REMARK SMILES IDX 82 91 83 92 84 93 61 94 62 95 70 96 63 97 65 98 71 99 64 100
REMARK SMILES IDX 66 101 67 102 68 103 69 104
REMARK H PARENT 27 4 5 11 10 17 14 22 32 38 91 57 59 68
REMARK Flexibility Score: inf
ROOT
ATOM      1  C   UNL A   1      34.236  20.752  25.240  1.00  0.00     0.242 C 
ATOM      2  O   UNL A   1      33.253  20.010  25.361  1.00  0.00    -0.273 OA
ATOM      3  N   UNL A   1      35.443  20.139  25.131  1.00  0.00    -0.354 N 
ATOM      4  H   UNL A   1      35.445  19.189  25.385  1.00  0.00     0.163 HD
ENDROOT
BRANCH   1   5
ATOM      5  C   UNL A   1      34.016  22.289  25.111  1.00  0.00     0.173 C 
BRANCH   5   6
ATOM      6  C   UNL A   1      34.511  23.144  26.289  1.00  0.00     0.015 C 
ATOM      7  C   UNL A   1      34.465  22.474  27.663  1.00  0.00     0.010 C 
ATOM      8  C   UNL A   1      35.956  23.609  26.032  1.00  0.00     0.010 C 
ENDBRANCH   5   6
BRANCH   5   9
ATOM      9  N   UNL A   1      32.726  22.699  24.509  1.00  0.00    -0.342 N 
ATOM     10  C   UNL A   1      31.529  23.221  24.872  1.00  0.00     0.242 C 
ATOM     11  H   UNL A   1      32.743  22.541  23.538  1.00  0.00     0.164 HD
ATOM     12  O   UNL A   1      30.755  23.417  23.925  1.00  0.00    -0.273 OA
BRANCH  10  13
ATOM     13  C   UNL A   1      31.072  23.528  26.329  1.00  0.00     0.168 C 
ATOM     14  C   UNL A   1      29.929  22.571  26.701  1.00  0.00     0.041 C 
BRANCH  13  15
ATOM     15  N   UNL A   1      30.592  24.888  26.556  1.00  0.00    -0.343 N 
ATOM     16  C   UNL A   1      31.268  26.069  26.398  1.00  0.00     0.240 C 
ATOM     17  H   UNL A   1      29.660  24.967  26.864  1.00  0.00     0.164 HD
ATOM     18  O   UNL A   1      30.765  27.097  26.856  1.00  0.00    -0.273 OA
BRANCH  16  19
ATOM     19  C   UNL A   1      32.635  26.101  25.698  1.00  0.00     0.219 C 
BRANCH  19  20
ATOM     20  N   UNL A   1      33.127  27.458  25.618  1.00  0.00    -0.312 N 
ATOM     21  C   UNL A   1      32.960  28.319  24.580  1.00  0.00     0.407 C 
ATOM     22  H   UNL A   1      33.633  27.792  26.393  1.00  0.00     0.167 HD
ATOM     23  O   UNL A   1      33.562  29.389  24.545  1.00  0.00    -0.225 OA
BRANCH  21  24
ATOM     24  O   UNL A   1      32.139  27.843  23.617  1.00  0.00    -0.445 OA
BRANCH  24  25
ATOM     25  C   UNL A   1      31.687  28.811  22.667  1.00  0.00     0.270 C 
BRANCH  25  26
ATOM     26  C   UNL A   1      30.191  28.934  22.637  1.00  0.00    -0.011 A 
ATOM     27  C   UNL A   1      29.406  27.989  23.308  1.00  0.00     0.007 A 
ATOM     28  C   UNL A   1      29.559  29.997  21.974  1.00  0.00     0.007 A 
ATOM     29  C   UNL A   1      28.018  28.115  23.340  1.00  0.00     0.000 A 
ATOM     30  C   UNL A   1      28.169  30.126  22.016  1.00  0.00     0.000 A 
ATOM     31  C   UNL A   1      27.401  29.186  22.700  1.00  0.00     0.000 A 
ENDBRANCH  25  26
ENDBRANCH  24  25
ENDBRANCH  21  24
ENDBRANCH  19  20
ENDBRANCH  16  19
ENDBRANCH  13  15
ENDBRANCH  10  13
ENDBRANCH   5   9
ENDBRANCH   1   5
BRANCH   3  32
ATOM     32  C   UNL A   1      36.721  20.653  24.706  1.00  0.00     0.116 C 
BRANCH  32  33
ATOM     33  C   UNL A   1      37.891  19.716  25.010  1.00  0.00     0.023 C 
BRANCH  33  34
ATOM     34  C   UNL A   1      39.211  20.418  25.379  1.00  0.00     0.023 C 
BRANCH  34  35
ATOM     35  C   UNL A   1      40.003  19.777  26.526  1.00  0.00     0.116 C 
BRANCH  35  36
ATOM     36  N   UNL A   1      41.351  19.384  26.148  1.00  0.00    -0.352 N 
ATOM     37  C   UNL A   1      42.515  20.118  26.091  1.00  0.00     0.251 C 
ATOM     38  H   UNL A   1      41.447  18.438  25.891  1.00  0.00     0.163 HD
ATOM     39  O   UNL A   1      43.527  19.556  25.671  1.00  0.00    -0.269 OA
BRANCH  37  40
ATOM     40  C   UNL A   1      42.576  21.557  26.466  1.00  0.00     0.039 A 
ATOM     41  C   UNL A   1      42.649  21.881  27.829  1.00  0.00     0.014 A 
ATOM     42  C   UNL A   1      42.538  22.590  25.530  1.00  0.00     0.014 A 
ATOM     43  C   UNL A   1      42.756  23.216  28.240  1.00  0.00     0.010 A 
ATOM     44  C   UNL A   1      42.674  23.919  25.931  1.00  0.00     0.010 A 
ATOM     45  C   UNL A   1      42.799  24.242  27.287  1.00  0.00    -0.014 A 
BRANCH  45  46
ATOM     46  C   UNL A   1      43.077  25.647  27.667  1.00  0.00     0.031 A 
ATOM     47  C   UNL A   1      44.482  26.175  27.715  1.00  0.00     0.074 A 
ATOM     48  C   UNL A   1      42.053  26.401  28.113  1.00  0.00     0.049 A 
ATOM     49  N   UNL A   1      44.900  27.368  28.051  1.00  0.00    -0.248 NA
ATOM     50  C   UNL A   1      45.558  25.236  27.366  1.00  0.00     0.031 C 
ATOM     51  C   UNL A   1      40.663  25.948  28.223  1.00  0.00     0.029 A 
ATOM     52  N   UNL A   1      42.024  27.681  28.602  1.00  0.00    -0.354 N 
ATOM     53  C   UNL A   1      46.287  27.325  27.966  1.00  0.00     0.074 A 
ATOM     54  C   UNL A   1      46.641  25.975  27.579  1.00  0.00     0.031 C 
ATOM     55  C   UNL A   1      39.925  26.925  28.771  1.00  0.00     0.029 A 
ATOM     56  C   UNL A   1      40.784  28.071  29.049  1.00  0.00     0.049 A 
ATOM     57  H   UNL A   1      42.817  28.266  28.631  1.00  0.00     0.167 HD
ATOM     58  C   UNL A   1      47.177  28.327  28.167  1.00  0.00     0.034 A 
ATOM     59  C   UNL A   1      40.383  29.225  29.615  1.00  0.00     0.034 A 
ATOM     60  C   UNL A   1      46.805  29.668  28.541  1.00  0.00     0.049 A 
ATOM     61  C   UNL A   1      41.376  30.344  29.761  1.00  0.00     0.074 A 
ATOM     62  C   UNL A   1      47.614  30.782  28.673  1.00  0.00     0.029 A 
ATOM     63  N   UNL A   1      45.517  30.072  28.857  1.00  0.00    -0.354 N 
ATOM     64  N   UNL A   1      42.656  30.350  29.473  1.00  0.00    -0.248 NA
ATOM     65  C   UNL A   1      40.864  31.630  30.252  1.00  0.00     0.031 C 
ATOM     66  C   UNL A   1      46.817  31.856  29.087  1.00  0.00     0.029 A 
ATOM     67  C   UNL A   1      45.507  31.417  29.189  1.00  0.00     0.049 A 
ATOM     68  H   UNL A   1      44.724  29.488  28.846  1.00  0.00     0.167 HD
ATOM     69  C   UNL A   1      43.092  31.648  29.703  1.00  0.00     0.074 A 
ATOM     70  C   UNL A   1      41.935  32.404  30.141  1.00  0.00     0.031 C 
ATOM     71  C   UNL A   1      44.338  32.167  29.570  1.00  0.00     0.034 A 
BRANCH  58  72
ATOM     72  C   UNL A   1      48.636  28.035  27.920  1.00  0.00     0.023 A 
ATOM     73  C   UNL A   1      49.434  27.569  28.985  1.00  0.00     0.012 A 
ATOM     74  C   UNL A   1      49.200  28.142  26.633  1.00  0.00     0.148 A 
ATOM     75  C   UNL A   1      50.775  27.245  28.783  1.00  0.00     0.002 A 
ATOM     76  C   UNL A   1      50.528  27.779  26.431  1.00  0.00     0.091 A 
ATOM     77  F   UNL A   1      48.434  28.603  25.634  1.00  0.00    -0.205 F 
ATOM     78  C   UNL A   1      51.319  27.340  27.505  1.00  0.00     0.022 A 
BRANCH  76  79
ATOM     79  S   UNL A   1      51.303  27.793  24.808  1.00  0.00     0.127 S 
ATOM     80  O   UNL A   1      52.705  27.560  25.150  1.00  0.00    -0.237 OA
ATOM     81  O   UNL A   1      50.644  26.670  24.141  1.00  0.00    -0.237 OA
ATOM     82  O   UNL A   1      51.006  29.098  24.234  1.00  0.00    -0.744 OA
ENDBRANCH  76  79
ENDBRANCH  58  72
BRANCH  59  83
ATOM     83  C   UNL A   1      38.949  29.409  29.975  1.00  0.00     0.023 A 
ATOM     84  C   UNL A   1      38.514  29.049  31.265  1.00  0.00     0.012 A 
ATOM     85  C   UNL A   1      38.033  29.988  29.077  1.00  0.00     0.148 A 
ATOM     86  C   UNL A   1      37.185  29.235  31.645  1.00  0.00     0.002 A 
ATOM     87  C   UNL A   1      36.722  30.218  29.479  1.00  0.00     0.091 A 
ATOM     88  F   UNL A   1      38.465  30.319  27.851  1.00  0.00    -0.205 F 
ATOM     89  C   UNL A   1      36.292  29.828  30.757  1.00  0.00     0.022 A 
BRANCH  87  90
ATOM     90  S   UNL A   1      35.540  31.097  28.449  1.00  0.00     0.127 S 
ATOM     91  O   UNL A   1      34.649  31.682  29.446  1.00  0.00    -0.237 OA
ATOM     92  O   UNL A   1      36.398  32.055  27.751  1.00  0.00    -0.237 OA
ATOM     93  O   UNL A   1      34.949  30.085  27.582  1.00  0.00    -0.744 OA
ENDBRANCH  87  90
ENDBRANCH  59  83
BRANCH  71  94
ATOM     94  C   UNL A   1      44.514  33.634  29.865  1.00  0.00     0.023 A 
ATOM     95  C   UNL A   1      44.897  34.050  31.154  1.00  0.00     0.012 A 
ATOM     96  C   UNL A   1      44.365  34.592  28.843  1.00  0.00     0.148 A 
ATOM     97  C   UNL A   1      45.095  35.402  31.432  1.00  0.00     0.002 A 
ATOM     98  C   UNL A   1      44.610  35.933  29.116  1.00  0.00     0.091 A 
ATOM     99  F   UNL A   1      43.978  34.180  27.627  1.00  0.00    -0.205 F 
ATOM    100  C   UNL A   1      44.963  36.341  30.411  1.00  0.00     0.022 A 
BRANCH  98 101
ATOM    101  S   UNL A   1      44.555  37.196  27.838  1.00  0.00     0.127 S 
ATOM    102  O   UNL A   1      44.309  38.403  28.624  1.00  0.00    -0.237 OA
ATOM    103  O   UNL A   1      45.895  37.109  27.256  1.00  0.00    -0.237 OA
ATOM    104  O   UNL A   1      43.481  36.802  26.936  1.00  0.00    -0.744 OA
ENDBRANCH  98 101
ENDBRANCH  71  94
ENDBRANCH  45  46
ENDBRANCH  37  40
ENDBRANCH  35  36
ENDBRANCH  34  35
ENDBRANCH  33  34
ENDBRANCH  32  33
ENDBRANCH   3  32
TORSDOF 23
ENDMDL
MODEL 3
REMARK VINA RESULT:     -10.2      3.755      9.202
REMARK SMILES CC(C)[C@H](NC(=O)[C@H](C)NC(=O)CNC(=O)OCc1ccccc1)C(=O)NCCCCNC(=O)c1ccc(-c2c3nc(c(-c4cccc(S(=O)(=O)[O-])c4F)c4ccc([nH]4)c(-c4cccc(S(=O)(=O)[O-])c4F)c4nc(c(-c5cccc(S(=O)(=O)[O-])c5F)c5ccc2[nH]5)C=C4)C=C3)cc1
REMARK SMILES IDX 25 1 26 2 27 3 4 5 2 6 1 7 3 8 5 9 6 10 7 12 8 13 9 14 10 15
REMARK SMILES IDX 11 16 12 18 13 19 14 20 15 21 16 23 17 24 18 25 19 26 20 27
REMARK SMILES IDX 24 28 21 29 23 30 22 31 28 32 29 33 30 34 31 35 32 36 33 37
REMARK SMILES IDX 34 39 35 40 36 41 97 42 37 43 96 44 38 45 39 46 40 47 90 48
REMARK SMILES IDX 41 49 95 50 89 51 91 52 42 53 94 54 88 55 87 56 43 58 75 59
REMARK SMILES IDX 55 60 74 61 56 62 59 63 73 64 92 65 57 66 58 67 72 69 93 70
REMARK SMILES IDX 60 71 44 72 45 73 53 74 46 75 48 76 54 77 47 78 49 79 50 80
REMARK SMILES IDX 51 81 52 82 76 83 77 84 85 85 78 86 80 87 86 88 79 89 81 90
REMARK SMILES IDX 82 91 83 92 84 93 61 94 62 95 70 96 63 97 65 98 71 99 64 100
REMARK SMILES IDX 66 101 67 102 68 103 69 104
REMARK H PARENT 27 4 5 11 10 17 14 22 32 38 91 57 59 68
REMARK Flexibility Score: inf
ROOT
ATOM      1  C   UNL A   1      31.995  28.124  27.354  1.00  0.00     0.242 C 
ATOM      2  O   UNL A   1      31.152  28.207  28.255  1.00  0.00    -0.273 OA
ATOM      3  N   UNL A   1      33.128  28.856  27.521  1.00  0.00    -0.354 N 
ATOM      4  H   UNL A   1      33.071  29.547  28.219  1.00  0.00     0.163 HD
ENDROOT
BRANCH   1   5
ATOM      5  C   UNL A   1      31.758  27.128  26.181  1.00  0.00     0.173 C 
BRANCH   5   6
ATOM      6  C   UNL A   1      31.174  27.729  24.892  1.00  0.00     0.015 C 
ATOM      7  C   UNL A   1      32.181  28.025  23.780  1.00  0.00     0.010 C 
ATOM      8  C   UNL A   1      30.091  26.796  24.319  1.00  0.00     0.010 C 
ENDBRANCH   5   6
BRANCH   5   9
ATOM      9  N   UNL A   1      31.236  25.798  26.571  1.00  0.00    -0.342 N 
ATOM     10  C   UNL A   1      31.563  24.485  26.483  1.00  0.00     0.242 C 
ATOM     11  H   UNL A   1      30.379  25.899  27.043  1.00  0.00     0.164 HD
ATOM     12  O   UNL A   1      30.755  23.725  27.034  1.00  0.00    -0.273 OA
BRANCH  10  13
ATOM     13  C   UNL A   1      32.796  23.902  25.731  1.00  0.00     0.168 C 
ATOM     14  C   UNL A   1      32.438  23.735  24.247  1.00  0.00     0.041 C 
BRANCH  13  15
ATOM     15  N   UNL A   1      33.262  22.605  26.214  1.00  0.00    -0.343 N 
ATOM     16  C   UNL A   1      34.550  22.168  26.375  1.00  0.00     0.240 C 
ATOM     17  H   UNL A   1      32.558  21.961  26.456  1.00  0.00     0.164 HD
ATOM     18  O   UNL A   1      34.738  20.966  26.580  1.00  0.00    -0.273 OA
BRANCH  16  19
ATOM     19  C   UNL A   1      35.729  23.146  26.266  1.00  0.00     0.219 C 
BRANCH  19  20
ATOM     20  N   UNL A   1      36.970  22.422  26.106  1.00  0.00    -0.312 N 
ATOM     21  C   UNL A   1      38.222  22.949  26.134  1.00  0.00     0.407 C 
ATOM     22  H   UNL A   1      36.901  21.451  25.964  1.00  0.00     0.167 HD
ATOM     23  O   UNL A   1      39.198  22.272  25.820  1.00  0.00    -0.225 OA
BRANCH  21  24
ATOM     24  O   UNL A   1      38.245  24.257  26.475  1.00  0.00    -0.445 OA
BRANCH  24  25
ATOM     25  C   UNL A   1      39.126  24.591  27.550  1.00  0.00     0.270 C 
BRANCH  25  26
ATOM     26  C   UNL A   1      39.735  25.956  27.393  1.00  0.00    -0.011 A 
ATOM     27  C   UNL A   1      40.623  26.199  26.338  1.00  0.00     0.007 A 
ATOM     28  C   UNL A   1      39.409  27.005  28.264  1.00  0.00     0.007 A 
ATOM     29  C   UNL A   1      41.156  27.470  26.139  1.00  0.00     0.000 A 
ATOM     30  C   UNL A   1      39.937  28.282  28.057  1.00  0.00     0.000 A 
ATOM     31  C   UNL A   1      40.808  28.513  26.994  1.00  0.00     0.000 A 
ENDBRANCH  25  26
ENDBRANCH  24  25
ENDBRANCH  21  24
ENDBRANCH  19  20
ENDBRANCH  16  19
ENDBRANCH  13  15
ENDBRANCH  10  13
ENDBRANCH   5   9
ENDBRANCH   1   5
BRANCH   3  32
ATOM     32  C   UNL A   1      34.399  28.785  26.844  1.00  0.00     0.116 C 
BRANCH  32  33
ATOM     33  C   UNL A   1      35.423  29.800  27.355  1.00  0.00     0.023 C 
BRANCH  33  34
ATOM     34  C   UNL A   1      34.862  30.868  28.312  1.00  0.00     0.023 C 
BRANCH  34  35
ATOM     35  C   UNL A   1      34.979  32.319  27.826  1.00  0.00     0.116 C 
BRANCH  35  36
ATOM     36  N   UNL A   1      34.067  33.230  28.500  1.00  0.00    -0.352 N 
ATOM     37  C   UNL A   1      34.140  33.809  29.747  1.00  0.00     0.251 C 
ATOM     38  H   UNL A   1      33.267  33.471  27.979  1.00  0.00     0.163 HD
ATOM     39  O   UNL A   1      33.191  34.504  30.113  1.00  0.00    -0.269 OA
BRANCH  37  40
ATOM     40  C   UNL A   1      35.285  33.585  30.671  1.00  0.00     0.039 A 
ATOM     41  C   UNL A   1      35.202  32.517  31.577  1.00  0.00     0.014 A 
ATOM     42  C   UNL A   1      36.418  34.399  30.693  1.00  0.00     0.014 A 
ATOM     43  C   UNL A   1      36.267  32.227  32.439  1.00  0.00     0.010 A 
ATOM     44  C   UNL A   1      37.494  34.098  31.528  1.00  0.00     0.010 A 
ATOM     45  C   UNL A   1      37.434  33.002  32.396  1.00  0.00    -0.014 A 
BRANCH  45  46
ATOM     46  C   UNL A   1      38.644  32.632  33.168  1.00  0.00     0.031 A 
ATOM     47  C   UNL A   1      39.675  31.703  32.597  1.00  0.00     0.074 A 
ATOM     48  C   UNL A   1      38.726  33.031  34.453  1.00  0.00     0.049 A 
ATOM     49  N   UNL A   1      40.775  31.257  33.148  1.00  0.00    -0.248 NA
ATOM     50  C   UNL A   1      39.427  31.184  31.243  1.00  0.00     0.031 C 
ATOM     51  C   UNL A   1      37.718  33.838  35.147  1.00  0.00     0.029 A 
ATOM     52  N   UNL A   1      39.667  32.774  35.416  1.00  0.00    -0.354 N 
ATOM     53  C   UNL A   1      41.348  30.399  32.218  1.00  0.00     0.074 A 
ATOM     54  C   UNL A   1      40.455  30.359  31.078  1.00  0.00     0.031 C 
ATOM     55  C   UNL A   1      38.082  33.987  36.430  1.00  0.00     0.029 A 
ATOM     56  C   UNL A   1      39.345  33.290  36.649  1.00  0.00     0.049 A 
ATOM     57  H   UNL A   1      40.494  32.268  35.241  1.00  0.00     0.167 HD
ATOM     58  C   UNL A   1      42.524  29.729  32.299  1.00  0.00     0.034 A 
ATOM     59  C   UNL A   1      39.998  33.214  37.825  1.00  0.00     0.034 A 
ATOM     60  C   UNL A   1      43.406  29.790  33.436  1.00  0.00     0.049 A 
ATOM     61  C   UNL A   1      41.333  32.525  37.868  1.00  0.00     0.074 A 
ATOM     62  C   UNL A   1      44.664  29.233  33.583  1.00  0.00     0.029 A 
ATOM     63  N   UNL A   1      43.115  30.436  34.628  1.00  0.00    -0.354 N 
ATOM     64  N   UNL A   1      41.964  31.892  36.907  1.00  0.00    -0.248 NA
ATOM     65  C   UNL A   1      42.074  32.587  39.135  1.00  0.00     0.031 C 
ATOM     66  C   UNL A   1      45.126  29.527  34.872  1.00  0.00     0.029 A 
ATOM     67  C   UNL A   1      44.166  30.288  35.519  1.00  0.00     0.049 A 
ATOM     68  H   UNL A   1      42.284  30.929  34.814  1.00  0.00     0.167 HD
ATOM     69  C   UNL A   1      43.193  31.522  37.438  1.00  0.00     0.074 A 
ATOM     70  C   UNL A   1      43.223  32.014  38.801  1.00  0.00     0.031 C 
ATOM     71  C   UNL A   1      44.202  30.831  36.853  1.00  0.00     0.034 A 
BRANCH  58  72
ATOM     72  C   UNL A   1      42.962  28.926  31.099  1.00  0.00     0.023 A 
ATOM     73  C   UNL A   1      42.626  27.558  31.026  1.00  0.00     0.012 A 
ATOM     74  C   UNL A   1      43.632  29.529  30.015  1.00  0.00     0.148 A 
ATOM     75  C   UNL A   1      42.974  26.796  29.912  1.00  0.00     0.002 A 
ATOM     76  C   UNL A   1      43.941  28.771  28.889  1.00  0.00     0.091 A 
ATOM     77  F   UNL A   1      43.960  30.826  30.106  1.00  0.00    -0.205 F 
ATOM     78  C   UNL A   1      43.622  27.404  28.840  1.00  0.00     0.022 A 
BRANCH  76  79
ATOM     79  S   UNL A   1      44.707  29.477  27.424  1.00  0.00     0.127 S 
ATOM     80  O   UNL A   1      43.742  30.511  27.057  1.00  0.00    -0.237 OA
ATOM     81  O   UNL A   1      45.974  29.985  27.952  1.00  0.00    -0.237 OA
ATOM     82  O   UNL A   1      44.843  28.381  26.475  1.00  0.00    -0.744 OA
ENDBRANCH  76  79
ENDBRANCH  58  72
BRANCH  59  83
ATOM     83  C   UNL A   1      39.444  33.909  39.021  1.00  0.00     0.023 A 
ATOM     84  C   UNL A   1      39.828  35.238  39.279  1.00  0.00     0.012 A 
ATOM     85  C   UNL A   1      38.502  33.288  39.862  1.00  0.00     0.148 A 
ATOM     86  C   UNL A   1      39.307  35.929  40.373  1.00  0.00     0.002 A 
ATOM     87  C   UNL A   1      37.947  33.999  40.921  1.00  0.00     0.091 A 
ATOM     88  F   UNL A   1      38.154  32.019  39.602  1.00  0.00    -0.205 F 
ATOM     89  C   UNL A   1      38.360  35.314  41.187  1.00  0.00     0.022 A 
BRANCH  87  90
ATOM     90  S   UNL A   1      36.624  33.331  41.938  1.00  0.00     0.127 S 
ATOM     91  O   UNL A   1      36.406  34.413  42.894  1.00  0.00    -0.237 OA
ATOM     92  O   UNL A   1      35.551  33.148  40.960  1.00  0.00    -0.237 OA
ATOM     93  O   UNL A   1      37.146  32.088  42.491  1.00  0.00    -0.744 OA
ENDBRANCH  87  90
ENDBRANCH  59  83
BRANCH  71  94
ATOM     94  C   UNL A   1      45.447  30.597  37.668  1.00  0.00     0.023 A 
ATOM     95  C   UNL A   1      46.429  31.603  37.757  1.00  0.00     0.012 A 
ATOM     96  C   UNL A   1      45.611  29.403  38.398  1.00  0.00     0.148 A 
ATOM     97  C   UNL A   1      47.571  31.412  38.533  1.00  0.00     0.002 A 
ATOM     98  C   UNL A   1      46.729  29.239  39.208  1.00  0.00     0.091 A 
ATOM     99  F   UNL A   1      44.678  28.447  38.284  1.00  0.00    -0.205 F 
ATOM    100  C   UNL A   1      47.715  30.236  39.268  1.00  0.00     0.022 A 
BRANCH  98 101
ATOM    101  S   UNL A   1      46.947  27.798  40.258  1.00  0.00     0.127 S 
ATOM    102  O   UNL A   1      46.853  26.706  39.291  1.00  0.00    -0.237 OA
ATOM    103  O   UNL A   1      48.286  28.012  40.808  1.00  0.00    -0.237 OA
ATOM    104  O   UNL A   1      45.876  27.858  41.244  1.00  0.00    -0.744 OA
ENDBRANCH  98 101
ENDBRANCH  71  94
ENDBRANCH  45  46
ENDBRANCH  37  40
ENDBRANCH  35  36
ENDBRANCH  34  35
ENDBRANCH  33  34
ENDBRANCH  32  33
ENDBRANCH   3  32
TORSDOF 23
ENDMDL
