MODEL 1
REMARK VINA RESULT:     -11.0      0.000      0.000
REMARK SMILES CCCC[C@@H](C(=O)NCCCCNC(=O)c1ccc(-c2c3nc(c(-c4cccc(S(=O)(=O)[O-])c4F)c4ccc([nH]4)c(-c4cccc(S(=O)(=O)[O-])c4F)c4nc(c(-c5cccc(S(=O)(=O)[O-])c5F)c5ccc2[nH]5)C=C4)C=C3)cc1)[C@@]1(O)CCC[C@H](CC)C1
REMARK SMILES IDX 10 1 9 2 8 3 6 4 7 5 5 7 4 8 3 9 2 10 1 11 79 12 81 13 87 14
REMARK SMILES IDX 82 15 84 16 83 17 80 18 85 20 86 21 11 22 12 23 13 24 14 25
REMARK SMILES IDX 15 27 16 28 17 29 78 30 18 31 77 32 19 33 20 34 21 35 71 36
REMARK SMILES IDX 22 37 76 38 70 39 72 40 23 41 75 42 69 43 68 44 24 46 56 47
REMARK SMILES IDX 36 48 55 49 37 50 40 51 54 52 73 53 38 54 39 55 53 57 74 58
REMARK SMILES IDX 41 59 25 60 26 61 34 62 27 63 29 64 35 65 28 66 30 67 31 68
REMARK SMILES IDX 32 69 33 70 57 71 58 72 66 73 59 74 61 75 67 76 60 77 62 78
REMARK SMILES IDX 63 79 64 80 65 81 42 82 43 83 51 84 44 85 46 86 52 87 45 88
REMARK SMILES IDX 47 89 48 90 49 91 50 92
REMARK H PARENT 8 6 80 19 13 26 72 45 40 56
REMARK Flexibility Score: inf
ROOT
ATOM      1  C   UNL A   1      32.635  28.941  24.036  1.00  0.00     0.023 C 
ENDROOT
BRANCH   1   2
ATOM      2  C   UNL A   1      32.173  27.507  23.804  1.00  0.00     0.116 C 
BRANCH   2   3
ATOM      3  N   UNL A   1      32.626  27.014  22.526  1.00  0.00    -0.356 N 
ATOM      4  C   UNL A   1      33.122  25.798  22.174  1.00  0.00     0.226 C 
ATOM      5  O   UNL A   1      33.300  25.621  20.965  1.00  0.00    -0.275 OA
ATOM      6  H   UNL A   1      32.566  27.664  21.788  1.00  0.00     0.163 HD
BRANCH   4   7
ATOM      7  C   UNL A   1      33.378  24.677  23.217  1.00  0.00     0.110 C 
BRANCH   7   8
ATOM      8  C   UNL A   1      34.610  23.820  22.852  1.00  0.00     0.016 C 
BRANCH   8   9
ATOM      9  C   UNL A   1      35.695  23.468  23.892  1.00  0.00     0.001 C 
BRANCH   9  10
ATOM     10  C   UNL A   1      35.656  24.070  25.297  1.00  0.00    -0.003 C 
ATOM     11  C   UNL A   1      35.377  23.037  26.370  1.00  0.00     0.004 C 
ENDBRANCH   9  10
ENDBRANCH   8   9
ENDBRANCH   7   8
BRANCH   7  12
ATOM     12  C   UNL A   1      32.051  23.822  23.408  1.00  0.00     0.077 C 
ATOM     13  C   UNL A   1      32.122  22.325  23.015  1.00  0.00     0.036 C 
ATOM     14  C   UNL A   1      31.418  23.983  24.818  1.00  0.00     0.039 C 
ATOM     15  C   UNL A   1      32.609  21.369  24.094  1.00  0.00     0.003 C 
ATOM     16  C   UNL A   1      31.875  22.998  25.912  1.00  0.00    -0.009 C 
ATOM     17  C   UNL A   1      31.849  21.553  25.399  1.00  0.00     0.004 C 
BRANCH  12  18
ATOM     18  O   UNL A   1      31.062  24.427  22.532  1.00  0.00    -0.389 OA
ATOM     19  H   UNL A   1      30.184  24.072  22.743  1.00  0.00     0.211 HD
ENDBRANCH  12  18
BRANCH  16  20
ATOM     20  C   UNL A   1      30.992  23.099  27.175  1.00  0.00     0.000 C 
ATOM     21  C   UNL A   1      29.544  22.703  26.935  1.00  0.00     0.004 C 
ENDBRANCH  16  20
ENDBRANCH   7  12
ENDBRANCH   4   7
ENDBRANCH   2   3
ENDBRANCH   1   2
BRANCH   1  22
ATOM     22  C   UNL A   1      32.042  29.625  25.258  1.00  0.00     0.023 C 
BRANCH  22  23
ATOM     23  C   UNL A   1      33.058  30.008  26.323  1.00  0.00     0.116 C 
BRANCH  23  24
ATOM     24  N   UNL A   1      32.877  31.351  26.865  1.00  0.00    -0.352 N 
ATOM     25  C   UNL A   1      33.749  32.061  27.663  1.00  0.00     0.251 C 
ATOM     26  H   UNL A   1      32.034  31.802  26.634  1.00  0.00     0.163 HD
ATOM     27  O   UNL A   1      33.445  33.159  28.107  1.00  0.00    -0.269 OA
BRANCH  25  28
ATOM     28  C   UNL A   1      35.040  31.432  28.008  1.00  0.00     0.039 A 
ATOM     29  C   UNL A   1      36.192  32.220  28.030  1.00  0.00     0.014 A 
ATOM     30  C   UNL A   1      35.071  30.104  28.435  1.00  0.00     0.014 A 
ATOM     31  C   UNL A   1      37.365  31.694  28.574  1.00  0.00     0.010 A 
ATOM     32  C   UNL A   1      36.210  29.618  29.059  1.00  0.00     0.010 A 
ATOM     33  C   UNL A   1      37.368  30.407  29.138  1.00  0.00    -0.014 A 
BRANCH  33  34
ATOM     34  C   UNL A   1      38.562  29.860  29.828  1.00  0.00     0.031 A 
ATOM     35  C   UNL A   1      38.940  30.380  31.188  1.00  0.00     0.074 A 
ATOM     36  C   UNL A   1      39.367  28.990  29.186  1.00  0.00     0.049 A 
ATOM     37  N   UNL A   1      39.995  30.108  31.910  1.00  0.00    -0.248 NA
ATOM     38  C   UNL A   1      38.034  31.368  31.799  1.00  0.00     0.031 C 
ATOM     39  C   UNL A   1      39.163  28.488  27.824  1.00  0.00     0.029 A 
ATOM     40  N   UNL A   1      40.538  28.394  29.583  1.00  0.00    -0.354 N 
ATOM     41  C   UNL A   1      39.905  30.925  33.030  1.00  0.00     0.074 A 
ATOM     42  C   UNL A   1      38.715  31.731  32.875  1.00  0.00     0.031 C 
ATOM     43  C   UNL A   1      40.166  27.654  27.505  1.00  0.00     0.029 A 
ATOM     44  C   UNL A   1      41.096  27.577  28.628  1.00  0.00     0.049 A 
ATOM     45  H   UNL A   1      40.941  28.538  30.470  1.00  0.00     0.167 HD
ATOM     46  C   UNL A   1      40.717  30.972  34.111  1.00  0.00     0.034 A 
ATOM     47  C   UNL A   1      42.228  26.846  28.656  1.00  0.00     0.034 A 
ATOM     48  C   UNL A   1      41.852  30.112  34.299  1.00  0.00     0.049 A 
ATOM     49  C   UNL A   1      43.063  26.847  29.908  1.00  0.00     0.074 A 
ATOM     50  C   UNL A   1      42.676  30.002  35.404  1.00  0.00     0.029 A 
ATOM     51  N   UNL A   1      42.316  29.204  33.359  1.00  0.00    -0.354 N 
ATOM     52  N   UNL A   1      42.870  27.501  31.028  1.00  0.00    -0.248 NA
ATOM     53  C   UNL A   1      44.251  25.981  29.917  1.00  0.00     0.031 C 
ATOM     54  C   UNL A   1      43.639  29.024  35.133  1.00  0.00     0.029 A 
ATOM     55  C   UNL A   1      43.411  28.525  33.860  1.00  0.00     0.049 A 
ATOM     56  H   UNL A   1      41.923  29.064  32.467  1.00  0.00     0.167 HD
ATOM     57  C   UNL A   1      43.887  27.101  31.885  1.00  0.00     0.074 A 
ATOM     58  C   UNL A   1      44.685  26.132  31.162  1.00  0.00     0.031 C 
ATOM     59  C   UNL A   1      44.151  27.513  33.150  1.00  0.00     0.034 A 
BRANCH  46  60
ATOM     60  C   UNL A   1      40.352  31.933  35.211  1.00  0.00     0.023 A 
ATOM     61  C   UNL A   1      41.109  33.113  35.374  1.00  0.00     0.012 A 
ATOM     62  C   UNL A   1      39.252  31.695  36.055  1.00  0.00     0.148 A 
ATOM     63  C   UNL A   1      40.799  34.021  36.383  1.00  0.00     0.002 A 
ATOM     64  C   UNL A   1      38.924  32.627  37.034  1.00  0.00     0.091 A 
ATOM     65  F   UNL A   1      38.561  30.556  35.903  1.00  0.00    -0.205 F 
ATOM     66  C   UNL A   1      39.703  33.784  37.207  1.00  0.00     0.022 A 
BRANCH  64  67
ATOM     67  S   UNL A   1      37.485  32.446  38.094  1.00  0.00     0.127 S 
ATOM     68  O   UNL A   1      37.422  30.994  38.259  1.00  0.00    -0.237 OA
ATOM     69  O   UNL A   1      37.888  33.180  39.294  1.00  0.00    -0.237 OA
ATOM     70  O   UNL A   1      36.376  33.045  37.364  1.00  0.00    -0.744 OA
ENDBRANCH  64  67
ENDBRANCH  46  60
BRANCH  47  71
ATOM     71  C   UNL A   1      42.581  25.974  27.500  1.00  0.00     0.023 A 
ATOM     72  C   UNL A   1      43.415  26.487  26.488  1.00  0.00     0.012 A 
ATOM     73  C   UNL A   1      42.133  24.642  27.410  1.00  0.00     0.148 A 
ATOM     74  C   UNL A   1      43.775  25.700  25.393  1.00  0.00     0.002 A 
ATOM     75  C   UNL A   1      42.535  23.848  26.341  1.00  0.00     0.091 A 
ATOM     76  F   UNL A   1      41.328  24.175  28.375  1.00  0.00    -0.205 F 
ATOM     77  C   UNL A   1      43.344  24.379  25.324  1.00  0.00     0.022 A 
BRANCH  75  78
ATOM     78  S   UNL A   1      42.132  22.099  26.243  1.00  0.00     0.127 S 
ATOM     79  O   UNL A   1      42.930  21.671  25.098  1.00  0.00    -0.237 OA
ATOM     80  O   UNL A   1      42.598  21.603  27.540  1.00  0.00    -0.237 OA
ATOM     81  O   UNL A   1      40.687  22.046  26.070  1.00  0.00    -0.744 OA
ENDBRANCH  75  78
ENDBRANCH  47  71
BRANCH  59  82
ATOM     82  C   UNL A   1      45.331  26.902  33.852  1.00  0.00     0.023 A 
ATOM     83  C   UNL A   1      46.577  27.557  33.814  1.00  0.00     0.012 A 
ATOM     84  C   UNL A   1      45.185  25.732  34.622  1.00  0.00     0.148 A 
ATOM     85  C   UNL A   1      47.667  27.045  34.515  1.00  0.00     0.002 A 
ATOM     86  C   UNL A   1      46.265  25.251  35.354  1.00  0.00     0.091 A 
ATOM     87  F   UNL A   1      43.996  25.111  34.628  1.00  0.00    -0.205 F 
ATOM     88  C   UNL A   1      47.509  25.902  35.295  1.00  0.00     0.022 A 
BRANCH  86  89
ATOM     89  S   UNL A   1      46.121  23.838  36.454  1.00  0.00     0.127 S 
ATOM     90  O   UNL A   1      46.154  22.721  35.513  1.00  0.00    -0.237 OA
ATOM     91  O   UNL A   1      47.315  23.967  37.290  1.00  0.00    -0.237 OA
ATOM     92  O   UNL A   1      44.865  24.022  37.170  1.00  0.00    -0.744 OA
ENDBRANCH  86  89
ENDBRANCH  59  82
ENDBRANCH  33  34
ENDBRANCH  25  28
ENDBRANCH  23  24
ENDBRANCH  22  23
ENDBRANCH   1  22
TORSDOF 20
ENDMDL
MODEL 2
REMARK VINA RESULT:     -10.8      1.239      2.254
REMARK SMILES CCCC[C@@H](C(=O)NCCCCNC(=O)c1ccc(-c2c3nc(c(-c4cccc(S(=O)(=O)[O-])c4F)c4ccc([nH]4)c(-c4cccc(S(=O)(=O)[O-])c4F)c4nc(c(-c5cccc(S(=O)(=O)[O-])c5F)c5ccc2[nH]5)C=C4)C=C3)cc1)[C@@]1(O)CCC[C@H](CC)C1
REMARK SMILES IDX 10 1 9 2 8 3 6 4 7 5 5 7 4 8 3 9 2 10 1 11 79 12 81 13 87 14
REMARK SMILES IDX 82 15 84 16 83 17 80 18 85 20 86 21 11 22 12 23 13 24 14 25
REMARK SMILES IDX 15 27 16 28 17 29 78 30 18 31 77 32 19 33 20 34 21 35 71 36
REMARK SMILES IDX 22 37 76 38 70 39 72 40 23 41 75 42 69 43 68 44 24 46 56 47
REMARK SMILES IDX 36 48 55 49 37 50 40 51 54 52 73 53 38 54 39 55 53 57 74 58
REMARK SMILES IDX 41 59 25 60 26 61 34 62 27 63 29 64 35 65 28 66 30 67 31 68
REMARK SMILES IDX 32 69 33 70 57 71 58 72 66 73 59 74 61 75 67 76 60 77 62 78
REMARK SMILES IDX 63 79 64 80 65 81 42 82 43 83 51 84 44 85 46 86 52 87 45 88
REMARK SMILES IDX 47 89 48 90 49 91 50 92
REMARK H PARENT 8 6 80 19 13 26 72 45 40 56
REMARK Flexibility Score: inf
ROOT
ATOM      1  C   UNL A   1      31.421  27.804  25.391  1.00  0.00     0.023 C 
ENDROOT
BRANCH   1   2
ATOM      2  C   UNL A   1      32.247  26.848  26.242  1.00  0.00     0.116 C 
BRANCH   2   3
ATOM      3  N   UNL A   1      31.441  25.752  26.724  1.00  0.00    -0.356 N 
ATOM      4  C   UNL A   1      31.537  24.416  26.489  1.00  0.00     0.226 C 
ATOM      5  O   UNL A   1      30.784  23.699  27.154  1.00  0.00    -0.275 OA
ATOM      6  H   UNL A   1      30.703  26.014  27.320  1.00  0.00     0.163 HD
BRANCH   4   7
ATOM      7  C   UNL A   1      32.579  23.824  25.502  1.00  0.00     0.110 C 
BRANCH   7   8
ATOM      8  C   UNL A   1      31.904  23.113  24.309  1.00  0.00     0.016 C 
BRANCH   8   9
ATOM      9  C   UNL A   1      32.488  23.182  22.882  1.00  0.00     0.001 C 
BRANCH   9  10
ATOM     10  C   UNL A   1      32.812  24.529  22.234  1.00  0.00    -0.003 C 
ATOM     11  C   UNL A   1      31.697  25.542  22.394  1.00  0.00     0.004 C 
ENDBRANCH   9  10
ENDBRANCH   8   9
ENDBRANCH   7   8
BRANCH   7  12
ATOM     12  C   UNL A   1      33.590  22.892  26.300  1.00  0.00     0.077 C 
ATOM     13  C   UNL A   1      33.385  21.362  26.165  1.00  0.00     0.036 C 
ATOM     14  C   UNL A   1      35.081  23.262  26.061  1.00  0.00     0.039 C 
ATOM     15  C   UNL A   1      34.073  20.693  24.984  1.00  0.00     0.003 C 
ATOM     16  C   UNL A   1      35.801  22.565  24.890  1.00  0.00    -0.009 C 
ATOM     17  C   UNL A   1      35.549  21.052  24.911  1.00  0.00     0.004 C 
BRANCH  12  18
ATOM     18  O   UNL A   1      33.395  23.207  27.704  1.00  0.00    -0.389 OA
ATOM     19  H   UNL A   1      32.695  23.874  27.792  1.00  0.00     0.211 HD
ENDBRANCH  12  18
BRANCH  16  20
ATOM     20  C   UNL A   1      37.324  22.822  24.923  1.00  0.00     0.000 C 
ATOM     21  C   UNL A   1      37.753  23.780  26.023  1.00  0.00     0.004 C 
ENDBRANCH  16  20
ENDBRANCH   7  12
ENDBRANCH   4   7
ENDBRANCH   2   3
ENDBRANCH   1   2
BRANCH   1  22
ATOM     22  C   UNL A   1      31.962  29.223  25.294  1.00  0.00     0.023 C 
BRANCH  22  23
ATOM     23  C   UNL A   1      32.859  29.637  26.450  1.00  0.00     0.116 C 
BRANCH  23  24
ATOM     24  N   UNL A   1      32.696  31.027  26.863  1.00  0.00    -0.352 N 
ATOM     25  C   UNL A   1      33.599  31.813  27.547  1.00  0.00     0.251 C 
ATOM     26  H   UNL A   1      31.842  31.453  26.626  1.00  0.00     0.163 HD
ATOM     27  O   UNL A   1      33.310  32.950  27.893  1.00  0.00    -0.269 OA
BRANCH  25  28
ATOM     28  C   UNL A   1      34.906  31.222  27.896  1.00  0.00     0.039 A 
ATOM     29  C   UNL A   1      36.030  32.048  27.951  1.00  0.00     0.014 A 
ATOM     30  C   UNL A   1      34.978  29.886  28.295  1.00  0.00     0.014 A 
ATOM     31  C   UNL A   1      37.214  31.551  28.499  1.00  0.00     0.010 A 
ATOM     32  C   UNL A   1      36.125  29.425  28.923  1.00  0.00     0.010 A 
ATOM     33  C   UNL A   1      37.254  30.253  29.034  1.00  0.00    -0.014 A 
BRANCH  33  34
ATOM     34  C   UNL A   1      38.458  29.732  29.729  1.00  0.00     0.031 A 
ATOM     35  C   UNL A   1      38.814  30.253  31.094  1.00  0.00     0.074 A 
ATOM     36  C   UNL A   1      39.288  28.886  29.086  1.00  0.00     0.049 A 
ATOM     37  N   UNL A   1      39.872  30.004  31.820  1.00  0.00    -0.248 NA
ATOM     38  C   UNL A   1      37.880  31.214  31.705  1.00  0.00     0.031 C 
ATOM     39  C   UNL A   1      39.105  28.387  27.721  1.00  0.00     0.029 A 
ATOM     40  N   UNL A   1      40.471  28.318  29.487  1.00  0.00    -0.354 N 
ATOM     41  C   UNL A   1      39.755  30.812  32.945  1.00  0.00     0.074 A 
ATOM     42  C   UNL A   1      38.546  31.588  32.788  1.00  0.00     0.031 C 
ATOM     43  C   UNL A   1      40.131  27.580  27.403  1.00  0.00     0.029 A 
ATOM     44  C   UNL A   1      41.056  27.520  28.530  1.00  0.00     0.049 A 
ATOM     45  H   UNL A   1      40.865  28.466  30.377  1.00  0.00     0.167 HD
ATOM     46  C   UNL A   1      40.560  30.873  34.030  1.00  0.00     0.034 A 
ATOM     47  C   UNL A   1      42.205  26.818  28.561  1.00  0.00     0.034 A 
ATOM     48  C   UNL A   1      41.714  30.041  34.220  1.00  0.00     0.049 A 
ATOM     49  C   UNL A   1      43.033  26.833  29.818  1.00  0.00     0.074 A 
ATOM     50  C   UNL A   1      42.535  29.945  35.329  1.00  0.00     0.029 A 
ATOM     51  N   UNL A   1      42.206  29.150  33.278  1.00  0.00    -0.354 N 
ATOM     52  N   UNL A   1      42.817  27.475  30.940  1.00  0.00    -0.248 NA
ATOM     53  C   UNL A   1      44.242  25.997  29.829  1.00  0.00     0.031 C 
ATOM     54  C   UNL A   1      43.524  28.993  35.059  1.00  0.00     0.029 A 
ATOM     55  C   UNL A   1      43.316  28.495  33.782  1.00  0.00     0.049 A 
ATOM     56  H   UNL A   1      41.822  29.005  32.383  1.00  0.00     0.167 HD
ATOM     57  C   UNL A   1      43.839  27.096  31.801  1.00  0.00     0.074 A 
ATOM     58  C   UNL A   1      44.665  26.151  31.077  1.00  0.00     0.031 C 
ATOM     59  C   UNL A   1      44.084  27.507  33.070  1.00  0.00     0.034 A 
BRANCH  46  60
ATOM     60  C   UNL A   1      40.164  31.817  35.134  1.00  0.00     0.023 A 
ATOM     61  C   UNL A   1      40.751  33.099  35.186  1.00  0.00     0.012 A 
ATOM     62  C   UNL A   1      39.196  31.461  36.091  1.00  0.00     0.148 A 
ATOM     63  C   UNL A   1      40.409  33.996  36.195  1.00  0.00     0.002 A 
ATOM     64  C   UNL A   1      38.829  32.377  37.071  1.00  0.00     0.091 A 
ATOM     65  F   UNL A   1      38.669  30.229  36.042  1.00  0.00    -0.205 F 
ATOM     66  C   UNL A   1      39.443  33.640  37.131  1.00  0.00     0.022 A 
BRANCH  64  67
ATOM     67  S   UNL A   1      37.540  32.037  38.275  1.00  0.00     0.127 S 
ATOM     68  O   UNL A   1      36.474  32.932  37.825  1.00  0.00    -0.237 OA
ATOM     69  O   UNL A   1      37.277  30.615  38.055  1.00  0.00    -0.237 OA
ATOM     70  O   UNL A   1      38.118  32.350  39.574  1.00  0.00    -0.744 OA
ENDBRANCH  64  67
ENDBRANCH  46  60
BRANCH  47  71
ATOM     71  C   UNL A   1      42.586  25.962  27.403  1.00  0.00     0.023 A 
ATOM     72  C   UNL A   1      43.411  26.503  26.396  1.00  0.00     0.012 A 
ATOM     73  C   UNL A   1      42.176  24.619  27.304  1.00  0.00     0.148 A 
ATOM     74  C   UNL A   1      43.796  25.732  25.299  1.00  0.00     0.002 A 
ATOM     75  C   UNL A   1      42.604  23.841  26.233  1.00  0.00     0.091 A 
ATOM     76  F   UNL A   1      41.380  24.124  28.263  1.00  0.00    -0.205 F 
ATOM     77  C   UNL A   1      43.403  24.400  25.222  1.00  0.00     0.022 A 
BRANCH  75  78
ATOM     78  S   UNL A   1      42.250  22.082  26.124  1.00  0.00     0.127 S 
ATOM     79  O   UNL A   1      43.090  21.676  25.002  1.00  0.00    -0.237 OA
ATOM     80  O   UNL A   1      42.692  21.598  27.433  1.00  0.00    -0.237 OA
ATOM     81  O   UNL A   1      40.812  21.992  25.911  1.00  0.00    -0.744 OA
ENDBRANCH  75  78
ENDBRANCH  47  71
BRANCH  59  82
ATOM     82  C   UNL A   1      45.276  26.921  33.776  1.00  0.00     0.023 A 
ATOM     83  C   UNL A   1      46.513  27.593  33.724  1.00  0.00     0.012 A 
ATOM     84  C   UNL A   1      45.149  25.761  34.563  1.00  0.00     0.148 A 
ATOM     85  C   UNL A   1      47.613  27.106  34.427  1.00  0.00     0.002 A 
ATOM     86  C   UNL A   1      46.238  25.304  35.296  1.00  0.00     0.091 A 
ATOM     87  F   UNL A   1      43.969  25.124  34.582  1.00  0.00    -0.205 F 
ATOM     88  C   UNL A   1      47.473  25.971  35.223  1.00  0.00     0.022 A 
BRANCH  86  89
ATOM     89  S   UNL A   1      46.117  23.905  36.417  1.00  0.00     0.127 S 
ATOM     90  O   UNL A   1      47.524  23.568  36.628  1.00  0.00    -0.237 OA
ATOM     91  O   UNL A   1      45.448  24.490  37.580  1.00  0.00    -0.237 OA
ATOM     92  O   UNL A   1      45.328  22.903  35.714  1.00  0.00    -0.744 OA
ENDBRANCH  86  89
ENDBRANCH  59  82
ENDBRANCH  33  34
ENDBRANCH  25  28
ENDBRANCH  23  24
ENDBRANCH  22  23
ENDBRANCH   1  22
TORSDOF 20
ENDMDL
MODEL 3
REMARK VINA RESULT:     -10.8      1.686      2.570
REMARK SMILES CCCC[C@@H](C(=O)NCCCCNC(=O)c1ccc(-c2c3nc(c(-c4cccc(S(=O)(=O)[O-])c4F)c4ccc([nH]4)c(-c4cccc(S(=O)(=O)[O-])c4F)c4nc(c(-c5cccc(S(=O)(=O)[O-])c5F)c5ccc2[nH]5)C=C4)C=C3)cc1)[C@@]1(O)CCC[C@H](CC)C1
REMARK SMILES IDX 10 1 9 2 8 3 6 4 7 5 5 7 4 8 3 9 2 10 1 11 79 12 81 13 87 14
REMARK SMILES IDX 82 15 84 16 83 17 80 18 85 20 86 21 11 22 12 23 13 24 14 25
REMARK SMILES IDX 15 27 16 28 17 29 78 30 18 31 77 32 19 33 20 34 21 35 71 36
REMARK SMILES IDX 22 37 76 38 70 39 72 40 23 41 75 42 69 43 68 44 24 46 56 47
REMARK SMILES IDX 36 48 55 49 37 50 40 51 54 52 73 53 38 54 39 55 53 57 74 58
REMARK SMILES IDX 41 59 25 60 26 61 34 62 27 63 29 64 35 65 28 66 30 67 31 68
REMARK SMILES IDX 32 69 33 70 57 71 58 72 66 73 59 74 61 75 67 76 60 77 62 78
REMARK SMILES IDX 63 79 64 80 65 81 42 82 43 83 51 84 44 85 46 86 52 87 45 88
REMARK SMILES IDX 47 89 48 90 49 91 50 92
REMARK H PARENT 8 6 80 19 13 26 72 45 40 56
REMARK Flexibility Score: inf
ROOT
ATOM      1  C   UNL A   1      31.746  28.525  27.544  1.00  0.00     0.023 C 
ENDROOT
BRANCH   1   2
ATOM      2  C   UNL A   1      32.013  27.089  27.108  1.00  0.00     0.116 C 
BRANCH   2   3
ATOM      3  N   UNL A   1      30.878  26.537  26.411  1.00  0.00    -0.356 N 
ATOM      4  C   UNL A   1      30.813  25.835  25.247  1.00  0.00     0.226 C 
ATOM      5  O   UNL A   1      29.705  25.369  24.964  1.00  0.00    -0.275 OA
ATOM      6  H   UNL A   1      30.010  26.692  26.848  1.00  0.00     0.163 HD
BRANCH   4   7
ATOM      7  C   UNL A   1      32.065  25.573  24.370  1.00  0.00     0.110 C 
BRANCH   7   8
ATOM      8  C   UNL A   1      31.787  25.835  22.874  1.00  0.00     0.016 C 
BRANCH   8   9
ATOM      9  C   UNL A   1      31.390  27.232  22.351  1.00  0.00     0.001 C 
BRANCH   9  10
ATOM     10  C   UNL A   1      32.147  28.481  22.806  1.00  0.00    -0.003 C 
ATOM     11  C   UNL A   1      33.646  28.269  22.869  1.00  0.00     0.004 C 
ENDBRANCH   9  10
ENDBRANCH   8   9
ENDBRANCH   7   8
BRANCH   7  12
ATOM     12  C   UNL A   1      32.615  24.109  24.659  1.00  0.00     0.077 C 
ATOM     13  C   UNL A   1      32.754  23.161  23.442  1.00  0.00     0.036 C 
ATOM     14  C   UNL A   1      33.920  24.102  25.504  1.00  0.00     0.039 C 
ATOM     15  C   UNL A   1      34.065  23.243  22.673  1.00  0.00     0.003 C 
ATOM     16  C   UNL A   1      35.256  24.149  24.736  1.00  0.00    -0.009 C 
ATOM     17  C   UNL A   1      35.270  23.126  23.593  1.00  0.00     0.004 C 
BRANCH  12  18
ATOM     18  O   UNL A   1      31.646  23.492  25.548  1.00  0.00    -0.389 OA
ATOM     19  H   UNL A   1      31.226  22.741  25.099  1.00  0.00     0.211 HD
ENDBRANCH  12  18
BRANCH  16  20
ATOM     20  C   UNL A   1      36.458  23.878  25.668  1.00  0.00     0.000 C 
ATOM     21  C   UNL A   1      37.385  22.786  25.158  1.00  0.00     0.004 C 
ENDBRANCH  16  20
ENDBRANCH   7  12
ENDBRANCH   4   7
ENDBRANCH   2   3
ENDBRANCH   1   2
BRANCH   1  22
ATOM     22  C   UNL A   1      31.557  29.524  26.412  1.00  0.00     0.023 C 
BRANCH  22  23
ATOM     23  C   UNL A   1      32.745  30.441  26.174  1.00  0.00     0.116 C 
BRANCH  23  24
ATOM     24  N   UNL A   1      32.561  31.799  26.677  1.00  0.00    -0.352 N 
ATOM     25  C   UNL A   1      33.418  32.523  27.478  1.00  0.00     0.251 C 
ATOM     26  H   UNL A   1      31.727  32.250  26.413  1.00  0.00     0.163 HD
ATOM     27  O   UNL A   1      33.111  33.635  27.887  1.00  0.00    -0.269 OA
BRANCH  25  28
ATOM     28  C   UNL A   1      34.694  31.894  27.872  1.00  0.00     0.039 A 
ATOM     29  C   UNL A   1      35.828  32.696  28.017  1.00  0.00     0.014 A 
ATOM     30  C   UNL A   1      34.722  30.543  28.224  1.00  0.00     0.014 A 
ATOM     31  C   UNL A   1      36.972  32.156  28.607  1.00  0.00     0.010 A 
ATOM     32  C   UNL A   1      35.826  30.038  28.893  1.00  0.00     0.010 A 
ATOM     33  C   UNL A   1      36.961  30.839  29.095  1.00  0.00    -0.014 A 
BRANCH  33  34
ATOM     34  C   UNL A   1      38.117  30.270  29.831  1.00  0.00     0.031 A 
ATOM     35  C   UNL A   1      38.389  30.706  31.244  1.00  0.00     0.074 A 
ATOM     36  C   UNL A   1      38.984  29.457  29.192  1.00  0.00     0.049 A 
ATOM     37  N   UNL A   1      39.398  30.408  32.019  1.00  0.00    -0.248 NA
ATOM     38  C   UNL A   1      37.421  31.637  31.852  1.00  0.00     0.031 C 
ATOM     39  C   UNL A   1      38.885  29.041  27.791  1.00  0.00     0.029 A 
ATOM     40  N   UNL A   1      40.137  28.858  29.632  1.00  0.00    -0.354 N 
ATOM     41  C   UNL A   1      39.214  31.149  33.180  1.00  0.00     0.074 A 
ATOM     42  C   UNL A   1      38.019  31.941  32.994  1.00  0.00     0.031 C 
ATOM     43  C   UNL A   1      39.926  28.247  27.491  1.00  0.00     0.029 A 
ATOM     44  C   UNL A   1      40.778  28.115  28.668  1.00  0.00     0.049 A 
ATOM     45  H   UNL A   1      40.475  28.951  30.552  1.00  0.00     0.167 HD
ATOM     46  C   UNL A   1      39.948  31.140  34.316  1.00  0.00     0.034 A 
ATOM     47  C   UNL A   1      41.921  27.404  28.729  1.00  0.00     0.034 A 
ATOM     48  C   UNL A   1      41.086  30.290  34.528  1.00  0.00     0.049 A 
ATOM     49  C   UNL A   1      42.669  27.339  30.034  1.00  0.00     0.074 A 
ATOM     50  C   UNL A   1      41.835  30.123  35.678  1.00  0.00     0.029 A 
ATOM     51  N   UNL A   1      41.633  29.453  33.567  1.00  0.00    -0.354 N 
ATOM     52  N   UNL A   1      42.384  27.916  31.177  1.00  0.00    -0.248 NA
ATOM     53  C   UNL A   1      43.872  26.496  30.071  1.00  0.00     0.031 C 
ATOM     54  C   UNL A   1      42.836  29.183  35.414  1.00  0.00     0.029 A 
ATOM     55  C   UNL A   1      42.707  28.763  34.100  1.00  0.00     0.049 A 
ATOM     56  H   UNL A   1      41.306  29.364  32.642  1.00  0.00     0.167 HD
ATOM     57  C   UNL A   1      43.349  27.479  32.076  1.00  0.00     0.074 A 
ATOM     58  C   UNL A   1      44.216  26.573  31.350  1.00  0.00     0.031 C 
ATOM     59  C   UNL A   1      43.516  27.813  33.380  1.00  0.00     0.034 A 
BRANCH  46  60
ATOM     60  C   UNL A   1      39.487  32.021  35.446  1.00  0.00     0.023 A 
ATOM     61  C   UNL A   1      38.612  31.491  36.419  1.00  0.00     0.012 A 
ATOM     62  C   UNL A   1      39.939  33.347  35.572  1.00  0.00     0.148 A 
ATOM     63  C   UNL A   1      38.165  32.279  37.476  1.00  0.00     0.002 A 
ATOM     64  C   UNL A   1      39.521  34.115  36.655  1.00  0.00     0.091 A 
ATOM     65  F   UNL A   1      40.748  33.842  34.625  1.00  0.00    -0.205 F 
ATOM     66  C   UNL A   1      38.625  33.586  37.600  1.00  0.00     0.022 A 
BRANCH  64  67
ATOM     67  S   UNL A   1      40.118  35.785  36.940  1.00  0.00     0.127 S 
ATOM     68  O   UNL A   1      39.436  36.132  38.186  1.00  0.00    -0.237 OA
ATOM     69  O   UNL A   1      41.560  35.581  37.069  1.00  0.00    -0.237 OA
ATOM     70  O   UNL A   1      39.719  36.554  35.769  1.00  0.00    -0.744 OA
ENDBRANCH  64  67
ENDBRANCH  46  60
BRANCH  47  71
ATOM     71  C   UNL A   1      42.372  26.615  27.548  1.00  0.00     0.023 A 
ATOM     72  C   UNL A   1      43.175  27.242  26.575  1.00  0.00     0.012 A 
ATOM     73  C   UNL A   1      42.048  25.254  27.396  1.00  0.00     0.148 A 
ATOM     74  C   UNL A   1      43.624  26.535  25.458  1.00  0.00     0.002 A 
ATOM     75  C   UNL A   1      42.539  24.543  26.305  1.00  0.00     0.091 A 
ATOM     76  F   UNL A   1      41.270  24.677  28.324  1.00  0.00    -0.205 F 
ATOM     77  C   UNL A   1      43.315  25.185  25.328  1.00  0.00     0.022 A 
BRANCH  75  78
ATOM     78  S   UNL A   1      42.297  22.771  26.130  1.00  0.00     0.127 S 
ATOM     79  O   UNL A   1      42.933  22.507  24.843  1.00  0.00    -0.237 OA
ATOM     80  O   UNL A   1      43.015  22.245  27.293  1.00  0.00    -0.237 OA
ATOM     81  O   UNL A   1      40.854  22.572  26.182  1.00  0.00    -0.744 OA
ENDBRANCH  75  78
ENDBRANCH  47  71
BRANCH  59  82
ATOM     82  C   UNL A   1      44.659  27.178  34.123  1.00  0.00     0.023 A 
ATOM     83  C   UNL A   1      45.934  27.773  34.073  1.00  0.00     0.012 A 
ATOM     84  C   UNL A   1      44.450  26.051  34.940  1.00  0.00     0.148 A 
ATOM     85  C   UNL A   1      46.992  27.242  34.809  1.00  0.00     0.002 A 
ATOM     86  C   UNL A   1      45.498  25.552  35.705  1.00  0.00     0.091 A 
ATOM     87  F   UNL A   1      43.233  25.487  34.956  1.00  0.00    -0.205 F 
ATOM     88  C   UNL A   1      46.771  26.142  35.635  1.00  0.00     0.022 A 
BRANCH  86  89
ATOM     89  S   UNL A   1      45.276  24.196  36.863  1.00  0.00     0.127 S 
ATOM     90  O   UNL A   1      44.223  24.716  37.733  1.00  0.00    -0.237 OA
ATOM     91  O   UNL A   1      44.859  23.100  35.987  1.00  0.00    -0.237 OA
ATOM     92  O   UNL A   1      46.574  23.999  37.494  1.00  0.00    -0.744 OA
ENDBRANCH  86  89
ENDBRANCH  59  82
ENDBRANCH  33  34
ENDBRANCH  25  28
ENDBRANCH  23  24
ENDBRANCH  22  23
ENDBRANCH   1  22
TORSDOF 20
ENDMDL
