MODEL 1
REMARK VINA RESULT:     -12.0      0.000      0.000
REMARK SMILES Cc1ccc(C)c(NC(=O)/C=C/C(=O)NCCCCNC(=O)c2ccc(-c3c4nc(c(-c5cccc(S(=O)(=O)[O-])c5F)c5ccc([nH]5)c(-c5cccc(S(=O)(=O)[O-])c5F)c5nc(c(-c6cccc(S(=O)(=O)[O-])c6F)c6ccc3[nH]6)C=C5)C=C4)cc2)c1
REMARK SMILES IDX 18 1 17 2 16 3 15 4 13 5 14 6 12 8 11 9 9 10 8 11 10 13 7 14
REMARK SMILES IDX 1 15 2 16 3 17 86 18 4 19 5 20 6 21 19 22 20 23 21 24 22 26
REMARK SMILES IDX 23 27 24 28 85 29 25 30 84 31 26 32 27 33 28 34 78 35 29 36
REMARK SMILES IDX 83 37 77 38 79 39 30 40 82 41 76 42 75 43 31 45 63 46 43 47
REMARK SMILES IDX 62 48 44 49 47 50 61 51 80 52 45 53 46 54 60 56 81 57 48 58
REMARK SMILES IDX 32 59 33 60 41 61 34 62 36 63 42 64 35 65 37 66 38 67 39 68
REMARK SMILES IDX 40 69 64 70 65 71 73 72 66 73 68 74 74 75 67 76 69 77 70 78
REMARK SMILES IDX 71 79 72 80 49 81 50 82 58 83 51 84 53 85 59 86 52 87 54 88
REMARK SMILES IDX 55 89 56 90 57 91
REMARK H PARENT 15 7 8 12 20 25 79 44 47 55
REMARK Flexibility Score: inf
ROOT
ATOM      1  C   UNL A   1      32.371  30.010  27.155  1.00  0.00     0.023 C 
ENDROOT
BRANCH   1   2
ATOM      2  C   UNL A   1      32.389  28.714  26.332  1.00  0.00     0.023 C 
BRANCH   2   3
ATOM      3  C   UNL A   1      31.738  28.798  24.940  1.00  0.00     0.116 C 
BRANCH   3   4
ATOM      4  N   UNL A   1      32.646  29.408  23.995  1.00  0.00    -0.353 N 
ATOM      5  C   UNL A   1      33.445  28.670  23.177  1.00  0.00     0.244 C 
ATOM      6  O   UNL A   1      34.641  28.919  23.102  1.00  0.00    -0.270 OA
ATOM      7  H   UNL A   1      32.686  30.391  23.941  1.00  0.00     0.163 HD
BRANCH   5   8
ATOM      8  C   UNL A   1      32.785  27.561  22.461  1.00  0.00     0.077 C 
ATOM      9  C   UNL A   1      33.459  26.425  22.245  1.00  0.00     0.077 C 
BRANCH   9  10
ATOM     10  C   UNL A   1      32.870  25.441  21.339  1.00  0.00     0.248 C 
ATOM     11  N   UNL A   1      32.125  24.402  21.802  1.00  0.00    -0.322 N 
ATOM     12  H   UNL A   1      31.652  23.953  21.065  1.00  0.00     0.170 HD
ATOM     13  O   UNL A   1      32.976  25.610  20.121  1.00  0.00    -0.270 OA
BRANCH  11  14
ATOM     14  C   UNL A   1      31.835  23.781  23.046  1.00  0.00     0.044 A 
ATOM     15  C   UNL A   1      33.390  20.679  24.714  1.00  0.00     0.044 C 
ATOM     16  C   UNL A   1      32.499  21.853  24.451  1.00  0.00    -0.049 A 
ATOM     17  C   UNL A   1      31.602  22.252  25.430  1.00  0.00     0.004 A 
ATOM     18  C   UNL A   1      32.600  22.609  23.272  1.00  0.00     0.029 A 
ATOM     19  C   UNL A   1      30.856  23.403  25.242  1.00  0.00     0.006 A 
ATOM     20  C   UNL A   1      30.979  24.194  24.078  1.00  0.00    -0.027 A 
ATOM     21  C   UNL A   1      30.200  25.467  24.144  1.00  0.00     0.046 C 
ENDBRANCH  11  14
ENDBRANCH   9  10
ENDBRANCH   5   8
ENDBRANCH   3   4
ENDBRANCH   2   3
ENDBRANCH   1   2
BRANCH   1  22
ATOM     22  C   UNL A   1      33.687  30.771  27.149  1.00  0.00     0.116 C 
BRANCH  22  23
ATOM     23  N   UNL A   1      33.857  31.676  28.283  1.00  0.00    -0.352 N 
ATOM     24  C   UNL A   1      34.919  31.897  29.147  1.00  0.00     0.251 C 
ATOM     25  H   UNL A   1      33.069  32.236  28.468  1.00  0.00     0.163 HD
ATOM     26  O   UNL A   1      34.801  32.712  30.045  1.00  0.00    -0.269 OA
BRANCH  24  27
ATOM     27  C   UNL A   1      36.224  31.225  28.924  1.00  0.00     0.039 A 
ATOM     28  C   UNL A   1      36.286  29.824  28.875  1.00  0.00     0.014 A 
ATOM     29  C   UNL A   1      37.395  31.959  28.890  1.00  0.00     0.014 A 
ATOM     30  C   UNL A   1      37.521  29.175  28.984  1.00  0.00     0.010 A 
ATOM     31  C   UNL A   1      38.590  31.323  29.156  1.00  0.00     0.010 A 
ATOM     32  C   UNL A   1      38.674  29.928  29.207  1.00  0.00    -0.014 A 
BRANCH  32  33
ATOM     33  C   UNL A   1      39.996  29.308  29.369  1.00  0.00     0.031 A 
ATOM     34  C   UNL A   1      40.342  28.890  30.760  1.00  0.00     0.074 A 
ATOM     35  C   UNL A   1      40.744  28.800  28.371  1.00  0.00     0.049 A 
ATOM     36  N   UNL A   1      40.995  29.550  31.667  1.00  0.00    -0.248 NA
ATOM     37  C   UNL A   1      39.671  27.678  31.261  1.00  0.00     0.031 C 
ATOM     38  C   UNL A   1      40.381  28.631  26.966  1.00  0.00     0.029 A 
ATOM     39  N   UNL A   1      41.949  28.164  28.469  1.00  0.00    -0.354 N 
ATOM     40  C   UNL A   1      40.911  28.743  32.807  1.00  0.00     0.074 A 
ATOM     41  C   UNL A   1      39.778  27.903  32.567  1.00  0.00     0.031 C 
ATOM     42  C   UNL A   1      41.239  27.749  26.399  1.00  0.00     0.029 A 
ATOM     43  C   UNL A   1      42.259  27.375  27.370  1.00  0.00     0.049 A 
ATOM     44  H   UNL A   1      42.544  28.257  29.248  1.00  0.00     0.167 HD
ATOM     45  C   UNL A   1      41.947  28.551  33.681  1.00  0.00     0.034 A 
ATOM     46  C   UNL A   1      43.227  26.425  27.315  1.00  0.00     0.034 A 
ATOM     47  C   UNL A   1      43.066  29.400  33.326  1.00  0.00     0.049 A 
ATOM     48  C   UNL A   1      44.119  26.606  28.486  1.00  0.00     0.074 A 
ATOM     49  C   UNL A   1      43.291  30.755  33.184  1.00  0.00     0.029 A 
ATOM     50  N   UNL A   1      44.126  28.778  32.703  1.00  0.00    -0.354 N 
ATOM     51  N   UNL A   1      44.957  27.592  28.631  1.00  0.00    -0.248 NA
ATOM     52  C   UNL A   1      43.847  25.837  29.694  1.00  0.00     0.031 C 
ATOM     53  C   UNL A   1      44.259  30.876  32.142  1.00  0.00     0.029 A 
ATOM     54  C   UNL A   1      44.595  29.591  31.713  1.00  0.00     0.049 A 
ATOM     55  H   UNL A   1      44.484  27.891  32.935  1.00  0.00     0.167 HD
ATOM     56  C   UNL A   1      44.980  27.836  29.998  1.00  0.00     0.074 A 
ATOM     57  C   UNL A   1      44.403  26.640  30.603  1.00  0.00     0.031 C 
ATOM     58  C   UNL A   1      45.173  29.099  30.480  1.00  0.00     0.034 A 
BRANCH  45  59
ATOM     59  C   UNL A   1      42.177  27.309  34.566  1.00  0.00     0.023 A 
ATOM     60  C   UNL A   1      41.756  27.407  35.915  1.00  0.00     0.012 A 
ATOM     61  C   UNL A   1      42.955  26.169  34.260  1.00  0.00     0.148 A 
ATOM     62  C   UNL A   1      42.231  26.547  36.914  1.00  0.00     0.002 A 
ATOM     63  C   UNL A   1      43.443  25.321  35.250  1.00  0.00     0.091 A 
ATOM     64  F   UNL A   1      43.233  25.845  33.005  1.00  0.00    -0.205 F 
ATOM     65  C   UNL A   1      43.109  25.524  36.586  1.00  0.00     0.022 A 
BRANCH  63  66
ATOM     66  S   UNL A   1      44.582  23.976  34.869  1.00  0.00     0.127 S 
ATOM     67  O   UNL A   1      45.681  24.702  34.238  1.00  0.00    -0.237 OA
ATOM     68  O   UNL A   1      44.868  23.444  36.200  1.00  0.00    -0.237 OA
ATOM     69  O   UNL A   1      43.858  23.062  33.993  1.00  0.00    -0.744 OA
ENDBRANCH  63  66
ENDBRANCH  45  59
BRANCH  46  70
ATOM     70  C   UNL A   1      43.372  25.233  26.449  1.00  0.00     0.023 A 
ATOM     71  C   UNL A   1      44.460  25.155  25.555  1.00  0.00     0.012 A 
ATOM     72  C   UNL A   1      42.613  24.068  26.673  1.00  0.00     0.148 A 
ATOM     73  C   UNL A   1      44.797  23.952  24.926  1.00  0.00     0.002 A 
ATOM     74  C   UNL A   1      42.951  22.874  26.041  1.00  0.00     0.091 A 
ATOM     75  F   UNL A   1      41.623  24.110  27.573  1.00  0.00    -0.205 F 
ATOM     76  C   UNL A   1      44.047  22.809  25.173  1.00  0.00     0.022 A 
BRANCH  74  77
ATOM     77  S   UNL A   1      42.049  21.354  26.339  1.00  0.00     0.127 S 
ATOM     78  O   UNL A   1      42.282  21.131  27.765  1.00  0.00    -0.237 OA
ATOM     79  O   UNL A   1      40.681  21.733  25.992  1.00  0.00    -0.237 OA
ATOM     80  O   UNL A   1      42.670  20.374  25.461  1.00  0.00    -0.744 OA
ENDBRANCH  74  77
ENDBRANCH  46  70
BRANCH  58  81
ATOM     81  C   UNL A   1      45.746  30.136  29.548  1.00  0.00     0.023 A 
ATOM     82  C   UNL A   1      47.134  30.353  29.429  1.00  0.00     0.012 A 
ATOM     83  C   UNL A   1      44.879  30.789  28.655  1.00  0.00     0.148 A 
ATOM     84  C   UNL A   1      47.643  31.222  28.462  1.00  0.00     0.002 A 
ATOM     85  C   UNL A   1      45.393  31.609  27.658  1.00  0.00     0.091 A 
ATOM     86  F   UNL A   1      43.558  30.584  28.780  1.00  0.00    -0.205 F 
ATOM     87  C   UNL A   1      46.774  31.837  27.565  1.00  0.00     0.022 A 
BRANCH  85  88
ATOM     88  S   UNL A   1      44.328  32.303  26.391  1.00  0.00     0.127 S 
ATOM     89  O   UNL A   1      45.289  32.713  25.370  1.00  0.00    -0.237 OA
ATOM     90  O   UNL A   1      43.487  31.164  26.017  1.00  0.00    -0.237 OA
ATOM     91  O   UNL A   1      43.598  33.383  27.048  1.00  0.00    -0.744 OA
ENDBRANCH  85  88
ENDBRANCH  58  81
ENDBRANCH  32  33
ENDBRANCH  24  27
ENDBRANCH  22  23
ENDBRANCH   1  22
TORSDOF 16
ENDMDL
MODEL 2
REMARK VINA RESULT:     -11.9      1.610      2.100
REMARK SMILES Cc1ccc(C)c(NC(=O)/C=C/C(=O)NCCCCNC(=O)c2ccc(-c3c4nc(c(-c5cccc(S(=O)(=O)[O-])c5F)c5ccc([nH]5)c(-c5cccc(S(=O)(=O)[O-])c5F)c5nc(c(-c6cccc(S(=O)(=O)[O-])c6F)c6ccc3[nH]6)C=C5)C=C4)cc2)c1
REMARK SMILES IDX 18 1 17 2 16 3 15 4 13 5 14 6 12 8 11 9 9 10 8 11 10 13 7 14
REMARK SMILES IDX 1 15 2 16 3 17 86 18 4 19 5 20 6 21 19 22 20 23 21 24 22 26
REMARK SMILES IDX 23 27 24 28 85 29 25 30 84 31 26 32 27 33 28 34 78 35 29 36
REMARK SMILES IDX 83 37 77 38 79 39 30 40 82 41 76 42 75 43 31 45 63 46 43 47
REMARK SMILES IDX 62 48 44 49 47 50 61 51 80 52 45 53 46 54 60 56 81 57 48 58
REMARK SMILES IDX 32 59 33 60 41 61 34 62 36 63 42 64 35 65 37 66 38 67 39 68
REMARK SMILES IDX 40 69 64 70 65 71 73 72 66 73 68 74 74 75 67 76 69 77 70 78
REMARK SMILES IDX 71 79 72 80 49 81 50 82 58 83 51 84 53 85 59 86 52 87 54 88
REMARK SMILES IDX 55 89 56 90 57 91
REMARK H PARENT 15 7 8 12 20 25 79 44 47 55
REMARK Flexibility Score: inf
ROOT
ATOM      1  C   UNL A   1      32.435  31.008  27.189  1.00  0.00     0.023 C 
ENDROOT
BRANCH   1   2
ATOM      2  C   UNL A   1      32.254  30.051  26.001  1.00  0.00     0.023 C 
BRANCH   2   3
ATOM      3  C   UNL A   1      31.824  28.618  26.357  1.00  0.00     0.116 C 
BRANCH   3   4
ATOM      4  N   UNL A   1      31.137  28.006  25.243  1.00  0.00    -0.353 N 
ATOM      5  C   UNL A   1      31.671  26.968  24.543  1.00  0.00     0.244 C 
ATOM      6  O   UNL A   1      31.711  27.011  23.321  1.00  0.00    -0.270 OA
ATOM      7  H   UNL A   1      30.252  28.351  24.983  1.00  0.00     0.163 HD
BRANCH   5   8
ATOM      8  C   UNL A   1      32.219  25.861  25.351  1.00  0.00     0.077 C 
ATOM      9  C   UNL A   1      31.489  24.753  25.528  1.00  0.00     0.077 C 
BRANCH   9  10
ATOM     10  C   UNL A   1      31.951  23.779  26.515  1.00  0.00     0.248 C 
ATOM     11  N   UNL A   1      33.204  23.254  26.464  1.00  0.00    -0.322 N 
ATOM     12  H   UNL A   1      33.416  22.770  27.295  1.00  0.00     0.170 HD
ATOM     13  O   UNL A   1      31.218  23.497  27.466  1.00  0.00    -0.270 OA
BRANCH  11  14
ATOM     14  C   UNL A   1      34.294  23.203  25.555  1.00  0.00     0.044 A 
ATOM     15  C   UNL A   1      38.029  23.976  26.081  1.00  0.00     0.044 C 
ATOM     16  C   UNL A   1      36.730  23.627  25.423  1.00  0.00    -0.049 A 
ATOM     17  C   UNL A   1      36.734  23.218  24.098  1.00  0.00     0.004 A 
ATOM     18  C   UNL A   1      35.518  23.625  26.131  1.00  0.00     0.029 A 
ATOM     19  C   UNL A   1      35.555  22.784  23.515  1.00  0.00     0.006 A 
ATOM     20  C   UNL A   1      34.338  22.740  24.231  1.00  0.00    -0.027 A 
ATOM     21  C   UNL A   1      33.226  22.099  23.466  1.00  0.00     0.046 C 
ENDBRANCH  11  14
ENDBRANCH   9  10
ENDBRANCH   5   8
ENDBRANCH   3   4
ENDBRANCH   2   3
ENDBRANCH   1   2
BRANCH   1  22
ATOM     22  C   UNL A   1      33.875  31.425  27.440  1.00  0.00     0.116 C 
BRANCH  22  23
ATOM     23  N   UNL A   1      34.075  32.153  28.690  1.00  0.00    -0.352 N 
ATOM     24  C   UNL A   1      35.126  32.181  29.594  1.00  0.00     0.251 C 
ATOM     25  H   UNL A   1      33.321  32.736  28.938  1.00  0.00     0.163 HD
ATOM     26  O   UNL A   1      35.038  32.871  30.594  1.00  0.00    -0.269 OA
BRANCH  24  27
ATOM     27  C   UNL A   1      36.389  31.457  29.302  1.00  0.00     0.039 A 
ATOM     28  C   UNL A   1      36.371  30.064  29.140  1.00  0.00     0.014 A 
ATOM     29  C   UNL A   1      37.599  32.125  29.314  1.00  0.00     0.014 A 
ATOM     30  C   UNL A   1      37.568  29.339  29.182  1.00  0.00     0.010 A 
ATOM     31  C   UNL A   1      38.758  31.404  29.513  1.00  0.00     0.010 A 
ATOM     32  C   UNL A   1      38.764  30.007  29.451  1.00  0.00    -0.014 A 
BRANCH  32  33
ATOM     33  C   UNL A   1      40.050  29.303  29.547  1.00  0.00     0.031 A 
ATOM     34  C   UNL A   1      40.427  28.841  30.916  1.00  0.00     0.074 A 
ATOM     35  C   UNL A   1      40.721  28.766  28.511  1.00  0.00     0.049 A 
ATOM     36  N   UNL A   1      41.158  29.443  31.803  1.00  0.00    -0.248 NA
ATOM     37  C   UNL A   1      39.703  27.665  31.429  1.00  0.00     0.031 C 
ATOM     38  C   UNL A   1      40.289  28.643  27.120  1.00  0.00     0.029 A 
ATOM     39  N   UNL A   1      41.886  28.054  28.548  1.00  0.00    -0.354 N 
ATOM     40  C   UNL A   1      41.072  28.625  32.934  1.00  0.00     0.074 A 
ATOM     41  C   UNL A   1      39.879  27.861  32.731  1.00  0.00     0.031 C 
ATOM     42  C   UNL A   1      41.065  27.718  26.504  1.00  0.00     0.029 A 
ATOM     43  C   UNL A   1      42.099  27.265  27.425  1.00  0.00     0.049 A 
ATOM     44  H   UNL A   1      42.519  28.097  29.301  1.00  0.00     0.167 HD
ATOM     45  C   UNL A   1      42.129  28.354  33.760  1.00  0.00     0.034 A 
ATOM     46  C   UNL A   1      43.002  26.258  27.315  1.00  0.00     0.034 A 
ATOM     47  C   UNL A   1      43.284  29.137  33.369  1.00  0.00     0.049 A 
ATOM     48  C   UNL A   1      43.952  26.363  28.449  1.00  0.00     0.074 A 
ATOM     49  C   UNL A   1      43.587  30.477  33.236  1.00  0.00     0.029 A 
ATOM     50  N   UNL A   1      44.275  28.460  32.692  1.00  0.00    -0.354 N 
ATOM     51  N   UNL A   1      44.856  27.292  28.572  1.00  0.00    -0.248 NA
ATOM     52  C   UNL A   1      43.684  25.593  29.656  1.00  0.00     0.031 C 
ATOM     53  C   UNL A   1      44.516  30.555  32.155  1.00  0.00     0.029 A 
ATOM     54  C   UNL A   1      44.752  29.259  31.694  1.00  0.00     0.049 A 
ATOM     55  H   UNL A   1      44.586  27.548  32.895  1.00  0.00     0.167 HD
ATOM     56  C   UNL A   1      44.952  27.512  29.939  1.00  0.00     0.074 A 
ATOM     57  C   UNL A   1      44.328  26.344  30.552  1.00  0.00     0.031 C 
ATOM     58  C   UNL A   1      45.245  28.752  30.430  1.00  0.00     0.034 A 
BRANCH  45  59
ATOM     59  C   UNL A   1      42.318  27.085  34.616  1.00  0.00     0.023 A 
ATOM     60  C   UNL A   1      41.866  27.155  35.958  1.00  0.00     0.012 A 
ATOM     61  C   UNL A   1      43.085  25.940  34.298  1.00  0.00     0.148 A 
ATOM     62  C   UNL A   1      42.302  26.261  36.944  1.00  0.00     0.002 A 
ATOM     63  C   UNL A   1      43.534  25.058  35.277  1.00  0.00     0.091 A 
ATOM     64  F   UNL A   1      43.387  25.645  33.042  1.00  0.00    -0.205 F 
ATOM     65  C   UNL A   1      43.171  25.232  36.610  1.00  0.00     0.022 A 
BRANCH  63  66
ATOM     66  S   UNL A   1      44.660  23.705  34.887  1.00  0.00     0.127 S 
ATOM     67  O   UNL A   1      45.803  24.432  34.339  1.00  0.00    -0.237 OA
ATOM     68  O   UNL A   1      44.873  23.109  36.205  1.00  0.00    -0.237 OA
ATOM     69  O   UNL A   1      43.957  22.848  33.940  1.00  0.00    -0.744 OA
ENDBRANCH  63  66
ENDBRANCH  45  59
BRANCH  46  70
ATOM     70  C   UNL A   1      43.035  25.074  26.427  1.00  0.00     0.023 A 
ATOM     71  C   UNL A   1      43.991  25.011  25.393  1.00  0.00     0.012 A 
ATOM     72  C   UNL A   1      42.321  23.902  26.742  1.00  0.00     0.148 A 
ATOM     73  C   UNL A   1      44.247  23.814  24.713  1.00  0.00     0.002 A 
ATOM     74  C   UNL A   1      42.576  22.715  26.060  1.00  0.00     0.091 A 
ATOM     75  F   UNL A   1      41.461  23.930  27.769  1.00  0.00    -0.205 F 
ATOM     76  C   UNL A   1      43.543  22.665  25.050  1.00  0.00     0.022 A 
BRANCH  74  77
ATOM     77  S   UNL A   1      41.731  21.187  26.464  1.00  0.00     0.127 S 
ATOM     78  O   UNL A   1      42.305  20.252  25.497  1.00  0.00    -0.237 OA
ATOM     79  O   UNL A   1      42.139  20.965  27.849  1.00  0.00    -0.237 OA
ATOM     80  O   UNL A   1      40.320  21.476  26.265  1.00  0.00    -0.744 OA
ENDBRANCH  74  77
ENDBRANCH  46  70
BRANCH  58  81
ATOM     81  C   UNL A   1      45.842  29.767  29.489  1.00  0.00     0.023 A 
ATOM     82  C   UNL A   1      47.233  29.878  29.290  1.00  0.00     0.012 A 
ATOM     83  C   UNL A   1      44.978  30.511  28.666  1.00  0.00     0.148 A 
ATOM     84  C   UNL A   1      47.752  30.730  28.313  1.00  0.00     0.002 A 
ATOM     85  C   UNL A   1      45.496  31.315  27.659  1.00  0.00     0.091 A 
ATOM     86  F   UNL A   1      43.655  30.406  28.869  1.00  0.00    -0.205 F 
ATOM     87  C   UNL A   1      46.883  31.437  27.486  1.00  0.00     0.022 A 
BRANCH  85  88
ATOM     88  S   UNL A   1      44.416  32.126  26.476  1.00  0.00     0.127 S 
ATOM     89  O   UNL A   1      45.348  32.507  25.418  1.00  0.00    -0.237 OA
ATOM     90  O   UNL A   1      43.479  31.062  26.113  1.00  0.00    -0.237 OA
ATOM     91  O   UNL A   1      43.799  33.228  27.208  1.00  0.00    -0.744 OA
ENDBRANCH  85  88
ENDBRANCH  58  81
ENDBRANCH  32  33
ENDBRANCH  24  27
ENDBRANCH  22  23
ENDBRANCH   1  22
TORSDOF 16
ENDMDL
MODEL 3
REMARK VINA RESULT:     -11.6      3.053      8.969
REMARK SMILES Cc1ccc(C)c(NC(=O)/C=C/C(=O)NCCCCNC(=O)c2ccc(-c3c4nc(c(-c5cccc(S(=O)(=O)[O-])c5F)c5ccc([nH]5)c(-c5cccc(S(=O)(=O)[O-])c5F)c5nc(c(-c6cccc(S(=O)(=O)[O-])c6F)c6ccc3[nH]6)C=C5)C=C4)cc2)c1
REMARK SMILES IDX 18 1 17 2 16 3 15 4 13 5 14 6 12 8 11 9 9 10 8 11 10 13 7 14
REMARK SMILES IDX 1 15 2 16 3 17 86 18 4 19 5 20 6 21 19 22 20 23 21 24 22 26
REMARK SMILES IDX 23 27 24 28 85 29 25 30 84 31 26 32 27 33 28 34 78 35 29 36
REMARK SMILES IDX 83 37 77 38 79 39 30 40 82 41 76 42 75 43 31 45 63 46 43 47
REMARK SMILES IDX 62 48 44 49 47 50 61 51 80 52 45 53 46 54 60 56 81 57 48 58
REMARK SMILES IDX 32 59 33 60 41 61 34 62 36 63 42 64 35 65 37 66 38 67 39 68
REMARK SMILES IDX 40 69 64 70 65 71 73 72 66 73 68 74 74 75 67 76 69 77 70 78
REMARK SMILES IDX 71 79 72 80 49 81 50 82 58 83 51 84 53 85 59 86 52 87 54 88
REMARK SMILES IDX 55 89 56 90 57 91
REMARK H PARENT 15 7 8 12 20 25 79 44 47 55
REMARK Flexibility Score: inf
ROOT
ATOM      1  C   UNL A   1      38.450  22.004  25.503  1.00  0.00     0.023 C 
ENDROOT
BRANCH   1   2
ATOM      2  C   UNL A   1      37.301  21.003  25.313  1.00  0.00     0.023 C 
BRANCH   2   3
ATOM      3  C   UNL A   1      35.888  21.610  25.257  1.00  0.00     0.116 C 
BRANCH   3   4
ATOM      4  N   UNL A   1      35.927  22.922  24.652  1.00  0.00    -0.353 N 
ATOM      5  C   UNL A   1      34.809  23.685  24.503  1.00  0.00     0.244 C 
ATOM      6  O   UNL A   1      34.553  24.189  23.418  1.00  0.00    -0.270 OA
ATOM      7  H   UNL A   1      36.791  23.276  24.338  1.00  0.00     0.163 HD
BRANCH   5   8
ATOM      8  C   UNL A   1      33.947  23.802  25.695  1.00  0.00     0.077 C 
ATOM      9  C   UNL A   1      32.617  23.829  25.543  1.00  0.00     0.077 C 
BRANCH   9  10
ATOM     10  C   UNL A   1      31.802  24.178  26.705  1.00  0.00     0.248 C 
ATOM     11  N   UNL A   1      31.158  25.373  26.791  1.00  0.00    -0.322 N 
ATOM     12  H   UNL A   1      30.512  25.371  27.533  1.00  0.00     0.170 HD
ATOM     13  O   UNL A   1      31.621  23.332  27.585  1.00  0.00    -0.270 OA
BRANCH  11  14
ATOM     14  C   UNL A   1      31.154  26.622  26.116  1.00  0.00     0.044 A 
ATOM     15  C   UNL A   1      32.723  29.999  27.094  1.00  0.00     0.044 C 
ATOM     16  C   UNL A   1      31.943  28.957  26.354  1.00  0.00    -0.049 A 
ATOM     17  C   UNL A   1      31.411  29.269  25.112  1.00  0.00     0.004 A 
ATOM     18  C   UNL A   1      31.802  27.650  26.845  1.00  0.00     0.029 A 
ATOM     19  C   UNL A   1      30.788  28.279  24.371  1.00  0.00     0.006 A 
ATOM     20  C   UNL A   1      30.677  26.950  24.838  1.00  0.00    -0.027 A 
ATOM     21  C   UNL A   1      30.109  26.013  23.822  1.00  0.00     0.046 C 
ENDBRANCH  11  14
ENDBRANCH   9  10
ENDBRANCH   5   8
ENDBRANCH   3   4
ENDBRANCH   2   3
ENDBRANCH   1   2
BRANCH   1  22
ATOM     22  C   UNL A   1      39.529  21.538  26.467  1.00  0.00     0.116 C 
BRANCH  22  23
ATOM     23  N   UNL A   1      40.891  21.748  25.984  1.00  0.00    -0.352 N 
ATOM     24  C   UNL A   1      41.779  22.804  26.130  1.00  0.00     0.251 C 
ATOM     25  H   UNL A   1      41.247  20.998  25.456  1.00  0.00     0.163 HD
ATOM     26  O   UNL A   1      42.874  22.743  25.601  1.00  0.00    -0.269 OA
BRANCH  24  27
ATOM     27  C   UNL A   1      41.441  23.956  27.005  1.00  0.00     0.039 A 
ATOM     28  C   UNL A   1      40.537  24.929  26.556  1.00  0.00     0.014 A 
ATOM     29  C   UNL A   1      42.104  24.143  28.204  1.00  0.00     0.014 A 
ATOM     30  C   UNL A   1      40.450  26.161  27.216  1.00  0.00     0.010 A 
ATOM     31  C   UNL A   1      42.136  25.407  28.757  1.00  0.00     0.010 A 
ATOM     32  C   UNL A   1      41.316  26.432  28.277  1.00  0.00    -0.014 A 
BRANCH  32  33
ATOM     33  C   UNL A   1      41.304  27.717  28.988  1.00  0.00     0.031 A 
ATOM     34  C   UNL A   1      42.240  28.752  28.455  1.00  0.00     0.074 A 
ATOM     35  C   UNL A   1      40.332  28.137  29.819  1.00  0.00     0.049 A 
ATOM     36  N   UNL A   1      43.452  29.022  28.833  1.00  0.00    -0.248 NA
ATOM     37  C   UNL A   1      41.841  29.404  27.196  1.00  0.00     0.031 C 
ATOM     38  C   UNL A   1      39.046  27.503  30.100  1.00  0.00     0.029 A 
ATOM     39  N   UNL A   1      40.242  29.340  30.460  1.00  0.00    -0.354 N 
ATOM     40  C   UNL A   1      43.894  29.979  27.914  1.00  0.00     0.074 A 
ATOM     41  C   UNL A   1      43.037  29.809  26.781  1.00  0.00     0.031 C 
ATOM     42  C   UNL A   1      38.225  28.418  30.668  1.00  0.00     0.029 A 
ATOM     43  C   UNL A   1      38.956  29.661  30.876  1.00  0.00     0.049 A 
ATOM     44  H   UNL A   1      41.017  29.927  30.615  1.00  0.00     0.167 HD
ATOM     45  C   UNL A   1      44.654  31.066  28.254  1.00  0.00     0.034 A 
ATOM     46  C   UNL A   1      38.525  30.886  31.269  1.00  0.00     0.034 A 
ATOM     47  C   UNL A   1      45.035  30.994  29.651  1.00  0.00     0.049 A 
ATOM     48  C   UNL A   1      39.715  31.737  31.516  1.00  0.00     0.074 A 
ATOM     49  C   UNL A   1      45.732  30.115  30.455  1.00  0.00     0.029 A 
ATOM     50  N   UNL A   1      44.349  31.824  30.510  1.00  0.00    -0.354 N 
ATOM     51  N   UNL A   1      40.531  31.593  32.520  1.00  0.00    -0.248 NA
ATOM     52  C   UNL A   1      40.202  32.583  30.434  1.00  0.00     0.031 C 
ATOM     53  C   UNL A   1      45.120  30.203  31.741  1.00  0.00     0.029 A 
ATOM     54  C   UNL A   1      44.094  31.147  31.666  1.00  0.00     0.049 A 
ATOM     55  H   UNL A   1      44.086  32.753  30.319  1.00  0.00     0.167 HD
ATOM     56  C   UNL A   1      41.772  31.958  32.019  1.00  0.00     0.074 A 
ATOM     57  C   UNL A   1      41.482  32.694  30.794  1.00  0.00     0.031 C 
ATOM     58  C   UNL A   1      42.914  31.365  32.478  1.00  0.00     0.034 A 
BRANCH  45  59
ATOM     59  C   UNL A   1      44.692  32.421  27.518  1.00  0.00     0.023 A 
ATOM     60  C   UNL A   1      45.799  32.644  26.661  1.00  0.00     0.012 A 
ATOM     61  C   UNL A   1      43.882  33.553  27.762  1.00  0.00     0.148 A 
ATOM     62  C   UNL A   1      46.175  33.925  26.240  1.00  0.00     0.002 A 
ATOM     63  C   UNL A   1      44.260  34.831  27.359  1.00  0.00     0.091 A 
ATOM     64  F   UNL A   1      42.708  33.439  28.366  1.00  0.00    -0.205 F 
ATOM     65  C   UNL A   1      45.425  35.028  26.623  1.00  0.00     0.022 A 
BRANCH  63  66
ATOM     66  S   UNL A   1      43.313  36.292  27.831  1.00  0.00     0.127 S 
ATOM     67  O   UNL A   1      43.378  36.218  29.288  1.00  0.00    -0.237 OA
ATOM     68  O   UNL A   1      44.100  37.363  27.223  1.00  0.00    -0.237 OA
ATOM     69  O   UNL A   1      41.982  36.118  27.260  1.00  0.00    -0.744 OA
ENDBRANCH  63  66
ENDBRANCH  45  59
BRANCH  46  70
ATOM     70  C   UNL A   1      37.171  31.483  31.281  1.00  0.00     0.023 A 
ATOM     71  C   UNL A   1      36.544  31.753  32.515  1.00  0.00     0.012 A 
ATOM     72  C   UNL A   1      36.599  32.026  30.114  1.00  0.00     0.148 A 
ATOM     73  C   UNL A   1      35.403  32.559  32.588  1.00  0.00     0.002 A 
ATOM     74  C   UNL A   1      35.461  32.825  30.193  1.00  0.00     0.091 A 
ATOM     75  F   UNL A   1      37.224  31.837  28.945  1.00  0.00    -0.205 F 
ATOM     76  C   UNL A   1      34.863  33.100  31.428  1.00  0.00     0.022 A 
BRANCH  74  77
ATOM     77  S   UNL A   1      34.731  33.583  28.741  1.00  0.00     0.127 S 
ATOM     78  O   UNL A   1      33.322  33.685  29.121  1.00  0.00    -0.237 OA
ATOM     79  O   UNL A   1      35.441  34.858  28.669  1.00  0.00    -0.237 OA
ATOM     80  O   UNL A   1      35.002  32.652  27.658  1.00  0.00    -0.744 OA
ENDBRANCH  74  77
ENDBRANCH  46  70
BRANCH  58  81
ATOM     81  C   UNL A   1      42.850  30.614  33.783  1.00  0.00     0.023 A 
ATOM     82  C   UNL A   1      43.000  31.259  35.028  1.00  0.00     0.012 A 
ATOM     83  C   UNL A   1      42.469  29.261  33.762  1.00  0.00     0.148 A 
ATOM     84  C   UNL A   1      42.801  30.565  36.223  1.00  0.00     0.002 A 
ATOM     85  C   UNL A   1      42.217  28.589  34.952  1.00  0.00     0.091 A 
ATOM     86  F   UNL A   1      42.337  28.652  32.572  1.00  0.00    -0.205 F 
ATOM     87  C   UNL A   1      42.393  29.234  36.185  1.00  0.00     0.022 A 
BRANCH  85  88
ATOM     88  S   UNL A   1      41.548  26.923  34.949  1.00  0.00     0.127 S 
ATOM     89  O   UNL A   1      40.434  27.039  34.012  1.00  0.00    -0.237 OA
ATOM     90  O   UNL A   1      42.675  26.124  34.465  1.00  0.00    -0.237 OA
ATOM     91  O   UNL A   1      41.187  26.650  36.337  1.00  0.00    -0.744 OA
ENDBRANCH  85  88
ENDBRANCH  58  81
ENDBRANCH  32  33
ENDBRANCH  24  27
ENDBRANCH  22  23
ENDBRANCH   1  22
TORSDOF 16
ENDMDL
