MODEL 1
REMARK VINA RESULT:     -10.2      0.000      0.000
REMARK SMILES CCSC(=S)N1[C@@H](C(=O)NCCCCNC(=O)c2ccc(-c3c4nc(c(-c5cccc(S(=O)(=O)[O-])c5F)c5ccc([nH]5)c(-c5cccc(S(=O)(=O)[O-])c5F)c5nc(c(-c6cccc(S(=O)(=O)[O-])c6F)c6ccc3[nH]6)C=C5)C=C4)cc2)CS[C@@H]1c1ccc(C)cc1
REMARK SMILES IDX 12 1 11 2 10 3 8 4 9 5 7 7 6 8 83 9 81 10 82 11 4 12 5 13
REMARK SMILES IDX 3 14 2 15 1 16 84 17 85 18 90 19 86 20 89 21 87 22 88 23
REMARK SMILES IDX 13 24 14 25 15 26 16 27 17 29 18 30 19 31 80 32 20 33 79 34
REMARK SMILES IDX 21 35 22 36 23 37 73 38 24 39 78 40 72 41 74 42 25 43 77 44
REMARK SMILES IDX 71 45 70 46 26 48 58 49 38 50 57 51 39 52 42 53 56 54 75 55
REMARK SMILES IDX 40 56 41 57 55 59 76 60 43 61 27 62 28 63 36 64 29 65 31 66
REMARK SMILES IDX 37 67 30 68 32 69 33 70 34 71 35 72 59 73 60 74 68 75 61 76
REMARK SMILES IDX 63 77 69 78 62 79 64 80 65 81 66 82 67 83 44 84 45 85 53 86
REMARK SMILES IDX 46 87 48 88 54 89 47 90 49 91 50 92 51 93 52 94
REMARK H PARENT 10 6 15 28 74 47 42 58
REMARK Flexibility Score: inf
ROOT
ATOM      1  C   UNL A   1      31.743  29.304  25.601  1.00  0.00     0.023 C 
ENDROOT
BRANCH   1   2
ATOM      2  C   UNL A   1      31.271  27.866  25.429  1.00  0.00     0.116 C 
BRANCH   2   3
ATOM      3  N   UNL A   1      31.041  27.508  24.045  1.00  0.00    -0.354 N 
ATOM      4  C   UNL A   1      31.539  26.496  23.286  1.00  0.00     0.243 C 
ATOM      5  O   UNL A   1      31.182  26.462  22.102  1.00  0.00    -0.273 OA
ATOM      6  H   UNL A   1      30.415  28.102  23.571  1.00  0.00     0.163 HD
BRANCH   4   7
ATOM      7  C   UNL A   1      32.659  25.542  23.758  1.00  0.00     0.184 C 
ATOM      8  N   UNL A   1      32.382  24.706  24.953  1.00  0.00    -0.328 N 
ATOM      9  C   UNL A   1      33.433  24.793  25.983  1.00  0.00     0.173 C 
ATOM     10  C   UNL A   1      33.919  26.393  23.969  1.00  0.00     0.107 C 
ATOM     11  S   UNL A   1      34.165  26.459  25.751  1.00  0.00    -0.130 SA
BRANCH   8  12
ATOM     12  C   UNL A   1      31.341  23.766  24.979  1.00  0.00     0.138 C 
ATOM     13  S   UNL A   1      30.470  23.392  26.371  1.00  0.00    -0.053 S 
BRANCH  12  14
ATOM     14  S   UNL A   1      31.036  23.002  23.414  1.00  0.00    -0.097 SA
BRANCH  14  15
ATOM     15  C   UNL A   1      32.447  21.884  23.128  1.00  0.00     0.074 C 
ATOM     16  C   UNL A   1      32.502  20.661  24.032  1.00  0.00     0.016 C 
ENDBRANCH  14  15
ENDBRANCH  12  14
ENDBRANCH   8  12
BRANCH   9  17
ATOM     17  C   UNL A   1      34.547  23.751  25.838  1.00  0.00    -0.015 A 
ATOM     18  C   UNL A   1      35.673  24.054  25.045  1.00  0.00     0.007 A 
ATOM     19  C   UNL A   1      34.474  22.462  26.389  1.00  0.00     0.007 A 
ATOM     20  C   UNL A   1      36.646  23.089  24.768  1.00  0.00     0.004 A 
ATOM     21  C   UNL A   1      35.454  21.501  26.125  1.00  0.00     0.004 A 
ATOM     22  C   UNL A   1      36.538  21.801  25.297  1.00  0.00    -0.051 A 
ATOM     23  C   UNL A   1      37.547  20.750  24.944  1.00  0.00     0.044 C 
ENDBRANCH   9  17
ENDBRANCH   4   7
ENDBRANCH   2   3
ENDBRANCH   1   2
BRANCH   1  24
ATOM     24  C   UNL A   1      32.160  29.680  27.020  1.00  0.00     0.023 C 
BRANCH  24  25
ATOM     25  C   UNL A   1      33.431  30.516  27.133  1.00  0.00     0.116 C 
BRANCH  25  26
ATOM     26  N   UNL A   1      33.181  31.947  27.248  1.00  0.00    -0.352 N 
ATOM     27  C   UNL A   1      33.882  32.885  27.970  1.00  0.00     0.251 C 
ATOM     28  H   UNL A   1      32.408  32.288  26.742  1.00  0.00     0.163 HD
ATOM     29  O   UNL A   1      33.493  34.048  28.023  1.00  0.00    -0.269 OA
BRANCH  27  30
ATOM     30  C   UNL A   1      35.085  32.463  28.714  1.00  0.00     0.039 A 
ATOM     31  C   UNL A   1      34.930  31.685  29.863  1.00  0.00     0.014 A 
ATOM     32  C   UNL A   1      36.358  32.771  28.228  1.00  0.00     0.014 A 
ATOM     33  C   UNL A   1      36.059  31.141  30.480  1.00  0.00     0.010 A 
ATOM     34  C   UNL A   1      37.473  32.167  28.800  1.00  0.00     0.010 A 
ATOM     35  C   UNL A   1      37.335  31.342  29.927  1.00  0.00    -0.014 A 
BRANCH  35  36
ATOM     36  C   UNL A   1      38.536  30.674  30.489  1.00  0.00     0.031 A 
ATOM     37  C   UNL A   1      39.113  31.134  31.799  1.00  0.00     0.074 A 
ATOM     38  C   UNL A   1      39.174  29.732  29.765  1.00  0.00     0.049 A 
ATOM     39  N   UNL A   1      40.194  30.727  32.411  1.00  0.00    -0.248 NA
ATOM     40  C   UNL A   1      38.400  32.216  32.498  1.00  0.00     0.031 C 
ATOM     41  C   UNL A   1      38.772  29.271  28.434  1.00  0.00     0.029 A 
ATOM     42  N   UNL A   1      40.316  29.018  30.030  1.00  0.00    -0.354 N 
ATOM     43  C   UNL A   1      40.317  31.529  33.538  1.00  0.00     0.074 A 
ATOM     44  C   UNL A   1      39.216  32.468  33.512  1.00  0.00     0.031 C 
ATOM     45  C   UNL A   1      39.652  28.354  28.002  1.00  0.00     0.029 A 
ATOM     46  C   UNL A   1      40.692  28.177  29.010  1.00  0.00     0.049 A 
ATOM     47  H   UNL A   1      40.818  29.101  30.874  1.00  0.00     0.167 HD
ATOM     48  C   UNL A   1      41.241  31.470  34.526  1.00  0.00     0.034 A 
ATOM     49  C   UNL A   1      41.755  27.357  28.897  1.00  0.00     0.034 A 
ATOM     50  C   UNL A   1      42.295  30.495  34.583  1.00  0.00     0.049 A 
ATOM     51  C   UNL A   1      42.724  27.254  30.044  1.00  0.00     0.074 A 
ATOM     52  C   UNL A   1      43.211  30.277  35.597  1.00  0.00     0.029 A 
ATOM     53  N   UNL A   1      42.577  29.575  33.585  1.00  0.00    -0.354 N 
ATOM     54  N   UNL A   1      42.715  27.892  31.189  1.00  0.00    -0.248 NA
ATOM     55  C   UNL A   1      43.826  26.290  29.902  1.00  0.00     0.031 C 
ATOM     56  C   UNL A   1      44.053  29.230  35.206  1.00  0.00     0.029 A 
ATOM     57  C   UNL A   1      43.655  28.790  33.954  1.00  0.00     0.049 A 
ATOM     58  H   UNL A   1      42.082  29.493  32.737  1.00  0.00     0.167 HD
ATOM     59  C   UNL A   1      43.787  27.386  31.916  1.00  0.00     0.074 A 
ATOM     60  C   UNL A   1      44.411  26.372  31.091  1.00  0.00     0.031 C 
ATOM     61  C   UNL A   1      44.228  27.743  33.148  1.00  0.00     0.034 A 
BRANCH  48  62
ATOM     62  C   UNL A   1      41.110  32.447  35.664  1.00  0.00     0.023 A 
ATOM     63  C   UNL A   1      40.253  32.141  36.740  1.00  0.00     0.012 A 
ATOM     64  C   UNL A   1      41.866  33.634  35.697  1.00  0.00     0.148 A 
ATOM     65  C   UNL A   1      40.123  33.018  37.816  1.00  0.00     0.002 A 
ATOM     66  C   UNL A   1      41.762  34.483  36.794  1.00  0.00     0.091 A 
ATOM     67  F   UNL A   1      42.656  33.921  34.653  1.00  0.00    -0.205 F 
ATOM     68  C   UNL A   1      40.884  34.182  37.847  1.00  0.00     0.022 A 
BRANCH  66  69
ATOM     69  S   UNL A   1      42.759  35.969  36.960  1.00  0.00     0.127 S 
ATOM     70  O   UNL A   1      42.364  36.442  38.286  1.00  0.00    -0.237 OA
ATOM     71  O   UNL A   1      44.121  35.439  36.881  1.00  0.00    -0.237 OA
ATOM     72  O   UNL A   1      42.379  36.829  35.847  1.00  0.00    -0.744 OA
ENDBRANCH  66  69
ENDBRANCH  48  62
BRANCH  49  73
ATOM     73  C   UNL A   1      41.909  26.504  27.684  1.00  0.00     0.023 A 
ATOM     74  C   UNL A   1      42.430  27.074  26.506  1.00  0.00     0.012 A 
ATOM     75  C   UNL A   1      41.582  25.135  27.698  1.00  0.00     0.148 A 
ATOM     76  C   UNL A   1      42.600  26.303  25.356  1.00  0.00     0.002 A 
ATOM     77  C   UNL A   1      41.803  24.360  26.565  1.00  0.00     0.091 A 
ATOM     78  F   UNL A   1      41.074  24.614  28.824  1.00  0.00    -0.205 F 
ATOM     79  C   UNL A   1      42.296  24.944  25.388  1.00  0.00     0.022 A 
BRANCH  77  80
ATOM     80  S   UNL A   1      41.566  22.578  26.561  1.00  0.00     0.127 S 
ATOM     81  O   UNL A   1      40.111  22.469  26.492  1.00  0.00    -0.237 OA
ATOM     82  O   UNL A   1      42.273  22.179  25.342  1.00  0.00    -0.237 OA
ATOM     83  O   UNL A   1      42.184  22.102  27.791  1.00  0.00    -0.744 OA
ENDBRANCH  77  80
ENDBRANCH  49  73
BRANCH  61  84
ATOM     84  C   UNL A   1      45.426  27.019  33.699  1.00  0.00     0.023 A 
ATOM     85  C   UNL A   1      46.709  27.584  33.550  1.00  0.00     0.012 A 
ATOM     86  C   UNL A   1      45.275  25.828  34.437  1.00  0.00     0.148 A 
ATOM     87  C   UNL A   1      47.826  26.960  34.104  1.00  0.00     0.002 A 
ATOM     88  C   UNL A   1      46.388  25.236  35.023  1.00  0.00     0.091 A 
ATOM     89  F   UNL A   1      44.049  25.296  34.549  1.00  0.00    -0.205 F 
ATOM     90  C   UNL A   1      47.664  25.796  34.850  1.00  0.00     0.022 A 
BRANCH  88  91
ATOM     91  S   UNL A   1      46.256  23.787  36.078  1.00  0.00     0.127 S 
ATOM     92  O   UNL A   1      47.647  23.583  36.479  1.00  0.00    -0.237 OA
ATOM     93  O   UNL A   1      45.375  24.256  37.148  1.00  0.00    -0.237 OA
ATOM     94  O   UNL A   1      45.681  22.740  35.243  1.00  0.00    -0.744 OA
ENDBRANCH  88  91
ENDBRANCH  61  84
ENDBRANCH  35  36
ENDBRANCH  27  30
ENDBRANCH  25  26
ENDBRANCH  24  25
ENDBRANCH   1  24
TORSDOF 18
ENDMDL
MODEL 2
REMARK VINA RESULT:     -10.0      1.850      2.191
REMARK SMILES CCSC(=S)N1[C@@H](C(=O)NCCCCNC(=O)c2ccc(-c3c4nc(c(-c5cccc(S(=O)(=O)[O-])c5F)c5ccc([nH]5)c(-c5cccc(S(=O)(=O)[O-])c5F)c5nc(c(-c6cccc(S(=O)(=O)[O-])c6F)c6ccc3[nH]6)C=C5)C=C4)cc2)CS[C@@H]1c1ccc(C)cc1
REMARK SMILES IDX 12 1 11 2 10 3 8 4 9 5 7 7 6 8 83 9 81 10 82 11 4 12 5 13
REMARK SMILES IDX 3 14 2 15 1 16 84 17 85 18 90 19 86 20 89 21 87 22 88 23
REMARK SMILES IDX 13 24 14 25 15 26 16 27 17 29 18 30 19 31 80 32 20 33 79 34
REMARK SMILES IDX 21 35 22 36 23 37 73 38 24 39 78 40 72 41 74 42 25 43 77 44
REMARK SMILES IDX 71 45 70 46 26 48 58 49 38 50 57 51 39 52 42 53 56 54 75 55
REMARK SMILES IDX 40 56 41 57 55 59 76 60 43 61 27 62 28 63 36 64 29 65 31 66
REMARK SMILES IDX 37 67 30 68 32 69 33 70 34 71 35 72 59 73 60 74 68 75 61 76
REMARK SMILES IDX 63 77 69 78 62 79 64 80 65 81 66 82 67 83 44 84 45 85 53 86
REMARK SMILES IDX 46 87 48 88 54 89 47 90 49 91 50 92 51 93 52 94
REMARK H PARENT 10 6 15 28 74 47 42 58
REMARK Flexibility Score: inf
ROOT
ATOM      1  C   UNL A   1      31.680  29.576  25.534  1.00  0.00     0.023 C 
ENDROOT
BRANCH   1   2
ATOM      2  C   UNL A   1      31.054  28.208  25.295  1.00  0.00     0.116 C 
BRANCH   2   3
ATOM      3  N   UNL A   1      30.812  27.933  23.894  1.00  0.00    -0.354 N 
ATOM      4  C   UNL A   1      31.332  26.992  23.062  1.00  0.00     0.243 C 
ATOM      5  O   UNL A   1      30.955  27.023  21.884  1.00  0.00    -0.273 OA
ATOM      6  H   UNL A   1      30.157  28.534  23.470  1.00  0.00     0.163 HD
BRANCH   4   7
ATOM      7  C   UNL A   1      32.492  26.050  23.453  1.00  0.00     0.184 C 
ATOM      8  N   UNL A   1      32.336  25.258  24.699  1.00  0.00    -0.328 N 
ATOM      9  C   UNL A   1      33.487  25.377  25.614  1.00  0.00     0.173 C 
ATOM     10  C   UNL A   1      33.768  26.902  23.506  1.00  0.00     0.107 C 
ATOM     11  S   UNL A   1      34.193  27.031  25.250  1.00  0.00    -0.130 SA
BRANCH   8  12
ATOM     12  C   UNL A   1      31.303  24.325  24.864  1.00  0.00     0.138 C 
ATOM     13  S   UNL A   1      30.540  24.043  26.339  1.00  0.00    -0.053 S 
BRANCH  12  14
ATOM     14  S   UNL A   1      30.881  23.464  23.379  1.00  0.00    -0.097 SA
BRANCH  14  15
ATOM     15  C   UNL A   1      32.025  22.047  23.289  1.00  0.00     0.074 C 
ATOM     16  C   UNL A   1      32.487  21.497  24.630  1.00  0.00     0.016 C 
ENDBRANCH  14  15
ENDBRANCH  12  14
ENDBRANCH   8  12
BRANCH   9  17
ATOM     17  C   UNL A   1      34.579  24.325  25.395  1.00  0.00    -0.015 A 
ATOM     18  C   UNL A   1      35.160  24.193  24.118  1.00  0.00     0.007 A 
ATOM     19  C   UNL A   1      34.983  23.415  26.386  1.00  0.00     0.007 A 
ATOM     20  C   UNL A   1      36.057  23.160  23.832  1.00  0.00     0.004 A 
ATOM     21  C   UNL A   1      35.891  22.391  26.104  1.00  0.00     0.004 A 
ATOM     22  C   UNL A   1      36.420  22.243  24.821  1.00  0.00    -0.051 A 
ATOM     23  C   UNL A   1      37.329  21.097  24.494  1.00  0.00     0.044 C 
ENDBRANCH   9  17
ENDBRANCH   4   7
ENDBRANCH   2   3
ENDBRANCH   1   2
BRANCH   1  24
ATOM     24  C   UNL A   1      32.123  29.841  26.970  1.00  0.00     0.023 C 
BRANCH  24  25
ATOM     25  C   UNL A   1      33.356  30.725  27.127  1.00  0.00     0.116 C 
BRANCH  25  26
ATOM     26  N   UNL A   1      33.044  32.141  27.277  1.00  0.00    -0.352 N 
ATOM     27  C   UNL A   1      33.707  33.093  28.016  1.00  0.00     0.251 C 
ATOM     28  H   UNL A   1      32.252  32.458  26.783  1.00  0.00     0.163 HD
ATOM     29  O   UNL A   1      33.268  34.236  28.098  1.00  0.00    -0.269 OA
BRANCH  27  30
ATOM     30  C   UNL A   1      34.933  32.707  28.742  1.00  0.00     0.039 A 
ATOM     31  C   UNL A   1      34.813  32.017  29.951  1.00  0.00     0.014 A 
ATOM     32  C   UNL A   1      36.190  32.960  28.187  1.00  0.00     0.014 A 
ATOM     33  C   UNL A   1      35.959  31.502  30.563  1.00  0.00     0.010 A 
ATOM     34  C   UNL A   1      37.318  32.383  28.760  1.00  0.00     0.010 A 
ATOM     35  C   UNL A   1      37.214  31.644  29.948  1.00  0.00    -0.014 A 
BRANCH  35  36
ATOM     36  C   UNL A   1      38.428  30.999  30.512  1.00  0.00     0.031 A 
ATOM     37  C   UNL A   1      39.005  31.483  31.813  1.00  0.00     0.074 A 
ATOM     38  C   UNL A   1      39.076  30.059  29.796  1.00  0.00     0.049 A 
ATOM     39  N   UNL A   1      40.095  31.100  32.424  1.00  0.00    -0.248 NA
ATOM     40  C   UNL A   1      38.280  32.564  32.503  1.00  0.00     0.031 C 
ATOM     41  C   UNL A   1      38.673  29.576  28.473  1.00  0.00     0.029 A 
ATOM     42  N   UNL A   1      40.229  29.365  30.063  1.00  0.00    -0.354 N 
ATOM     43  C   UNL A   1      40.212  31.918  33.541  1.00  0.00     0.074 A 
ATOM     44  C   UNL A   1      39.097  32.839  33.510  1.00  0.00     0.031 C 
ATOM     45  C   UNL A   1      39.565  28.666  28.046  1.00  0.00     0.029 A 
ATOM     46  C   UNL A   1      40.613  28.516  29.051  1.00  0.00     0.049 A 
ATOM     47  H   UNL A   1      40.735  29.465  30.903  1.00  0.00     0.167 HD
ATOM     48  C   UNL A   1      41.142  31.884  34.524  1.00  0.00     0.034 A 
ATOM     49  C   UNL A   1      41.687  27.711  28.942  1.00  0.00     0.034 A 
ATOM     50  C   UNL A   1      42.211  30.924  34.587  1.00  0.00     0.049 A 
ATOM     51  C   UNL A   1      42.663  27.636  30.085  1.00  0.00     0.074 A 
ATOM     52  C   UNL A   1      43.135  30.732  35.599  1.00  0.00     0.029 A 
ATOM     53  N   UNL A   1      42.501  29.997  33.598  1.00  0.00    -0.354 N 
ATOM     54  N   UNL A   1      42.651  28.288  31.222  1.00  0.00    -0.248 NA
ATOM     55  C   UNL A   1      43.778  26.687  29.949  1.00  0.00     0.031 C 
ATOM     56  C   UNL A   1      43.990  29.693  35.216  1.00  0.00     0.029 A 
ATOM     57  C   UNL A   1      43.592  29.232  33.972  1.00  0.00     0.049 A 
ATOM     58  H   UNL A   1      42.003  29.897  32.754  1.00  0.00     0.167 HD
ATOM     59  C   UNL A   1      43.735  27.806  31.950  1.00  0.00     0.074 A 
ATOM     60  C   UNL A   1      44.368  26.791  31.133  1.00  0.00     0.031 C 
ATOM     61  C   UNL A   1      44.176  28.185  33.174  1.00  0.00     0.034 A 
BRANCH  48  62
ATOM     62  C   UNL A   1      41.002  32.872  35.651  1.00  0.00     0.023 A 
ATOM     63  C   UNL A   1      41.727  34.079  35.604  1.00  0.00     0.012 A 
ATOM     64  C   UNL A   1      40.122  32.634  36.724  1.00  0.00     0.148 A 
ATOM     65  C   UNL A   1      41.606  35.022  36.624  1.00  0.00     0.002 A 
ATOM     66  C   UNL A   1      39.975  33.598  37.716  1.00  0.00     0.091 A 
ATOM     67  F   UNL A   1      39.460  31.470  36.766  1.00  0.00    -0.205 F 
ATOM     68  C   UNL A   1      40.723  34.785  37.673  1.00  0.00     0.022 A 
BRANCH  66  69
ATOM     69  S   UNL A   1      38.806  33.417  39.070  1.00  0.00     0.127 S 
ATOM     70  O   UNL A   1      39.404  32.321  39.831  1.00  0.00    -0.237 OA
ATOM     71  O   UNL A   1      38.883  34.725  39.722  1.00  0.00    -0.237 OA
ATOM     72  O   UNL A   1      37.521  33.125  38.450  1.00  0.00    -0.744 OA
ENDBRANCH  66  69
ENDBRANCH  48  62
BRANCH  49  73
ATOM     73  C   UNL A   1      41.847  26.846  27.739  1.00  0.00     0.023 A 
ATOM     74  C   UNL A   1      42.434  27.387  26.577  1.00  0.00     0.012 A 
ATOM     75  C   UNL A   1      41.462  25.492  27.746  1.00  0.00     0.148 A 
ATOM     76  C   UNL A   1      42.611  26.603  25.438  1.00  0.00     0.002 A 
ATOM     77  C   UNL A   1      41.688  24.703  26.624  1.00  0.00     0.091 A 
ATOM     78  F   UNL A   1      40.891  25.000  28.855  1.00  0.00    -0.205 F 
ATOM     79  C   UNL A   1      42.248  25.259  25.464  1.00  0.00     0.022 A 
BRANCH  77  80
ATOM     80  S   UNL A   1      41.376  22.932  26.618  1.00  0.00     0.127 S 
ATOM     81  O   UNL A   1      42.062  22.511  25.400  1.00  0.00    -0.237 OA
ATOM     82  O   UNL A   1      42.014  22.506  27.865  1.00  0.00    -0.237 OA
ATOM     83  O   UNL A   1      39.926  22.795  26.614  1.00  0.00    -0.744 OA
ENDBRANCH  77  80
ENDBRANCH  49  73
BRANCH  61  84
ATOM     84  C   UNL A   1      45.388  27.485  33.728  1.00  0.00     0.023 A 
ATOM     85  C   UNL A   1      45.225  26.313  34.494  1.00  0.00     0.012 A 
ATOM     86  C   UNL A   1      46.687  27.936  33.420  1.00  0.00     0.148 A 
ATOM     87  C   UNL A   1      46.335  25.617  34.967  1.00  0.00     0.002 A 
ATOM     88  C   UNL A   1      47.788  27.211  33.857  1.00  0.00     0.091 A 
ATOM     89  F   UNL A   1      46.820  29.064  32.707  1.00  0.00    -0.205 F 
ATOM     90  C   UNL A   1      47.615  26.057  34.638  1.00  0.00     0.022 A 
BRANCH  88  91
ATOM     91  S   UNL A   1      49.469  27.655  33.401  1.00  0.00     0.127 S 
ATOM     92  O   UNL A   1      50.253  26.694  34.175  1.00  0.00    -0.237 OA
ATOM     93  O   UNL A   1      49.474  27.423  31.956  1.00  0.00    -0.237 OA
ATOM     94  O   UNL A   1      49.628  29.052  33.785  1.00  0.00    -0.744 OA
ENDBRANCH  88  91
ENDBRANCH  61  84
ENDBRANCH  35  36
ENDBRANCH  27  30
ENDBRANCH  25  26
ENDBRANCH  24  25
ENDBRANCH   1  24
TORSDOF 18
ENDMDL
MODEL 3
REMARK VINA RESULT:      -9.2     11.074     14.859
REMARK SMILES CCSC(=S)N1[C@@H](C(=O)NCCCCNC(=O)c2ccc(-c3c4nc(c(-c5cccc(S(=O)(=O)[O-])c5F)c5ccc([nH]5)c(-c5cccc(S(=O)(=O)[O-])c5F)c5nc(c(-c6cccc(S(=O)(=O)[O-])c6F)c6ccc3[nH]6)C=C5)C=C4)cc2)CS[C@@H]1c1ccc(C)cc1
REMARK SMILES IDX 12 1 11 2 10 3 8 4 9 5 7 7 6 8 83 9 81 10 82 11 4 12 5 13
REMARK SMILES IDX 3 14 2 15 1 16 84 17 85 18 90 19 86 20 89 21 87 22 88 23
REMARK SMILES IDX 13 24 14 25 15 26 16 27 17 29 18 30 19 31 80 32 20 33 79 34
REMARK SMILES IDX 21 35 22 36 23 37 73 38 24 39 78 40 72 41 74 42 25 43 77 44
REMARK SMILES IDX 71 45 70 46 26 48 58 49 38 50 57 51 39 52 42 53 56 54 75 55
REMARK SMILES IDX 40 56 41 57 55 59 76 60 43 61 27 62 28 63 36 64 29 65 31 66
REMARK SMILES IDX 37 67 30 68 32 69 33 70 34 71 35 72 59 73 60 74 68 75 61 76
REMARK SMILES IDX 63 77 69 78 62 79 64 80 65 81 66 82 67 83 44 84 45 85 53 86
REMARK SMILES IDX 46 87 48 88 54 89 47 90 49 91 50 92 51 93 52 94
REMARK H PARENT 10 6 15 28 74 47 42 58
REMARK Flexibility Score: inf
ROOT
ATOM      1  C   UNL A   1      45.767  42.503  25.863  1.00  0.00     0.023 C 
ENDROOT
BRANCH   1   2
ATOM      2  C   UNL A   1      45.498  43.190  24.531  1.00  0.00     0.116 C 
BRANCH   2   3
ATOM      3  N   UNL A   1      45.725  42.326  23.392  1.00  0.00    -0.354 N 
ATOM      4  C   UNL A   1      45.788  42.595  22.061  1.00  0.00     0.243 C 
ATOM      5  O   UNL A   1      45.963  41.630  21.306  1.00  0.00    -0.273 OA
ATOM      6  H   UNL A   1      45.856  41.378  23.622  1.00  0.00     0.163 HD
BRANCH   4   7
ATOM      7  C   UNL A   1      45.450  43.972  21.448  1.00  0.00     0.184 C 
ATOM      8  N   UNL A   1      44.545  43.990  20.271  1.00  0.00    -0.328 N 
ATOM      9  C   UNL A   1      45.080  44.765  19.135  1.00  0.00     0.173 C 
ATOM     10  C   UNL A   1      46.782  44.662  21.122  1.00  0.00     0.107 C 
ATOM     11  S   UNL A   1      46.902  44.658  19.326  1.00  0.00    -0.130 SA
BRANCH   8  12
ATOM     12  C   UNL A   1      43.229  43.510  20.335  1.00  0.00     0.138 C 
ATOM     13  S   UNL A   1      42.376  43.344  21.777  1.00  0.00    -0.053 S 
BRANCH  12  14
ATOM     14  S   UNL A   1      42.553  43.085  18.758  1.00  0.00    -0.097 SA
BRANCH  14  15
ATOM     15  C   UNL A   1      40.815  43.633  18.803  1.00  0.00     0.074 C 
ATOM     16  C   UNL A   1      40.595  45.122  18.580  1.00  0.00     0.016 C 
ENDBRANCH  14  15
ENDBRANCH  12  14
ENDBRANCH   8  12
BRANCH   9  17
ATOM     17  C   UNL A   1      44.679  46.244  19.135  1.00  0.00    -0.015 A 
ATOM     18  C   UNL A   1      43.750  46.703  18.180  1.00  0.00     0.007 A 
ATOM     19  C   UNL A   1      45.254  47.198  19.989  1.00  0.00     0.007 A 
ATOM     20  C   UNL A   1      43.458  48.064  18.048  1.00  0.00     0.004 A 
ATOM     21  C   UNL A   1      44.951  48.557  19.867  1.00  0.00     0.004 A 
ATOM     22  C   UNL A   1      44.067  49.004  18.884  1.00  0.00    -0.051 A 
ATOM     23  C   UNL A   1      43.803  50.467  18.696  1.00  0.00     0.044 C 
ENDBRANCH   9  17
ENDBRANCH   4   7
ENDBRANCH   2   3
ENDBRANCH   1   2
BRANCH   1  24
ATOM     24  C   UNL A   1      44.526  41.983  26.583  1.00  0.00     0.023 C 
BRANCH  24  25
ATOM     25  C   UNL A   1      43.436  41.408  25.684  1.00  0.00     0.116 C 
BRANCH  25  26
ATOM     26  N   UNL A   1      42.085  41.650  26.176  1.00  0.00    -0.352 N 
ATOM     27  C   UNL A   1      41.261  40.799  26.875  1.00  0.00     0.251 C 
ATOM     28  H   UNL A   1      41.713  42.541  25.982  1.00  0.00     0.163 HD
ATOM     29  O   UNL A   1      40.113  41.131  27.152  1.00  0.00    -0.269 OA
BRANCH  27  30
ATOM     30  C   UNL A   1      41.765  39.463  27.250  1.00  0.00     0.039 A 
ATOM     31  C   UNL A   1      41.553  38.391  26.380  1.00  0.00     0.014 A 
ATOM     32  C   UNL A   1      42.513  39.294  28.419  1.00  0.00     0.014 A 
ATOM     33  C   UNL A   1      42.165  37.163  26.641  1.00  0.00     0.010 A 
ATOM     34  C   UNL A   1      43.180  38.093  28.635  1.00  0.00     0.010 A 
ATOM     35  C   UNL A   1      43.019  37.019  27.747  1.00  0.00    -0.014 A 
BRANCH  35  36
ATOM     36  C   UNL A   1      43.781  35.765  27.978  1.00  0.00     0.031 A 
ATOM     37  C   UNL A   1      43.164  34.640  28.762  1.00  0.00     0.074 A 
ATOM     38  C   UNL A   1      45.067  35.685  27.582  1.00  0.00     0.049 A 
ATOM     39  N   UNL A   1      43.696  33.504  29.129  1.00  0.00    -0.248 NA
ATOM     40  C   UNL A   1      41.777  34.830  29.222  1.00  0.00     0.031 C 
ATOM     41  C   UNL A   1      45.811  36.748  26.902  1.00  0.00     0.029 A 
ATOM     42  N   UNL A   1      45.988  34.677  27.725  1.00  0.00    -0.354 N 
ATOM     43  C   UNL A   1      42.731  32.865  29.898  1.00  0.00     0.074 A 
ATOM     44  C   UNL A   1      41.590  33.752  29.970  1.00  0.00     0.031 C 
ATOM     45  C   UNL A   1      47.072  36.335  26.689  1.00  0.00     0.029 A 
ATOM     46  C   UNL A   1      47.233  34.991  27.234  1.00  0.00     0.049 A 
ATOM     47  H   UNL A   1      45.776  33.810  28.141  1.00  0.00     0.167 HD
ATOM     48  C   UNL A   1      42.775  31.637  30.465  1.00  0.00     0.034 A 
ATOM     49  C   UNL A   1      48.377  34.280  27.226  1.00  0.00     0.034 A 
ATOM     50  C   UNL A   1      43.883  30.731  30.337  1.00  0.00     0.049 A 
ATOM     51  C   UNL A   1      48.375  32.886  27.794  1.00  0.00     0.074 A 
ATOM     52  C   UNL A   1      43.980  29.422  30.775  1.00  0.00     0.029 A 
ATOM     53  N   UNL A   1      45.090  31.039  29.728  1.00  0.00    -0.354 N 
ATOM     54  N   UNL A   1      47.391  32.227  28.354  1.00  0.00    -0.248 NA
ATOM     55  C   UNL A   1      49.628  32.124  27.694  1.00  0.00     0.031 C 
ATOM     56  C   UNL A   1      45.250  28.942  30.438  1.00  0.00     0.029 A 
ATOM     57  C   UNL A   1      45.940  29.948  29.781  1.00  0.00     0.049 A 
ATOM     58  H   UNL A   1      45.310  31.907  29.318  1.00  0.00     0.167 HD
ATOM     59  C   UNL A   1      47.894  30.963  28.644  1.00  0.00     0.074 A 
ATOM     60  C   UNL A   1      49.265  30.942  28.177  1.00  0.00     0.031 C 
ATOM     61  C   UNL A   1      47.282  29.921  29.259  1.00  0.00     0.034 A 
BRANCH  48  62
ATOM     62  C   UNL A   1      41.557  31.172  31.219  1.00  0.00     0.023 A 
ATOM     63  C   UNL A   1      41.430  31.486  32.587  1.00  0.00     0.012 A 
ATOM     64  C   UNL A   1      40.520  30.475  30.569  1.00  0.00     0.148 A 
ATOM     65  C   UNL A   1      40.306  31.084  33.307  1.00  0.00     0.002 A 
ATOM     66  C   UNL A   1      39.383  30.115  31.285  1.00  0.00     0.091 A 
ATOM     67  F   UNL A   1      40.668  30.164  29.274  1.00  0.00    -0.205 F 
ATOM     68  C   UNL A   1      39.280  30.409  32.654  1.00  0.00     0.022 A 
BRANCH  66  69
ATOM     69  S   UNL A   1      37.974  29.308  30.514  1.00  0.00     0.127 S 
ATOM     70  O   UNL A   1      38.552  28.027  30.112  1.00  0.00    -0.237 OA
ATOM     71  O   UNL A   1      37.020  29.226  31.621  1.00  0.00    -0.237 OA
ATOM     72  O   UNL A   1      37.562  30.182  29.425  1.00  0.00    -0.744 OA
ENDBRANCH  66  69
ENDBRANCH  48  62
BRANCH  49  73
ATOM     73  C   UNL A   1      49.597  34.843  26.581  1.00  0.00     0.023 A 
ATOM     74  C   UNL A   1      49.898  34.489  25.251  1.00  0.00     0.012 A 
ATOM     75  C   UNL A   1      50.435  35.752  27.255  1.00  0.00     0.148 A 
ATOM     76  C   UNL A   1      51.024  35.008  24.613  1.00  0.00     0.002 A 
ATOM     77  C   UNL A   1      51.527  36.306  26.596  1.00  0.00     0.091 A 
ATOM     78  F   UNL A   1      50.140  36.066  28.525  1.00  0.00    -0.205 F 
ATOM     79  C   UNL A   1      51.832  35.924  25.281  1.00  0.00     0.022 A 
BRANCH  77  80
ATOM     80  S   UNL A   1      52.541  37.593  27.335  1.00  0.00     0.127 S 
ATOM     81  O   UNL A   1      52.740  37.078  28.687  1.00  0.00    -0.237 OA
ATOM     82  O   UNL A   1      53.732  37.569  26.484  1.00  0.00    -0.237 OA
ATOM     83  O   UNL A   1      51.756  38.815  27.227  1.00  0.00    -0.744 OA
ENDBRANCH  77  80
ENDBRANCH  49  73
BRANCH  61  84
ATOM     84  C   UNL A   1      48.074  28.655  29.444  1.00  0.00     0.023 A 
ATOM     85  C   UNL A   1      48.682  28.391  30.688  1.00  0.00     0.012 A 
ATOM     86  C   UNL A   1      48.144  27.690  28.420  1.00  0.00     0.148 A 
ATOM     87  C   UNL A   1      49.371  27.198  30.899  1.00  0.00     0.002 A 
ATOM     88  C   UNL A   1      48.794  26.485  28.653  1.00  0.00     0.091 A 
ATOM     89  F   UNL A   1      47.576  27.970  27.237  1.00  0.00    -0.205 F 
ATOM     90  C   UNL A   1      49.416  26.240  29.889  1.00  0.00     0.022 A 
BRANCH  88  91
ATOM     91  S   UNL A   1      48.819  25.159  27.439  1.00  0.00     0.127 S 
ATOM     92  O   UNL A   1      47.563  24.468  27.726  1.00  0.00    -0.237 OA
ATOM     93  O   UNL A   1      48.835  25.894  26.173  1.00  0.00    -0.237 OA
ATOM     94  O   UNL A   1      50.032  24.399  27.708  1.00  0.00    -0.744 OA
ENDBRANCH  88  91
ENDBRANCH  61  84
ENDBRANCH  35  36
ENDBRANCH  27  30
ENDBRANCH  25  26
ENDBRANCH  24  25
ENDBRANCH   1  24
TORSDOF 18
ENDMDL
