MODEL 1
REMARK VINA RESULT:     -12.2      0.000      0.000
REMARK SMILES O=C(NCCCCNC(=O)c1ccc(N2C(=O)/C(=C\c3ccc4c(c3)OCO4)[NH+]=C2c2ccccc2)cc1)c1ccc(-c2c3nc(c(-c4cccc(S(=O)(=O)[O-])c4F)c4ccc([nH]4)c(-c4cccc(S(=O)(=O)[O-])c4F)c4nc(c(-c5cccc(S(=O)(=O)[O-])c5F)c5ccc2[nH]5)C=C4)C=C3)cc1
REMARK SMILES IDX 5 1 4 2 3 3 1 4 2 5 39 7 40 8 101 9 41 10 100 11 42 12 43 13
REMARK SMILES IDX 44 14 94 15 45 16 99 17 93 18 95 19 46 20 98 21 92 22 91 23
REMARK SMILES IDX 47 25 79 26 59 27 78 28 60 29 63 30 77 31 96 32 61 33 62 34
REMARK SMILES IDX 76 36 97 37 64 38 48 39 49 40 57 41 50 42 52 43 58 44 51 45
REMARK SMILES IDX 53 46 54 47 55 48 56 49 80 50 81 51 89 52 82 53 84 54 90 55
REMARK SMILES IDX 83 56 85 57 86 58 87 59 88 60 65 61 66 62 74 63 67 64 69 65
REMARK SMILES IDX 75 66 68 67 70 68 71 69 72 70 73 71 6 72 7 73 8 74 9 75
REMARK SMILES IDX 10 77 11 78 12 79 38 80 13 81 37 82 14 83 15 84 16 85 30 86
REMARK SMILES IDX 17 87 18 88 29 89 19 90 31 92 32 93 36 94 33 95 35 96 34 97
REMARK SMILES IDX 20 98 21 99 25 100 22 101 24 102 23 103 26 104 28 105 27 106
REMARK H PARENT 3 6 95 24 63 35 8 76 29 91
REMARK Flexibility Score: inf
ROOT
ATOM      1  C   UNL A   1      41.073  20.630  26.797  1.00  0.00     0.023 C 
ENDROOT
BRANCH   1   2
ATOM      2  C   UNL A   1      42.202  19.647  27.077  1.00  0.00     0.116 C 
BRANCH   2   3
ATOM      3  N   UNL A   1      42.923  19.256  25.875  1.00  0.00    -0.352 N 
ATOM      4  O   UNL A   1      44.103  19.556  23.979  1.00  0.00    -0.269 OA
ATOM      5  C   UNL A   1      43.695  20.027  25.036  1.00  0.00     0.251 C 
ATOM      6  H   UNL A   1      42.848  18.306  25.626  1.00  0.00     0.163 HD
BRANCH   5   7
ATOM      7  C   UNL A   1      43.999  21.428  25.402  1.00  0.00     0.039 A 
ATOM      8  C   UNL A   1      44.798  21.715  26.511  1.00  0.00     0.014 A 
ATOM      9  C   UNL A   1      43.464  22.467  24.636  1.00  0.00     0.014 A 
ATOM     10  C   UNL A   1      44.930  23.029  26.947  1.00  0.00     0.010 A 
ATOM     11  C   UNL A   1      43.677  23.795  25.023  1.00  0.00     0.010 A 
ATOM     12  C   UNL A   1      44.381  24.086  26.202  1.00  0.00    -0.014 A 
BRANCH  12  13
ATOM     13  C   UNL A   1      44.627  25.485  26.635  1.00  0.00     0.031 A 
ATOM     14  C   UNL A   1      45.989  26.112  26.536  1.00  0.00     0.074 A 
ATOM     15  C   UNL A   1      43.593  26.193  27.132  1.00  0.00     0.049 A 
ATOM     16  N   UNL A   1      46.359  27.325  26.859  1.00  0.00    -0.248 NA
ATOM     17  C   UNL A   1      47.083  25.272  26.021  1.00  0.00     0.031 C 
ATOM     18  C   UNL A   1      42.236  25.673  27.326  1.00  0.00     0.029 A 
ATOM     19  N   UNL A   1      43.518  27.488  27.574  1.00  0.00    -0.354 N 
ATOM     20  C   UNL A   1      47.728  27.385  26.628  1.00  0.00     0.074 A 
ATOM     21  C   UNL A   1      48.128  26.081  26.141  1.00  0.00     0.031 C 
ATOM     22  C   UNL A   1      41.462  26.641  27.833  1.00  0.00     0.029 A 
ATOM     23  C   UNL A   1      42.276  27.831  28.052  1.00  0.00     0.049 A 
ATOM     24  H   UNL A   1      44.280  28.111  27.552  1.00  0.00     0.167 HD
ATOM     25  C   UNL A   1      48.572  28.433  26.792  1.00  0.00     0.034 A 
ATOM     26  C   UNL A   1      41.838  28.968  28.627  1.00  0.00     0.034 A 
ATOM     27  C   UNL A   1      48.161  29.737  27.245  1.00  0.00     0.049 A 
ATOM     28  C   UNL A   1      42.787  30.121  28.768  1.00  0.00     0.074 A 
ATOM     29  C   UNL A   1      48.924  30.885  27.366  1.00  0.00     0.029 A 
ATOM     30  N   UNL A   1      46.881  30.065  27.665  1.00  0.00    -0.354 N 
ATOM     31  N   UNL A   1      44.043  30.202  28.407  1.00  0.00    -0.248 NA
ATOM     32  C   UNL A   1      42.251  31.350  29.371  1.00  0.00     0.031 C 
ATOM     33  C   UNL A   1      48.112  31.900  27.885  1.00  0.00     0.029 A 
ATOM     34  C   UNL A   1      46.835  31.392  28.062  1.00  0.00     0.049 A 
ATOM     35  H   UNL A   1      46.116  29.446  27.679  1.00  0.00     0.167 HD
ATOM     36  C   UNL A   1      44.446  31.495  28.716  1.00  0.00     0.074 A 
ATOM     37  C   UNL A   1      43.288  32.171  29.269  1.00  0.00     0.031 C 
ATOM     38  C   UNL A   1      45.668  32.064  28.572  1.00  0.00     0.034 A 
BRANCH  25  39
ATOM     39  C   UNL A   1      50.026  28.229  26.450  1.00  0.00     0.023 A 
ATOM     40  C   UNL A   1      50.452  28.352  25.112  1.00  0.00     0.012 A 
ATOM     41  C   UNL A   1      50.981  27.984  27.457  1.00  0.00     0.148 A 
ATOM     42  C   UNL A   1      51.798  28.203  24.777  1.00  0.00     0.002 A 
ATOM     43  C   UNL A   1      52.326  27.877  27.121  1.00  0.00     0.091 A 
ATOM     44  F   UNL A   1      50.557  27.850  28.722  1.00  0.00    -0.205 F 
ATOM     45  C   UNL A   1      52.735  27.977  25.782  1.00  0.00     0.022 A 
BRANCH  43  46
ATOM     46  S   UNL A   1      53.616  27.661  28.354  1.00  0.00     0.127 S 
ATOM     47  O   UNL A   1      53.333  28.764  29.272  1.00  0.00    -0.237 OA
ATOM     48  O   UNL A   1      53.316  26.332  28.890  1.00  0.00    -0.237 OA
ATOM     49  O   UNL A   1      54.878  27.751  27.632  1.00  0.00    -0.744 OA
ENDBRANCH  43  46
ENDBRANCH  25  39
BRANCH  26  50
ATOM     50  C   UNL A   1      40.421  29.061  29.074  1.00  0.00     0.023 A 
ATOM     51  C   UNL A   1      39.397  29.196  28.118  1.00  0.00     0.012 A 
ATOM     52  C   UNL A   1      40.083  28.946  30.436  1.00  0.00     0.148 A 
ATOM     53  C   UNL A   1      38.059  29.234  28.516  1.00  0.00     0.002 A 
ATOM     54  C   UNL A   1      38.747  28.922  30.818  1.00  0.00     0.091 A 
ATOM     55  F   UNL A   1      41.076  28.831  31.330  1.00  0.00    -0.205 F 
ATOM     56  C   UNL A   1      37.735  29.084  29.861  1.00  0.00     0.022 A 
BRANCH  54  57
ATOM     57  S   UNL A   1      38.241  28.579  32.507  1.00  0.00     0.127 S 
ATOM     58  O   UNL A   1      36.852  29.030  32.499  1.00  0.00    -0.237 OA
ATOM     59  O   UNL A   1      38.417  27.129  32.587  1.00  0.00    -0.237 OA
ATOM     60  O   UNL A   1      39.152  29.340  33.351  1.00  0.00    -0.744 OA
ENDBRANCH  54  57
ENDBRANCH  26  50
BRANCH  38  61
ATOM     61  C   UNL A   1      45.816  33.499  29.002  1.00  0.00     0.023 A 
ATOM     62  C   UNL A   1      46.282  33.796  30.299  1.00  0.00     0.012 A 
ATOM     63  C   UNL A   1      45.554  34.552  28.103  1.00  0.00     0.148 A 
ATOM     64  C   UNL A   1      46.456  35.119  30.704  1.00  0.00     0.002 A 
ATOM     65  C   UNL A   1      45.775  35.866  28.498  1.00  0.00     0.091 A 
ATOM     66  F   UNL A   1      45.091  34.250  26.881  1.00  0.00    -0.205 F 
ATOM     67  C   UNL A   1      46.214  36.152  29.801  1.00  0.00     0.022 A 
BRANCH  65  68
ATOM     68  S   UNL A   1      45.579  37.254  27.374  1.00  0.00     0.127 S 
ATOM     69  O   UNL A   1      46.007  38.376  28.208  1.00  0.00    -0.237 OA
ATOM     70  O   UNL A   1      46.503  36.911  26.292  1.00  0.00    -0.237 OA
ATOM     71  O   UNL A   1      44.174  37.260  26.988  1.00  0.00    -0.744 OA
ENDBRANCH  65  68
ENDBRANCH  38  61
ENDBRANCH  12  13
ENDBRANCH   5   7
ENDBRANCH   2   3
ENDBRANCH   1   2
BRANCH   1  72
ATOM     72  C   UNL A   1      39.946  20.091  25.919  1.00  0.00     0.023 C 
BRANCH  72  73
ATOM     73  C   UNL A   1      38.791  21.060  25.679  1.00  0.00     0.116 C 
BRANCH  73  74
ATOM     74  N   UNL A   1      39.111  22.421  26.083  1.00  0.00    -0.352 N 
ATOM     75  C   UNL A   1      38.324  23.542  26.019  1.00  0.00     0.251 C 
ATOM     76  H   UNL A   1      40.014  22.554  26.452  1.00  0.00     0.163 HD
ATOM     77  O   UNL A   1      38.775  24.654  26.271  1.00  0.00    -0.269 OA
BRANCH  75  78
ATOM     78  C   UNL A   1      36.918  23.400  25.606  1.00  0.00     0.040 A 
ATOM     79  C   UNL A   1      35.932  23.340  26.589  1.00  0.00     0.018 A 
ATOM     80  C   UNL A   1      36.576  23.355  24.254  1.00  0.00     0.018 A 
ATOM     81  C   UNL A   1      34.587  23.338  26.213  1.00  0.00     0.053 A 
ATOM     82  C   UNL A   1      35.230  23.337  23.885  1.00  0.00     0.053 A 
ATOM     83  C   UNL A   1      34.221  23.379  24.858  1.00  0.00     0.136 A 
BRANCH  83  84
ATOM     84  N   UNL A   1      32.863  23.457  24.471  1.00  0.00    -0.154 N 
ATOM     85  C   UNL A   1      32.171  24.637  24.364  1.00  0.00     0.385 C 
ATOM     86  C   UNL A   1      32.003  22.449  24.113  1.00  0.00     0.295 C 
ATOM     87  O   UNL A   1      32.508  25.772  24.653  1.00  0.00    -0.236 OA
ATOM     88  C   UNL A   1      30.863  24.197  23.772  1.00  0.00     0.216 C 
ATOM     89  N   UNL A   1      30.823  22.823  23.708  1.00  0.00    -0.233 N 
ATOM     90  C   UNL A   1      29.908  24.995  23.272  1.00  0.00     0.068 C 
ATOM     91  H   UNL A   1      30.073  22.253  23.421  1.00  0.00     0.312 HD
BRANCH  86  92
ATOM     92  C   UNL A   1      32.345  21.025  24.248  1.00  0.00     0.065 A 
ATOM     93  C   UNL A   1      32.305  20.209  23.114  1.00  0.00     0.017 A 
ATOM     94  C   UNL A   1      32.666  20.490  25.501  1.00  0.00     0.017 A 
ATOM     95  C   UNL A   1      32.622  18.856  23.230  1.00  0.00     0.001 A 
ATOM     96  C   UNL A   1      32.975  19.134  25.610  1.00  0.00     0.001 A 
ATOM     97  C   UNL A   1      32.957  18.321  24.476  1.00  0.00     0.000 A 
ENDBRANCH  86  92
BRANCH  90  98
ATOM     98  C   UNL A   1      30.114  26.431  23.092  1.00  0.00    -0.017 A 
ATOM     99  C   UNL A   1      31.218  26.933  22.377  1.00  0.00     0.012 A 
ATOM    100  C   UNL A   1      29.098  27.296  23.530  1.00  0.00     0.059 A 
ATOM    101  C   UNL A   1      31.286  28.292  22.044  1.00  0.00     0.051 A 
ATOM    102  C   UNL A   1      29.173  28.614  23.151  1.00  0.00     0.166 A 
ATOM    103  C   UNL A   1      30.231  29.098  22.418  1.00  0.00     0.165 A 
ATOM    104  O   UNL A   1      28.221  29.557  23.381  1.00  0.00    -0.454 OA
ATOM    105  O   UNL A   1      30.067  30.410  22.095  1.00  0.00    -0.454 OA
ATOM    106  C   UNL A   1      28.706  30.615  22.533  1.00  0.00     0.468 C 
ENDBRANCH  90  98
ENDBRANCH  83  84
ENDBRANCH  75  78
ENDBRANCH  73  74
ENDBRANCH  72  73
ENDBRANCH   1  72
TORSDOF 17
ENDMDL
MODEL 2
REMARK VINA RESULT:     -12.1      1.516      7.203
REMARK SMILES O=C(NCCCCNC(=O)c1ccc(N2C(=O)/C(=C\c3ccc4c(c3)OCO4)[NH+]=C2c2ccccc2)cc1)c1ccc(-c2c3nc(c(-c4cccc(S(=O)(=O)[O-])c4F)c4ccc([nH]4)c(-c4cccc(S(=O)(=O)[O-])c4F)c4nc(c(-c5cccc(S(=O)(=O)[O-])c5F)c5ccc2[nH]5)C=C4)C=C3)cc1
REMARK SMILES IDX 5 1 4 2 3 3 1 4 2 5 39 7 40 8 101 9 41 10 100 11 42 12 43 13
REMARK SMILES IDX 44 14 94 15 45 16 99 17 93 18 95 19 46 20 98 21 92 22 91 23
REMARK SMILES IDX 47 25 79 26 59 27 78 28 60 29 63 30 77 31 96 32 61 33 62 34
REMARK SMILES IDX 76 36 97 37 64 38 48 39 49 40 57 41 50 42 52 43 58 44 51 45
REMARK SMILES IDX 53 46 54 47 55 48 56 49 80 50 81 51 89 52 82 53 84 54 90 55
REMARK SMILES IDX 83 56 85 57 86 58 87 59 88 60 65 61 66 62 74 63 67 64 69 65
REMARK SMILES IDX 75 66 68 67 70 68 71 69 72 70 73 71 6 72 7 73 8 74 9 75
REMARK SMILES IDX 10 77 11 78 12 79 38 80 13 81 37 82 14 83 15 84 16 85 30 86
REMARK SMILES IDX 17 87 18 88 29 89 19 90 31 92 32 93 36 94 33 95 35 96 34 97
REMARK SMILES IDX 20 98 21 99 25 100 22 101 24 102 23 103 26 104 28 105 27 106
REMARK H PARENT 3 6 95 24 63 35 8 76 29 91
REMARK Flexibility Score: inf
ROOT
ATOM      1  C   UNL A   1      41.318  20.550  26.358  1.00  0.00     0.023 C 
ENDROOT
BRANCH   1   2
ATOM      2  C   UNL A   1      42.409  19.544  26.699  1.00  0.00     0.116 C 
BRANCH   2   3
ATOM      3  N   UNL A   1      43.165  19.114  25.534  1.00  0.00    -0.352 N 
ATOM      4  O   UNL A   1      44.439  19.349  23.690  1.00  0.00    -0.269 OA
ATOM      5  C   UNL A   1      44.005  19.846  24.725  1.00  0.00     0.251 C 
ATOM      6  H   UNL A   1      43.063  18.166  25.288  1.00  0.00     0.163 HD
BRANCH   5   7
ATOM      7  C   UNL A   1      44.348  21.237  25.093  1.00  0.00     0.039 A 
ATOM      8  C   UNL A   1      45.129  21.500  26.221  1.00  0.00     0.014 A 
ATOM      9  C   UNL A   1      43.871  22.291  24.311  1.00  0.00     0.014 A 
ATOM     10  C   UNL A   1      45.297  22.809  26.656  1.00  0.00     0.010 A 
ATOM     11  C   UNL A   1      44.121  23.612  24.699  1.00  0.00     0.010 A 
ATOM     12  C   UNL A   1      44.805  23.882  25.894  1.00  0.00    -0.014 A 
BRANCH  12  13
ATOM     13  C   UNL A   1      45.089  25.274  26.329  1.00  0.00     0.031 A 
ATOM     14  C   UNL A   1      44.008  26.165  26.874  1.00  0.00     0.074 A 
ATOM     15  C   UNL A   1      46.351  25.734  26.218  1.00  0.00     0.049 A 
ATOM     16  N   UNL A   1      44.101  27.396  27.308  1.00  0.00    -0.248 NA
ATOM     17  C   UNL A   1      42.644  25.613  26.931  1.00  0.00     0.031 C 
ATOM     18  C   UNL A   1      47.473  24.980  25.654  1.00  0.00     0.029 A 
ATOM     19  N   UNL A   1      46.902  26.942  26.560  1.00  0.00    -0.354 N 
ATOM     20  C   UNL A   1      42.810  27.782  27.650  1.00  0.00     0.074 A 
ATOM     21  C   UNL A   1      41.947  26.654  27.367  1.00  0.00     0.031 C 
ATOM     22  C   UNL A   1      48.579  25.733  25.701  1.00  0.00     0.029 A 
ATOM     23  C   UNL A   1      48.236  27.042  26.246  1.00  0.00     0.049 A 
ATOM     24  H   UNL A   1      46.391  27.667  26.988  1.00  0.00     0.167 HD
ATOM     25  C   UNL A   1      42.386  28.962  28.164  1.00  0.00     0.034 A 
ATOM     26  C   UNL A   1      49.091  28.076  26.360  1.00  0.00     0.034 A 
ATOM     27  C   UNL A   1      43.256  30.068  28.474  1.00  0.00     0.049 A 
ATOM     28  C   UNL A   1      48.600  29.360  26.961  1.00  0.00     0.074 A 
ATOM     29  C   UNL A   1      42.934  31.273  29.073  1.00  0.00     0.029 A 
ATOM     30  N   UNL A   1      44.614  30.112  28.197  1.00  0.00    -0.354 N 
ATOM     31  N   UNL A   1      47.406  29.654  27.413  1.00  0.00    -0.248 NA
ATOM     32  C   UNL A   1      49.580  30.447  27.093  1.00  0.00     0.031 C 
ATOM     33  C   UNL A   1      44.093  32.056  29.133  1.00  0.00     0.029 A 
ATOM     34  C   UNL A   1      45.142  31.329  28.596  1.00  0.00     0.049 A 
ATOM     35  H   UNL A   1      45.128  29.384  27.777  1.00  0.00     0.167 HD
ATOM     36  C   UNL A   1      47.493  30.949  27.905  1.00  0.00     0.074 A 
ATOM     37  C   UNL A   1      48.867  31.374  27.720  1.00  0.00     0.031 C 
ATOM     38  C   UNL A   1      46.519  31.723  28.444  1.00  0.00     0.034 A 
BRANCH  25  39
ATOM     39  C   UNL A   1      40.916  29.115  28.461  1.00  0.00     0.023 A 
ATOM     40  C   UNL A   1      40.009  29.331  27.403  1.00  0.00     0.012 A 
ATOM     41  C   UNL A   1      40.423  28.981  29.774  1.00  0.00     0.148 A 
ATOM     42  C   UNL A   1      38.640  29.440  27.650  1.00  0.00     0.002 A 
ATOM     43  C   UNL A   1      39.054  29.050  30.007  1.00  0.00     0.091 A 
ATOM     44  F   UNL A   1      41.300  28.797  30.771  1.00  0.00    -0.205 F 
ATOM     45  C   UNL A   1      38.162  29.288  28.949  1.00  0.00     0.022 A 
BRANCH  43  46
ATOM     46  S   UNL A   1      38.336  28.793  31.635  1.00  0.00     0.127 S 
ATOM     47  O   UNL A   1      38.959  29.868  32.405  1.00  0.00    -0.237 OA
ATOM     48  O   UNL A   1      36.907  28.978  31.378  1.00  0.00    -0.237 OA
ATOM     49  O   UNL A   1      38.709  27.440  32.026  1.00  0.00    -0.744 OA
ENDBRANCH  43  46
ENDBRANCH  25  39
BRANCH  26  50
ATOM     50  C   UNL A   1      50.503  27.909  25.919  1.00  0.00     0.023 A 
ATOM     51  C   UNL A   1      51.492  27.575  26.862  1.00  0.00     0.012 A 
ATOM     52  C   UNL A   1      50.853  28.009  24.558  1.00  0.00     0.148 A 
ATOM     53  C   UNL A   1      52.812  27.364  26.459  1.00  0.00     0.002 A 
ATOM     54  C   UNL A   1      52.155  27.737  24.157  1.00  0.00     0.091 A 
ATOM     55  F   UNL A   1      49.897  28.341  23.679  1.00  0.00    -0.205 F 
ATOM     56  C   UNL A   1      53.140  27.432  25.108  1.00  0.00     0.022 A 
BRANCH  54  57
ATOM     57  S   UNL A   1      52.625  27.652  22.425  1.00  0.00     0.127 S 
ATOM     58  O   UNL A   1      52.586  29.058  22.036  1.00  0.00    -0.237 OA
ATOM     59  O   UNL A   1      53.965  27.070  22.504  1.00  0.00    -0.237 OA
ATOM     60  O   UNL A   1      51.636  26.789  21.794  1.00  0.00    -0.744 OA
ENDBRANCH  54  57
ENDBRANCH  26  50
BRANCH  38  61
ATOM     61  C   UNL A   1      46.906  33.108  28.892  1.00  0.00     0.023 A 
ATOM     62  C   UNL A   1      47.394  33.309  30.200  1.00  0.00     0.012 A 
ATOM     63  C   UNL A   1      46.846  34.198  28.001  1.00  0.00     0.148 A 
ATOM     64  C   UNL A   1      47.786  34.578  30.623  1.00  0.00     0.002 A 
ATOM     65  C   UNL A   1      47.283  35.450  28.416  1.00  0.00     0.091 A 
ATOM     66  F   UNL A   1      46.359  33.991  26.769  1.00  0.00    -0.205 F 
ATOM     67  C   UNL A   1      47.742  35.645  29.728  1.00  0.00     0.022 A 
BRANCH  65  68
ATOM     68  S   UNL A   1      47.350  36.861  27.305  1.00  0.00     0.127 S 
ATOM     69  O   UNL A   1      48.215  36.360  26.238  1.00  0.00    -0.237 OA
ATOM     70  O   UNL A   1      45.945  37.023  26.924  1.00  0.00    -0.237 OA
ATOM     71  O   UNL A   1      47.893  37.962  28.088  1.00  0.00    -0.744 OA
ENDBRANCH  65  68
ENDBRANCH  38  61
ENDBRANCH  12  13
ENDBRANCH   5   7
ENDBRANCH   2   3
ENDBRANCH   1   2
BRANCH   1  72
ATOM     72  C   UNL A   1      39.968  19.942  25.983  1.00  0.00     0.023 C 
BRANCH  72  73
ATOM     73  C   UNL A   1      38.877  20.950  25.631  1.00  0.00     0.116 C 
BRANCH  73  74
ATOM     74  N   UNL A   1      39.196  22.297  26.082  1.00  0.00    -0.352 N 
ATOM     75  C   UNL A   1      38.409  23.420  26.052  1.00  0.00     0.251 C 
ATOM     76  H   UNL A   1      40.098  22.417  26.458  1.00  0.00     0.163 HD
ATOM     77  O   UNL A   1      38.859  24.522  26.343  1.00  0.00    -0.269 OA
BRANCH  75  78
ATOM     78  C   UNL A   1      37.005  23.292  25.628  1.00  0.00     0.040 A 
ATOM     79  C   UNL A   1      36.010  23.256  26.604  1.00  0.00     0.018 A 
ATOM     80  C   UNL A   1      36.674  23.237  24.274  1.00  0.00     0.018 A 
ATOM     81  C   UNL A   1      34.669  23.268  26.216  1.00  0.00     0.053 A 
ATOM     82  C   UNL A   1      35.331  23.233  23.894  1.00  0.00     0.053 A 
ATOM     83  C   UNL A   1      34.314  23.299  24.858  1.00  0.00     0.136 A 
BRANCH  83  84
ATOM     84  N   UNL A   1      32.960  23.391  24.459  1.00  0.00    -0.154 N 
ATOM     85  C   UNL A   1      32.279  24.577  24.357  1.00  0.00     0.385 C 
ATOM     86  C   UNL A   1      32.097  22.392  24.083  1.00  0.00     0.295 C 
ATOM     87  O   UNL A   1      32.621  25.706  24.660  1.00  0.00    -0.236 OA
ATOM     88  C   UNL A   1      30.973  24.152  23.748  1.00  0.00     0.216 C 
ATOM     89  N   UNL A   1      30.923  22.779  23.670  1.00  0.00    -0.233 N 
ATOM     90  C   UNL A   1      30.029  24.962  23.246  1.00  0.00     0.068 C 
ATOM     91  H   UNL A   1      30.172  22.218  23.371  1.00  0.00     0.312 HD
BRANCH  86  92
ATOM     92  C   UNL A   1      32.427  20.964  24.207  1.00  0.00     0.065 A 
ATOM     93  C   UNL A   1      32.305  20.142  23.085  1.00  0.00     0.017 A 
ATOM     94  C   UNL A   1      32.818  20.434  25.442  1.00  0.00     0.017 A 
ATOM     95  C   UNL A   1      32.611  18.786  23.191  1.00  0.00     0.001 A 
ATOM     96  C   UNL A   1      33.115  19.075  25.543  1.00  0.00     0.001 A 
ATOM     97  C   UNL A   1      33.015  18.254  24.418  1.00  0.00     0.000 A 
ENDBRANCH  86  92
BRANCH  90  98
ATOM     98  C   UNL A   1      30.247  26.398  23.082  1.00  0.00    -0.017 A 
ATOM     99  C   UNL A   1      31.351  26.898  22.364  1.00  0.00     0.012 A 
ATOM    100  C   UNL A   1      29.243  27.268  23.539  1.00  0.00     0.059 A 
ATOM    101  C   UNL A   1      31.429  28.261  22.047  1.00  0.00     0.051 A 
ATOM    102  C   UNL A   1      29.328  28.589  23.175  1.00  0.00     0.166 A 
ATOM    103  C   UNL A   1      30.384  29.072  22.440  1.00  0.00     0.165 A 
ATOM    104  O   UNL A   1      28.386  29.539  23.424  1.00  0.00    -0.454 OA
ATOM    105  O   UNL A   1      30.230  30.390  22.134  1.00  0.00    -0.454 OA
ATOM    106  C   UNL A   1      28.875  30.602  22.585  1.00  0.00     0.468 C 
ENDBRANCH  90  98
ENDBRANCH  83  84
ENDBRANCH  75  78
ENDBRANCH  73  74
ENDBRANCH  72  73
ENDBRANCH   1  72
TORSDOF 17
ENDMDL
MODEL 3
REMARK VINA RESULT:     -12.0      3.932      9.060
REMARK SMILES O=C(NCCCCNC(=O)c1ccc(N2C(=O)/C(=C\c3ccc4c(c3)OCO4)[NH+]=C2c2ccccc2)cc1)c1ccc(-c2c3nc(c(-c4cccc(S(=O)(=O)[O-])c4F)c4ccc([nH]4)c(-c4cccc(S(=O)(=O)[O-])c4F)c4nc(c(-c5cccc(S(=O)(=O)[O-])c5F)c5ccc2[nH]5)C=C4)C=C3)cc1
REMARK SMILES IDX 5 1 4 2 3 3 1 4 2 5 39 7 40 8 101 9 41 10 100 11 42 12 43 13
REMARK SMILES IDX 44 14 94 15 45 16 99 17 93 18 95 19 46 20 98 21 92 22 91 23
REMARK SMILES IDX 47 25 79 26 59 27 78 28 60 29 63 30 77 31 96 32 61 33 62 34
REMARK SMILES IDX 76 36 97 37 64 38 48 39 49 40 57 41 50 42 52 43 58 44 51 45
REMARK SMILES IDX 53 46 54 47 55 48 56 49 80 50 81 51 89 52 82 53 84 54 90 55
REMARK SMILES IDX 83 56 85 57 86 58 87 59 88 60 65 61 66 62 74 63 67 64 69 65
REMARK SMILES IDX 75 66 68 67 70 68 71 69 72 70 73 71 6 72 7 73 8 74 9 75
REMARK SMILES IDX 10 77 11 78 12 79 38 80 13 81 37 82 14 83 15 84 16 85 30 86
REMARK SMILES IDX 17 87 18 88 29 89 19 90 31 92 32 93 36 94 33 95 35 96 34 97
REMARK SMILES IDX 20 98 21 99 25 100 22 101 24 102 23 103 26 104 28 105 27 106
REMARK H PARENT 3 6 95 24 63 35 8 76 29 91
REMARK Flexibility Score: inf
ROOT
ATOM      1  C   UNL A   1      39.829  23.315  26.935  1.00  0.00     0.023 C 
ENDROOT
BRANCH   1   2
ATOM      2  C   UNL A   1      41.137  22.745  27.468  1.00  0.00     0.116 C 
BRANCH   2   3
ATOM      3  N   UNL A   1      41.748  21.787  26.560  1.00  0.00    -0.352 N 
ATOM      4  O   UNL A   1      43.172  21.054  24.975  1.00  0.00    -0.269 OA
ATOM      5  C   UNL A   1      42.892  21.914  25.804  1.00  0.00     0.251 C 
ATOM      6  H   UNL A   1      41.279  20.925  26.475  1.00  0.00     0.163 HD
BRANCH   5   7
ATOM      7  C   UNL A   1      43.754  23.104  25.975  1.00  0.00     0.039 A 
ATOM      8  C   UNL A   1      44.698  23.154  27.003  1.00  0.00     0.014 A 
ATOM      9  C   UNL A   1      43.605  24.188  25.107  1.00  0.00     0.014 A 
ATOM     10  C   UNL A   1      45.376  24.340  27.262  1.00  0.00     0.010 A 
ATOM     11  C   UNL A   1      44.358  25.350  25.312  1.00  0.00     0.010 A 
ATOM     12  C   UNL A   1      45.223  25.449  26.412  1.00  0.00    -0.014 A 
BRANCH  12  13
ATOM     13  C   UNL A   1      46.038  26.667  26.652  1.00  0.00     0.031 A 
ATOM     14  C   UNL A   1      45.516  27.815  27.472  1.00  0.00     0.074 A 
ATOM     15  C   UNL A   1      47.269  26.732  26.108  1.00  0.00     0.049 A 
ATOM     16  N   UNL A   1      46.111  28.938  27.783  1.00  0.00    -0.248 NA
ATOM     17  C   UNL A   1      44.148  27.697  28.004  1.00  0.00     0.031 C 
ATOM     18  C   UNL A   1      47.862  25.703  25.249  1.00  0.00     0.029 A 
ATOM     19  N   UNL A   1      48.237  27.699  26.184  1.00  0.00    -0.354 N 
ATOM     20  C   UNL A   1      45.184  29.677  28.508  1.00  0.00     0.074 A 
ATOM     21  C   UNL A   1      43.980  28.877  28.587  1.00  0.00     0.031 C 
ATOM     22  C   UNL A   1      49.093  26.086  24.890  1.00  0.00     0.029 A 
ATOM     23  C   UNL A   1      49.359  27.408  25.445  1.00  0.00     0.049 A 
ATOM     24  H   UNL A   1      48.138  28.522  26.715  1.00  0.00     0.167 HD
ATOM     25  C   UNL A   1      45.328  30.903  29.068  1.00  0.00     0.034 A 
ATOM     26  C   UNL A   1      50.471  28.130  25.214  1.00  0.00     0.034 A 
ATOM     27  C   UNL A   1      46.540  31.679  29.013  1.00  0.00     0.049 A 
ATOM     28  C   UNL A   1      50.615  29.471  25.871  1.00  0.00     0.074 A 
ATOM     29  C   UNL A   1      46.811  32.894  29.617  1.00  0.00     0.029 A 
ATOM     30  N   UNL A   1      47.678  31.326  28.304  1.00  0.00    -0.354 N 
ATOM     31  N   UNL A   1      49.783  30.088  26.674  1.00  0.00    -0.248 NA
ATOM     32  C   UNL A   1      51.862  30.205  25.615  1.00  0.00     0.031 C 
ATOM     33  C   UNL A   1      48.103  33.288  29.250  1.00  0.00     0.029 A 
ATOM     34  C   UNL A   1      48.648  32.306  28.440  1.00  0.00     0.049 A 
ATOM     35  H   UNL A   1      47.782  30.499  27.779  1.00  0.00     0.167 HD
ATOM     36  C   UNL A   1      50.411  31.271  27.038  1.00  0.00     0.074 A 
ATOM     37  C   UNL A   1      51.708  31.271  26.389  1.00  0.00     0.031 C 
ATOM     38  C   UNL A   1      49.949  32.275  27.823  1.00  0.00     0.034 A 
BRANCH  25  39
ATOM     39  C   UNL A   1      44.155  31.477  29.821  1.00  0.00     0.023 A 
ATOM     40  C   UNL A   1      43.268  32.356  29.167  1.00  0.00     0.012 A 
ATOM     41  C   UNL A   1      43.892  31.097  31.152  1.00  0.00     0.148 A 
ATOM     42  C   UNL A   1      42.156  32.871  29.834  1.00  0.00     0.002 A 
ATOM     43  C   UNL A   1      42.760  31.582  31.797  1.00  0.00     0.091 A 
ATOM     44  F   UNL A   1      44.756  30.277  31.766  1.00  0.00    -0.205 F 
ATOM     45  C   UNL A   1      41.896  32.476  31.144  1.00  0.00     0.022 A 
BRANCH  43  46
ATOM     46  S   UNL A   1      42.300  31.072  33.458  1.00  0.00     0.127 S 
ATOM     47  O   UNL A   1      41.219  32.008  33.765  1.00  0.00    -0.237 OA
ATOM     48  O   UNL A   1      41.867  29.689  33.250  1.00  0.00    -0.237 OA
ATOM     49  O   UNL A   1      43.503  31.213  34.267  1.00  0.00    -0.744 OA
ENDBRANCH  43  46
ENDBRANCH  25  39
BRANCH  26  50
ATOM     50  C   UNL A   1      51.541  27.567  24.344  1.00  0.00     0.023 A 
ATOM     51  C   UNL A   1      52.542  26.756  24.908  1.00  0.00     0.012 A 
ATOM     52  C   UNL A   1      51.525  27.776  22.951  1.00  0.00     0.148 A 
ATOM     53  C   UNL A   1      53.523  26.179  24.100  1.00  0.00     0.002 A 
ATOM     54  C   UNL A   1      52.467  27.148  22.147  1.00  0.00     0.091 A 
ATOM     55  F   UNL A   1      50.568  28.563  22.438  1.00  0.00    -0.205 F 
ATOM     56  C   UNL A   1      53.478  26.363  22.721  1.00  0.00     0.022 A 
BRANCH  54  57
ATOM     57  S   UNL A   1      52.387  27.208  20.353  1.00  0.00     0.127 S 
ATOM     58  O   UNL A   1      53.506  26.349  19.976  1.00  0.00    -0.237 OA
ATOM     59  O   UNL A   1      51.062  26.646  20.090  1.00  0.00    -0.237 OA
ATOM     60  O   UNL A   1      52.520  28.616  20.002  1.00  0.00    -0.744 OA
ENDBRANCH  54  57
ENDBRANCH  26  50
BRANCH  38  61
ATOM     61  C   UNL A   1      50.858  33.455  28.043  1.00  0.00     0.023 A 
ATOM     62  C   UNL A   1      51.827  33.410  29.066  1.00  0.00     0.012 A 
ATOM     63  C   UNL A   1      50.795  34.581  27.199  1.00  0.00     0.148 A 
ATOM     64  C   UNL A   1      52.698  34.481  29.264  1.00  0.00     0.002 A 
ATOM     65  C   UNL A   1      51.698  35.623  27.373  1.00  0.00     0.091 A 
ATOM     66  F   UNL A   1      49.852  34.614  26.245  1.00  0.00    -0.205 F 
ATOM     67  C   UNL A   1      52.642  35.580  28.411  1.00  0.00     0.022 A 
BRANCH  65  68
ATOM     68  S   UNL A   1      51.759  37.037  26.266  1.00  0.00     0.127 S 
ATOM     69  O   UNL A   1      52.872  37.805  26.823  1.00  0.00    -0.237 OA
ATOM     70  O   UNL A   1      52.039  36.408  24.973  1.00  0.00    -0.237 OA
ATOM     71  O   UNL A   1      50.451  37.673  26.355  1.00  0.00    -0.744 OA
ENDBRANCH  65  68
ENDBRANCH  38  61
ENDBRANCH  12  13
ENDBRANCH   5   7
ENDBRANCH   2   3
ENDBRANCH   1   2
BRANCH   1  72
ATOM     72  C   UNL A   1      39.316  24.555  27.664  1.00  0.00     0.023 C 
BRANCH  72  73
ATOM     73  C   UNL A   1      40.155  25.815  27.469  1.00  0.00     0.116 C 
BRANCH  73  74
ATOM     74  N   UNL A   1      40.911  26.172  28.661  1.00  0.00    -0.352 N 
ATOM     75  C   UNL A   1      40.756  27.261  29.481  1.00  0.00     0.251 C 
ATOM     76  H   UNL A   1      41.630  25.548  28.911  1.00  0.00     0.163 HD
ATOM     77  O   UNL A   1      41.557  27.504  30.377  1.00  0.00    -0.269 OA
BRANCH  75  78
ATOM     78  C   UNL A   1      39.619  28.167  29.250  1.00  0.00     0.040 A 
ATOM     79  C   UNL A   1      39.628  28.980  28.118  1.00  0.00     0.018 A 
ATOM     80  C   UNL A   1      38.537  28.188  30.132  1.00  0.00     0.018 A 
ATOM     81  C   UNL A   1      38.500  29.746  27.815  1.00  0.00     0.053 A 
ATOM     82  C   UNL A   1      37.419  28.968  29.830  1.00  0.00     0.053 A 
ATOM     83  C   UNL A   1      37.368  29.717  28.645  1.00  0.00     0.136 A 
BRANCH  83  84
ATOM     84  N   UNL A   1      36.194  30.427  28.303  1.00  0.00    -0.154 N 
ATOM     85  C   UNL A   1      35.219  29.929  27.477  1.00  0.00     0.385 C 
ATOM     86  C   UNL A   1      35.781  31.670  28.715  1.00  0.00     0.295 C 
ATOM     87  O   UNL A   1      35.195  28.899  26.825  1.00  0.00    -0.236 OA
ATOM     88  C   UNL A   1      34.142  30.971  27.575  1.00  0.00     0.216 C 
ATOM     89  N   UNL A   1      34.598  32.040  28.312  1.00  0.00    -0.233 N 
ATOM     90  C   UNL A   1      32.885  30.860  27.121  1.00  0.00     0.068 C 
ATOM     91  H   UNL A   1      34.137  32.891  28.493  1.00  0.00     0.312 HD
BRANCH  86  92
ATOM     92  C   UNL A   1      36.637  32.576  29.496  1.00  0.00     0.065 A 
ATOM     93  C   UNL A   1      36.507  32.598  30.886  1.00  0.00     0.017 A 
ATOM     94  C   UNL A   1      37.536  33.431  28.849  1.00  0.00     0.017 A 
ATOM     95  C   UNL A   1      37.310  33.456  31.637  1.00  0.00     0.001 A 
ATOM     96  C   UNL A   1      38.331  34.292  29.606  1.00  0.00     0.001 A 
ATOM     97  C   UNL A   1      38.220  34.300  30.997  1.00  0.00     0.000 A 
ENDBRANCH  86  92
BRANCH  90  98
ATOM     98  C   UNL A   1      32.355  29.600  26.606  1.00  0.00    -0.017 A 
ATOM     99  C   UNL A   1      31.918  28.576  27.469  1.00  0.00     0.012 A 
ATOM    100  C   UNL A   1      32.159  29.493  25.219  1.00  0.00     0.059 A 
ATOM    101  C   UNL A   1      31.230  27.468  26.959  1.00  0.00     0.051 A 
ATOM    102  C   UNL A   1      31.443  28.415  24.756  1.00  0.00     0.166 A 
ATOM    103  C   UNL A   1      30.981  27.435  25.602  1.00  0.00     0.165 A 
ATOM    104  O   UNL A   1      31.057  28.219  23.467  1.00  0.00    -0.454 OA
ATOM    105  O   UNL A   1      30.241  26.502  24.942  1.00  0.00    -0.454 OA
ATOM    106  C   UNL A   1      30.133  27.129  23.645  1.00  0.00     0.468 C 
ENDBRANCH  90  98
ENDBRANCH  83  84
ENDBRANCH  75  78
ENDBRANCH  73  74
ENDBRANCH  72  73
ENDBRANCH   1  72
TORSDOF 17
ENDMDL
