MODEL 1
REMARK VINA RESULT:     -13.1      0.000      0.000
REMARK SMILES Cc1ccc(S(=O)(=O)n2cc(C(=O)C(=O)NCC(=O)N[C@H](Cc3c[nH]c4ccccc34)C(=O)NCCCCNC(=O)c3ccc(-c4c5nc(c(-c6cccc(S(=O)(=O)[O-])c6F)c6ccc([nH]6)c(-c6cccc(S(=O)(=O)[O-])c6F)c6nc(c(-c7cccc(S(=O)(=O)[O-])c7F)c7ccc4[nH]7)C=C6)C=C5)cc3)c3ccccc32)cc1
REMARK SMILES IDX 32 1 33 2 34 3 21 5 20 6 18 7 19 8 17 10 16 11 14 12 15 13
REMARK SMILES IDX 12 15 13 16 11 17 9 18 10 19 110 20 105 21 109 22 106 23
REMARK SMILES IDX 108 24 107 25 6 26 7 27 8 28 5 29 1 30 2 31 3 32 112 33 4 34
REMARK SMILES IDX 111 35 22 36 23 37 24 38 31 39 25 40 26 41 30 42 27 44 29 45
REMARK SMILES IDX 28 46 35 47 36 48 37 49 38 50 39 51 40 52 41 54 42 55 43 56
REMARK SMILES IDX 104 57 44 58 103 59 45 60 46 61 47 62 97 63 48 64 102 65
REMARK SMILES IDX 96 66 98 67 49 68 101 69 95 70 94 71 50 73 82 74 62 75 81 76
REMARK SMILES IDX 63 77 66 78 80 79 99 80 64 81 65 82 79 84 100 85 67 86 51 87
REMARK SMILES IDX 52 88 60 89 53 90 55 91 61 92 54 93 56 94 57 95 58 96 59 97
REMARK SMILES IDX 83 98 84 99 92 100 85 101 87 102 93 103 86 104 88 105 89 106
REMARK SMILES IDX 90 107 91 108 68 109 69 110 77 111 70 112 72 113 78 114
REMARK SMILES IDX 71 115 73 116 74 117 75 118 76 119
REMARK H PARENT 34 4 20 9 16 14 25 43 39 53 98 72 66 83
REMARK Flexibility Score: inf
ROOT
ATOM      1  C   UNL A   1      31.653  26.070  25.646  1.00  0.00     0.242 C 
ATOM      2  O   UNL A   1      31.339  24.874  25.716  1.00  0.00    -0.273 OA
ATOM      3  N   UNL A   1      31.960  26.664  26.824  1.00  0.00    -0.354 N 
ATOM      4  H   UNL A   1      31.902  26.046  27.588  1.00  0.00     0.163 HD
ENDROOT
BRANCH   1   5
ATOM      5  C   UNL A   1      31.647  26.767  24.272  1.00  0.00     0.175 C 
BRANCH   5   6
ATOM      6  N   UNL A   1      32.359  25.893  23.333  1.00  0.00    -0.342 N 
ATOM      7  C   UNL A   1      33.646  25.443  23.379  1.00  0.00     0.240 C 
ATOM      8  O   UNL A   1      34.031  24.788  22.405  1.00  0.00    -0.273 OA
ATOM      9  H   UNL A   1      31.832  25.587  22.560  1.00  0.00     0.164 HD
BRANCH   7  10
ATOM     10  C   UNL A   1      34.512  25.527  24.658  1.00  0.00     0.216 C 
BRANCH  10  11
ATOM     11  N   UNL A   1      34.403  24.481  25.673  1.00  0.00    -0.340 N 
ATOM     12  C   UNL A   1      35.347  23.546  26.074  1.00  0.00     0.292 C 
ATOM     13  O   UNL A   1      35.157  22.776  27.007  1.00  0.00    -0.265 OA
ATOM     14  H   UNL A   1      33.536  24.431  26.138  1.00  0.00     0.164 HD
BRANCH  12  15
ATOM     15  C   UNL A   1      36.680  23.470  25.338  1.00  0.00     0.252 C 
ATOM     16  O   UNL A   1      36.639  23.079  24.171  1.00  0.00    -0.283 OA
BRANCH  15  17
ATOM     17  C   UNL A   1      37.956  23.684  26.038  1.00  0.00     0.054 A 
ATOM     18  N   UNL A   1      39.757  24.489  27.152  1.00  0.00    -0.240 N 
ATOM     19  C   UNL A   1      38.556  24.848  26.540  1.00  0.00     0.117 A 
ATOM     20  C   UNL A   1      39.782  23.084  27.226  1.00  0.00     0.065 A 
ATOM     21  C   UNL A   1      38.904  22.639  26.244  1.00  0.00     0.012 A 
ATOM     22  C   UNL A   1      40.712  22.211  27.829  1.00  0.00     0.028 A 
ATOM     23  C   UNL A   1      39.081  21.343  25.715  1.00  0.00     0.011 A 
ATOM     24  C   UNL A   1      40.929  20.974  27.226  1.00  0.00     0.002 A 
ATOM     25  C   UNL A   1      40.150  20.559  26.156  1.00  0.00     0.001 A 
BRANCH  18  26
ATOM     26  S   UNL A   1      41.349  25.105  26.776  1.00  0.00     0.268 S 
ATOM     27  O   UNL A   1      41.629  25.985  27.901  1.00  0.00    -0.201 OA
ATOM     28  O   UNL A   1      41.149  25.650  25.436  1.00  0.00    -0.201 OA
BRANCH  26  29
ATOM     29  C   UNL A   1      42.842  24.217  26.533  1.00  0.00     0.088 A 
ATOM     30  C   UNL A   1      45.886  21.516  25.073  1.00  0.00     0.044 C 
ATOM     31  C   UNL A   1      44.881  22.500  25.599  1.00  0.00    -0.051 A 
ATOM     32  C   UNL A   1      43.882  22.907  24.728  1.00  0.00     0.005 A 
ATOM     33  C   UNL A   1      44.864  22.979  26.930  1.00  0.00     0.005 A 
ATOM     34  C   UNL A   1      42.897  23.759  25.189  1.00  0.00     0.022 A 
ATOM     35  C   UNL A   1      43.840  23.839  27.412  1.00  0.00     0.022 A 
ENDBRANCH  26  29
ENDBRANCH  18  26
ENDBRANCH  15  17
ENDBRANCH  12  15
ENDBRANCH  10  11
ENDBRANCH   7  10
ENDBRANCH   5   6
BRANCH   5  36
ATOM     36  C   UNL A   1      32.129  28.237  24.189  1.00  0.00     0.072 C 
BRANCH  36  37
ATOM     37  C   UNL A   1      31.156  29.374  24.383  1.00  0.00    -0.020 A 
ATOM     38  C   UNL A   1      31.221  30.443  25.254  1.00  0.00     0.087 A 
ATOM     39  C   UNL A   1      29.935  29.574  23.638  1.00  0.00     0.003 A 
ATOM     40  N   UNL A   1      30.322  31.393  24.850  1.00  0.00    -0.361 N 
ATOM     41  C   UNL A   1      29.515  30.885  23.869  1.00  0.00     0.046 A 
ATOM     42  C   UNL A   1      29.168  28.788  22.751  1.00  0.00     0.010 A 
ATOM     43  H   UNL A   1      30.265  32.308  25.212  1.00  0.00     0.166 HD
ATOM     44  C   UNL A   1      28.459  31.490  23.182  1.00  0.00     0.026 A 
ATOM     45  C   UNL A   1      28.044  29.349  22.125  1.00  0.00     0.001 A 
ATOM     46  C   UNL A   1      27.720  30.692  22.311  1.00  0.00     0.002 A 
ENDBRANCH  36  37
ENDBRANCH   5  36
ENDBRANCH   1   5
BRANCH   3  47
ATOM     47  C   UNL A   1      32.354  28.006  27.213  1.00  0.00     0.116 C 
BRANCH  47  48
ATOM     48  C   UNL A   1      33.861  28.258  27.150  1.00  0.00     0.023 C 
BRANCH  48  49
ATOM     49  C   UNL A   1      34.276  29.715  26.950  1.00  0.00     0.023 C 
BRANCH  49  50
ATOM     50  C   UNL A   1      35.236  30.270  27.990  1.00  0.00     0.116 C 
BRANCH  50  51
ATOM     51  N   UNL A   1      34.620  31.276  28.853  1.00  0.00    -0.352 N 
ATOM     52  C   UNL A   1      35.220  32.099  29.793  1.00  0.00     0.251 C 
ATOM     53  H   UNL A   1      33.648  31.384  28.754  1.00  0.00     0.163 HD
ATOM     54  O   UNL A   1      34.535  32.814  30.523  1.00  0.00    -0.269 OA
BRANCH  52  55
ATOM     55  C   UNL A   1      36.694  32.187  29.797  1.00  0.00     0.039 A 
ATOM     56  C   UNL A   1      37.373  31.236  30.567  1.00  0.00     0.014 A 
ATOM     57  C   UNL A   1      37.296  33.391  29.448  1.00  0.00     0.014 A 
ATOM     58  C   UNL A   1      38.515  31.616  31.259  1.00  0.00     0.010 A 
ATOM     59  C   UNL A   1      38.365  33.805  30.209  1.00  0.00     0.010 A 
ATOM     60  C   UNL A   1      38.915  32.943  31.172  1.00  0.00    -0.014 A 
BRANCH  60  61
ATOM     61  C   UNL A   1      39.892  33.566  32.047  1.00  0.00     0.031 A 
ATOM     62  C   UNL A   1      39.410  34.272  33.246  1.00  0.00     0.074 A 
ATOM     63  C   UNL A   1      41.203  33.284  31.876  1.00  0.00     0.049 A 
ATOM     64  N   UNL A   1      40.143  35.002  34.010  1.00  0.00    -0.248 NA
ATOM     65  C   UNL A   1      38.009  34.233  33.646  1.00  0.00     0.031 C 
ATOM     66  C   UNL A   1      42.254  33.382  32.880  1.00  0.00     0.029 A 
ATOM     67  N   UNL A   1      41.889  33.040  30.681  1.00  0.00    -0.354 N 
ATOM     68  C   UNL A   1      39.401  35.295  35.137  1.00  0.00     0.074 A 
ATOM     69  C   UNL A   1      38.060  34.876  34.814  1.00  0.00     0.031 C 
ATOM     70  C   UNL A   1      43.438  33.474  32.259  1.00  0.00     0.029 A 
ATOM     71  C   UNL A   1      43.165  33.618  30.840  1.00  0.00     0.049 A 
ATOM     72  H   UNL A   1      41.551  32.562  29.889  1.00  0.00     0.167 HD
ATOM     73  C   UNL A   1      40.054  35.728  36.252  1.00  0.00     0.034 A 
ATOM     74  C   UNL A   1      43.661  34.609  30.044  1.00  0.00     0.034 A 
ATOM     75  C   UNL A   1      41.469  35.993  35.944  1.00  0.00     0.049 A 
ATOM     76  C   UNL A   1      43.992  35.881  30.808  1.00  0.00     0.074 A 
ATOM     77  C   UNL A   1      42.632  35.259  36.108  1.00  0.00     0.029 A 
ATOM     78  N   UNL A   1      41.788  37.047  35.097  1.00  0.00    -0.354 N 
ATOM     79  N   UNL A   1      43.739  36.058  32.077  1.00  0.00    -0.248 NA
ATOM     80  C   UNL A   1      44.604  37.065  30.206  1.00  0.00     0.031 C 
ATOM     81  C   UNL A   1      43.625  35.818  35.255  1.00  0.00     0.029 A 
ATOM     82  C   UNL A   1      43.077  36.913  34.606  1.00  0.00     0.049 A 
ATOM     83  H   UNL A   1      41.180  37.789  34.874  1.00  0.00     0.167 HD
ATOM     84  C   UNL A   1      43.987  37.359  32.429  1.00  0.00     0.074 A 
ATOM     85  C   UNL A   1      44.609  37.924  31.243  1.00  0.00     0.031 C 
ATOM     86  C   UNL A   1      43.593  37.875  33.634  1.00  0.00     0.034 A 
BRANCH  73  87
ATOM     87  C   UNL A   1      39.521  35.660  37.678  1.00  0.00     0.023 A 
ATOM     88  C   UNL A   1      39.676  36.818  38.477  1.00  0.00     0.012 A 
ATOM     89  C   UNL A   1      38.959  34.541  38.337  1.00  0.00     0.148 A 
ATOM     90  C   UNL A   1      39.386  36.837  39.847  1.00  0.00     0.002 A 
ATOM     91  C   UNL A   1      38.711  34.541  39.714  1.00  0.00     0.091 A 
ATOM     92  F   UNL A   1      38.585  33.471  37.641  1.00  0.00    -0.205 F 
ATOM     93  C   UNL A   1      38.931  35.689  40.475  1.00  0.00     0.022 A 
BRANCH  91  94
ATOM     94  S   UNL A   1      38.158  33.066  40.596  1.00  0.00     0.127 S 
ATOM     95  O   UNL A   1      38.508  31.998  39.658  1.00  0.00    -0.237 OA
ATOM     96  O   UNL A   1      38.972  33.103  41.808  1.00  0.00    -0.237 OA
ATOM     97  O   UNL A   1      36.723  33.226  40.806  1.00  0.00    -0.744 OA
ENDBRANCH  91  94
ENDBRANCH  73  87
BRANCH  74  98
ATOM     98  C   UNL A   1      43.205  34.518  28.628  1.00  0.00     0.023 A 
ATOM     99  C   UNL A   1      42.308  35.525  28.197  1.00  0.00     0.012 A 
ATOM    100  C   UNL A   1      43.926  33.792  27.665  1.00  0.00     0.148 A 
ATOM    101  C   UNL A   1      42.237  35.898  26.855  1.00  0.00     0.002 A 
ATOM    102  C   UNL A   1      43.856  34.176  26.326  1.00  0.00     0.091 A 
ATOM    103  F   UNL A   1      44.745  32.818  28.082  1.00  0.00    -0.205 F 
ATOM    104  C   UNL A   1      43.041  35.249  25.927  1.00  0.00     0.022 A 
BRANCH 102 105
ATOM    105  S   UNL A   1      44.913  33.451  25.065  1.00  0.00     0.127 S 
ATOM    106  O   UNL A   1      44.029  33.454  23.903  1.00  0.00    -0.237 OA
ATOM    107  O   UNL A   1      46.013  34.412  25.002  1.00  0.00    -0.237 OA
ATOM    108  O   UNL A   1      45.285  32.145  25.586  1.00  0.00    -0.744 OA
ENDBRANCH 102 105
ENDBRANCH  74  98
BRANCH  86 109
ATOM    109  C   UNL A   1      43.604  39.347  34.007  1.00  0.00     0.023 A 
ATOM    110  C   UNL A   1      42.761  40.289  33.387  1.00  0.00     0.012 A 
ATOM    111  C   UNL A   1      44.341  39.795  35.135  1.00  0.00     0.148 A 
ATOM    112  C   UNL A   1      42.685  41.616  33.831  1.00  0.00     0.002 A 
ATOM    113  C   UNL A   1      44.171  41.081  35.642  1.00  0.00     0.091 A 
ATOM    114  F   UNL A   1      45.227  38.977  35.721  1.00  0.00    -0.205 F 
ATOM    115  C   UNL A   1      43.366  42.006  34.976  1.00  0.00     0.022 A 
BRANCH 113 116
ATOM    116  S   UNL A   1      44.830  41.517  37.259  1.00  0.00     0.127 S 
ATOM    117  O   UNL A   1      44.133  40.581  38.138  1.00  0.00    -0.237 OA
ATOM    118  O   UNL A   1      46.262  41.255  37.102  1.00  0.00    -0.237 OA
ATOM    119  O   UNL A   1      44.498  42.927  37.421  1.00  0.00    -0.744 OA
ENDBRANCH 113 116
ENDBRANCH  86 109
ENDBRANCH  60  61
ENDBRANCH  52  55
ENDBRANCH  50  51
ENDBRANCH  49  50
ENDBRANCH  48  49
ENDBRANCH  47  48
ENDBRANCH   3  47
TORSDOF 23
ENDMDL
MODEL 2
REMARK VINA RESULT:     -13.0      3.246      4.097
REMARK SMILES Cc1ccc(S(=O)(=O)n2cc(C(=O)C(=O)NCC(=O)N[C@H](Cc3c[nH]c4ccccc34)C(=O)NCCCCNC(=O)c3ccc(-c4c5nc(c(-c6cccc(S(=O)(=O)[O-])c6F)c6ccc([nH]6)c(-c6cccc(S(=O)(=O)[O-])c6F)c6nc(c(-c7cccc(S(=O)(=O)[O-])c7F)c7ccc4[nH]7)C=C6)C=C5)cc3)c3ccccc32)cc1
REMARK SMILES IDX 32 1 33 2 34 3 21 5 20 6 18 7 19 8 17 10 16 11 14 12 15 13
REMARK SMILES IDX 12 15 13 16 11 17 9 18 10 19 110 20 105 21 109 22 106 23
REMARK SMILES IDX 108 24 107 25 6 26 7 27 8 28 5 29 1 30 2 31 3 32 112 33 4 34
REMARK SMILES IDX 111 35 22 36 23 37 24 38 31 39 25 40 26 41 30 42 27 44 29 45
REMARK SMILES IDX 28 46 35 47 36 48 37 49 38 50 39 51 40 52 41 54 42 55 43 56
REMARK SMILES IDX 104 57 44 58 103 59 45 60 46 61 47 62 97 63 48 64 102 65
REMARK SMILES IDX 96 66 98 67 49 68 101 69 95 70 94 71 50 73 82 74 62 75 81 76
REMARK SMILES IDX 63 77 66 78 80 79 99 80 64 81 65 82 79 84 100 85 67 86 51 87
REMARK SMILES IDX 52 88 60 89 53 90 55 91 61 92 54 93 56 94 57 95 58 96 59 97
REMARK SMILES IDX 83 98 84 99 92 100 85 101 87 102 93 103 86 104 88 105 89 106
REMARK SMILES IDX 90 107 91 108 68 109 69 110 77 111 70 112 72 113 78 114
REMARK SMILES IDX 71 115 73 116 74 117 75 118 76 119
REMARK H PARENT 34 4 20 9 16 14 25 43 39 53 98 72 66 83
REMARK Flexibility Score: inf
ROOT
ATOM      1  C   UNL A   1      31.249  24.730  25.204  1.00  0.00     0.242 C 
ATOM      2  O   UNL A   1      31.158  23.509  25.393  1.00  0.00    -0.273 OA
ATOM      3  N   UNL A   1      31.114  25.504  26.307  1.00  0.00    -0.354 N 
ATOM      4  H   UNL A   1      30.972  24.978  27.126  1.00  0.00     0.163 HD
ENDROOT
BRANCH   1   5
ATOM      5  C   UNL A   1      31.478  25.250  23.772  1.00  0.00     0.175 C 
BRANCH   5   6
ATOM      6  N   UNL A   1      31.859  24.102  22.943  1.00  0.00    -0.342 N 
ATOM      7  C   UNL A   1      33.071  23.486  22.827  1.00  0.00     0.240 C 
ATOM      8  O   UNL A   1      33.149  22.589  21.979  1.00  0.00    -0.273 OA
ATOM      9  H   UNL A   1      31.138  23.722  22.391  1.00  0.00     0.164 HD
BRANCH   7  10
ATOM     10  C   UNL A   1      34.218  23.707  23.841  1.00  0.00     0.216 C 
BRANCH  10  11
ATOM     11  N   UNL A   1      34.347  22.815  24.991  1.00  0.00    -0.340 N 
ATOM     12  C   UNL A   1      35.494  22.326  25.599  1.00  0.00     0.292 C 
ATOM     13  O   UNL A   1      35.463  21.652  26.621  1.00  0.00    -0.265 OA
ATOM     14  H   UNL A   1      33.497  22.517  25.392  1.00  0.00     0.164 HD
BRANCH  12  15
ATOM     15  C   UNL A   1      36.853  22.640  24.983  1.00  0.00     0.252 C 
ATOM     16  O   UNL A   1      36.972  22.424  23.777  1.00  0.00    -0.283 OA
BRANCH  15  17
ATOM     17  C   UNL A   1      38.006  23.011  25.819  1.00  0.00     0.054 A 
ATOM     18  N   UNL A   1      39.554  24.034  27.119  1.00  0.00    -0.240 N 
ATOM     19  C   UNL A   1      38.393  24.240  26.374  1.00  0.00     0.117 A 
ATOM     20  C   UNL A   1      39.749  22.643  27.209  1.00  0.00     0.065 A 
ATOM     21  C   UNL A   1      39.050  22.094  26.139  1.00  0.00     0.012 A 
ATOM     22  C   UNL A   1      40.710  21.893  27.919  1.00  0.00     0.028 A 
ATOM     23  C   UNL A   1      39.449  20.834  25.645  1.00  0.00     0.011 A 
ATOM     24  C   UNL A   1      41.149  20.697  27.355  1.00  0.00     0.002 A 
ATOM     25  C   UNL A   1      40.554  20.191  26.209  1.00  0.00     0.001 A 
BRANCH  18  26
ATOM     26  S   UNL A   1      41.086  24.850  26.916  1.00  0.00     0.268 S 
ATOM     27  O   UNL A   1      41.256  25.538  28.188  1.00  0.00    -0.201 OA
ATOM     28  O   UNL A   1      40.863  25.604  25.686  1.00  0.00    -0.201 OA
BRANCH  26  29
ATOM     29  C   UNL A   1      42.663  24.160  26.578  1.00  0.00     0.088 A 
ATOM     30  C   UNL A   1      45.932  21.864  24.923  1.00  0.00     0.044 C 
ATOM     31  C   UNL A   1      44.843  22.713  25.514  1.00  0.00    -0.051 A 
ATOM     32  C   UNL A   1      43.748  22.985  24.708  1.00  0.00     0.005 A 
ATOM     33  C   UNL A   1      44.848  23.194  26.844  1.00  0.00     0.005 A 
ATOM     34  C   UNL A   1      42.692  23.705  25.233  1.00  0.00     0.022 A 
ATOM     35  C   UNL A   1      43.754  23.918  27.392  1.00  0.00     0.022 A 
ENDBRANCH  26  29
ENDBRANCH  18  26
ENDBRANCH  15  17
ENDBRANCH  12  15
ENDBRANCH  10  11
ENDBRANCH   7  10
ENDBRANCH   5   6
BRANCH   5  36
ATOM     36  C   UNL A   1      32.423  26.461  23.570  1.00  0.00     0.072 C 
BRANCH  36  37
ATOM     37  C   UNL A   1      31.876  27.791  23.111  1.00  0.00    -0.020 A 
ATOM     38  C   UNL A   1      32.550  28.897  22.632  1.00  0.00     0.087 A 
ATOM     39  C   UNL A   1      30.479  28.155  23.061  1.00  0.00     0.003 A 
ATOM     40  N   UNL A   1      31.651  29.726  22.018  1.00  0.00    -0.361 N 
ATOM     41  C   UNL A   1      30.375  29.302  22.273  1.00  0.00     0.046 A 
ATOM     42  C   UNL A   1      29.285  27.600  23.568  1.00  0.00     0.010 A 
ATOM     43  H   UNL A   1      31.887  30.512  21.472  1.00  0.00     0.166 HD
ATOM     44  C   UNL A   1      29.156  29.850  21.862  1.00  0.00     0.026 A 
ATOM     45  C   UNL A   1      28.054  28.194  23.247  1.00  0.00     0.001 A 
ATOM     46  C   UNL A   1      27.992  29.280  22.377  1.00  0.00     0.002 A 
ENDBRANCH  36  37
ENDBRANCH   5  36
ENDBRANCH   1   5
BRANCH   3  47
ATOM     47  C   UNL A   1      31.131  26.935  26.552  1.00  0.00     0.116 C 
BRANCH  47  48
ATOM     48  C   UNL A   1      32.441  27.451  27.150  1.00  0.00     0.023 C 
BRANCH  48  49
ATOM     49  C   UNL A   1      32.980  28.742  26.534  1.00  0.00     0.023 C 
BRANCH  49  50
ATOM     50  C   UNL A   1      34.466  28.993  26.741  1.00  0.00     0.116 C 
BRANCH  50  51
ATOM     51  N   UNL A   1      34.781  30.407  26.938  1.00  0.00    -0.352 N 
ATOM     52  C   UNL A   1      35.709  30.979  27.793  1.00  0.00     0.251 C 
ATOM     53  H   UNL A   1      34.264  31.039  26.389  1.00  0.00     0.163 HD
ATOM     54  O   UNL A   1      35.767  32.202  27.922  1.00  0.00    -0.269 OA
BRANCH  52  55
ATOM     55  C   UNL A   1      36.700  30.092  28.434  1.00  0.00     0.039 A 
ATOM     56  C   UNL A   1      36.281  29.421  29.588  1.00  0.00     0.014 A 
ATOM     57  C   UNL A   1      38.051  30.291  28.169  1.00  0.00     0.014 A 
ATOM     58  C   UNL A   1      37.181  29.240  30.630  1.00  0.00     0.010 A 
ATOM     59  C   UNL A   1      38.920  30.210  29.233  1.00  0.00     0.010 A 
ATOM     60  C   UNL A   1      38.459  29.765  30.482  1.00  0.00    -0.014 A 
BRANCH  60  61
ATOM     61  C   UNL A   1      39.413  29.923  31.565  1.00  0.00     0.031 A 
ATOM     62  C   UNL A   1      39.185  30.996  32.547  1.00  0.00     0.074 A 
ATOM     63  C   UNL A   1      40.331  28.955  31.781  1.00  0.00     0.049 A 
ATOM     64  N   UNL A   1      40.028  31.353  33.451  1.00  0.00    -0.248 NA
ATOM     65  C   UNL A   1      37.967  31.794  32.541  1.00  0.00     0.031 C 
ATOM     66  C   UNL A   1      41.018  28.668  33.033  1.00  0.00     0.029 A 
ATOM     67  N   UNL A   1      40.983  28.152  30.837  1.00  0.00    -0.354 N 
ATOM     68  C   UNL A   1      39.375  32.212  34.311  1.00  0.00     0.074 A 
ATOM     69  C   UNL A   1      38.135  32.524  33.645  1.00  0.00     0.031 C 
ATOM     70  C   UNL A   1      42.140  27.987  32.764  1.00  0.00     0.029 A 
ATOM     71  C   UNL A   1      42.295  27.973  31.320  1.00  0.00     0.049 A 
ATOM     72  H   UNL A   1      40.603  27.786  30.006  1.00  0.00     0.167 HD
ATOM     73  C   UNL A   1      39.913  32.436  35.542  1.00  0.00     0.034 A 
ATOM     74  C   UNL A   1      43.417  28.364  30.649  1.00  0.00     0.034 A 
ATOM     75  C   UNL A   1      41.254  31.834  35.630  1.00  0.00     0.049 A 
ATOM     76  C   UNL A   1      44.249  29.380  31.415  1.00  0.00     0.074 A 
ATOM     77  C   UNL A   1      41.728  30.639  36.147  1.00  0.00     0.029 A 
ATOM     78  N   UNL A   1      42.280  32.361  34.858  1.00  0.00    -0.354 N 
ATOM     79  N   UNL A   1      43.889  29.910  32.553  1.00  0.00    -0.248 NA
ATOM     80  C   UNL A   1      45.533  29.906  30.954  1.00  0.00     0.031 C 
ATOM     81  C   UNL A   1      43.011  30.398  35.580  1.00  0.00     0.029 A 
ATOM     82  C   UNL A   1      43.331  31.463  34.753  1.00  0.00     0.049 A 
ATOM     83  H   UNL A   1      42.265  33.253  34.440  1.00  0.00     0.167 HD
ATOM     84  C   UNL A   1      44.755  30.914  32.899  1.00  0.00     0.074 A 
ATOM     85  C   UNL A   1      45.814  30.811  31.909  1.00  0.00     0.031 C 
ATOM     86  C   UNL A   1      44.489  31.785  33.921  1.00  0.00     0.034 A 
BRANCH  73  87
ATOM     87  C   UNL A   1      39.159  32.945  36.765  1.00  0.00     0.023 A 
ATOM     88  C   UNL A   1      39.500  34.234  37.238  1.00  0.00     0.012 A 
ATOM     89  C   UNL A   1      38.206  32.247  37.544  1.00  0.00     0.148 A 
ATOM     90  C   UNL A   1      39.008  34.754  38.442  1.00  0.00     0.002 A 
ATOM     91  C   UNL A   1      37.748  32.741  38.770  1.00  0.00     0.091 A 
ATOM     92  F   UNL A   1      37.666  31.119  37.091  1.00  0.00    -0.205 F 
ATOM     93  C   UNL A   1      38.154  33.995  39.226  1.00  0.00     0.022 A 
BRANCH  91  94
ATOM     94  S   UNL A   1      36.669  31.784  39.856  1.00  0.00     0.127 S 
ATOM     95  O   UNL A   1      37.406  30.526  39.989  1.00  0.00    -0.237 OA
ATOM     96  O   UNL A   1      36.637  32.602  41.066  1.00  0.00    -0.237 OA
ATOM     97  O   UNL A   1      35.394  31.655  39.159  1.00  0.00    -0.744 OA
ENDBRANCH  91  94
ENDBRANCH  73  87
BRANCH  74  98
ATOM     98  C   UNL A   1      43.291  28.256  29.168  1.00  0.00     0.023 A 
ATOM     99  C   UNL A   1      42.528  29.266  28.533  1.00  0.00     0.012 A 
ATOM    100  C   UNL A   1      44.202  27.509  28.402  1.00  0.00     0.148 A 
ATOM    101  C   UNL A   1      42.767  29.619  27.205  1.00  0.00     0.002 A 
ATOM    102  C   UNL A   1      44.441  27.873  27.077  1.00  0.00     0.091 A 
ATOM    103  F   UNL A   1      44.893  26.533  29.006  1.00  0.00    -0.205 F 
ATOM    104  C   UNL A   1      43.751  28.948  26.491  1.00  0.00     0.022 A 
BRANCH 102 105
ATOM    105  S   UNL A   1      45.746  27.119  26.096  1.00  0.00     0.127 S 
ATOM    106  O   UNL A   1      46.398  26.262  27.082  1.00  0.00    -0.237 OA
ATOM    107  O   UNL A   1      44.984  26.408  25.071  1.00  0.00    -0.237 OA
ATOM    108  O   UNL A   1      46.534  28.234  25.593  1.00  0.00    -0.744 OA
ENDBRANCH 102 105
ENDBRANCH  74  98
BRANCH  86 109
ATOM    109  C   UNL A   1      45.259  33.061  34.213  1.00  0.00     0.023 A 
ATOM    110  C   UNL A   1      45.346  34.119  33.289  1.00  0.00     0.012 A 
ATOM    111  C   UNL A   1      45.769  33.308  35.515  1.00  0.00     0.148 A 
ATOM    112  C   UNL A   1      45.945  35.341  33.620  1.00  0.00     0.002 A 
ATOM    113  C   UNL A   1      46.255  34.563  35.873  1.00  0.00     0.091 A 
ATOM    114  F   UNL A   1      45.797  32.318  36.420  1.00  0.00    -0.205 F 
ATOM    115  C   UNL A   1      46.373  35.575  34.920  1.00  0.00     0.022 A 
BRANCH 113 116
ATOM    116  S   UNL A   1      46.562  34.963  37.600  1.00  0.00     0.127 S 
ATOM    117  O   UNL A   1      46.683  36.418  37.563  1.00  0.00    -0.237 OA
ATOM    118  O   UNL A   1      45.354  34.468  38.263  1.00  0.00    -0.237 OA
ATOM    119  O   UNL A   1      47.771  34.221  37.938  1.00  0.00    -0.744 OA
ENDBRANCH 113 116
ENDBRANCH  86 109
ENDBRANCH  60  61
ENDBRANCH  52  55
ENDBRANCH  50  51
ENDBRANCH  49  50
ENDBRANCH  48  49
ENDBRANCH  47  48
ENDBRANCH   3  47
TORSDOF 23
ENDMDL
MODEL 3
REMARK VINA RESULT:     -12.7      6.662     14.976
REMARK SMILES Cc1ccc(S(=O)(=O)n2cc(C(=O)C(=O)NCC(=O)N[C@H](Cc3c[nH]c4ccccc34)C(=O)NCCCCNC(=O)c3ccc(-c4c5nc(c(-c6cccc(S(=O)(=O)[O-])c6F)c6ccc([nH]6)c(-c6cccc(S(=O)(=O)[O-])c6F)c6nc(c(-c7cccc(S(=O)(=O)[O-])c7F)c7ccc4[nH]7)C=C6)C=C5)cc3)c3ccccc32)cc1
REMARK SMILES IDX 32 1 33 2 34 3 21 5 20 6 18 7 19 8 17 10 16 11 14 12 15 13
REMARK SMILES IDX 12 15 13 16 11 17 9 18 10 19 110 20 105 21 109 22 106 23
REMARK SMILES IDX 108 24 107 25 6 26 7 27 8 28 5 29 1 30 2 31 3 32 112 33 4 34
REMARK SMILES IDX 111 35 22 36 23 37 24 38 31 39 25 40 26 41 30 42 27 44 29 45
REMARK SMILES IDX 28 46 35 47 36 48 37 49 38 50 39 51 40 52 41 54 42 55 43 56
REMARK SMILES IDX 104 57 44 58 103 59 45 60 46 61 47 62 97 63 48 64 102 65
REMARK SMILES IDX 96 66 98 67 49 68 101 69 95 70 94 71 50 73 82 74 62 75 81 76
REMARK SMILES IDX 63 77 66 78 80 79 99 80 64 81 65 82 79 84 100 85 67 86 51 87
REMARK SMILES IDX 52 88 60 89 53 90 55 91 61 92 54 93 56 94 57 95 58 96 59 97
REMARK SMILES IDX 83 98 84 99 92 100 85 101 87 102 93 103 86 104 88 105 89 106
REMARK SMILES IDX 90 107 91 108 68 109 69 110 77 111 70 112 72 113 78 114
REMARK SMILES IDX 71 115 73 116 74 117 75 118 76 119
REMARK H PARENT 34 4 20 9 16 14 25 43 39 53 98 72 66 83
REMARK Flexibility Score: inf
ROOT
ATOM      1  C   UNL A   1      46.035  28.530  25.231  1.00  0.00     0.242 C 
ATOM      2  O   UNL A   1      46.746  29.212  24.481  1.00  0.00    -0.273 OA
ATOM      3  N   UNL A   1      45.275  27.590  24.620  1.00  0.00    -0.354 N 
ATOM      4  H   UNL A   1      45.405  27.570  23.644  1.00  0.00     0.163 HD
ENDROOT
BRANCH   1   5
ATOM      5  C   UNL A   1      46.056  28.813  26.745  1.00  0.00     0.175 C 
BRANCH   5   6
ATOM      6  N   UNL A   1      45.575  30.185  26.943  1.00  0.00    -0.342 N 
ATOM      7  C   UNL A   1      44.343  30.618  27.336  1.00  0.00     0.240 C 
ATOM      8  O   UNL A   1      44.168  31.842  27.333  1.00  0.00    -0.273 OA
ATOM      9  H   UNL A   1      46.235  30.893  26.766  1.00  0.00     0.164 HD
BRANCH   7  10
ATOM     10  C   UNL A   1      43.295  29.679  27.978  1.00  0.00     0.216 C 
BRANCH  10  11
ATOM     11  N   UNL A   1      42.279  29.049  27.137  1.00  0.00    -0.340 N 
ATOM     12  C   UNL A   1      40.999  28.632  27.471  1.00  0.00     0.292 C 
ATOM     13  O   UNL A   1      40.210  28.196  26.642  1.00  0.00    -0.265 OA
ATOM     14  H   UNL A   1      42.541  28.898  26.199  1.00  0.00     0.164 HD
BRANCH  12  15
ATOM     15  C   UNL A   1      40.542  28.720  28.923  1.00  0.00     0.252 C 
ATOM     16  O   UNL A   1      40.705  27.712  29.611  1.00  0.00    -0.283 OA
BRANCH  15  17
ATOM     17  C   UNL A   1      39.792  29.883  29.421  1.00  0.00     0.054 A 
ATOM     18  N   UNL A   1      39.080  31.802  30.393  1.00  0.00    -0.240 N 
ATOM     19  C   UNL A   1      40.166  30.935  30.270  1.00  0.00     0.117 A 
ATOM     20  C   UNL A   1      38.121  31.405  29.442  1.00  0.00     0.065 A 
ATOM     21  C   UNL A   1      38.404  30.073  29.155  1.00  0.00     0.012 A 
ATOM     22  C   UNL A   1      36.889  31.987  29.080  1.00  0.00     0.028 A 
ATOM     23  C   UNL A   1      37.367  29.252  28.666  1.00  0.00     0.011 A 
ATOM     24  C   UNL A   1      35.857  31.137  28.688  1.00  0.00     0.002 A 
ATOM     25  C   UNL A   1      36.081  29.778  28.521  1.00  0.00     0.001 A 
BRANCH  18  26
ATOM     26  S   UNL A   1      38.296  32.294  31.875  1.00  0.00     0.268 S 
ATOM     27  O   UNL A   1      39.128  33.399  32.329  1.00  0.00    -0.201 OA
ATOM     28  O   UNL A   1      38.252  31.040  32.621  1.00  0.00    -0.201 OA
BRANCH  26  29
ATOM     29  C   UNL A   1      36.652  32.857  32.115  1.00  0.00     0.088 A 
ATOM     30  C   UNL A   1      33.125  35.307  32.628  1.00  0.00     0.044 C 
ATOM     31  C   UNL A   1      34.309  34.406  32.420  1.00  0.00    -0.051 A 
ATOM     32  C   UNL A   1      35.386  34.930  31.721  1.00  0.00     0.005 A 
ATOM     33  C   UNL A   1      34.406  33.094  32.939  1.00  0.00     0.005 A 
ATOM     34  C   UNL A   1      36.522  34.161  31.565  1.00  0.00     0.022 A 
ATOM     35  C   UNL A   1      35.582  32.307  32.796  1.00  0.00     0.022 A 
ENDBRANCH  26  29
ENDBRANCH  18  26
ENDBRANCH  15  17
ENDBRANCH  12  15
ENDBRANCH  10  11
ENDBRANCH   7  10
ENDBRANCH   5   6
BRANCH   5  36
ATOM     36  C   UNL A   1      47.361  28.529  27.530  1.00  0.00     0.072 C 
BRANCH  36  37
ATOM     37  C   UNL A   1      48.418  29.597  27.672  1.00  0.00    -0.020 A 
ATOM     38  C   UNL A   1      49.449  29.928  26.817  1.00  0.00     0.087 A 
ATOM     39  C   UNL A   1      48.530  30.528  28.770  1.00  0.00     0.003 A 
ATOM     40  N   UNL A   1      49.934  31.159  27.170  1.00  0.00    -0.361 N 
ATOM     41  C   UNL A   1      49.396  31.546  28.368  1.00  0.00     0.046 A 
ATOM     42  C   UNL A   1      47.946  30.636  30.052  1.00  0.00     0.010 A 
ATOM     43  H   UNL A   1      50.574  31.688  26.640  1.00  0.00     0.166 HD
ATOM     44  C   UNL A   1      49.615  32.712  29.106  1.00  0.00     0.026 A 
ATOM     45  C   UNL A   1      48.232  31.754  30.850  1.00  0.00     0.001 A 
ATOM     46  C   UNL A   1      49.025  32.792  30.367  1.00  0.00     0.002 A 
ENDBRANCH  36  37
ENDBRANCH   5  36
ENDBRANCH   1   5
BRANCH   3  47
ATOM     47  C   UNL A   1      44.311  26.607  25.080  1.00  0.00     0.116 C 
BRANCH  47  48
ATOM     48  C   UNL A   1      44.817  25.164  25.030  1.00  0.00     0.023 C 
BRANCH  48  49
ATOM     49  C   UNL A   1      43.791  24.124  24.582  1.00  0.00     0.023 C 
BRANCH  49  50
ATOM     50  C   UNL A   1      43.531  22.996  25.568  1.00  0.00     0.116 C 
BRANCH  50  51
ATOM     51  N   UNL A   1      42.109  22.689  25.719  1.00  0.00    -0.352 N 
ATOM     52  C   UNL A   1      41.293  22.873  26.823  1.00  0.00     0.251 C 
ATOM     53  H   UNL A   1      41.672  22.299  24.928  1.00  0.00     0.163 HD
ATOM     54  O   UNL A   1      40.138  22.449  26.822  1.00  0.00    -0.269 OA
BRANCH  52  55
ATOM     55  C   UNL A   1      41.806  23.699  27.935  1.00  0.00     0.039 A 
ATOM     56  C   UNL A   1      42.007  25.056  27.662  1.00  0.00     0.014 A 
ATOM     57  C   UNL A   1      42.464  23.072  28.988  1.00  0.00     0.014 A 
ATOM     58  C   UNL A   1      43.098  25.705  28.224  1.00  0.00     0.010 A 
ATOM     59  C   UNL A   1      43.604  23.676  29.467  1.00  0.00     0.010 A 
ATOM     60  C   UNL A   1      43.961  24.957  29.016  1.00  0.00    -0.014 A 
BRANCH  60  61
ATOM     61  C   UNL A   1      45.282  25.393  29.431  1.00  0.00     0.031 A 
ATOM     62  C   UNL A   1      46.438  25.012  28.601  1.00  0.00     0.074 A 
ATOM     63  C   UNL A   1      45.393  26.319  30.409  1.00  0.00     0.049 A 
ATOM     64  N   UNL A   1      47.668  25.187  28.934  1.00  0.00    -0.248 NA
ATOM     65  C   UNL A   1      46.271  24.345  27.317  1.00  0.00     0.031 C 
ATOM     66  C   UNL A   1      46.513  27.224  30.630  1.00  0.00     0.029 A 
ATOM     67  N   UNL A   1      44.584  26.488  31.539  1.00  0.00    -0.354 N 
ATOM     68  C   UNL A   1      48.439  24.925  27.820  1.00  0.00     0.074 A 
ATOM     69  C   UNL A   1      47.532  24.317  26.880  1.00  0.00     0.031 C 
ATOM     70  C   UNL A   1      46.483  27.646  31.901  1.00  0.00     0.029 A 
ATOM     71  C   UNL A   1      45.447  26.886  32.579  1.00  0.00     0.049 A 
ATOM     72  H   UNL A   1      43.610  26.357  31.596  1.00  0.00     0.167 HD
ATOM     73  C   UNL A   1      49.720  25.388  27.791  1.00  0.00     0.034 A 
ATOM     74  C   UNL A   1      45.621  26.187  33.738  1.00  0.00     0.034 A 
ATOM     75  C   UNL A   1      50.095  25.933  29.107  1.00  0.00     0.049 A 
ATOM     76  C   UNL A   1      47.056  25.730  33.952  1.00  0.00     0.074 A 
ATOM     77  C   UNL A   1      50.131  27.214  29.631  1.00  0.00     0.029 A 
ATOM     78  N   UNL A   1      50.215  25.066  30.185  1.00  0.00    -0.354 N 
ATOM     79  N   UNL A   1      48.012  25.893  33.078  1.00  0.00    -0.248 NA
ATOM     80  C   UNL A   1      47.525  25.028  35.146  1.00  0.00     0.031 C 
ATOM     81  C   UNL A   1      50.155  27.104  31.050  1.00  0.00     0.029 A 
ATOM     82  C   UNL A   1      50.175  25.760  31.384  1.00  0.00     0.049 A 
ATOM     83  H   UNL A   1      50.314  24.089  30.109  1.00  0.00     0.167 HD
ATOM     84  C   UNL A   1      49.137  25.221  33.481  1.00  0.00     0.074 A 
ATOM     85  C   UNL A   1      48.806  24.770  34.823  1.00  0.00     0.031 C 
ATOM     86  C   UNL A   1      50.209  25.033  32.651  1.00  0.00     0.034 A 
BRANCH  73  87
ATOM     87  C   UNL A   1      50.556  25.617  26.538  1.00  0.00     0.023 A 
ATOM     88  C   UNL A   1      51.815  24.974  26.480  1.00  0.00     0.012 A 
ATOM     89  C   UNL A   1      50.262  26.470  25.447  1.00  0.00     0.148 A 
ATOM     90  C   UNL A   1      52.751  25.229  25.469  1.00  0.00     0.002 A 
ATOM     91  C   UNL A   1      51.209  26.763  24.461  1.00  0.00     0.091 A 
ATOM     92  F   UNL A   1      49.037  26.967  25.297  1.00  0.00    -0.205 F 
ATOM     93  C   UNL A   1      52.461  26.148  24.473  1.00  0.00     0.022 A 
BRANCH  91  94
ATOM     94  S   UNL A   1      50.908  27.981  23.163  1.00  0.00     0.127 S 
ATOM     95  O   UNL A   1      51.861  27.571  22.130  1.00  0.00    -0.237 OA
ATOM     96  O   UNL A   1      49.506  27.742  22.828  1.00  0.00    -0.237 OA
ATOM     97  O   UNL A   1      51.193  29.286  23.749  1.00  0.00    -0.744 OA
ENDBRANCH  91  94
ENDBRANCH  73  87
BRANCH  74  98
ATOM     98  C   UNL A   1      44.389  25.488  34.201  1.00  0.00     0.023 A 
ATOM     99  C   UNL A   1      44.406  24.075  34.116  1.00  0.00     0.012 A 
ATOM    100  C   UNL A   1      43.471  26.107  35.066  1.00  0.00     0.148 A 
ATOM    101  C   UNL A   1      43.630  23.294  34.971  1.00  0.00     0.002 A 
ATOM    102  C   UNL A   1      42.703  25.319  35.924  1.00  0.00     0.091 A 
ATOM    103  F   UNL A   1      43.440  27.445  35.113  1.00  0.00    -0.205 F 
ATOM    104  C   UNL A   1      42.808  23.918  35.902  1.00  0.00     0.022 A 
BRANCH 102 105
ATOM    105  S   UNL A   1      41.672  26.031  37.214  1.00  0.00     0.127 S 
ATOM    106  O   UNL A   1      41.022  27.126  36.500  1.00  0.00    -0.237 OA
ATOM    107  O   UNL A   1      40.794  24.912  37.553  1.00  0.00    -0.237 OA
ATOM    108  O   UNL A   1      42.596  26.411  38.271  1.00  0.00    -0.744 OA
ENDBRANCH 102 105
ENDBRANCH  74  98
BRANCH  86 109
ATOM    109  C   UNL A   1      51.379  24.104  32.923  1.00  0.00     0.023 A 
ATOM    110  C   UNL A   1      51.236  22.705  32.974  1.00  0.00     0.012 A 
ATOM    111  C   UNL A   1      52.706  24.611  32.951  1.00  0.00     0.148 A 
ATOM    112  C   UNL A   1      52.342  21.853  33.092  1.00  0.00     0.002 A 
ATOM    113  C   UNL A   1      53.804  23.755  32.948  1.00  0.00     0.091 A 
ATOM    114  F   UNL A   1      52.913  25.935  32.992  1.00  0.00    -0.205 F 
ATOM    115  C   UNL A   1      53.628  22.375  33.049  1.00  0.00     0.022 A 
BRANCH 113 116
ATOM    116  S   UNL A   1      55.456  24.394  32.627  1.00  0.00     0.127 S 
ATOM    117  O   UNL A   1      55.691  25.241  33.794  1.00  0.00    -0.237 OA
ATOM    118  O   UNL A   1      56.267  23.176  32.585  1.00  0.00    -0.237 OA
ATOM    119  O   UNL A   1      55.341  25.076  31.344  1.00  0.00    -0.744 OA
ENDBRANCH 113 116
ENDBRANCH  86 109
ENDBRANCH  60  61
ENDBRANCH  52  55
ENDBRANCH  50  51
ENDBRANCH  49  50
ENDBRANCH  48  49
ENDBRANCH  47  48
ENDBRANCH   3  47
TORSDOF 23
ENDMDL
