MODEL 1
REMARK VINA RESULT:     -10.8      0.000      0.000
REMARK SMILES O=C(CCS(=O)(=O)Nc1ccc(-c2ccccc2)cc1)NCCCCNC(=O)c1ccc(-c2c3nc(c(-c4cccc(S(=O)(=O)[O-])c4F)c4ccc([nH]4)c(-c4cccc(S(=O)(=O)[O-])c4F)c4nc(c(-c5cccc(S(=O)(=O)[O-])c5F)c5ccc2[nH]5)C=C4)C=C3)cc1
REMARK SMILES IDX 22 1 21 2 1 3 2 4 3 6 4 7 5 8 6 9 7 10 8 11 9 13 10 14 20 15
REMARK SMILES IDX 11 16 19 17 12 18 13 19 14 20 18 21 15 22 17 23 16 24 23 25
REMARK SMILES IDX 24 26 25 27 26 28 27 29 28 31 29 32 30 33 91 34 31 35 90 36
REMARK SMILES IDX 32 37 33 38 34 39 84 40 35 41 89 42 83 43 85 44 36 45 88 46
REMARK SMILES IDX 82 47 81 48 37 50 69 51 49 52 68 53 50 54 53 55 67 56 86 57
REMARK SMILES IDX 51 58 52 59 66 61 87 62 54 63 38 64 39 65 47 66 40 67 42 68
REMARK SMILES IDX 48 69 41 70 43 71 44 72 45 73 46 74 70 75 71 76 79 77 72 78
REMARK SMILES IDX 74 79 80 80 73 81 75 82 76 83 77 84 78 85 55 86 56 87 64 88
REMARK SMILES IDX 57 89 59 90 65 91 58 92 60 93 61 94 62 95 63 96
REMARK H PARENT 21 5 8 12 26 30 85 49 53 60
REMARK Flexibility Score: inf
ROOT
ATOM      1  C   UNL A   1      32.090  29.267  24.275  1.00  0.00     0.116 C 
ENDROOT
BRANCH   1   2
ATOM      2  N   UNL A   1      31.178  28.142  24.303  1.00  0.00    -0.356 N 
ATOM      3  O   UNL A   1      30.769  28.001  22.047  1.00  0.00    -0.275 OA
ATOM      4  C   UNL A   1      30.677  27.534  23.179  1.00  0.00     0.221 C 
ATOM      5  H   UNL A   1      30.901  27.791  25.181  1.00  0.00     0.163 HD
BRANCH   4   6
ATOM      6  C   UNL A   1      29.987  26.204  23.430  1.00  0.00     0.118 C 
BRANCH   6   7
ATOM      7  C   UNL A   1      29.074  26.113  24.650  1.00  0.00     0.170 C 
BRANCH   7   8
ATOM      8  S   UNL A   1      29.798  25.413  26.139  1.00  0.00     0.233 S 
ATOM      9  O   UNL A   1      30.821  26.302  26.657  1.00  0.00    -0.207 OA
ATOM     10  O   UNL A   1      28.699  25.042  27.000  1.00  0.00    -0.207 OA
BRANCH   8  11
ATOM     11  N   UNL A   1      30.525  23.945  25.756  1.00  0.00    -0.284 N 
ATOM     12  H   UNL A   1      29.937  23.202  25.493  1.00  0.00     0.180 HD
BRANCH  11  13
ATOM     13  C   UNL A   1      31.934  23.696  25.784  1.00  0.00     0.049 A 
ATOM     14  C   UNL A   1      32.467  22.729  26.646  1.00  0.00     0.027 A 
ATOM     15  C   UNL A   1      32.778  24.263  24.840  1.00  0.00     0.027 A 
ATOM     16  C   UNL A   1      33.841  22.409  26.609  1.00  0.00     0.011 A 
ATOM     17  C   UNL A   1      34.142  23.986  24.831  1.00  0.00     0.011 A 
ATOM     18  C   UNL A   1      34.698  23.058  25.712  1.00  0.00    -0.018 A 
BRANCH  18  19
ATOM     19  C   UNL A   1      36.130  22.784  25.594  1.00  0.00    -0.018 A 
ATOM     20  C   UNL A   1      37.065  23.730  26.041  1.00  0.00     0.009 A 
ATOM     21  C   UNL A   1      36.589  21.511  25.219  1.00  0.00     0.009 A 
ATOM     22  C   UNL A   1      38.419  23.404  26.141  1.00  0.00     0.001 A 
ATOM     23  C   UNL A   1      37.945  21.187  25.313  1.00  0.00     0.001 A 
ATOM     24  C   UNL A   1      38.857  22.130  25.783  1.00  0.00     0.000 A 
ENDBRANCH  18  19
ENDBRANCH  11  13
ENDBRANCH   8  11
ENDBRANCH   7   8
ENDBRANCH   6   7
ENDBRANCH   4   6
ENDBRANCH   1   2
BRANCH   1  25
ATOM     25  C   UNL A   1      33.562  28.877  24.409  1.00  0.00     0.023 C 
BRANCH  25  26
ATOM     26  C   UNL A   1      33.987  28.292  25.762  1.00  0.00     0.023 C 
BRANCH  26  27
ATOM     27  C   UNL A   1      33.327  28.903  26.997  1.00  0.00     0.116 C 
BRANCH  27  28
ATOM     28  N   UNL A   1      33.547  30.340  27.105  1.00  0.00    -0.352 N 
ATOM     29  C   UNL A   1      34.593  31.042  27.661  1.00  0.00     0.251 C 
ATOM     30  H   UNL A   1      32.833  30.898  26.719  1.00  0.00     0.163 HD
ATOM     31  O   UNL A   1      34.502  32.261  27.785  1.00  0.00    -0.269 OA
BRANCH  29  32
ATOM     32  C   UNL A   1      35.816  30.348  28.133  1.00  0.00     0.039 A 
ATOM     33  C   UNL A   1      36.934  30.303  27.293  1.00  0.00     0.014 A 
ATOM     34  C   UNL A   1      35.867  29.721  29.380  1.00  0.00     0.014 A 
ATOM     35  C   UNL A   1      38.120  29.707  27.736  1.00  0.00     0.010 A 
ATOM     36  C   UNL A   1      37.072  29.196  29.850  1.00  0.00     0.010 A 
ATOM     37  C   UNL A   1      38.216  29.186  29.037  1.00  0.00    -0.014 A 
BRANCH  37  38
ATOM     38  C   UNL A   1      39.506  28.663  29.570  1.00  0.00     0.031 A 
ATOM     39  C   UNL A   1      40.235  29.385  30.673  1.00  0.00     0.074 A 
ATOM     40  C   UNL A   1      40.071  27.578  29.000  1.00  0.00     0.049 A 
ATOM     41  N   UNL A   1      41.388  29.102  31.225  1.00  0.00    -0.248 NA
ATOM     42  C   UNL A   1      39.598  30.598  31.213  1.00  0.00     0.031 C 
ATOM     43  C   UNL A   1      39.510  26.824  27.877  1.00  0.00     0.029 A 
ATOM     44  N   UNL A   1      41.255  26.934  29.270  1.00  0.00    -0.354 N 
ATOM     45  C   UNL A   1      41.633  30.114  32.144  1.00  0.00     0.074 A 
ATOM     46  C   UNL A   1      40.520  31.036  32.058  1.00  0.00     0.031 C 
ATOM     47  C   UNL A   1      40.341  25.820  27.560  1.00  0.00     0.029 A 
ATOM     48  C   UNL A   1      41.514  25.877  28.427  1.00  0.00     0.049 A 
ATOM     49  H   UNL A   1      41.861  27.204  29.997  1.00  0.00     0.167 HD
ATOM     50  C   UNL A   1      42.675  30.256  32.999  1.00  0.00     0.034 A 
ATOM     51  C   UNL A   1      42.577  25.053  28.349  1.00  0.00     0.034 A 
ATOM     52  C   UNL A   1      43.766  29.324  33.107  1.00  0.00     0.049 A 
ATOM     53  C   UNL A   1      43.712  25.222  29.324  1.00  0.00     0.074 A 
ATOM     54  C   UNL A   1      44.819  29.334  34.006  1.00  0.00     0.029 A 
ATOM     55  N   UNL A   1      43.959  28.228  32.282  1.00  0.00    -0.354 N 
ATOM     56  N   UNL A   1      43.845  26.092  30.295  1.00  0.00    -0.248 NA
ATOM     57  C   UNL A   1      44.829  24.271  29.215  1.00  0.00     0.031 C 
ATOM     58  C   UNL A   1      45.670  28.268  33.698  1.00  0.00     0.029 A 
ATOM     59  C   UNL A   1      45.122  27.567  32.637  1.00  0.00     0.049 A 
ATOM     60  H   UNL A   1      43.357  27.960  31.550  1.00  0.00     0.167 HD
ATOM     61  C   UNL A   1      45.037  25.770  30.935  1.00  0.00     0.074 A 
ATOM     62  C   UNL A   1      45.578  24.613  30.255  1.00  0.00     0.031 C 
ATOM     63  C   UNL A   1      45.632  26.386  31.987  1.00  0.00     0.034 A 
BRANCH  50  64
ATOM     64  C   UNL A   1      42.674  31.452  33.919  1.00  0.00     0.023 A 
ATOM     65  C   UNL A   1      43.153  32.693  33.454  1.00  0.00     0.012 A 
ATOM     66  C   UNL A   1      42.135  31.364  35.219  1.00  0.00     0.148 A 
ATOM     67  C   UNL A   1      43.134  33.818  34.280  1.00  0.00     0.002 A 
ATOM     68  C   UNL A   1      42.075  32.499  36.018  1.00  0.00     0.091 A 
ATOM     69  F   UNL A   1      41.698  30.172  35.650  1.00  0.00    -0.205 F 
ATOM     70  C   UNL A   1      42.585  33.722  35.556  1.00  0.00     0.022 A 
BRANCH  68  71
ATOM     71  S   UNL A   1      41.311  32.503  37.644  1.00  0.00     0.127 S 
ATOM     72  O   UNL A   1      39.960  32.033  37.335  1.00  0.00    -0.237 OA
ATOM     73  O   UNL A   1      42.138  31.541  38.374  1.00  0.00    -0.237 OA
ATOM     74  O   UNL A   1      41.399  33.873  38.129  1.00  0.00    -0.744 OA
ENDBRANCH  68  71
ENDBRANCH  50  64
BRANCH  51  75
ATOM     75  C   UNL A   1      42.601  23.952  27.342  1.00  0.00     0.023 A 
ATOM     76  C   UNL A   1      43.152  24.192  26.067  1.00  0.00     0.012 A 
ATOM     77  C   UNL A   1      42.094  22.673  27.641  1.00  0.00     0.148 A 
ATOM     78  C   UNL A   1      43.163  23.190  25.097  1.00  0.00     0.002 A 
ATOM     79  C   UNL A   1      42.160  21.662  26.689  1.00  0.00     0.091 A 
ATOM     80  F   UNL A   1      41.564  22.468  28.855  1.00  0.00    -0.205 F 
ATOM     81  C   UNL A   1      42.676  21.924  25.410  1.00  0.00     0.022 A 
BRANCH  79  82
ATOM     82  S   UNL A   1      41.676  19.970  27.042  1.00  0.00     0.127 S 
ATOM     83  O   UNL A   1      41.372  19.461  25.706  1.00  0.00    -0.237 OA
ATOM     84  O   UNL A   1      42.893  19.429  27.646  1.00  0.00    -0.237 OA
ATOM     85  O   UNL A   1      40.543  20.064  27.953  1.00  0.00    -0.744 OA
ENDBRANCH  79  82
ENDBRANCH  51  75
BRANCH  63  86
ATOM     86  C   UNL A   1      46.918  25.797  32.509  1.00  0.00     0.023 A 
ATOM     87  C   UNL A   1      48.157  26.238  32.004  1.00  0.00     0.012 A 
ATOM     88  C   UNL A   1      46.897  24.852  33.555  1.00  0.00     0.148 A 
ATOM     89  C   UNL A   1      49.352  25.722  32.505  1.00  0.00     0.002 A 
ATOM     90  C   UNL A   1      48.092  24.383  34.088  1.00  0.00     0.091 A 
ATOM     91  F   UNL A   1      45.708  24.430  34.012  1.00  0.00    -0.205 F 
ATOM     92  C   UNL A   1      49.320  24.806  33.554  1.00  0.00     0.022 A 
BRANCH  90  93
ATOM     93  S   UNL A   1      48.152  23.279  35.503  1.00  0.00     0.127 S 
ATOM     94  O   UNL A   1      49.592  23.169  35.734  1.00  0.00    -0.237 OA
ATOM     95  O   UNL A   1      47.426  24.040  36.520  1.00  0.00    -0.237 OA
ATOM     96  O   UNL A   1      47.493  22.048  35.083  1.00  0.00    -0.744 OA
ENDBRANCH  90  93
ENDBRANCH  63  86
ENDBRANCH  37  38
ENDBRANCH  29  32
ENDBRANCH  27  28
ENDBRANCH  26  27
ENDBRANCH  25  26
ENDBRANCH   1  25
TORSDOF 19
ENDMDL
MODEL 2
REMARK VINA RESULT:     -10.1      5.345     10.108
REMARK SMILES O=C(CCS(=O)(=O)Nc1ccc(-c2ccccc2)cc1)NCCCCNC(=O)c1ccc(-c2c3nc(c(-c4cccc(S(=O)(=O)[O-])c4F)c4ccc([nH]4)c(-c4cccc(S(=O)(=O)[O-])c4F)c4nc(c(-c5cccc(S(=O)(=O)[O-])c5F)c5ccc2[nH]5)C=C4)C=C3)cc1
REMARK SMILES IDX 22 1 21 2 1 3 2 4 3 6 4 7 5 8 6 9 7 10 8 11 9 13 10 14 20 15
REMARK SMILES IDX 11 16 19 17 12 18 13 19 14 20 18 21 15 22 17 23 16 24 23 25
REMARK SMILES IDX 24 26 25 27 26 28 27 29 28 31 29 32 30 33 91 34 31 35 90 36
REMARK SMILES IDX 32 37 33 38 34 39 84 40 35 41 89 42 83 43 85 44 36 45 88 46
REMARK SMILES IDX 82 47 81 48 37 50 69 51 49 52 68 53 50 54 53 55 67 56 86 57
REMARK SMILES IDX 51 58 52 59 66 61 87 62 54 63 38 64 39 65 47 66 40 67 42 68
REMARK SMILES IDX 48 69 41 70 43 71 44 72 45 73 46 74 70 75 71 76 79 77 72 78
REMARK SMILES IDX 74 79 80 80 73 81 75 82 76 83 77 84 78 85 55 86 56 87 64 88
REMARK SMILES IDX 57 89 59 90 65 91 58 92 60 93 61 94 62 95 63 96
REMARK H PARENT 21 5 8 12 26 30 85 49 53 60
REMARK Flexibility Score: inf
ROOT
ATOM      1  C   UNL A   1      40.470  22.383  26.977  1.00  0.00     0.116 C 
ENDROOT
BRANCH   1   2
ATOM      2  N   UNL A   1      39.178  22.381  26.321  1.00  0.00    -0.356 N 
ATOM      3  O   UNL A   1      38.572  24.546  26.792  1.00  0.00    -0.275 OA
ATOM      4  C   UNL A   1      38.384  23.492  26.191  1.00  0.00     0.221 C 
ATOM      5  H   UNL A   1      38.851  21.531  25.946  1.00  0.00     0.163 HD
BRANCH   4   6
ATOM      6  C   UNL A   1      37.226  23.334  25.220  1.00  0.00     0.118 C 
BRANCH   6   7
ATOM      7  C   UNL A   1      36.909  21.921  24.738  1.00  0.00     0.170 C 
BRANCH   7   8
ATOM      8  S   UNL A   1      35.306  21.258  25.208  1.00  0.00     0.233 S 
ATOM      9  O   UNL A   1      35.176  19.894  24.732  1.00  0.00    -0.207 OA
ATOM     10  O   UNL A   1      35.147  21.519  26.620  1.00  0.00    -0.207 OA
BRANCH   8  11
ATOM     11  N   UNL A   1      34.099  22.182  24.488  1.00  0.00    -0.284 N 
ATOM     12  H   UNL A   1      33.592  21.772  23.752  1.00  0.00     0.180 HD
BRANCH  11  13
ATOM     13  C   UNL A   1      33.754  23.518  24.865  1.00  0.00     0.049 A 
ATOM     14  C   UNL A   1      32.967  23.754  26.000  1.00  0.00     0.027 A 
ATOM     15  C   UNL A   1      34.335  24.610  24.238  1.00  0.00     0.027 A 
ATOM     16  C   UNL A   1      32.704  25.071  26.434  1.00  0.00     0.011 A 
ATOM     17  C   UNL A   1      34.042  25.912  24.633  1.00  0.00     0.011 A 
ATOM     18  C   UNL A   1      33.223  26.167  25.734  1.00  0.00    -0.018 A 
BRANCH  18  19
ATOM     19  C   UNL A   1      33.015  27.564  26.115  1.00  0.00    -0.018 A 
ATOM     20  C   UNL A   1      31.779  27.972  26.640  1.00  0.00     0.009 A 
ATOM     21  C   UNL A   1      34.090  28.467  26.148  1.00  0.00     0.009 A 
ATOM     22  C   UNL A   1      31.629  29.238  27.210  1.00  0.00     0.001 A 
ATOM     23  C   UNL A   1      33.938  29.735  26.713  1.00  0.00     0.001 A 
ATOM     24  C   UNL A   1      32.711  30.116  27.253  1.00  0.00     0.000 A 
ENDBRANCH  18  19
ENDBRANCH  11  13
ENDBRANCH   8  11
ENDBRANCH   7   8
ENDBRANCH   6   7
ENDBRANCH   4   6
ENDBRANCH   1   2
BRANCH   1  25
ATOM     25  C   UNL A   1      40.934  21.003  27.441  1.00  0.00     0.023 C 
BRANCH  25  26
ATOM     26  C   UNL A   1      41.317  20.010  26.335  1.00  0.00     0.023 C 
BRANCH  26  27
ATOM     27  C   UNL A   1      42.534  19.130  26.614  1.00  0.00     0.116 C 
BRANCH  27  28
ATOM     28  N   UNL A   1      43.430  19.021  25.469  1.00  0.00    -0.352 N 
ATOM     29  C   UNL A   1      44.114  19.995  24.778  1.00  0.00     0.251 C 
ATOM     30  H   UNL A   1      43.566  18.104  25.137  1.00  0.00     0.163 HD
ATOM     31  O   UNL A   1      44.696  19.698  23.736  1.00  0.00    -0.269 OA
BRANCH  29  32
ATOM     32  C   UNL A   1      44.141  21.399  25.256  1.00  0.00     0.039 A 
ATOM     33  C   UNL A   1      44.694  21.673  26.512  1.00  0.00     0.014 A 
ATOM     34  C   UNL A   1      43.607  22.441  24.496  1.00  0.00     0.014 A 
ATOM     35  C   UNL A   1      44.786  22.995  26.963  1.00  0.00     0.010 A 
ATOM     36  C   UNL A   1      43.770  23.764  24.912  1.00  0.00     0.010 A 
ATOM     37  C   UNL A   1      44.365  24.060  26.148  1.00  0.00    -0.014 A 
BRANCH  37  38
ATOM     38  C   UNL A   1      44.573  25.478  26.557  1.00  0.00     0.031 A 
ATOM     39  C   UNL A   1      45.934  26.116  26.468  1.00  0.00     0.074 A 
ATOM     40  C   UNL A   1      43.547  26.173  27.093  1.00  0.00     0.049 A 
ATOM     41  N   UNL A   1      46.307  27.320  26.823  1.00  0.00    -0.248 NA
ATOM     42  C   UNL A   1      47.027  25.288  25.931  1.00  0.00     0.031 C 
ATOM     43  C   UNL A   1      42.194  25.655  27.305  1.00  0.00     0.029 A 
ATOM     44  N   UNL A   1      43.489  27.457  27.581  1.00  0.00    -0.354 N 
ATOM     45  C   UNL A   1      47.676  27.382  26.590  1.00  0.00     0.074 A 
ATOM     46  C   UNL A   1      48.075  26.084  26.088  1.00  0.00     0.031 C 
ATOM     47  C   UNL A   1      41.439  26.609  27.870  1.00  0.00     0.029 A 
ATOM     48  C   UNL A   1      42.259  27.795  28.099  1.00  0.00     0.049 A 
ATOM     49  H   UNL A   1      44.254  28.075  27.563  1.00  0.00     0.167 HD
ATOM     50  C   UNL A   1      48.523  28.427  26.756  1.00  0.00     0.034 A 
ATOM     51  C   UNL A   1      41.838  28.925  28.701  1.00  0.00     0.034 A 
ATOM     52  C   UNL A   1      48.122  29.727  27.226  1.00  0.00     0.049 A 
ATOM     53  C   UNL A   1      42.795  30.077  28.856  1.00  0.00     0.074 A 
ATOM     54  C   UNL A   1      48.888  30.874  27.340  1.00  0.00     0.029 A 
ATOM     55  N   UNL A   1      46.852  30.052  27.678  1.00  0.00    -0.354 N 
ATOM     56  N   UNL A   1      44.047  30.168  28.479  1.00  0.00    -0.248 NA
ATOM     57  C   UNL A   1      42.270  31.297  29.488  1.00  0.00     0.031 C 
ATOM     58  C   UNL A   1      48.094  31.880  27.899  1.00  0.00     0.029 A 
ATOM     59  C   UNL A   1      46.819  31.373  28.090  1.00  0.00     0.049 A 
ATOM     60  H   UNL A   1      46.087  29.433  27.703  1.00  0.00     0.167 HD
ATOM     61  C   UNL A   1      44.447  31.463  28.791  1.00  0.00     0.074 A 
ATOM     62  C   UNL A   1      43.298  32.127  29.370  1.00  0.00     0.031 C 
ATOM     63  C   UNL A   1      45.660  32.044  28.620  1.00  0.00     0.034 A 
BRANCH  50  64
ATOM     64  C   UNL A   1      49.973  28.223  26.395  1.00  0.00     0.023 A 
ATOM     65  C   UNL A   1      50.389  28.374  25.057  1.00  0.00     0.012 A 
ATOM     66  C   UNL A   1      50.934  27.951  27.390  1.00  0.00     0.148 A 
ATOM     67  C   UNL A   1      51.731  28.217  24.707  1.00  0.00     0.002 A 
ATOM     68  C   UNL A   1      52.276  27.845  27.041  1.00  0.00     0.091 A 
ATOM     69  F   UNL A   1      50.519  27.796  28.655  1.00  0.00    -0.205 F 
ATOM     70  C   UNL A   1      52.673  27.964  25.700  1.00  0.00     0.022 A 
BRANCH  68  71
ATOM     71  S   UNL A   1      53.578  27.605  28.254  1.00  0.00     0.127 S 
ATOM     72  O   UNL A   1      54.716  28.245  27.595  1.00  0.00    -0.237 OA
ATOM     73  O   UNL A   1      53.057  28.333  29.412  1.00  0.00    -0.237 OA
ATOM     74  O   UNL A   1      53.695  26.166  28.443  1.00  0.00    -0.744 OA
ENDBRANCH  68  71
ENDBRANCH  50  64
BRANCH  51  75
ATOM     75  C   UNL A   1      40.424  29.048  29.159  1.00  0.00     0.023 A 
ATOM     76  C   UNL A   1      39.412  29.323  28.217  1.00  0.00     0.012 A 
ATOM     77  C   UNL A   1      40.074  28.882  30.513  1.00  0.00     0.148 A 
ATOM     78  C   UNL A   1      38.085  29.470  28.620  1.00  0.00     0.002 A 
ATOM     79  C   UNL A   1      38.742  28.972  30.900  1.00  0.00     0.091 A 
ATOM     80  F   UNL A   1      41.051  28.630  31.395  1.00  0.00    -0.205 F 
ATOM     81  C   UNL A   1      37.748  29.285  29.959  1.00  0.00     0.022 A 
BRANCH  79  82
ATOM     82  S   UNL A   1      38.196  28.625  32.575  1.00  0.00     0.127 S 
ATOM     83  O   UNL A   1      36.798  29.048  32.528  1.00  0.00    -0.237 OA
ATOM     84  O   UNL A   1      38.401  27.180  32.664  1.00  0.00    -0.237 OA
ATOM     85  O   UNL A   1      39.063  29.410  33.444  1.00  0.00    -0.744 OA
ENDBRANCH  79  82
ENDBRANCH  51  75
BRANCH  63  86
ATOM     86  C   UNL A   1      45.807  33.491  29.019  1.00  0.00     0.023 A 
ATOM     87  C   UNL A   1      46.265  33.829  30.307  1.00  0.00     0.012 A 
ATOM     88  C   UNL A   1      45.556  34.517  28.085  1.00  0.00     0.148 A 
ATOM     89  C   UNL A   1      46.435  35.165  30.672  1.00  0.00     0.002 A 
ATOM     90  C   UNL A   1      45.780  35.843  28.437  1.00  0.00     0.091 A 
ATOM     91  F   UNL A   1      45.103  34.178  26.868  1.00  0.00    -0.205 F 
ATOM     92  C   UNL A   1      46.205  36.169  29.735  1.00  0.00     0.022 A 
BRANCH  90  93
ATOM     93  S   UNL A   1      45.607  37.195  27.268  1.00  0.00     0.127 S 
ATOM     94  O   UNL A   1      44.172  37.162  26.984  1.00  0.00    -0.237 OA
ATOM     95  O   UNL A   1      46.046  38.345  28.059  1.00  0.00    -0.237 OA
ATOM     96  O   UNL A   1      46.471  36.868  26.142  1.00  0.00    -0.744 OA
ENDBRANCH  90  93
ENDBRANCH  63  86
ENDBRANCH  37  38
ENDBRANCH  29  32
ENDBRANCH  27  28
ENDBRANCH  26  27
ENDBRANCH  25  26
ENDBRANCH   1  25
TORSDOF 19
ENDMDL
MODEL 3
REMARK VINA RESULT:      -9.9      5.511     11.500
REMARK SMILES O=C(CCS(=O)(=O)Nc1ccc(-c2ccccc2)cc1)NCCCCNC(=O)c1ccc(-c2c3nc(c(-c4cccc(S(=O)(=O)[O-])c4F)c4ccc([nH]4)c(-c4cccc(S(=O)(=O)[O-])c4F)c4nc(c(-c5cccc(S(=O)(=O)[O-])c5F)c5ccc2[nH]5)C=C4)C=C3)cc1
REMARK SMILES IDX 22 1 21 2 1 3 2 4 3 6 4 7 5 8 6 9 7 10 8 11 9 13 10 14 20 15
REMARK SMILES IDX 11 16 19 17 12 18 13 19 14 20 18 21 15 22 17 23 16 24 23 25
REMARK SMILES IDX 24 26 25 27 26 28 27 29 28 31 29 32 30 33 91 34 31 35 90 36
REMARK SMILES IDX 32 37 33 38 34 39 84 40 35 41 89 42 83 43 85 44 36 45 88 46
REMARK SMILES IDX 82 47 81 48 37 50 69 51 49 52 68 53 50 54 53 55 67 56 86 57
REMARK SMILES IDX 51 58 52 59 66 61 87 62 54 63 38 64 39 65 47 66 40 67 42 68
REMARK SMILES IDX 48 69 41 70 43 71 44 72 45 73 46 74 70 75 71 76 79 77 72 78
REMARK SMILES IDX 74 79 80 80 73 81 75 82 76 83 77 84 78 85 55 86 56 87 64 88
REMARK SMILES IDX 57 89 59 90 65 91 58 92 60 93 61 94 62 95 63 96
REMARK H PARENT 21 5 8 12 26 30 85 49 53 60
REMARK Flexibility Score: inf
ROOT
ATOM      1  C   UNL A   1      48.427  27.075  24.620  1.00  0.00     0.116 C 
ENDROOT
BRANCH   1   2
ATOM      2  N   UNL A   1      47.285  27.198  25.503  1.00  0.00    -0.356 N 
ATOM      3  O   UNL A   1      46.405  29.130  24.628  1.00  0.00    -0.275 OA
ATOM      4  C   UNL A   1      46.310  28.154  25.366  1.00  0.00     0.221 C 
ATOM      5  H   UNL A   1      47.203  26.556  26.246  1.00  0.00     0.163 HD
BRANCH   4   6
ATOM      6  C   UNL A   1      45.067  27.917  26.205  1.00  0.00     0.118 C 
BRANCH   6   7
ATOM      7  C   UNL A   1      45.002  26.618  27.004  1.00  0.00     0.170 C 
BRANCH   7   8
ATOM      8  S   UNL A   1      43.745  26.530  28.285  1.00  0.00     0.233 S 
ATOM      9  O   UNL A   1      43.996  25.391  29.147  1.00  0.00    -0.207 OA
ATOM     10  O   UNL A   1      43.664  27.845  28.878  1.00  0.00    -0.207 OA
BRANCH   8  11
ATOM     11  N   UNL A   1      42.241  26.319  27.563  1.00  0.00    -0.284 N 
ATOM     12  H   UNL A   1      42.138  25.564  26.940  1.00  0.00     0.180 HD
BRANCH  11  13
ATOM     13  C   UNL A   1      41.100  27.153  27.786  1.00  0.00     0.049 A 
ATOM     14  C   UNL A   1      40.389  27.076  28.991  1.00  0.00     0.027 A 
ATOM     15  C   UNL A   1      40.782  28.178  26.907  1.00  0.00     0.027 A 
ATOM     16  C   UNL A   1      39.324  27.962  29.257  1.00  0.00     0.011 A 
ATOM     17  C   UNL A   1      39.703  29.024  27.143  1.00  0.00     0.011 A 
ATOM     18  C   UNL A   1      38.955  28.933  28.318  1.00  0.00    -0.018 A 
BRANCH  18  19
ATOM     19  C   UNL A   1      37.875  29.901  28.511  1.00  0.00    -0.018 A 
ATOM     20  C   UNL A   1      38.159  31.176  29.023  1.00  0.00     0.009 A 
ATOM     21  C   UNL A   1      36.587  29.648  28.012  1.00  0.00     0.009 A 
ATOM     22  C   UNL A   1      37.189  32.182  29.010  1.00  0.00     0.001 A 
ATOM     23  C   UNL A   1      35.617  30.652  28.005  1.00  0.00     0.001 A 
ATOM     24  C   UNL A   1      35.921  31.921  28.494  1.00  0.00     0.000 A 
ENDBRANCH  18  19
ENDBRANCH  11  13
ENDBRANCH   8  11
ENDBRANCH   7   8
ENDBRANCH   6   7
ENDBRANCH   4   6
ENDBRANCH   1   2
BRANCH   1  25
ATOM     25  C   UNL A   1      49.622  27.938  25.027  1.00  0.00     0.023 C 
BRANCH  25  26
ATOM     26  C   UNL A   1      51.010  27.346  24.752  1.00  0.00     0.023 C 
BRANCH  26  27
ATOM     27  C   UNL A   1      52.180  28.008  25.479  1.00  0.00     0.116 C 
BRANCH  27  28
ATOM     28  N   UNL A   1      52.920  27.081  26.326  1.00  0.00    -0.352 N 
ATOM     29  C   UNL A   1      52.641  26.614  27.591  1.00  0.00     0.251 C 
ATOM     30  H   UNL A   1      53.751  26.733  25.931  1.00  0.00     0.163 HD
ATOM     31  O   UNL A   1      53.488  25.954  28.189  1.00  0.00    -0.269 OA
BRANCH  29  32
ATOM     32  C   UNL A   1      51.348  26.916  28.252  1.00  0.00     0.039 A 
ATOM     33  C   UNL A   1      51.280  27.993  29.142  1.00  0.00     0.014 A 
ATOM     34  C   UNL A   1      50.211  26.138  28.025  1.00  0.00     0.014 A 
ATOM     35  C   UNL A   1      50.059  28.337  29.735  1.00  0.00     0.010 A 
ATOM     36  C   UNL A   1      48.979  26.528  28.555  1.00  0.00     0.010 A 
ATOM     37  C   UNL A   1      48.885  27.635  29.412  1.00  0.00    -0.014 A 
BRANCH  37  38
ATOM     38  C   UNL A   1      47.557  28.066  29.932  1.00  0.00     0.031 A 
ATOM     39  C   UNL A   1      46.836  27.255  30.976  1.00  0.00     0.074 A 
ATOM     40  C   UNL A   1      46.954  29.150  29.400  1.00  0.00     0.049 A 
ATOM     41  N   UNL A   1      45.655  27.453  31.507  1.00  0.00    -0.248 NA
ATOM     42  C   UNL A   1      47.517  26.049  31.475  1.00  0.00     0.031 C 
ATOM     43  C   UNL A   1      47.506  29.986  28.332  1.00  0.00     0.029 A 
ATOM     44  N   UNL A   1      45.732  29.721  29.666  1.00  0.00    -0.354 N 
ATOM     45  C   UNL A   1      45.437  26.385  32.368  1.00  0.00     0.074 A 
ATOM     46  C   UNL A   1      46.596  25.524  32.269  1.00  0.00     0.031 C 
ATOM     47  C   UNL A   1      46.635  30.964  28.040  1.00  0.00     0.029 A 
ATOM     48  C   UNL A   1      45.443  30.806  28.869  1.00  0.00     0.049 A 
ATOM     49  H   UNL A   1      45.121  29.386  30.360  1.00  0.00     0.167 HD
ATOM     50  C   UNL A   1      44.380  26.150  33.184  1.00  0.00     0.034 A 
ATOM     51  C   UNL A   1      44.343  31.580  28.801  1.00  0.00     0.034 A 
ATOM     52  C   UNL A   1      43.241  27.021  33.306  1.00  0.00     0.049 A 
ATOM     53  C   UNL A   1      43.192  31.308  29.732  1.00  0.00     0.074 A 
ATOM     54  C   UNL A   1      42.166  26.914  34.172  1.00  0.00     0.029 A 
ATOM     55  N   UNL A   1      43.016  28.147  32.530  1.00  0.00    -0.354 N 
ATOM     56  N   UNL A   1      43.077  30.383  30.654  1.00  0.00    -0.248 NA
ATOM     57  C   UNL A   1      42.032  32.207  29.637  1.00  0.00     0.031 C 
ATOM     58  C   UNL A   1      41.272  27.952  33.891  1.00  0.00     0.029 A 
ATOM     59  C   UNL A   1      41.812  28.732  32.882  1.00  0.00     0.049 A 
ATOM     60  H   UNL A   1      43.623  28.481  31.830  1.00  0.00     0.167 HD
ATOM     61  C   UNL A   1      41.854  30.615  31.275  1.00  0.00     0.074 A 
ATOM     62  C   UNL A   1      41.274  31.777  30.636  1.00  0.00     0.031 C 
ATOM     63  C   UNL A   1      41.262  29.918  32.277  1.00  0.00     0.034 A 
BRANCH  50  64
ATOM     64  C   UNL A   1      44.416  24.910  34.044  1.00  0.00     0.023 A 
ATOM     65  C   UNL A   1      43.973  23.680  33.518  1.00  0.00     0.012 A 
ATOM     66  C   UNL A   1      44.952  24.950  35.347  1.00  0.00     0.148 A 
ATOM     67  C   UNL A   1      44.025  22.517  34.286  1.00  0.00     0.002 A 
ATOM     68  C   UNL A   1      45.046  23.778  36.089  1.00  0.00     0.091 A 
ATOM     69  F   UNL A   1      45.356  26.130  35.837  1.00  0.00    -0.205 F 
ATOM     70  C   UNL A   1      44.571  22.565  35.566  1.00  0.00     0.022 A 
BRANCH  68  71
ATOM     71  S   UNL A   1      45.811  23.716  37.713  1.00  0.00     0.127 S 
ATOM     72  O   UNL A   1      44.898  24.546  38.500  1.00  0.00    -0.237 OA
ATOM     73  O   UNL A   1      45.757  22.287  38.024  1.00  0.00    -0.237 OA
ATOM     74  O   UNL A   1      47.154  24.252  37.547  1.00  0.00    -0.744 OA
ENDBRANCH  68  71
ENDBRANCH  50  64
BRANCH  51  75
ATOM     75  C   UNL A   1      44.292  32.728  27.848  1.00  0.00     0.023 A 
ATOM     76  C   UNL A   1      44.056  32.483  26.481  1.00  0.00     0.012 A 
ATOM     77  C   UNL A   1      44.462  34.055  28.289  1.00  0.00     0.148 A 
ATOM     78  C   UNL A   1      44.030  33.533  25.563  1.00  0.00     0.002 A 
ATOM     79  C   UNL A   1      44.377  35.102  27.379  1.00  0.00     0.091 A 
ATOM     80  F   UNL A   1      44.695  34.266  29.592  1.00  0.00    -0.205 F 
ATOM     81  C   UNL A   1      44.180  34.843  26.013  1.00  0.00     0.022 A 
BRANCH  79  82
ATOM     82  S   UNL A   1      44.432  36.825  27.881  1.00  0.00     0.127 S 
ATOM     83  O   UNL A   1      44.145  37.512  26.624  1.00  0.00    -0.237 OA
ATOM     84  O   UNL A   1      43.359  36.882  28.873  1.00  0.00    -0.237 OA
ATOM     85  O   UNL A   1      45.766  37.036  28.425  1.00  0.00    -0.744 OA
ENDBRANCH  79  82
ENDBRANCH  51  75
BRANCH  63  86
ATOM     86  C   UNL A   1      39.934  30.417  32.790  1.00  0.00     0.023 A 
ATOM     87  C   UNL A   1      38.736  29.995  32.182  1.00  0.00     0.012 A 
ATOM     88  C   UNL A   1      39.876  31.252  33.923  1.00  0.00     0.148 A 
ATOM     89  C   UNL A   1      37.502  30.426  32.671  1.00  0.00     0.002 A 
ATOM     90  C   UNL A   1      38.642  31.634  34.438  1.00  0.00     0.091 A 
ATOM     91  F   UNL A   1      41.027  31.658  34.479  1.00  0.00    -0.205 F 
ATOM     92  C   UNL A   1      37.455  31.233  33.805  1.00  0.00     0.022 A 
BRANCH  90  93
ATOM     93  S   UNL A   1      38.480  32.588  35.951  1.00  0.00     0.127 S 
ATOM     94  O   UNL A   1      39.161  33.832  35.592  1.00  0.00    -0.237 OA
ATOM     95  O   UNL A   1      37.028  32.705  36.089  1.00  0.00    -0.237 OA
ATOM     96  O   UNL A   1      39.127  31.804  36.995  1.00  0.00    -0.744 OA
ENDBRANCH  90  93
ENDBRANCH  63  86
ENDBRANCH  37  38
ENDBRANCH  29  32
ENDBRANCH  27  28
ENDBRANCH  26  27
ENDBRANCH  25  26
ENDBRANCH   1  25
TORSDOF 19
ENDMDL
