MODEL 1
REMARK VINA RESULT:     -10.8      0.000      0.000
REMARK SMILES CC(C)OCCS(=O)(=O)N1CCC[C@H](C(=O)NCCCCNC(=O)c2ccc(-c3c4nc(c(-c5cccc(S(=O)(=O)[O-])c5F)c5ccc([nH]5)c(-c5cccc(S(=O)(=O)[O-])c5F)c5nc(c(-c6cccc(S(=O)(=O)[O-])c6F)c6ccc3[nH]6)C=C5)C=C4)cc2)C1
REMARK SMILES IDX 18 1 17 2 15 3 16 4 14 6 10 7 11 8 88 9 12 10 13 11 7 12
REMARK SMILES IDX 8 13 9 14 6 15 5 16 4 17 2 18 1 19 3 20 19 21 20 22 21 23
REMARK SMILES IDX 22 24 23 25 24 27 25 28 26 29 87 30 27 31 86 32 28 33 29 34
REMARK SMILES IDX 30 35 80 36 31 37 85 38 79 39 81 40 32 41 84 42 78 43 77 44
REMARK SMILES IDX 33 46 65 47 45 48 64 49 46 50 49 51 63 52 82 53 47 54 48 55
REMARK SMILES IDX 62 57 83 58 50 59 34 60 35 61 43 62 36 63 38 64 44 65 37 66
REMARK SMILES IDX 39 67 40 68 41 69 42 70 66 71 67 72 75 73 68 74 70 75 76 76
REMARK SMILES IDX 69 77 71 78 72 79 73 80 74 81 51 82 52 83 60 84 53 85 55 86
REMARK SMILES IDX 61 87 54 88 56 89 57 90 58 91 59 92
REMARK H PARENT 17 5 22 26 81 45 49 56
REMARK Flexibility Score: inf
ROOT
ATOM      1  C   UNL A   1      30.649  27.122  25.271  1.00  0.00     0.116 C 
ENDROOT
BRANCH   1   2
ATOM      2  N   UNL A   1      30.433  27.766  23.993  1.00  0.00    -0.356 N 
ATOM      3  C   UNL A   1      30.697  27.378  22.721  1.00  0.00     0.224 C 
ATOM      4  O   UNL A   1      30.375  28.164  21.823  1.00  0.00    -0.275 OA
ATOM      5  H   UNL A   1      30.015  28.655  24.061  1.00  0.00     0.163 HD
BRANCH   3   6
ATOM      6  C   UNL A   1      31.392  26.065  22.346  1.00  0.00     0.093 C 
ATOM      7  N   UNL A   1      32.421  24.291  23.928  1.00  0.00    -0.201 NA
ATOM      8  C   UNL A   1      33.651  25.139  24.033  1.00  0.00     0.102 C 
ATOM      9  C   UNL A   1      31.184  24.932  23.333  1.00  0.00     0.115 C 
ATOM     10  C   UNL A   1      33.834  26.211  22.961  1.00  0.00     0.018 C 
ATOM     11  C   UNL A   1      32.813  26.237  21.851  1.00  0.00     0.016 C 
BRANCH   7  12
ATOM     12  S   UNL A   1      31.989  23.420  25.365  1.00  0.00     0.216 S 
ATOM     13  O   UNL A   1      30.585  23.078  25.259  1.00  0.00    -0.212 OA
ATOM     14  O   UNL A   1      32.452  24.223  26.481  1.00  0.00    -0.212 OA
BRANCH  12  15
ATOM     15  C   UNL A   1      32.900  21.875  25.381  1.00  0.00     0.182 C 
BRANCH  15  16
ATOM     16  C   UNL A   1      32.299  20.767  24.522  1.00  0.00     0.178 C 
BRANCH  16  17
ATOM     17  O   UNL A   1      32.150  19.486  25.143  1.00  0.00    -0.378 OA
BRANCH  17  18
ATOM     18  C   UNL A   1      32.817  18.352  24.588  1.00  0.00     0.112 C 
ATOM     19  C   UNL A   1      32.720  17.069  25.406  1.00  0.00     0.038 C 
ATOM     20  C   UNL A   1      32.439  18.211  23.124  1.00  0.00     0.038 C 
ENDBRANCH  17  18
ENDBRANCH  16  17
ENDBRANCH  15  16
ENDBRANCH  12  15
ENDBRANCH   7  12
ENDBRANCH   3   6
ENDBRANCH   1   2
BRANCH   1  21
ATOM     21  C   UNL A   1      31.393  28.032  26.247  1.00  0.00     0.023 C 
BRANCH  21  22
ATOM     22  C   UNL A   1      32.872  28.184  25.937  1.00  0.00     0.023 C 
BRANCH  22  23
ATOM     23  C   UNL A   1      33.259  29.560  25.419  1.00  0.00     0.116 C 
BRANCH  23  24
ATOM     24  N   UNL A   1      32.735  30.672  26.207  1.00  0.00    -0.352 N 
ATOM     25  C   UNL A   1      33.373  31.301  27.258  1.00  0.00     0.251 C 
ATOM     26  H   UNL A   1      31.841  31.004  25.968  1.00  0.00     0.163 HD
ATOM     27  O   UNL A   1      32.830  32.186  27.909  1.00  0.00    -0.269 OA
BRANCH  25  28
ATOM     28  C   UNL A   1      34.730  30.828  27.593  1.00  0.00     0.039 A 
ATOM     29  C   UNL A   1      35.750  31.763  27.773  1.00  0.00     0.014 A 
ATOM     30  C   UNL A   1      34.904  29.488  27.953  1.00  0.00     0.014 A 
ATOM     31  C   UNL A   1      36.931  31.363  28.401  1.00  0.00     0.010 A 
ATOM     32  C   UNL A   1      36.032  29.127  28.673  1.00  0.00     0.010 A 
ATOM     33  C   UNL A   1      37.061  30.056  28.902  1.00  0.00    -0.014 A 
BRANCH  33  34
ATOM     34  C   UNL A   1      38.261  29.631  29.666  1.00  0.00     0.031 A 
ATOM     35  C   UNL A   1      38.463  30.137  31.070  1.00  0.00     0.074 A 
ATOM     36  C   UNL A   1      39.213  28.881  29.075  1.00  0.00     0.049 A 
ATOM     37  N   UNL A   1      39.466  29.935  31.883  1.00  0.00    -0.248 NA
ATOM     38  C   UNL A   1      37.421  31.026  31.615  1.00  0.00     0.031 C 
ATOM     39  C   UNL A   1      39.188  28.410  27.688  1.00  0.00     0.029 A 
ATOM     40  N   UNL A   1      40.403  28.398  29.563  1.00  0.00    -0.354 N 
ATOM     41  C   UNL A   1      39.204  30.713  33.004  1.00  0.00     0.074 A 
ATOM     42  C   UNL A   1      37.974  31.426  32.750  1.00  0.00     0.031 C 
ATOM     43  C   UNL A   1      40.293  27.685  27.447  1.00  0.00     0.029 A 
ATOM     44  C   UNL A   1      41.120  27.659  28.649  1.00  0.00     0.049 A 
ATOM     45  H   UNL A   1      40.714  28.565  30.482  1.00  0.00     0.167 HD
ATOM     46  C   UNL A   1      39.899  30.796  34.162  1.00  0.00     0.034 A 
ATOM     47  C   UNL A   1      42.302  27.023  28.774  1.00  0.00     0.034 A 
ATOM     48  C   UNL A   1      41.072  30.018  34.445  1.00  0.00     0.049 A 
ATOM     49  C   UNL A   1      43.015  27.064  30.101  1.00  0.00     0.074 A 
ATOM     50  C   UNL A   1      41.775  29.923  35.631  1.00  0.00     0.029 A 
ATOM     51  N   UNL A   1      41.715  29.201  33.528  1.00  0.00    -0.354 N 
ATOM     52  N   UNL A   1      42.652  27.654  31.214  1.00  0.00    -0.248 NA
ATOM     53  C   UNL A   1      44.280  26.322  30.198  1.00  0.00     0.031 C 
ATOM     54  C   UNL A   1      42.857  29.059  35.426  1.00  0.00     0.029 A 
ATOM     55  C   UNL A   1      42.814  28.603  34.118  1.00  0.00     0.049 A 
ATOM     56  H   UNL A   1      41.431  29.066  32.595  1.00  0.00     0.167 HD
ATOM     57  C   UNL A   1      43.621  27.323  32.154  1.00  0.00     0.074 A 
ATOM     58  C   UNL A   1      44.578  26.465  31.483  1.00  0.00     0.031 C 
ATOM     59  C   UNL A   1      43.721  27.704  33.451  1.00  0.00     0.034 A 
BRANCH  46  60
ATOM     60  C   UNL A   1      39.363  31.711  35.231  1.00  0.00     0.023 A 
ATOM     61  C   UNL A   1      38.386  31.237  36.131  1.00  0.00     0.012 A 
ATOM     62  C   UNL A   1      39.844  33.027  35.365  1.00  0.00     0.148 A 
ATOM     63  C   UNL A   1      37.863  32.070  37.116  1.00  0.00     0.002 A 
ATOM     64  C   UNL A   1      39.353  33.837  36.381  1.00  0.00     0.091 A 
ATOM     65  F   UNL A   1      40.754  33.470  34.485  1.00  0.00    -0.205 F 
ATOM     66  C   UNL A   1      38.353  33.366  37.249  1.00  0.00     0.022 A 
BRANCH  64  67
ATOM     67  S   UNL A   1      39.982  35.492  36.683  1.00  0.00     0.127 S 
ATOM     68  O   UNL A   1      41.424  35.255  36.729  1.00  0.00    -0.237 OA
ATOM     69  O   UNL A   1      39.521  36.219  35.499  1.00  0.00    -0.237 OA
ATOM     70  O   UNL A   1      39.376  35.927  37.933  1.00  0.00    -0.744 OA
ENDBRANCH  64  67
ENDBRANCH  46  60
BRANCH  47  71
ATOM     71  C   UNL A   1      42.835  26.205  27.646  1.00  0.00     0.023 A 
ATOM     72  C   UNL A   1      43.829  26.758  26.813  1.00  0.00     0.012 A 
ATOM     73  C   UNL A   1      42.393  24.890  27.406  1.00  0.00     0.148 A 
ATOM     74  C   UNL A   1      44.351  26.028  25.744  1.00  0.00     0.002 A 
ATOM     75  C   UNL A   1      42.954  24.150  26.370  1.00  0.00     0.091 A 
ATOM     76  F   UNL A   1      41.440  24.385  28.202  1.00  0.00    -0.205 F 
ATOM     77  C   UNL A   1      43.921  24.723  25.528  1.00  0.00     0.022 A 
BRANCH  75  78
ATOM     78  S   UNL A   1      42.554  22.421  26.091  1.00  0.00     0.127 S 
ATOM     79  O   UNL A   1      43.319  22.129  24.880  1.00  0.00    -0.237 OA
ATOM     80  O   UNL A   1      43.065  21.792  27.310  1.00  0.00    -0.237 OA
ATOM     81  O   UNL A   1      41.106  22.370  25.952  1.00  0.00    -0.744 OA
ENDBRANCH  75  78
ENDBRANCH  47  71
BRANCH  59  82
ATOM     82  C   UNL A   1      44.880  27.176  34.253  1.00  0.00     0.023 A 
ATOM     83  C   UNL A   1      46.093  27.888  34.279  1.00  0.00     0.012 A 
ATOM     84  C   UNL A   1      44.735  26.024  35.050  1.00  0.00     0.148 A 
ATOM     85  C   UNL A   1      47.155  27.449  35.069  1.00  0.00     0.002 A 
ATOM     86  C   UNL A   1      45.780  25.619  35.872  1.00  0.00     0.091 A 
ATOM     87  F   UNL A   1      43.577  25.348  34.996  1.00  0.00    -0.205 F 
ATOM     88  C   UNL A   1      46.994  26.324  35.874  1.00  0.00     0.022 A 
BRANCH  86  89
ATOM     89  S   UNL A   1      45.623  24.242  37.016  1.00  0.00     0.127 S 
ATOM     90  O   UNL A   1      44.983  23.230  36.179  1.00  0.00    -0.237 OA
ATOM     91  O   UNL A   1      47.018  23.959  37.357  1.00  0.00    -0.237 OA
ATOM     92  O   UNL A   1      44.821  24.737  38.127  1.00  0.00    -0.744 OA
ENDBRANCH  86  89
ENDBRANCH  59  82
ENDBRANCH  33  34
ENDBRANCH  25  28
ENDBRANCH  23  24
ENDBRANCH  22  23
ENDBRANCH  21  22
ENDBRANCH   1  21
TORSDOF 19
ENDMDL
MODEL 2
REMARK VINA RESULT:     -10.8      1.942      2.552
REMARK SMILES CC(C)OCCS(=O)(=O)N1CCC[C@H](C(=O)NCCCCNC(=O)c2ccc(-c3c4nc(c(-c5cccc(S(=O)(=O)[O-])c5F)c5ccc([nH]5)c(-c5cccc(S(=O)(=O)[O-])c5F)c5nc(c(-c6cccc(S(=O)(=O)[O-])c6F)c6ccc3[nH]6)C=C5)C=C4)cc2)C1
REMARK SMILES IDX 18 1 17 2 15 3 16 4 14 6 10 7 11 8 88 9 12 10 13 11 7 12
REMARK SMILES IDX 8 13 9 14 6 15 5 16 4 17 2 18 1 19 3 20 19 21 20 22 21 23
REMARK SMILES IDX 22 24 23 25 24 27 25 28 26 29 87 30 27 31 86 32 28 33 29 34
REMARK SMILES IDX 30 35 80 36 31 37 85 38 79 39 81 40 32 41 84 42 78 43 77 44
REMARK SMILES IDX 33 46 65 47 45 48 64 49 46 50 49 51 63 52 82 53 47 54 48 55
REMARK SMILES IDX 62 57 83 58 50 59 34 60 35 61 43 62 36 63 38 64 44 65 37 66
REMARK SMILES IDX 39 67 40 68 41 69 42 70 66 71 67 72 75 73 68 74 70 75 76 76
REMARK SMILES IDX 69 77 71 78 72 79 73 80 74 81 51 82 52 83 60 84 53 85 55 86
REMARK SMILES IDX 61 87 54 88 56 89 57 90 58 91 59 92
REMARK H PARENT 17 5 22 26 81 45 49 56
REMARK Flexibility Score: inf
ROOT
ATOM      1  C   UNL A   1      31.265  27.412  25.605  1.00  0.00     0.116 C 
ENDROOT
BRANCH   1   2
ATOM      2  N   UNL A   1      30.934  27.589  24.208  1.00  0.00    -0.356 N 
ATOM      3  C   UNL A   1      31.134  26.809  23.118  1.00  0.00     0.224 C 
ATOM      4  O   UNL A   1      30.715  27.244  22.039  1.00  0.00    -0.275 OA
ATOM      5  H   UNL A   1      30.476  28.439  24.012  1.00  0.00     0.163 HD
BRANCH   3   6
ATOM      6  C   UNL A   1      31.869  25.465  23.142  1.00  0.00     0.093 C 
ATOM      7  N   UNL A   1      32.367  23.950  25.183  1.00  0.00    -0.201 NA
ATOM      8  C   UNL A   1      33.543  24.820  25.506  1.00  0.00     0.102 C 
ATOM      9  C   UNL A   1      31.363  24.483  24.182  1.00  0.00     0.115 C 
ATOM     10  C   UNL A   1      34.047  25.729  24.387  1.00  0.00     0.018 C 
ATOM     11  C   UNL A   1      33.375  25.582  23.044  1.00  0.00     0.016 C 
BRANCH   7  12
ATOM     12  S   UNL A   1      31.528  23.290  26.551  1.00  0.00     0.216 S 
ATOM     13  O   UNL A   1      30.694  22.208  26.068  1.00  0.00    -0.212 OA
ATOM     14  O   UNL A   1      30.923  24.415  27.238  1.00  0.00    -0.212 OA
BRANCH  12  15
ATOM     15  C   UNL A   1      32.740  22.558  27.653  1.00  0.00     0.182 C 
BRANCH  15  16
ATOM     16  C   UNL A   1      33.814  21.723  26.962  1.00  0.00     0.178 C 
BRANCH  16  17
ATOM     17  O   UNL A   1      33.378  20.512  26.334  1.00  0.00    -0.378 OA
BRANCH  17  18
ATOM     18  C   UNL A   1      33.859  20.182  25.030  1.00  0.00     0.112 C 
ATOM     19  C   UNL A   1      32.961  20.609  23.874  1.00  0.00     0.038 C 
ATOM     20  C   UNL A   1      35.312  20.607  24.907  1.00  0.00     0.038 C 
ENDBRANCH  17  18
ENDBRANCH  16  17
ENDBRANCH  15  16
ENDBRANCH  12  15
ENDBRANCH   7  12
ENDBRANCH   3   6
ENDBRANCH   1   2
BRANCH   1  21
ATOM     21  C   UNL A   1      31.472  28.748  26.315  1.00  0.00     0.023 C 
BRANCH  21  22
ATOM     22  C   UNL A   1      32.760  28.823  27.118  1.00  0.00     0.023 C 
BRANCH  22  23
ATOM     23  C   UNL A   1      33.733  29.886  26.634  1.00  0.00     0.116 C 
BRANCH  23  24
ATOM     24  N   UNL A   1      33.734  31.111  27.428  1.00  0.00    -0.352 N 
ATOM     25  C   UNL A   1      34.696  31.493  28.341  1.00  0.00     0.251 C 
ATOM     26  H   UNL A   1      32.974  31.723  27.302  1.00  0.00     0.163 HD
ATOM     27  O   UNL A   1      34.584  32.510  29.015  1.00  0.00    -0.269 OA
BRANCH  25  28
ATOM     28  C   UNL A   1      35.854  30.593  28.503  1.00  0.00     0.039 A 
ATOM     29  C   UNL A   1      37.052  30.905  27.860  1.00  0.00     0.014 A 
ATOM     30  C   UNL A   1      35.795  29.591  29.476  1.00  0.00     0.014 A 
ATOM     31  C   UNL A   1      38.223  30.260  28.261  1.00  0.00     0.010 A 
ATOM     32  C   UNL A   1      36.977  29.036  29.943  1.00  0.00     0.010 A 
ATOM     33  C   UNL A   1      38.203  29.358  29.340  1.00  0.00    -0.014 A 
BRANCH  33  34
ATOM     34  C   UNL A   1      39.448  28.736  29.858  1.00  0.00     0.031 A 
ATOM     35  C   UNL A   1      40.091  29.289  31.102  1.00  0.00     0.074 A 
ATOM     36  C   UNL A   1      40.056  27.752  29.165  1.00  0.00     0.049 A 
ATOM     37  N   UNL A   1      41.205  28.931  31.684  1.00  0.00    -0.248 NA
ATOM     38  C   UNL A   1      39.415  30.425  31.754  1.00  0.00     0.031 C 
ATOM     39  C   UNL A   1      39.592  27.195  27.891  1.00  0.00     0.029 A 
ATOM     40  N   UNL A   1      41.210  27.054  29.425  1.00  0.00    -0.354 N 
ATOM     41  C   UNL A   1      41.391  29.830  32.727  1.00  0.00     0.074 A 
ATOM     42  C   UNL A   1      40.302  30.778  32.672  1.00  0.00     0.031 C 
ATOM     43  C   UNL A   1      40.435  26.226  27.498  1.00  0.00     0.029 A 
ATOM     44  C   UNL A   1      41.515  26.108  28.473  1.00  0.00     0.049 A 
ATOM     45  H   UNL A   1      41.768  27.217  30.220  1.00  0.00     0.167 HD
ATOM     46  C   UNL A   1      42.356  29.843  33.676  1.00  0.00     0.034 A 
ATOM     47  C   UNL A   1      42.541  25.236  28.404  1.00  0.00     0.034 A 
ATOM     48  C   UNL A   1      43.386  28.848  33.779  1.00  0.00     0.049 A 
ATOM     49  C   UNL A   1      43.557  25.218  29.517  1.00  0.00     0.074 A 
ATOM     50  C   UNL A   1      44.330  28.688  34.775  1.00  0.00     0.029 A 
ATOM     51  N   UNL A   1      43.604  27.842  32.851  1.00  0.00    -0.354 N 
ATOM     52  N   UNL A   1      43.609  25.955  30.599  1.00  0.00    -0.248 NA
ATOM     53  C   UNL A   1      44.634  24.223  29.416  1.00  0.00     0.031 C 
ATOM     54  C   UNL A   1      45.134  27.593  34.440  1.00  0.00     0.029 A 
ATOM     55  C   UNL A   1      44.676  27.061  33.245  1.00  0.00     0.049 A 
ATOM     56  H   UNL A   1      43.075  27.703  32.032  1.00  0.00     0.167 HD
ATOM     57  C   UNL A   1      44.697  25.489  31.328  1.00  0.00     0.074 A 
ATOM     58  C   UNL A   1      45.267  24.392  30.570  1.00  0.00     0.031 C 
ATOM     59  C   UNL A   1      45.191  25.935  32.509  1.00  0.00     0.034 A 
BRANCH  46  60
ATOM     60  C   UNL A   1      42.296  30.932  34.713  1.00  0.00     0.023 A 
ATOM     61  C   UNL A   1      41.592  30.712  35.916  1.00  0.00     0.012 A 
ATOM     62  C   UNL A   1      42.957  32.159  34.514  1.00  0.00     0.148 A 
ATOM     63  C   UNL A   1      41.508  31.711  36.883  1.00  0.00     0.002 A 
ATOM     64  C   UNL A   1      42.910  33.133  35.505  1.00  0.00     0.091 A 
ATOM     65  F   UNL A   1      43.599  32.361  33.355  1.00  0.00    -0.205 F 
ATOM     66  C   UNL A   1      42.176  32.916  36.683  1.00  0.00     0.022 A 
BRANCH  64  67
ATOM     67  S   UNL A   1      43.805  34.684  35.374  1.00  0.00     0.127 S 
ATOM     68  O   UNL A   1      43.129  35.320  34.245  1.00  0.00    -0.237 OA
ATOM     69  O   UNL A   1      43.538  35.305  36.673  1.00  0.00    -0.237 OA
ATOM     70  O   UNL A   1      45.198  34.323  35.152  1.00  0.00    -0.744 OA
ENDBRANCH  64  67
ENDBRANCH  46  60
BRANCH  47  71
ATOM     71  C   UNL A   1      42.603  24.238  27.298  1.00  0.00     0.023 A 
ATOM     72  C   UNL A   1      43.299  24.570  26.117  1.00  0.00     0.012 A 
ATOM     73  C   UNL A   1      42.008  22.967  27.407  1.00  0.00     0.148 A 
ATOM     74  C   UNL A   1      43.378  23.667  25.057  1.00  0.00     0.002 A 
ATOM     75  C   UNL A   1      42.133  22.053  26.366  1.00  0.00     0.091 A 
ATOM     76  F   UNL A   1      41.341  22.673  28.533  1.00  0.00    -0.205 F 
ATOM     77  C   UNL A   1      42.803  22.406  25.184  1.00  0.00     0.022 A 
BRANCH  75  78
ATOM     78  S   UNL A   1      41.533  20.363  26.487  1.00  0.00     0.127 S 
ATOM     79  O   UNL A   1      40.097  20.540  26.285  1.00  0.00    -0.237 OA
ATOM     80  O   UNL A   1      42.236  19.714  25.379  1.00  0.00    -0.237 OA
ATOM     81  O   UNL A   1      41.935  19.897  27.807  1.00  0.00    -0.744 OA
ENDBRANCH  75  78
ENDBRANCH  47  71
BRANCH  59  82
ATOM     82  C   UNL A   1      46.386  25.224  33.084  1.00  0.00     0.023 A 
ATOM     83  C   UNL A   1      47.678  25.735  32.859  1.00  0.00     0.012 A 
ATOM     84  C   UNL A   1      46.219  24.105  33.923  1.00  0.00     0.148 A 
ATOM     85  C   UNL A   1      48.791  25.127  33.440  1.00  0.00     0.002 A 
ATOM     86  C   UNL A   1      47.327  23.534  34.537  1.00  0.00     0.091 A 
ATOM     87  F   UNL A   1      44.981  23.623  34.110  1.00  0.00    -0.205 F 
ATOM     88  C   UNL A   1      48.614  24.037  34.288  1.00  0.00     0.022 A 
BRANCH  86  89
ATOM     89  S   UNL A   1      47.182  22.193  35.724  1.00  0.00     0.127 S 
ATOM     90  O   UNL A   1      46.108  22.675  36.589  1.00  0.00    -0.237 OA
ATOM     91  O   UNL A   1      46.817  21.061  34.872  1.00  0.00    -0.237 OA
ATOM     92  O   UNL A   1      48.490  22.074  36.354  1.00  0.00    -0.744 OA
ENDBRANCH  86  89
ENDBRANCH  59  82
ENDBRANCH  33  34
ENDBRANCH  25  28
ENDBRANCH  23  24
ENDBRANCH  22  23
ENDBRANCH  21  22
ENDBRANCH   1  21
TORSDOF 19
ENDMDL
MODEL 3
REMARK VINA RESULT:     -10.7      2.304      8.065
REMARK SMILES CC(C)OCCS(=O)(=O)N1CCC[C@H](C(=O)NCCCCNC(=O)c2ccc(-c3c4nc(c(-c5cccc(S(=O)(=O)[O-])c5F)c5ccc([nH]5)c(-c5cccc(S(=O)(=O)[O-])c5F)c5nc(c(-c6cccc(S(=O)(=O)[O-])c6F)c6ccc3[nH]6)C=C5)C=C4)cc2)C1
REMARK SMILES IDX 18 1 17 2 15 3 16 4 14 6 10 7 11 8 88 9 12 10 13 11 7 12
REMARK SMILES IDX 8 13 9 14 6 15 5 16 4 17 2 18 1 19 3 20 19 21 20 22 21 23
REMARK SMILES IDX 22 24 23 25 24 27 25 28 26 29 87 30 27 31 86 32 28 33 29 34
REMARK SMILES IDX 30 35 80 36 31 37 85 38 79 39 81 40 32 41 84 42 78 43 77 44
REMARK SMILES IDX 33 46 65 47 45 48 64 49 46 50 49 51 63 52 82 53 47 54 48 55
REMARK SMILES IDX 62 57 83 58 50 59 34 60 35 61 43 62 36 63 38 64 44 65 37 66
REMARK SMILES IDX 39 67 40 68 41 69 42 70 66 71 67 72 75 73 68 74 70 75 76 76
REMARK SMILES IDX 69 77 71 78 72 79 73 80 74 81 51 82 52 83 60 84 53 85 55 86
REMARK SMILES IDX 61 87 54 88 56 89 57 90 58 91 59 92
REMARK H PARENT 17 5 22 26 81 45 49 56
REMARK Flexibility Score: inf
ROOT
ATOM      1  C   UNL A   1      32.208  27.252  25.833  1.00  0.00     0.116 C 
ENDROOT
BRANCH   1   2
ATOM      2  N   UNL A   1      31.136  26.476  26.419  1.00  0.00    -0.356 N 
ATOM      3  C   UNL A   1      30.124  25.760  25.870  1.00  0.00     0.224 C 
ATOM      4  O   UNL A   1      29.360  25.187  26.655  1.00  0.00    -0.275 OA
ATOM      5  H   UNL A   1      31.143  26.468  27.404  1.00  0.00     0.163 HD
BRANCH   3   6
ATOM      6  C   UNL A   1      29.858  25.657  24.365  1.00  0.00     0.093 C 
ATOM      7  N   UNL A   1      31.477  26.183  22.413  1.00  0.00    -0.201 NA
ATOM      8  C   UNL A   1      31.148  27.636  22.570  1.00  0.00     0.102 C 
ATOM      9  C   UNL A   1      31.060  25.252  23.533  1.00  0.00     0.115 C 
ATOM     10  C   UNL A   1      29.881  27.968  23.354  1.00  0.00     0.018 C 
ATOM     11  C   UNL A   1      29.039  26.800  23.802  1.00  0.00     0.016 C 
BRANCH   7  12
ATOM     12  S   UNL A   1      33.111  25.834  21.947  1.00  0.00     0.216 S 
ATOM     13  O   UNL A   1      33.808  27.099  21.830  1.00  0.00    -0.212 OA
ATOM     14  O   UNL A   1      33.026  24.949  20.801  1.00  0.00    -0.212 OA
BRANCH  12  15
ATOM     15  C   UNL A   1      33.896  24.932  23.284  1.00  0.00     0.182 C 
BRANCH  15  16
ATOM     16  C   UNL A   1      34.465  23.572  22.894  1.00  0.00     0.178 C 
BRANCH  16  17
ATOM     17  O   UNL A   1      34.473  22.564  23.910  1.00  0.00    -0.378 OA
BRANCH  17  18
ATOM     18  C   UNL A   1      35.575  22.485  24.816  1.00  0.00     0.112 C 
ATOM     19  C   UNL A   1      35.326  21.667  26.078  1.00  0.00     0.038 C 
ATOM     20  C   UNL A   1      36.832  22.116  24.048  1.00  0.00     0.038 C 
ENDBRANCH  17  18
ENDBRANCH  16  17
ENDBRANCH  15  16
ENDBRANCH  12  15
ENDBRANCH   7  12
ENDBRANCH   3   6
ENDBRANCH   1   2
BRANCH   1  21
ATOM     21  C   UNL A   1      32.813  28.234  26.835  1.00  0.00     0.023 C 
BRANCH  21  22
ATOM     22  C   UNL A   1      32.221  29.630  26.758  1.00  0.00     0.023 C 
BRANCH  22  23
ATOM     23  C   UNL A   1      33.148  30.726  27.258  1.00  0.00     0.116 C 
BRANCH  23  24
ATOM     24  N   UNL A   1      32.622  32.079  27.105  1.00  0.00    -0.352 N 
ATOM     25  C   UNL A   1      33.112  33.221  27.707  1.00  0.00     0.251 C 
ATOM     26  H   UNL A   1      31.841  32.189  26.516  1.00  0.00     0.163 HD
ATOM     27  O   UNL A   1      32.566  34.310  27.574  1.00  0.00    -0.269 OA
BRANCH  25  28
ATOM     28  C   UNL A   1      34.306  33.063  28.560  1.00  0.00     0.039 A 
ATOM     29  C   UNL A   1      34.142  32.683  29.893  1.00  0.00     0.014 A 
ATOM     30  C   UNL A   1      35.567  33.065  27.957  1.00  0.00     0.014 A 
ATOM     31  C   UNL A   1      35.250  32.218  30.604  1.00  0.00     0.010 A 
ATOM     32  C   UNL A   1      36.637  32.499  28.634  1.00  0.00     0.010 A 
ATOM     33  C   UNL A   1      36.494  32.074  29.965  1.00  0.00    -0.014 A 
BRANCH  33  34
ATOM     34  C   UNL A   1      37.664  31.483  30.663  1.00  0.00     0.031 A 
ATOM     35  C   UNL A   1      38.511  30.459  29.956  1.00  0.00     0.074 A 
ATOM     36  C   UNL A   1      37.907  31.783  31.956  1.00  0.00     0.049 A 
ATOM     37  N   UNL A   1      39.535  29.783  30.405  1.00  0.00    -0.248 NA
ATOM     38  C   UNL A   1      38.128  30.116  28.574  1.00  0.00     0.031 C 
ATOM     39  C   UNL A   1      37.102  32.682  32.788  1.00  0.00     0.029 A 
ATOM     40  N   UNL A   1      38.894  31.348  32.806  1.00  0.00    -0.354 N 
ATOM     41  C   UNL A   1      39.878  28.900  29.389  1.00  0.00     0.074 A 
ATOM     42  C   UNL A   1      38.927  29.092  28.318  1.00  0.00     0.031 C 
ATOM     43  C   UNL A   1      37.643  32.752  34.015  1.00  0.00     0.029 A 
ATOM     44  C   UNL A   1      38.817  31.886  34.071  1.00  0.00     0.049 A 
ATOM     45  H   UNL A   1      39.593  30.710  32.534  1.00  0.00     0.167 HD
ATOM     46  C   UNL A   1      40.918  28.036  29.329  1.00  0.00     0.034 A 
ATOM     47  C   UNL A   1      39.609  31.709  35.146  1.00  0.00     0.034 A 
ATOM     48  C   UNL A   1      41.911  27.911  30.358  1.00  0.00     0.049 A 
ATOM     49  C   UNL A   1      40.808  30.803  35.026  1.00  0.00     0.074 A 
ATOM     50  C   UNL A   1      43.077  27.169  30.342  1.00  0.00     0.029 A 
ATOM     51  N   UNL A   1      41.855  28.549  31.587  1.00  0.00    -0.354 N 
ATOM     52  N   UNL A   1      41.225  30.119  33.988  1.00  0.00    -0.248 NA
ATOM     53  C   UNL A   1      41.664  30.674  36.214  1.00  0.00     0.031 C 
ATOM     54  C   UNL A   1      43.718  27.343  31.573  1.00  0.00     0.029 A 
ATOM     55  C   UNL A   1      42.961  28.209  32.346  1.00  0.00     0.049 A 
ATOM     56  H   UNL A   1      41.135  29.153  31.878  1.00  0.00     0.167 HD
ATOM     57  C   UNL A   1      42.411  29.511  34.383  1.00  0.00     0.074 A 
ATOM     58  C   UNL A   1      42.656  29.923  35.751  1.00  0.00     0.031 C 
ATOM     59  C   UNL A   1      43.218  28.676  33.683  1.00  0.00     0.034 A 
BRANCH  46  60
ATOM     60  C   UNL A   1      41.065  27.211  28.078  1.00  0.00     0.023 A 
ATOM     61  C   UNL A   1      41.634  27.788  26.923  1.00  0.00     0.012 A 
ATOM     62  C   UNL A   1      40.669  25.860  28.051  1.00  0.00     0.148 A 
ATOM     63  C   UNL A   1      41.764  27.050  25.749  1.00  0.00     0.002 A 
ATOM     64  C   UNL A   1      40.847  25.115  26.891  1.00  0.00     0.091 A 
ATOM     65  F   UNL A   1      40.107  25.334  29.148  1.00  0.00    -0.205 F 
ATOM     66  C   UNL A   1      41.381  25.711  25.736  1.00  0.00     0.022 A 
BRANCH  64  67
ATOM     67  S   UNL A   1      40.462  23.364  26.802  1.00  0.00     0.127 S 
ATOM     68  O   UNL A   1      39.018  23.391  26.575  1.00  0.00    -0.237 OA
ATOM     69  O   UNL A   1      41.252  22.932  25.647  1.00  0.00    -0.237 OA
ATOM     70  O   UNL A   1      40.890  22.796  28.072  1.00  0.00    -0.744 OA
ENDBRANCH  64  67
ENDBRANCH  46  60
BRANCH  47  71
ATOM     71  C   UNL A   1      39.361  32.483  36.396  1.00  0.00     0.023 A 
ATOM     72  C   UNL A   1      40.049  33.698  36.594  1.00  0.00     0.012 A 
ATOM     73  C   UNL A   1      38.442  32.050  37.371  1.00  0.00     0.148 A 
ATOM     74  C   UNL A   1      39.849  34.451  37.751  1.00  0.00     0.002 A 
ATOM     75  C   UNL A   1      38.211  32.831  38.498  1.00  0.00     0.091 A 
ATOM     76  F   UNL A   1      37.805  30.887  37.170  1.00  0.00    -0.205 F 
ATOM     77  C   UNL A   1      38.925  34.023  38.699  1.00  0.00     0.022 A 
BRANCH  75  78
ATOM     78  S   UNL A   1      36.950  32.425  39.713  1.00  0.00     0.127 S 
ATOM     79  O   UNL A   1      37.409  31.125  40.198  1.00  0.00    -0.237 OA
ATOM     80  O   UNL A   1      37.087  33.524  40.669  1.00  0.00    -0.237 OA
ATOM     81  O   UNL A   1      35.690  32.419  38.983  1.00  0.00    -0.744 OA
ENDBRANCH  75  78
ENDBRANCH  47  71
BRANCH  59  82
ATOM     82  C   UNL A   1      44.465  28.173  34.361  1.00  0.00     0.023 A 
ATOM     83  C   UNL A   1      45.653  28.922  34.283  1.00  0.00     0.012 A 
ATOM     84  C   UNL A   1      44.430  27.006  35.151  1.00  0.00     0.148 A 
ATOM     85  C   UNL A   1      46.799  28.504  34.961  1.00  0.00     0.002 A 
ATOM     86  C   UNL A   1      45.561  26.623  35.862  1.00  0.00     0.091 A 
ATOM     87  F   UNL A   1      43.292  26.297  35.197  1.00  0.00    -0.205 F 
ATOM     88  C   UNL A   1      46.748  27.365  35.759  1.00  0.00     0.022 A 
BRANCH  86  89
ATOM     89  S   UNL A   1      45.555  25.227  36.993  1.00  0.00     0.127 S 
ATOM     90  O   UNL A   1      46.927  25.246  37.497  1.00  0.00    -0.237 OA
ATOM     91  O   UNL A   1      44.540  25.622  37.971  1.00  0.00    -0.237 OA
ATOM     92  O   UNL A   1      45.197  24.065  36.191  1.00  0.00    -0.744 OA
ENDBRANCH  86  89
ENDBRANCH  59  82
ENDBRANCH  33  34
ENDBRANCH  25  28
ENDBRANCH  23  24
ENDBRANCH  22  23
ENDBRANCH  21  22
ENDBRANCH   1  21
TORSDOF 19
ENDMDL
