MODEL 1
REMARK VINA RESULT:     -10.5      0.000      0.000
REMARK SMILES CCSCC[C@@H]1CCC[C@@]1([NH3+])C(=O)NCCCCNC(=O)c1ccc(-c2c3nc(c(-c4cccc(S(=O)(=O)[O-])c4F)c4ccc([nH]4)c(-c4cccc(S(=O)(=O)[O-])c4F)c4nc(c(-c5cccc(S(=O)(=O)[O-])c5F)c5ccc2[nH]5)C=C4)C=C3)cc1
REMARK SMILES IDX 16 1 15 2 14 3 12 4 13 5 10 7 6 8 7 9 8 10 9 11 5 12 4 13
REMARK SMILES IDX 3 14 2 15 1 16 11 17 17 21 18 22 19 23 20 24 21 26 22 27
REMARK SMILES IDX 23 28 84 29 24 30 83 31 25 32 26 33 27 34 77 35 28 36 82 37
REMARK SMILES IDX 76 38 78 39 29 40 81 41 75 42 74 43 30 45 62 46 42 47 61 48
REMARK SMILES IDX 43 49 46 50 60 51 79 52 44 53 45 54 59 56 80 57 47 58 31 59
REMARK SMILES IDX 32 60 40 61 33 62 35 63 41 64 34 65 36 66 37 67 38 68 39 69
REMARK SMILES IDX 63 70 64 71 72 72 65 73 67 74 73 75 66 76 68 77 69 78 70 79
REMARK SMILES IDX 71 80 48 81 49 82 57 83 50 84 52 85 58 86 51 87 53 88 54 89
REMARK SMILES IDX 55 90 56 91
REMARK H PARENT 14 6 11 18 11 19 11 20 19 25 78 44 46 55
REMARK Flexibility Score: inf
ROOT
ATOM      1  C   UNL A   1      31.087  30.715  25.477  1.00  0.00     0.023 C 
ENDROOT
BRANCH   1   2
ATOM      2  C   UNL A   1      32.216  29.710  25.668  1.00  0.00     0.116 C 
BRANCH   2   3
ATOM      3  N   UNL A   1      33.039  29.671  24.473  1.00  0.00    -0.351 N 
ATOM      4  C   UNL A   1      33.427  28.714  23.595  1.00  0.00     0.281 C 
ATOM      5  O   UNL A   1      34.330  29.061  22.823  1.00  0.00    -0.268 OA
ATOM      6  H   UNL A   1      33.403  30.557  24.244  1.00  0.00     0.163 HD
BRANCH   4   7
ATOM      7  C   UNL A   1      32.761  27.321  23.445  1.00  0.00     0.176 C 
ATOM      8  C   UNL A   1      31.468  27.339  22.580  1.00  0.00     0.061 C 
ATOM      9  C   UNL A   1      31.326  25.862  22.142  1.00  0.00     0.011 C 
ATOM     10  C   UNL A   1      32.750  25.313  22.049  1.00  0.00     0.008 C 
ATOM     11  C   UNL A   1      33.654  26.446  22.526  1.00  0.00     0.079 C 
BRANCH   8  12
ATOM     12  C   UNL A   1      30.139  27.862  23.148  1.00  0.00     0.021 C 
BRANCH  12  13
ATOM     13  C   UNL A   1      29.550  29.176  22.622  1.00  0.00     0.070 C 
BRANCH  13  14
ATOM     14  S   UNL A   1      27.757  29.514  22.749  1.00  0.00    -0.162 SA
BRANCH  14  15
ATOM     15  C   UNL A   1      27.627  31.167  23.504  1.00  0.00     0.066 C 
ATOM     16  C   UNL A   1      28.427  32.262  22.817  1.00  0.00     0.015 C 
ENDBRANCH  14  15
ENDBRANCH  13  14
ENDBRANCH  12  13
ENDBRANCH   8  12
BRANCH   7  17
ATOM     17  N   UNL A   1      32.620  26.568  24.704  1.00  0.00    -0.345 N 
ATOM     18  H   UNL A   1      31.934  27.029  25.300  1.00  0.00     0.345 HD
ATOM     19  H   UNL A   1      33.521  26.534  25.182  1.00  0.00     0.345 HD
ATOM     20  H   UNL A   1      32.309  25.618  24.498  1.00  0.00     0.345 HD
ENDBRANCH   7  17
ENDBRANCH   4   7
ENDBRANCH   2   3
ENDBRANCH   1   2
BRANCH   1  21
ATOM     21  C   UNL A   1      31.115  31.861  26.494  1.00  0.00     0.023 C 
BRANCH  21  22
ATOM     22  C   UNL A   1      32.450  32.596  26.608  1.00  0.00     0.116 C 
BRANCH  22  23
ATOM     23  N   UNL A   1      32.320  33.894  27.255  1.00  0.00    -0.352 N 
ATOM     24  C   UNL A   1      33.028  34.414  28.313  1.00  0.00     0.251 C 
ATOM     25  H   UNL A   1      31.626  34.484  26.881  1.00  0.00     0.163 HD
ATOM     26  O   UNL A   1      32.665  35.456  28.839  1.00  0.00    -0.269 OA
BRANCH  24  27
ATOM     27  C   UNL A   1      34.214  33.691  28.814  1.00  0.00     0.039 A 
ATOM     28  C   UNL A   1      35.477  34.257  28.629  1.00  0.00     0.014 A 
ATOM     29  C   UNL A   1      34.074  32.471  29.481  1.00  0.00     0.014 A 
ATOM     30  C   UNL A   1      36.599  33.627  29.170  1.00  0.00     0.010 A 
ATOM     31  C   UNL A   1      35.183  31.885  30.084  1.00  0.00     0.010 A 
ATOM     32  C   UNL A   1      36.457  32.455  29.932  1.00  0.00    -0.014 A 
BRANCH  32  33
ATOM     33  C   UNL A   1      37.627  31.825  30.597  1.00  0.00     0.031 A 
ATOM     34  C   UNL A   1      38.426  30.768  29.884  1.00  0.00     0.074 A 
ATOM     35  C   UNL A   1      37.911  32.141  31.876  1.00  0.00     0.049 A 
ATOM     36  N   UNL A   1      39.441  30.071  30.324  1.00  0.00    -0.248 NA
ATOM     37  C   UNL A   1      38.018  30.428  28.510  1.00  0.00     0.031 C 
ATOM     38  C   UNL A   1      37.156  33.086  32.703  1.00  0.00     0.029 A 
ATOM     39  N   UNL A   1      38.892  31.677  32.718  1.00  0.00    -0.354 N 
ATOM     40  C   UNL A   1      39.763  29.182  29.306  1.00  0.00     0.074 A 
ATOM     41  C   UNL A   1      38.826  29.415  28.229  1.00  0.00     0.031 C 
ATOM     42  C   UNL A   1      37.694  33.125  33.933  1.00  0.00     0.029 A 
ATOM     43  C   UNL A   1      38.810  32.187  33.994  1.00  0.00     0.049 A 
ATOM     44  H   UNL A   1      39.587  31.040  32.437  1.00  0.00     0.167 HD
ATOM     45  C   UNL A   1      40.761  28.269  29.263  1.00  0.00     0.034 A 
ATOM     46  C   UNL A   1      39.537  31.915  35.096  1.00  0.00     0.034 A 
ATOM     47  C   UNL A   1      41.722  28.076  30.314  1.00  0.00     0.049 A 
ATOM     48  C   UNL A   1      40.675  30.933  34.998  1.00  0.00     0.074 A 
ATOM     49  C   UNL A   1      42.841  27.262  30.314  1.00  0.00     0.029 A 
ATOM     50  N   UNL A   1      41.670  28.685  31.557  1.00  0.00    -0.354 N 
ATOM     51  N   UNL A   1      41.080  30.243  33.960  1.00  0.00    -0.248 NA
ATOM     52  C   UNL A   1      41.480  30.722  36.209  1.00  0.00     0.031 C 
ATOM     53  C   UNL A   1      43.442  27.346  31.572  1.00  0.00     0.029 A 
ATOM     54  C   UNL A   1      42.723  28.247  32.341  1.00  0.00     0.049 A 
ATOM     55  H   UNL A   1      40.985  29.332  31.842  1.00  0.00     0.167 HD
ATOM     56  C   UNL A   1      42.206  29.545  34.383  1.00  0.00     0.074 A 
ATOM     57  C   UNL A   1      42.433  29.916  35.764  1.00  0.00     0.031 C 
ATOM     58  C   UNL A   1      42.974  28.665  33.695  1.00  0.00     0.034 A 
BRANCH  45  59
ATOM     59  C   UNL A   1      40.901  27.423  28.026  1.00  0.00     0.023 A 
ATOM     60  C   UNL A   1      41.529  27.951  26.880  1.00  0.00     0.012 A 
ATOM     61  C   UNL A   1      40.507  26.070  28.039  1.00  0.00     0.148 A 
ATOM     62  C   UNL A   1      41.742  27.152  25.758  1.00  0.00     0.002 A 
ATOM     63  C   UNL A   1      40.766  25.268  26.935  1.00  0.00     0.091 A 
ATOM     64  F   UNL A   1      39.895  25.594  29.133  1.00  0.00    -0.205 F 
ATOM     65  C   UNL A   1      41.375  25.809  25.791  1.00  0.00     0.022 A 
BRANCH  63  66
ATOM     66  S   UNL A   1      40.412  23.507  26.910  1.00  0.00     0.127 S 
ATOM     67  O   UNL A   1      38.991  23.497  26.562  1.00  0.00    -0.237 OA
ATOM     68  O   UNL A   1      41.303  23.033  25.850  1.00  0.00    -0.237 OA
ATOM     69  O   UNL A   1      40.728  23.012  28.242  1.00  0.00    -0.744 OA
ENDBRANCH  63  66
ENDBRANCH  45  59
BRANCH  46  70
ATOM     70  C   UNL A   1      39.234  32.598  36.386  1.00  0.00     0.023 A 
ATOM     71  C   UNL A   1      39.864  33.819  36.696  1.00  0.00     0.012 A 
ATOM     72  C   UNL A   1      38.330  32.040  37.309  1.00  0.00     0.148 A 
ATOM     73  C   UNL A   1      39.637  34.446  37.922  1.00  0.00     0.002 A 
ATOM     74  C   UNL A   1      38.060  32.701  38.502  1.00  0.00     0.091 A 
ATOM     75  F   UNL A   1      37.748  30.872  37.003  1.00  0.00    -0.205 F 
ATOM     76  C   UNL A   1      38.729  33.893  38.821  1.00  0.00     0.022 A 
BRANCH  74  77
ATOM     77  S   UNL A   1      36.804  32.128  39.651  1.00  0.00     0.127 S 
ATOM     78  O   UNL A   1      35.583  32.300  38.870  1.00  0.00    -0.237 OA
ATOM     79  O   UNL A   1      37.207  30.740  39.872  1.00  0.00    -0.237 OA
ATOM     80  O   UNL A   1      36.933  32.981  40.826  1.00  0.00    -0.744 OA
ENDBRANCH  74  77
ENDBRANCH  46  70
BRANCH  58  81
ATOM     81  C   UNL A   1      44.167  28.073  34.399  1.00  0.00     0.023 A 
ATOM     82  C   UNL A   1      45.396  28.761  34.404  1.00  0.00     0.012 A 
ATOM     83  C   UNL A   1      44.042  26.870  35.122  1.00  0.00     0.148 A 
ATOM     84  C   UNL A   1      46.494  28.240  35.088  1.00  0.00     0.002 A 
ATOM     85  C   UNL A   1      45.124  26.386  35.846  1.00  0.00     0.091 A 
ATOM     86  F   UNL A   1      42.868  26.224  35.090  1.00  0.00    -0.205 F 
ATOM     87  C   UNL A   1      46.355  27.062  35.819  1.00  0.00     0.022 A 
BRANCH  85  88
ATOM     88  S   UNL A   1      45.008  24.934  36.895  1.00  0.00     0.127 S 
ATOM     89  O   UNL A   1      46.413  24.682  37.212  1.00  0.00    -0.237 OA
ATOM     90  O   UNL A   1      44.209  25.426  38.018  1.00  0.00    -0.237 OA
ATOM     91  O   UNL A   1      44.356  23.907  36.093  1.00  0.00    -0.744 OA
ENDBRANCH  85  88
ENDBRANCH  58  81
ENDBRANCH  32  33
ENDBRANCH  24  27
ENDBRANCH  22  23
ENDBRANCH  21  22
ENDBRANCH   1  21
TORSDOF 19
ENDMDL
MODEL 2
REMARK VINA RESULT:     -10.2      6.494     11.889
REMARK SMILES CCSCC[C@@H]1CCC[C@@]1([NH3+])C(=O)NCCCCNC(=O)c1ccc(-c2c3nc(c(-c4cccc(S(=O)(=O)[O-])c4F)c4ccc([nH]4)c(-c4cccc(S(=O)(=O)[O-])c4F)c4nc(c(-c5cccc(S(=O)(=O)[O-])c5F)c5ccc2[nH]5)C=C4)C=C3)cc1
REMARK SMILES IDX 16 1 15 2 14 3 12 4 13 5 10 7 6 8 7 9 8 10 9 11 5 12 4 13
REMARK SMILES IDX 3 14 2 15 1 16 11 17 17 21 18 22 19 23 20 24 21 26 22 27
REMARK SMILES IDX 23 28 84 29 24 30 83 31 25 32 26 33 27 34 77 35 28 36 82 37
REMARK SMILES IDX 76 38 78 39 29 40 81 41 75 42 74 43 30 45 62 46 42 47 61 48
REMARK SMILES IDX 43 49 46 50 60 51 79 52 44 53 45 54 59 56 80 57 47 58 31 59
REMARK SMILES IDX 32 60 40 61 33 62 35 63 41 64 34 65 36 66 37 67 38 68 39 69
REMARK SMILES IDX 63 70 64 71 72 72 65 73 67 74 73 75 66 76 68 77 69 78 70 79
REMARK SMILES IDX 71 80 48 81 49 82 57 83 50 84 52 85 58 86 51 87 53 88 54 89
REMARK SMILES IDX 55 90 56 91
REMARK H PARENT 14 6 11 18 11 19 11 20 19 25 78 44 46 55
REMARK Flexibility Score: inf
ROOT
ATOM      1  C   UNL A   1      36.817  21.014  24.540  1.00  0.00     0.023 C 
ENDROOT
BRANCH   1   2
ATOM      2  C   UNL A   1      36.820  22.218  25.474  1.00  0.00     0.116 C 
BRANCH   2   3
ATOM      3  N   UNL A   1      35.844  22.015  26.529  1.00  0.00    -0.351 N 
ATOM      4  C   UNL A   1      34.542  22.340  26.719  1.00  0.00     0.281 C 
ATOM      5  O   UNL A   1      34.134  22.171  27.876  1.00  0.00    -0.268 OA
ATOM      6  H   UNL A   1      36.220  21.519  27.292  1.00  0.00     0.163 HD
BRANCH   4   7
ATOM      7  C   UNL A   1      33.563  22.785  25.601  1.00  0.00     0.176 C 
ATOM      8  C   UNL A   1      32.491  21.714  25.249  1.00  0.00     0.061 C 
ATOM      9  C   UNL A   1      31.378  22.548  24.572  1.00  0.00     0.011 C 
ATOM     10  C   UNL A   1      31.435  23.931  25.223  1.00  0.00     0.008 C 
ATOM     11  C   UNL A   1      32.628  23.882  26.174  1.00  0.00     0.079 C 
BRANCH   8  12
ATOM     12  C   UNL A   1      32.844  20.489  24.390  1.00  0.00     0.021 C 
BRANCH  12  13
ATOM     13  C   UNL A   1      33.600  19.312  25.016  1.00  0.00     0.070 C 
BRANCH  13  14
ATOM     14  S   UNL A   1      32.724  17.772  25.471  1.00  0.00    -0.162 SA
BRANCH  14  15
ATOM     15  C   UNL A   1      33.007  16.624  24.084  1.00  0.00     0.066 C 
ATOM     16  C   UNL A   1      34.179  16.971  23.181  1.00  0.00     0.015 C 
ENDBRANCH  14  15
ENDBRANCH  13  14
ENDBRANCH  12  13
ENDBRANCH   8  12
BRANCH   7  17
ATOM     17  N   UNL A   1      34.210  23.384  24.421  1.00  0.00    -0.345 N 
ATOM     18  H   UNL A   1      33.629  24.143  24.064  1.00  0.00     0.345 HD
ATOM     19  H   UNL A   1      34.324  22.674  23.698  1.00  0.00     0.345 HD
ATOM     20  H   UNL A   1      35.124  23.751  24.684  1.00  0.00     0.345 HD
ENDBRANCH   7  17
ENDBRANCH   4   7
ENDBRANCH   2   3
ENDBRANCH   1   2
BRANCH   1  21
ATOM     21  C   UNL A   1      37.755  19.890  24.995  1.00  0.00     0.023 C 
BRANCH  21  22
ATOM     22  C   UNL A   1      38.959  20.343  25.820  1.00  0.00     0.116 C 
BRANCH  22  23
ATOM     23  N   UNL A   1      39.972  19.305  25.946  1.00  0.00    -0.352 N 
ATOM     24  C   UNL A   1      41.328  19.430  26.141  1.00  0.00     0.251 C 
ATOM     25  H   UNL A   1      39.639  18.381  25.884  1.00  0.00     0.163 HD
ATOM     26  O   UNL A   1      42.052  18.451  26.050  1.00  0.00    -0.269 OA
BRANCH  24  27
ATOM     27  C   UNL A   1      41.895  20.760  26.442  1.00  0.00     0.039 A 
ATOM     28  C   UNL A   1      42.128  21.648  25.390  1.00  0.00     0.014 A 
ATOM     29  C   UNL A   1      42.176  21.131  27.759  1.00  0.00     0.014 A 
ATOM     30  C   UNL A   1      42.586  22.937  25.667  1.00  0.00     0.010 A 
ATOM     31  C   UNL A   1      42.559  22.440  28.038  1.00  0.00     0.010 A 
ATOM     32  C   UNL A   1      42.771  23.355  26.996  1.00  0.00    -0.014 A 
BRANCH  32  33
ATOM     33  C   UNL A   1      43.164  24.752  27.313  1.00  0.00     0.031 A 
ATOM     34  C   UNL A   1      42.176  25.692  27.949  1.00  0.00     0.074 A 
ATOM     35  C   UNL A   1      44.380  25.199  26.942  1.00  0.00     0.049 A 
ATOM     36  N   UNL A   1      42.321  26.957  28.247  1.00  0.00    -0.248 NA
ATOM     37  C   UNL A   1      40.843  25.152  28.269  1.00  0.00     0.031 C 
ATOM     38  C   UNL A   1      45.394  24.409  26.238  1.00  0.00     0.029 A 
ATOM     39  N   UNL A   1      44.961  26.437  27.074  1.00  0.00    -0.354 N 
ATOM     40  C   UNL A   1      41.093  27.375  28.743  1.00  0.00     0.074 A 
ATOM     41  C   UNL A   1      40.205  26.235  28.692  1.00  0.00     0.031 C 
ATOM     42  C   UNL A   1      46.465  25.182  25.993  1.00  0.00     0.029 A 
ATOM     43  C   UNL A   1      46.204  26.528  26.491  1.00  0.00     0.049 A 
ATOM     44  H   UNL A   1      44.528  27.188  27.541  1.00  0.00     0.167 HD
ATOM     45  C   UNL A   1      40.740  28.593  29.216  1.00  0.00     0.034 A 
ATOM     46  C   UNL A   1      47.033  27.582  26.354  1.00  0.00     0.034 A 
ATOM     47  C   UNL A   1      41.640  29.710  29.312  1.00  0.00     0.049 A 
ATOM     48  C   UNL A   1      46.633  28.909  26.941  1.00  0.00     0.074 A 
ATOM     49  C   UNL A   1      41.411  30.947  29.889  1.00  0.00     0.029 A 
ATOM     50  N   UNL A   1      42.928  29.737  28.804  1.00  0.00    -0.354 N 
ATOM     51  N   UNL A   1      45.534  29.230  27.579  1.00  0.00    -0.248 NA
ATOM     52  C   UNL A   1      47.600  30.010  26.825  1.00  0.00     0.031 C 
ATOM     53  C   UNL A   1      42.546  31.737  29.692  1.00  0.00     0.029 A 
ATOM     54  C   UNL A   1      43.499  30.977  29.033  1.00  0.00     0.049 A 
ATOM     55  H   UNL A   1      43.371  28.986  28.348  1.00  0.00     0.167 HD
ATOM     56  C   UNL A   1      45.693  30.555  27.970  1.00  0.00     0.074 A 
ATOM     57  C   UNL A   1      47.005  30.969  27.520  1.00  0.00     0.031 C 
ATOM     58  C   UNL A   1      44.826  31.361  28.630  1.00  0.00     0.034 A 
BRANCH  45  59
ATOM     59  C   UNL A   1      39.331  28.788  29.706  1.00  0.00     0.023 A 
ATOM     60  C   UNL A   1      39.002  28.481  31.042  1.00  0.00     0.012 A 
ATOM     61  C   UNL A   1      38.360  29.378  28.872  1.00  0.00     0.148 A 
ATOM     62  C   UNL A   1      37.723  28.737  31.533  1.00  0.00     0.002 A 
ATOM     63  C   UNL A   1      37.103  29.674  29.382  1.00  0.00     0.091 A 
ATOM     64  F   UNL A   1      38.690  29.645  27.600  1.00  0.00    -0.205 F 
ATOM     65  C   UNL A   1      36.780  29.345  30.709  1.00  0.00     0.022 A 
BRANCH  63  66
ATOM     66  S   UNL A   1      35.848  30.537  28.431  1.00  0.00     0.127 S 
ATOM     67  O   UNL A   1      36.665  31.410  27.588  1.00  0.00    -0.237 OA
ATOM     68  O   UNL A   1      35.196  29.437  27.718  1.00  0.00    -0.237 OA
ATOM     69  O   UNL A   1      35.005  31.222  29.400  1.00  0.00    -0.744 OA
ENDBRANCH  63  66
ENDBRANCH  45  59
BRANCH  46  70
ATOM     70  C   UNL A   1      48.340  27.426  25.655  1.00  0.00     0.023 A 
ATOM     71  C   UNL A   1      49.500  27.126  26.396  1.00  0.00     0.012 A 
ATOM     72  C   UNL A   1      48.440  27.579  24.259  1.00  0.00     0.148 A 
ATOM     73  C   UNL A   1      50.742  27.030  25.767  1.00  0.00     0.002 A 
ATOM     74  C   UNL A   1      49.670  27.422  23.630  1.00  0.00     0.091 A 
ATOM     75  F   UNL A   1      47.330  27.877  23.570  1.00  0.00    -0.205 F 
ATOM     76  C   UNL A   1      50.826  27.170  24.384  1.00  0.00     0.022 A 
BRANCH  74  77
ATOM     77  S   UNL A   1      49.842  27.449  21.842  1.00  0.00     0.127 S 
ATOM     78  O   UNL A   1      49.325  28.773  21.512  1.00  0.00    -0.237 OA
ATOM     79  O   UNL A   1      51.287  27.290  21.675  1.00  0.00    -0.237 OA
ATOM     80  O   UNL A   1      49.059  26.320  21.358  1.00  0.00    -0.744 OA
ENDBRANCH  74  77
ENDBRANCH  46  70
BRANCH  58  81
ATOM     81  C   UNL A   1      45.277  32.761  28.956  1.00  0.00     0.023 A 
ATOM     82  C   UNL A   1      46.006  33.011  30.136  1.00  0.00     0.012 A 
ATOM     83  C   UNL A   1      45.043  33.814  28.050  1.00  0.00     0.148 A 
ATOM     84  C   UNL A   1      46.462  34.297  30.425  1.00  0.00     0.002 A 
ATOM     85  C   UNL A   1      45.548  35.079  28.318  1.00  0.00     0.091 A 
ATOM     86  F   UNL A   1      44.333  33.557  26.942  1.00  0.00    -0.205 F 
ATOM     87  C   UNL A   1      46.246  35.326  29.511  1.00  0.00     0.022 A 
BRANCH  85  88
ATOM     88  S   UNL A   1      45.406  36.439  27.154  1.00  0.00     0.127 S 
ATOM     89  O   UNL A   1      43.963  36.479  26.919  1.00  0.00    -0.237 OA
ATOM     90  O   UNL A   1      45.929  37.565  27.929  1.00  0.00    -0.237 OA
ATOM     91  O   UNL A   1      46.215  36.071  26.001  1.00  0.00    -0.744 OA
ENDBRANCH  85  88
ENDBRANCH  58  81
ENDBRANCH  32  33
ENDBRANCH  24  27
ENDBRANCH  22  23
ENDBRANCH  21  22
ENDBRANCH   1  21
TORSDOF 19
ENDMDL
MODEL 3
REMARK VINA RESULT:     -10.1      6.308     11.617
REMARK SMILES CCSCC[C@@H]1CCC[C@@]1([NH3+])C(=O)NCCCCNC(=O)c1ccc(-c2c3nc(c(-c4cccc(S(=O)(=O)[O-])c4F)c4ccc([nH]4)c(-c4cccc(S(=O)(=O)[O-])c4F)c4nc(c(-c5cccc(S(=O)(=O)[O-])c5F)c5ccc2[nH]5)C=C4)C=C3)cc1
REMARK SMILES IDX 16 1 15 2 14 3 12 4 13 5 10 7 6 8 7 9 8 10 9 11 5 12 4 13
REMARK SMILES IDX 3 14 2 15 1 16 11 17 17 21 18 22 19 23 20 24 21 26 22 27
REMARK SMILES IDX 23 28 84 29 24 30 83 31 25 32 26 33 27 34 77 35 28 36 82 37
REMARK SMILES IDX 76 38 78 39 29 40 81 41 75 42 74 43 30 45 62 46 42 47 61 48
REMARK SMILES IDX 43 49 46 50 60 51 79 52 44 53 45 54 59 56 80 57 47 58 31 59
REMARK SMILES IDX 32 60 40 61 33 62 35 63 41 64 34 65 36 66 37 67 38 68 39 69
REMARK SMILES IDX 63 70 64 71 72 72 65 73 67 74 73 75 66 76 68 77 69 78 70 79
REMARK SMILES IDX 71 80 48 81 49 82 57 83 50 84 52 85 58 86 51 87 53 88 54 89
REMARK SMILES IDX 55 90 56 91
REMARK H PARENT 14 6 11 18 11 19 11 20 19 25 78 44 46 55
REMARK Flexibility Score: inf
ROOT
ATOM      1  C   UNL A   1      36.951  20.846  24.391  1.00  0.00     0.023 C 
ENDROOT
BRANCH   1   2
ATOM      2  C   UNL A   1      36.653  22.035  25.297  1.00  0.00     0.116 C 
BRANCH   2   3
ATOM      3  N   UNL A   1      35.749  21.623  26.354  1.00  0.00    -0.351 N 
ATOM      4  C   UNL A   1      34.428  21.780  26.615  1.00  0.00     0.281 C 
ATOM      5  O   UNL A   1      34.087  21.455  27.760  1.00  0.00    -0.268 OA
ATOM      6  H   UNL A   1      36.206  21.101  27.053  1.00  0.00     0.163 HD
BRANCH   4   7
ATOM      7  C   UNL A   1      33.362  22.219  25.576  1.00  0.00     0.176 C 
ATOM      8  C   UNL A   1      33.706  23.554  24.856  1.00  0.00     0.061 C 
ATOM      9  C   UNL A   1      32.850  23.484  23.570  1.00  0.00     0.011 C 
ATOM     10  C   UNL A   1      32.738  21.999  23.221  1.00  0.00     0.008 C 
ATOM     11  C   UNL A   1      33.440  21.262  24.357  1.00  0.00     0.079 C 
BRANCH   8  12
ATOM     12  C   UNL A   1      33.512  24.908  25.559  1.00  0.00     0.021 C 
BRANCH  12  13
ATOM     13  C   UNL A   1      32.501  25.917  25.004  1.00  0.00     0.070 C 
BRANCH  13  14
ATOM     14  S   UNL A   1      31.355  26.804  26.120  1.00  0.00    -0.162 SA
BRANCH  14  15
ATOM     15  C   UNL A   1      31.780  28.567  25.949  1.00  0.00     0.066 C 
ATOM     16  C   UNL A   1      31.848  29.350  27.251  1.00  0.00     0.015 C 
ENDBRANCH  14  15
ENDBRANCH  13  14
ENDBRANCH  12  13
ENDBRANCH   8  12
BRANCH   7  17
ATOM     17  N   UNL A   1      31.970  22.146  26.055  1.00  0.00    -0.345 N 
ATOM     18  H   UNL A   1      31.820  21.255  26.527  1.00  0.00     0.345 HD
ATOM     19  H   UNL A   1      31.334  22.223  25.262  1.00  0.00     0.345 HD
ATOM     20  H   UNL A   1      31.795  22.910  26.707  1.00  0.00     0.345 HD
ENDBRANCH   7  17
ENDBRANCH   4   7
ENDBRANCH   2   3
ENDBRANCH   1   2
BRANCH   1  21
ATOM     21  C   UNL A   1      37.802  19.765  25.066  1.00  0.00     0.023 C 
BRANCH  21  22
ATOM     22  C   UNL A   1      39.070  20.272  25.752  1.00  0.00     0.116 C 
BRANCH  22  23
ATOM     23  N   UNL A   1      40.075  19.229  25.909  1.00  0.00    -0.352 N 
ATOM     24  C   UNL A   1      41.426  19.349  26.132  1.00  0.00     0.251 C 
ATOM     25  H   UNL A   1      39.737  18.306  25.848  1.00  0.00     0.163 HD
ATOM     26  O   UNL A   1      42.147  18.365  26.064  1.00  0.00    -0.269 OA
BRANCH  24  27
ATOM     27  C   UNL A   1      41.994  20.678  26.433  1.00  0.00     0.039 A 
ATOM     28  C   UNL A   1      42.319  21.529  25.375  1.00  0.00     0.014 A 
ATOM     29  C   UNL A   1      42.186  21.086  27.757  1.00  0.00     0.014 A 
ATOM     30  C   UNL A   1      42.779  22.819  25.647  1.00  0.00     0.010 A 
ATOM     31  C   UNL A   1      42.571  22.396  28.024  1.00  0.00     0.010 A 
ATOM     32  C   UNL A   1      42.875  23.275  26.973  1.00  0.00    -0.014 A 
BRANCH  32  33
ATOM     33  C   UNL A   1      43.269  24.675  27.276  1.00  0.00     0.031 A 
ATOM     34  C   UNL A   1      42.276  25.626  27.888  1.00  0.00     0.074 A 
ATOM     35  C   UNL A   1      44.491  25.112  26.914  1.00  0.00     0.049 A 
ATOM     36  N   UNL A   1      42.423  26.895  28.171  1.00  0.00    -0.248 NA
ATOM     37  C   UNL A   1      40.938  25.095  28.200  1.00  0.00     0.031 C 
ATOM     38  C   UNL A   1      45.511  24.310  26.233  1.00  0.00     0.029 A 
ATOM     39  N   UNL A   1      45.074  26.350  27.037  1.00  0.00    -0.354 N 
ATOM     40  C   UNL A   1      41.190  27.324  28.647  1.00  0.00     0.074 A 
ATOM     41  C   UNL A   1      40.299  26.185  28.600  1.00  0.00     0.031 C 
ATOM     42  C   UNL A   1      46.587  25.076  25.991  1.00  0.00     0.029 A 
ATOM     43  C   UNL A   1      46.325  26.429  26.467  1.00  0.00     0.049 A 
ATOM     44  H   UNL A   1      44.639  27.109  27.488  1.00  0.00     0.167 HD
ATOM     45  C   UNL A   1      40.837  28.549  29.100  1.00  0.00     0.034 A 
ATOM     46  C   UNL A   1      47.159  27.479  26.327  1.00  0.00     0.034 A 
ATOM     47  C   UNL A   1      41.739  29.664  29.192  1.00  0.00     0.049 A 
ATOM     48  C   UNL A   1      46.756  28.815  26.891  1.00  0.00     0.074 A 
ATOM     49  C   UNL A   1      41.507  30.909  29.749  1.00  0.00     0.029 A 
ATOM     50  N   UNL A   1      43.033  29.680  28.699  1.00  0.00    -0.354 N 
ATOM     51  N   UNL A   1      45.651  29.148  27.511  1.00  0.00    -0.248 NA
ATOM     52  C   UNL A   1      47.729  29.911  26.771  1.00  0.00     0.031 C 
ATOM     53  C   UNL A   1      42.648  31.693  29.556  1.00  0.00     0.029 A 
ATOM     54  C   UNL A   1      43.605  30.921  28.918  1.00  0.00     0.049 A 
ATOM     55  H   UNL A   1      43.479  28.921  28.257  1.00  0.00     0.167 HD
ATOM     56  C   UNL A   1      45.811  30.477  27.887  1.00  0.00     0.074 A 
ATOM     57  C   UNL A   1      47.129  30.880  27.447  1.00  0.00     0.031 C 
ATOM     58  C   UNL A   1      44.939  31.295  28.526  1.00  0.00     0.034 A 
BRANCH  45  59
ATOM     59  C   UNL A   1      39.422  28.755  29.570  1.00  0.00     0.023 A 
ATOM     60  C   UNL A   1      39.062  28.408  30.888  1.00  0.00     0.012 A 
ATOM     61  C   UNL A   1      38.479  29.394  28.740  1.00  0.00     0.148 A 
ATOM     62  C   UNL A   1      37.779  28.672  31.364  1.00  0.00     0.002 A 
ATOM     63  C   UNL A   1      37.219  29.697  29.237  1.00  0.00     0.091 A 
ATOM     64  F   UNL A   1      38.838  29.699  27.485  1.00  0.00    -0.205 F 
ATOM     65  C   UNL A   1      36.864  29.329  30.546  1.00  0.00     0.022 A 
BRANCH  63  66
ATOM     66  S   UNL A   1      35.999  30.618  28.294  1.00  0.00     0.127 S 
ATOM     67  O   UNL A   1      35.539  29.608  27.342  1.00  0.00    -0.237 OA
ATOM     68  O   UNL A   1      35.023  30.975  29.325  1.00  0.00    -0.237 OA
ATOM     69  O   UNL A   1      36.709  31.746  27.707  1.00  0.00    -0.744 OA
ENDBRANCH  63  66
ENDBRANCH  45  59
BRANCH  46  70
ATOM     70  C   UNL A   1      48.474  27.308  25.644  1.00  0.00     0.023 A 
ATOM     71  C   UNL A   1      49.616  26.979  26.399  1.00  0.00     0.012 A 
ATOM     72  C   UNL A   1      48.598  27.479  24.253  1.00  0.00     0.148 A 
ATOM     73  C   UNL A   1      50.867  26.869  25.787  1.00  0.00     0.002 A 
ATOM     74  C   UNL A   1      49.834  27.308  23.640  1.00  0.00     0.091 A 
ATOM     75  F   UNL A   1      47.503  27.804  23.551  1.00  0.00    -0.205 F 
ATOM     76  C   UNL A   1      50.974  27.026  24.408  1.00  0.00     0.022 A 
BRANCH  74  77
ATOM     77  S   UNL A   1      50.034  27.355  21.856  1.00  0.00     0.127 S 
ATOM     78  O   UNL A   1      49.719  28.749  21.557  1.00  0.00    -0.237 OA
ATOM     79  O   UNL A   1      51.443  26.993  21.699  1.00  0.00    -0.237 OA
ATOM     80  O   UNL A   1      49.102  26.365  21.333  1.00  0.00    -0.744 OA
ENDBRANCH  74  77
ENDBRANCH  46  70
BRANCH  58  81
ATOM     81  C   UNL A   1      45.391  32.697  28.839  1.00  0.00     0.023 A 
ATOM     82  C   UNL A   1      46.073  32.968  30.042  1.00  0.00     0.012 A 
ATOM     83  C   UNL A   1      45.205  33.731  27.900  1.00  0.00     0.148 A 
ATOM     84  C   UNL A   1      46.531  34.255  30.320  1.00  0.00     0.002 A 
ATOM     85  C   UNL A   1      45.713  34.997  28.160  1.00  0.00     0.091 A 
ATOM     86  F   UNL A   1      44.540  33.456  26.769  1.00  0.00    -0.205 F 
ATOM     87  C   UNL A   1      46.363  35.265  29.376  1.00  0.00     0.022 A 
BRANCH  85  88
ATOM     88  S   UNL A   1      45.633  36.332  26.961  1.00  0.00     0.127 S 
ATOM     89  O   UNL A   1      44.191  36.546  26.849  1.00  0.00    -0.237 OA
ATOM     90  O   UNL A   1      46.359  37.405  27.644  1.00  0.00    -0.237 OA
ATOM     91  O   UNL A   1      46.285  35.833  25.758  1.00  0.00    -0.744 OA
ENDBRANCH  85  88
ENDBRANCH  58  81
ENDBRANCH  32  33
ENDBRANCH  24  27
ENDBRANCH  22  23
ENDBRANCH  21  22
ENDBRANCH   1  21
TORSDOF 19
ENDMDL
