MODEL 1
REMARK VINA RESULT:     -12.0      0.000      0.000
REMARK SMILES Cc1ccc(/C=C2/C[N@@H+](C)Cc3c2nc2ccccc2c3C(=O)NCCCCNC(=O)c2ccc(-c3c4nc(c(-c5cccc(S(=O)(=O)[O-])c5F)c5ccc([nH]5)c(-c5cccc(S(=O)(=O)[O-])c5F)c5nc(c(-c6cccc(S(=O)(=O)[O-])c6F)c6ccc3[nH]6)C=C5)C=C4)cc2)cc1
REMARK SMILES IDX 27 1 26 2 25 3 24 4 22 5 23 6 21 8 6 9 7 10 8 11 13 12 9 13
REMARK SMILES IDX 12 14 14 15 10 16 11 17 15 19 20 20 16 21 19 22 17 23 18 24
REMARK SMILES IDX 5 25 1 26 2 27 3 28 96 29 4 30 95 31 28 32 29 33 30 34 31 36
REMARK SMILES IDX 32 37 33 38 94 39 34 40 93 41 35 42 36 43 37 44 87 45 38 46
REMARK SMILES IDX 92 47 86 48 88 49 39 50 91 51 85 52 84 53 40 55 72 56 52 57
REMARK SMILES IDX 71 58 53 59 56 60 70 61 89 62 54 63 55 64 69 66 90 67 57 68
REMARK SMILES IDX 41 69 42 70 50 71 43 72 45 73 51 74 44 75 46 76 47 77 48 78
REMARK SMILES IDX 49 79 73 80 74 81 82 82 75 83 77 84 83 85 76 86 78 87 79 88
REMARK SMILES IDX 80 89 81 90 58 91 59 92 67 93 60 94 62 95 68 96 61 97 63 98
REMARK SMILES IDX 64 99 65 100 66 101
REMARK H PARENT 24 7 9 18 29 35 88 54 56 65
REMARK Flexibility Score: inf
ROOT
ATOM      1  C   UNL A   1      36.761  21.745  25.677  1.00  0.00     0.023 C 
ENDROOT
BRANCH   1   2
ATOM      2  C   UNL A   1      35.546  22.486  25.140  1.00  0.00     0.023 C 
BRANCH   2   3
ATOM      3  C   UNL A   1      35.027  23.692  25.907  1.00  0.00     0.116 C 
BRANCH   3   4
ATOM      4  N   UNL A   1      33.968  23.616  26.879  1.00  0.00    -0.352 N 
ATOM      5  C   UNL A   1      32.681  24.125  26.719  1.00  0.00     0.252 C 
ATOM      6  O   UNL A   1      31.778  23.661  27.412  1.00  0.00    -0.269 OA
ATOM      7  H   UNL A   1      34.170  23.166  27.731  1.00  0.00     0.163 HD
BRANCH   5   8
ATOM      8  C   UNL A   1      32.392  25.295  25.816  1.00  0.00     0.060 A 
ATOM      9  C   UNL A   1      31.166  27.126  21.498  1.00  0.00     0.020 C 
ATOM     10  C   UNL A   1      31.979  26.336  22.234  1.00  0.00     0.033 C 
ATOM     11  C   UNL A   1      32.690  25.169  21.617  1.00  0.00     0.301 C 
ATOM     12  C   UNL A   1      32.166  26.373  23.698  1.00  0.00     0.082 A 
ATOM     13  N   UNL A   1      32.069  23.962  22.170  1.00  0.00    -0.330 N 
ATOM     14  C   UNL A   1      32.287  25.183  24.407  1.00  0.00     0.046 A 
ATOM     15  N   UNL A   1      32.174  27.591  24.275  1.00  0.00    -0.247 NA
ATOM     16  C   UNL A   1      32.623  22.768  21.514  1.00  0.00     0.333 C 
ATOM     17  C   UNL A   1      32.318  23.885  23.625  1.00  0.00     0.302 C 
ATOM     18  H   UNL A   1      31.063  24.002  22.004  1.00  0.00     0.348 HD
ATOM     19  C   UNL A   1      32.068  27.681  25.598  1.00  0.00     0.072 A 
ATOM     20  C   UNL A   1      32.154  26.566  26.450  1.00  0.00     0.013 A 
ATOM     21  C   UNL A   1      31.799  28.944  26.109  1.00  0.00     0.029 A 
ATOM     22  C   UNL A   1      31.958  26.814  27.843  1.00  0.00     0.011 A 
ATOM     23  C   UNL A   1      31.559  29.158  27.463  1.00  0.00     0.002 A 
ATOM     24  C   UNL A   1      31.638  28.086  28.336  1.00  0.00     0.001 A 
BRANCH   9  25
ATOM     25  C   UNL A   1      30.259  28.185  21.966  1.00  0.00    -0.025 A 
ATOM     26  C   UNL A   1      27.937  31.360  23.714  1.00  0.00     0.044 C 
ATOM     27  C   UNL A   1      28.675  30.267  23.007  1.00  0.00    -0.051 A 
ATOM     28  C   UNL A   1      28.319  28.934  23.224  1.00  0.00     0.004 A 
ATOM     29  C   UNL A   1      29.779  30.551  22.196  1.00  0.00     0.004 A 
ATOM     30  C   UNL A   1      29.077  27.909  22.664  1.00  0.00     0.008 A 
ATOM     31  C   UNL A   1      30.565  29.517  21.678  1.00  0.00     0.008 A 
ENDBRANCH   9  25
ENDBRANCH   5   8
ENDBRANCH   3   4
ENDBRANCH   2   3
ENDBRANCH   1   2
BRANCH   1  32
ATOM     32  C   UNL A   1      38.090  22.442  25.484  1.00  0.00     0.116 C 
BRANCH  32  33
ATOM     33  N   UNL A   1      39.114  22.128  26.454  1.00  0.00    -0.352 N 
ATOM     34  C   UNL A   1      40.015  22.985  27.056  1.00  0.00     0.251 C 
ATOM     35  H   UNL A   1      39.177  21.182  26.721  1.00  0.00     0.163 HD
ATOM     36  O   UNL A   1      40.986  22.466  27.615  1.00  0.00    -0.269 OA
BRANCH  34  37
ATOM     37  C   UNL A   1      39.774  24.456  27.162  1.00  0.00     0.039 A 
ATOM     38  C   UNL A   1      40.499  25.319  26.320  1.00  0.00     0.014 A 
ATOM     39  C   UNL A   1      39.065  25.009  28.224  1.00  0.00     0.014 A 
ATOM     40  C   UNL A   1      40.733  26.640  26.699  1.00  0.00     0.010 A 
ATOM     41  C   UNL A   1      39.305  26.289  28.615  1.00  0.00     0.010 A 
ATOM     42  C   UNL A   1      40.240  27.048  27.922  1.00  0.00    -0.014 A 
BRANCH  42  43
ATOM     43  C   UNL A   1      40.614  28.216  28.684  1.00  0.00     0.031 A 
ATOM     44  C   UNL A   1      39.711  29.378  28.629  1.00  0.00     0.074 A 
ATOM     45  C   UNL A   1      41.361  27.898  29.771  1.00  0.00     0.049 A 
ATOM     46  N   UNL A   1      39.872  30.461  29.298  1.00  0.00    -0.248 NA
ATOM     47  C   UNL A   1      38.506  29.383  27.802  1.00  0.00     0.031 C 
ATOM     48  C   UNL A   1      41.300  28.495  31.097  1.00  0.00     0.029 A 
ATOM     49  N   UNL A   1      42.332  26.900  29.932  1.00  0.00    -0.354 N 
ATOM     50  C   UNL A   1      38.665  31.133  29.273  1.00  0.00     0.074 A 
ATOM     51  C   UNL A   1      37.920  30.513  28.206  1.00  0.00     0.031 C 
ATOM     52  C   UNL A   1      42.368  28.080  31.804  1.00  0.00     0.029 A 
ATOM     53  C   UNL A   1      43.247  27.399  30.868  1.00  0.00     0.049 A 
ATOM     54  H   UNL A   1      42.365  26.027  29.479  1.00  0.00     0.167 HD
ATOM     55  C   UNL A   1      38.388  32.002  30.286  1.00  0.00     0.034 A 
ATOM     56  C   UNL A   1      44.492  27.850  30.509  1.00  0.00     0.034 A 
ATOM     57  C   UNL A   1      39.549  32.089  31.196  1.00  0.00     0.049 A 
ATOM     58  C   UNL A   1      44.653  29.357  30.713  1.00  0.00     0.074 A 
ATOM     59  C   UNL A   1      39.823  31.524  32.432  1.00  0.00     0.029 A 
ATOM     60  N   UNL A   1      40.766  32.560  30.709  1.00  0.00    -0.354 N 
ATOM     61  N   UNL A   1      43.675  30.154  31.054  1.00  0.00    -0.248 NA
ATOM     62  C   UNL A   1      45.908  30.091  30.560  1.00  0.00     0.031 C 
ATOM     63  C   UNL A   1      41.238  31.549  32.620  1.00  0.00     0.029 A 
ATOM     64  C   UNL A   1      41.820  32.163  31.524  1.00  0.00     0.049 A 
ATOM     65  H   UNL A   1      40.866  33.103  29.894  1.00  0.00     0.167 HD
ATOM     66  C   UNL A   1      44.081  31.458  31.035  1.00  0.00     0.074 A 
ATOM     67  C   UNL A   1      45.513  31.357  30.801  1.00  0.00     0.031 C 
ATOM     68  C   UNL A   1      43.197  32.500  31.153  1.00  0.00     0.034 A 
BRANCH  55  69
ATOM     69  C   UNL A   1      37.024  32.588  30.653  1.00  0.00     0.023 A 
ATOM     70  C   UNL A   1      36.567  32.352  31.971  1.00  0.00     0.012 A 
ATOM     71  C   UNL A   1      36.126  33.305  29.823  1.00  0.00     0.148 A 
ATOM     72  C   UNL A   1      35.296  32.739  32.418  1.00  0.00     0.002 A 
ATOM     73  C   UNL A   1      34.853  33.689  30.262  1.00  0.00     0.091 A 
ATOM     74  F   UNL A   1      36.483  33.661  28.592  1.00  0.00    -0.205 F 
ATOM     75  C   UNL A   1      34.432  33.398  31.559  1.00  0.00     0.022 A 
BRANCH  73  76
ATOM     76  S   UNL A   1      33.671  34.552  29.202  1.00  0.00     0.127 S 
ATOM     77  O   UNL A   1      34.481  35.646  28.666  1.00  0.00    -0.237 OA
ATOM     78  O   UNL A   1      33.319  33.523  28.225  1.00  0.00    -0.237 OA
ATOM     79  O   UNL A   1      32.576  34.983  30.062  1.00  0.00    -0.744 OA
ENDBRANCH  73  76
ENDBRANCH  55  69
BRANCH  56  80
ATOM     80  C   UNL A   1      45.104  27.032  29.413  1.00  0.00     0.023 A 
ATOM     81  C   UNL A   1      45.379  25.678  29.726  1.00  0.00     0.012 A 
ATOM     82  C   UNL A   1      44.944  27.397  28.063  1.00  0.00     0.148 A 
ATOM     83  C   UNL A   1      45.300  24.688  28.745  1.00  0.00     0.002 A 
ATOM     84  C   UNL A   1      44.857  26.399  27.090  1.00  0.00     0.091 A 
ATOM     85  F   UNL A   1      44.788  28.693  27.764  1.00  0.00    -0.205 F 
ATOM     86  C   UNL A   1      44.985  25.044  27.439  1.00  0.00     0.022 A 
BRANCH  84  87
ATOM     87  S   UNL A   1      44.421  26.768  25.383  1.00  0.00     0.127 S 
ATOM     88  O   UNL A   1      43.739  28.051  25.524  1.00  0.00    -0.237 OA
ATOM     89  O   UNL A   1      45.729  26.841  24.733  1.00  0.00    -0.237 OA
ATOM     90  O   UNL A   1      43.599  25.649  24.948  1.00  0.00    -0.744 OA
ENDBRANCH  84  87
ENDBRANCH  56  80
BRANCH  68  91
ATOM     91  C   UNL A   1      43.532  33.957  30.897  1.00  0.00     0.023 A 
ATOM     92  C   UNL A   1      43.471  34.531  29.614  1.00  0.00     0.012 A 
ATOM     93  C   UNL A   1      43.755  34.844  31.983  1.00  0.00     0.148 A 
ATOM     94  C   UNL A   1      43.679  35.900  29.408  1.00  0.00     0.002 A 
ATOM     95  C   UNL A   1      43.823  36.219  31.786  1.00  0.00     0.091 A 
ATOM     96  F   UNL A   1      43.919  34.360  33.223  1.00  0.00    -0.205 F 
ATOM     97  C   UNL A   1      43.826  36.749  30.496  1.00  0.00     0.022 A 
BRANCH  95  98
ATOM     98  S   UNL A   1      43.721  37.354  33.177  1.00  0.00     0.127 S 
ATOM     99  O   UNL A   1      43.525  38.637  32.510  1.00  0.00    -0.237 OA
ATOM    100  O   UNL A   1      42.547  36.857  33.901  1.00  0.00    -0.237 OA
ATOM    101  O   UNL A   1      44.976  37.185  33.897  1.00  0.00    -0.744 OA
ENDBRANCH  95  98
ENDBRANCH  68  91
ENDBRANCH  42  43
ENDBRANCH  34  37
ENDBRANCH  32  33
ENDBRANCH   1  32
TORSDOF 15
ENDMDL
MODEL 2
REMARK VINA RESULT:     -11.9      6.021     11.344
REMARK SMILES Cc1ccc(/C=C2/C[N@@H+](C)Cc3c2nc2ccccc2c3C(=O)NCCCCNC(=O)c2ccc(-c3c4nc(c(-c5cccc(S(=O)(=O)[O-])c5F)c5ccc([nH]5)c(-c5cccc(S(=O)(=O)[O-])c5F)c5nc(c(-c6cccc(S(=O)(=O)[O-])c6F)c6ccc3[nH]6)C=C5)C=C4)cc2)cc1
REMARK SMILES IDX 27 1 26 2 25 3 24 4 22 5 23 6 21 8 6 9 7 10 8 11 13 12 9 13
REMARK SMILES IDX 12 14 14 15 10 16 11 17 15 19 20 20 16 21 19 22 17 23 18 24
REMARK SMILES IDX 5 25 1 26 2 27 3 28 96 29 4 30 95 31 28 32 29 33 30 34 31 36
REMARK SMILES IDX 32 37 33 38 94 39 34 40 93 41 35 42 36 43 37 44 87 45 38 46
REMARK SMILES IDX 92 47 86 48 88 49 39 50 91 51 85 52 84 53 40 55 72 56 52 57
REMARK SMILES IDX 71 58 53 59 56 60 70 61 89 62 54 63 55 64 69 66 90 67 57 68
REMARK SMILES IDX 41 69 42 70 50 71 43 72 45 73 51 74 44 75 46 76 47 77 48 78
REMARK SMILES IDX 49 79 73 80 74 81 82 82 75 83 77 84 83 85 76 86 78 87 79 88
REMARK SMILES IDX 80 89 81 90 58 91 59 92 67 93 60 94 62 95 68 96 61 97 63 98
REMARK SMILES IDX 64 99 65 100 66 101
REMARK H PARENT 24 7 9 18 29 35 88 54 56 65
REMARK Flexibility Score: inf
ROOT
ATOM      1  C   UNL A   1      40.347  27.985  28.383  1.00  0.00     0.023 C 
ENDROOT
BRANCH   1   2
ATOM      2  C   UNL A   1      41.812  28.335  28.599  1.00  0.00     0.023 C 
BRANCH   2   3
ATOM      3  C   UNL A   1      42.218  29.799  28.622  1.00  0.00     0.116 C 
BRANCH   3   4
ATOM      4  N   UNL A   1      42.794  30.442  29.775  1.00  0.00    -0.352 N 
ATOM      5  C   UNL A   1      42.085  30.935  30.868  1.00  0.00     0.252 C 
ATOM      6  O   UNL A   1      42.681  31.083  31.933  1.00  0.00    -0.269 OA
ATOM      7  H   UNL A   1      43.773  30.542  29.791  1.00  0.00     0.163 HD
BRANCH   5   8
ATOM      8  C   UNL A   1      40.657  31.395  30.751  1.00  0.00     0.060 A 
ATOM      9  C   UNL A   1      35.952  30.966  31.838  1.00  0.00     0.020 C 
ATOM     10  C   UNL A   1      37.088  30.409  31.363  1.00  0.00     0.033 C 
ATOM     11  C   UNL A   1      37.313  28.928  31.434  1.00  0.00     0.301 C 
ATOM     12  C   UNL A   1      38.289  31.117  30.878  1.00  0.00     0.082 A 
ATOM     13  N   UNL A   1      38.376  28.715  32.422  1.00  0.00    -0.330 N 
ATOM     14  C   UNL A   1      39.552  30.624  31.189  1.00  0.00     0.046 A 
ATOM     15  N   UNL A   1      38.081  32.248  30.175  1.00  0.00    -0.247 NA
ATOM     16  C   UNL A   1      38.567  27.276  32.649  1.00  0.00     0.333 C 
ATOM     17  C   UNL A   1      39.641  29.310  31.940  1.00  0.00     0.302 C 
ATOM     18  H   UNL A   1      38.107  29.163  33.299  1.00  0.00     0.348 HD
ATOM     19  C   UNL A   1      39.105  33.066  29.946  1.00  0.00     0.072 A 
ATOM     20  C   UNL A   1      40.439  32.717  30.221  1.00  0.00     0.013 A 
ATOM     21  C   UNL A   1      38.787  34.332  29.472  1.00  0.00     0.029 A 
ATOM     22  C   UNL A   1      41.422  33.725  29.980  1.00  0.00     0.011 A 
ATOM     23  C   UNL A   1      39.752  35.318  29.293  1.00  0.00     0.002 A 
ATOM     24  C   UNL A   1      41.078  35.014  29.550  1.00  0.00     0.001 A 
BRANCH   9  25
ATOM     25  C   UNL A   1      35.643  32.393  32.016  1.00  0.00    -0.025 A 
ATOM     26  C   UNL A   1      34.397  36.419  32.889  1.00  0.00     0.044 C 
ATOM     27  C   UNL A   1      34.926  35.067  32.527  1.00  0.00    -0.051 A 
ATOM     28  C   UNL A   1      34.445  34.413  31.391  1.00  0.00     0.004 A 
ATOM     29  C   UNL A   1      35.833  34.403  33.360  1.00  0.00     0.004 A 
ATOM     30  C   UNL A   1      34.844  33.107  31.115  1.00  0.00     0.008 A 
ATOM     31  C   UNL A   1      36.190  33.075  33.105  1.00  0.00     0.008 A 
ENDBRANCH   9  25
ENDBRANCH   5   8
ENDBRANCH   3   4
ENDBRANCH   2   3
ENDBRANCH   1   2
BRANCH   1  32
ATOM     32  C   UNL A   1      39.819  26.839  29.219  1.00  0.00     0.116 C 
BRANCH  32  33
ATOM     33  N   UNL A   1      39.147  25.786  28.493  1.00  0.00    -0.352 N 
ATOM     34  C   UNL A   1      39.685  24.889  27.591  1.00  0.00     0.251 C 
ATOM     35  H   UNL A   1      38.181  25.695  28.665  1.00  0.00     0.163 HD
ATOM     36  O   UNL A   1      38.887  24.281  26.870  1.00  0.00    -0.269 OA
BRANCH  34  37
ATOM     37  C   UNL A   1      41.140  24.550  27.567  1.00  0.00     0.039 A 
ATOM     38  C   UNL A   1      41.651  23.705  28.569  1.00  0.00     0.014 A 
ATOM     39  C   UNL A   1      42.039  25.237  26.758  1.00  0.00     0.014 A 
ATOM     40  C   UNL A   1      42.997  23.772  28.927  1.00  0.00     0.010 A 
ATOM     41  C   UNL A   1      43.349  25.327  27.113  1.00  0.00     0.010 A 
ATOM     42  C   UNL A   1      43.784  24.698  28.273  1.00  0.00    -0.014 A 
BRANCH  42  43
ATOM     43  C   UNL A   1      45.081  25.196  28.667  1.00  0.00     0.031 A 
ATOM     44  C   UNL A   1      46.209  24.945  27.754  1.00  0.00     0.074 A 
ATOM     45  C   UNL A   1      44.987  26.294  29.458  1.00  0.00     0.049 A 
ATOM     46  N   UNL A   1      47.403  25.377  27.932  1.00  0.00    -0.248 NA
ATOM     47  C   UNL A   1      46.048  24.182  26.518  1.00  0.00     0.031 C 
ATOM     48  C   UNL A   1      45.836  27.476  29.443  1.00  0.00     0.029 A 
ATOM     49  N   UNL A   1      44.041  26.613  30.442  1.00  0.00    -0.354 N 
ATOM     50  C   UNL A   1      48.057  25.266  26.719  1.00  0.00     0.074 A 
ATOM     51  C   UNL A   1      47.236  24.374  25.938  1.00  0.00     0.031 C 
ATOM     52  C   UNL A   1      45.572  28.209  30.541  1.00  0.00     0.029 A 
ATOM     53  C   UNL A   1      44.716  27.394  31.388  1.00  0.00     0.049 A 
ATOM     54  H   UNL A   1      43.094  26.343  30.464  1.00  0.00     0.167 HD
ATOM     55  C   UNL A   1      49.111  26.095  26.475  1.00  0.00     0.034 A 
ATOM     56  C   UNL A   1      45.087  26.903  32.615  1.00  0.00     0.034 A 
ATOM     57  C   UNL A   1      49.379  26.922  27.670  1.00  0.00     0.049 A 
ATOM     58  C   UNL A   1      46.604  26.795  32.772  1.00  0.00     0.074 A 
ATOM     59  C   UNL A   1      49.072  28.235  27.996  1.00  0.00     0.029 A 
ATOM     60  N   UNL A   1      49.742  26.304  28.863  1.00  0.00    -0.354 N 
ATOM     61  N   UNL A   1      47.453  27.008  31.802  1.00  0.00    -0.248 NA
ATOM     62  C   UNL A   1      47.293  26.449  34.014  1.00  0.00     0.031 C 
ATOM     63  C   UNL A   1      49.134  28.359  29.416  1.00  0.00     0.029 A 
ATOM     64  C   UNL A   1      49.516  27.139  29.951  1.00  0.00     0.049 A 
ATOM     65  H   UNL A   1      50.111  25.393  28.927  1.00  0.00     0.167 HD
ATOM     66  C   UNL A   1      48.727  26.713  32.197  1.00  0.00     0.074 A 
ATOM     67  C   UNL A   1      48.581  26.447  33.620  1.00  0.00     0.031 C 
ATOM     68  C   UNL A   1      49.771  26.655  31.310  1.00  0.00     0.034 A 
BRANCH  55  69
ATOM     69  C   UNL A   1      49.759  26.390  25.122  1.00  0.00     0.023 A 
ATOM     70  C   UNL A   1      51.171  26.325  25.067  1.00  0.00     0.012 A 
ATOM     71  C   UNL A   1      49.126  26.771  23.912  1.00  0.00     0.148 A 
ATOM     72  C   UNL A   1      51.907  26.668  23.925  1.00  0.00     0.002 A 
ATOM     73  C   UNL A   1      49.855  27.121  22.769  1.00  0.00     0.091 A 
ATOM     74  F   UNL A   1      47.799  26.782  23.819  1.00  0.00    -0.205 F 
ATOM     75  C   UNL A   1      51.250  27.079  22.777  1.00  0.00     0.022 A 
BRANCH  73  76
ATOM     76  S   UNL A   1      49.070  27.664  21.234  1.00  0.00     0.127 S 
ATOM     77  O   UNL A   1      48.375  26.453  20.799  1.00  0.00    -0.237 OA
ATOM     78  O   UNL A   1      48.190  28.736  21.698  1.00  0.00    -0.237 OA
ATOM     79  O   UNL A   1      50.144  28.092  20.346  1.00  0.00    -0.744 OA
ENDBRANCH  73  76
ENDBRANCH  55  69
BRANCH  56  80
ATOM     80  C   UNL A   1      44.066  25.969  33.191  1.00  0.00     0.023 A 
ATOM     81  C   UNL A   1      44.347  24.586  33.066  1.00  0.00     0.012 A 
ATOM     82  C   UNL A   1      43.191  26.394  34.208  1.00  0.00     0.148 A 
ATOM     83  C   UNL A   1      43.927  23.680  34.042  1.00  0.00     0.002 A 
ATOM     84  C   UNL A   1      42.785  25.484  35.186  1.00  0.00     0.091 A 
ATOM     85  F   UNL A   1      42.847  27.687  34.259  1.00  0.00    -0.205 F 
ATOM     86  C   UNL A   1      43.194  24.141  35.130  1.00  0.00     0.022 A 
BRANCH  84  87
ATOM     87  S   UNL A   1      41.861  25.999  36.642  1.00  0.00     0.127 S 
ATOM     88  O   UNL A   1      41.008  27.049  36.094  1.00  0.00    -0.237 OA
ATOM     89  O   UNL A   1      41.156  24.774  37.018  1.00  0.00    -0.237 OA
ATOM     90  O   UNL A   1      42.868  26.426  37.602  1.00  0.00    -0.744 OA
ENDBRANCH  84  87
ENDBRANCH  56  80
BRANCH  68  91
ATOM     91  C   UNL A   1      51.148  26.100  31.624  1.00  0.00     0.023 A 
ATOM     92  C   UNL A   1      52.289  26.918  31.718  1.00  0.00     0.012 A 
ATOM     93  C   UNL A   1      51.304  24.741  32.005  1.00  0.00     0.148 A 
ATOM     94  C   UNL A   1      53.531  26.408  32.112  1.00  0.00     0.002 A 
ATOM     95  C   UNL A   1      52.506  24.273  32.526  1.00  0.00     0.091 A 
ATOM     96  F   UNL A   1      50.287  23.880  31.852  1.00  0.00    -0.205 F 
ATOM     97  C   UNL A   1      53.634  25.093  32.544  1.00  0.00     0.022 A 
BRANCH  95  98
ATOM     98  S   UNL A   1      52.591  22.680  33.355  1.00  0.00     0.127 S 
ATOM     99  O   UNL A   1      53.984  22.638  33.791  1.00  0.00    -0.237 OA
ATOM    100  O   UNL A   1      51.617  22.838  34.438  1.00  0.00    -0.237 OA
ATOM    101  O   UNL A   1      52.201  21.706  32.344  1.00  0.00    -0.744 OA
ENDBRANCH  95  98
ENDBRANCH  68  91
ENDBRANCH  42  43
ENDBRANCH  34  37
ENDBRANCH  32  33
ENDBRANCH   1  32
TORSDOF 15
ENDMDL
MODEL 3
REMARK VINA RESULT:     -11.8      5.817     11.645
REMARK SMILES Cc1ccc(/C=C2/C[N@@H+](C)Cc3c2nc2ccccc2c3C(=O)NCCCCNC(=O)c2ccc(-c3c4nc(c(-c5cccc(S(=O)(=O)[O-])c5F)c5ccc([nH]5)c(-c5cccc(S(=O)(=O)[O-])c5F)c5nc(c(-c6cccc(S(=O)(=O)[O-])c6F)c6ccc3[nH]6)C=C5)C=C4)cc2)cc1
REMARK SMILES IDX 27 1 26 2 25 3 24 4 22 5 23 6 21 8 6 9 7 10 8 11 13 12 9 13
REMARK SMILES IDX 12 14 14 15 10 16 11 17 15 19 20 20 16 21 19 22 17 23 18 24
REMARK SMILES IDX 5 25 1 26 2 27 3 28 96 29 4 30 95 31 28 32 29 33 30 34 31 36
REMARK SMILES IDX 32 37 33 38 94 39 34 40 93 41 35 42 36 43 37 44 87 45 38 46
REMARK SMILES IDX 92 47 86 48 88 49 39 50 91 51 85 52 84 53 40 55 72 56 52 57
REMARK SMILES IDX 71 58 53 59 56 60 70 61 89 62 54 63 55 64 69 66 90 67 57 68
REMARK SMILES IDX 41 69 42 70 50 71 43 72 45 73 51 74 44 75 46 76 47 77 48 78
REMARK SMILES IDX 49 79 73 80 74 81 82 82 75 83 77 84 83 85 76 86 78 87 79 88
REMARK SMILES IDX 80 89 81 90 58 91 59 92 67 93 60 94 62 95 68 96 61 97 63 98
REMARK SMILES IDX 64 99 65 100 66 101
REMARK H PARENT 24 7 9 18 29 35 88 54 56 65
REMARK Flexibility Score: inf
ROOT
ATOM      1  C   UNL A   1      39.147  27.954  30.534  1.00  0.00     0.023 C 
ENDROOT
BRANCH   1   2
ATOM      2  C   UNL A   1      39.773  27.996  31.920  1.00  0.00     0.023 C 
BRANCH   2   3
ATOM      3  C   UNL A   1      40.936  28.943  32.169  1.00  0.00     0.116 C 
BRANCH   3   4
ATOM      4  N   UNL A   1      41.312  29.991  31.256  1.00  0.00    -0.352 N 
ATOM      5  C   UNL A   1      40.782  31.280  31.237  1.00  0.00     0.252 C 
ATOM      6  O   UNL A   1      41.441  32.175  30.712  1.00  0.00    -0.269 OA
ATOM      7  H   UNL A   1      42.003  29.779  30.588  1.00  0.00     0.163 HD
BRANCH   5   8
ATOM      8  C   UNL A   1      39.392  31.578  31.731  1.00  0.00     0.060 A 
ATOM      9  C   UNL A   1      36.364  33.479  35.005  1.00  0.00     0.020 C 
ATOM     10  C   UNL A   1      37.399  32.657  34.723  1.00  0.00     0.033 C 
ATOM     11  C   UNL A   1      38.423  32.315  35.763  1.00  0.00     0.301 C 
ATOM     12  C   UNL A   1      37.771  32.122  33.398  1.00  0.00     0.082 A 
ATOM     13  N   UNL A   1      39.666  32.978  35.357  1.00  0.00    -0.330 N 
ATOM     14  C   UNL A   1      39.114  32.033  33.045  1.00  0.00     0.046 A 
ATOM     15  N   UNL A   1      36.758  31.776  32.580  1.00  0.00    -0.247 NA
ATOM     16  C   UNL A   1      40.691  32.801  36.396  1.00  0.00     0.333 C 
ATOM     17  C   UNL A   1      40.152  32.405  34.083  1.00  0.00     0.302 C 
ATOM     18  H   UNL A   1      39.484  33.974  35.228  1.00  0.00     0.348 HD
ATOM     19  C   UNL A   1      37.014  31.547  31.294  1.00  0.00     0.072 A 
ATOM     20  C   UNL A   1      38.319  31.445  30.780  1.00  0.00     0.013 A 
ATOM     21  C   UNL A   1      35.912  31.474  30.451  1.00  0.00     0.029 A 
ATOM     22  C   UNL A   1      38.432  31.259  29.368  1.00  0.00     0.011 A 
ATOM     23  C   UNL A   1      36.044  31.345  29.072  1.00  0.00     0.002 A 
ATOM     24  C   UNL A   1      37.312  31.239  28.527  1.00  0.00     0.001 A 
BRANCH   9  25
ATOM     25  C   UNL A   1      35.383  34.061  34.077  1.00  0.00    -0.025 A 
ATOM     26  C   UNL A   1      32.327  36.018  31.763  1.00  0.00     0.044 C 
ATOM     27  C   UNL A   1      33.442  35.307  32.463  1.00  0.00    -0.051 A 
ATOM     28  C   UNL A   1      33.272  33.984  32.876  1.00  0.00     0.004 A 
ATOM     29  C   UNL A   1      34.628  35.974  32.791  1.00  0.00     0.004 A 
ATOM     30  C   UNL A   1      34.259  33.356  33.631  1.00  0.00     0.008 A 
ATOM     31  C   UNL A   1      35.592  35.354  33.592  1.00  0.00     0.008 A 
ENDBRANCH   9  25
ENDBRANCH   5   8
ENDBRANCH   3   4
ENDBRANCH   2   3
ENDBRANCH   1   2
BRANCH   1  32
ATOM     32  C   UNL A   1      39.911  27.161  29.496  1.00  0.00     0.116 C 
BRANCH  32  33
ATOM     33  N   UNL A   1      39.196  26.062  28.889  1.00  0.00    -0.352 N 
ATOM     34  C   UNL A   1      39.656  25.151  27.957  1.00  0.00     0.251 C 
ATOM     35  H   UNL A   1      38.261  25.947  29.177  1.00  0.00     0.163 HD
ATOM     36  O   UNL A   1      38.801  24.494  27.356  1.00  0.00    -0.269 OA
BRANCH  34  37
ATOM     37  C   UNL A   1      41.109  24.859  27.772  1.00  0.00     0.039 A 
ATOM     38  C   UNL A   1      41.695  23.842  28.548  1.00  0.00     0.014 A 
ATOM     39  C   UNL A   1      41.945  25.714  27.061  1.00  0.00     0.014 A 
ATOM     40  C   UNL A   1      43.062  23.866  28.823  1.00  0.00     0.010 A 
ATOM     41  C   UNL A   1      43.275  25.762  27.341  1.00  0.00     0.010 A 
ATOM     42  C   UNL A   1      43.794  24.923  28.320  1.00  0.00    -0.014 A 
BRANCH  42  43
ATOM     43  C   UNL A   1      45.110  25.362  28.721  1.00  0.00     0.031 A 
ATOM     44  C   UNL A   1      46.226  25.080  27.805  1.00  0.00     0.074 A 
ATOM     45  C   UNL A   1      45.059  26.450  29.530  1.00  0.00     0.049 A 
ATOM     46  N   UNL A   1      47.438  25.461  27.990  1.00  0.00    -0.248 NA
ATOM     47  C   UNL A   1      46.036  24.344  26.557  1.00  0.00     0.031 C 
ATOM     48  C   UNL A   1      45.956  27.597  29.533  1.00  0.00     0.029 A 
ATOM     49  N   UNL A   1      44.126  26.792  30.519  1.00  0.00    -0.354 N 
ATOM     50  C   UNL A   1      48.087  25.342  26.775  1.00  0.00     0.074 A 
ATOM     51  C   UNL A   1      47.231  24.497  25.981  1.00  0.00     0.031 C 
ATOM     52  C   UNL A   1      45.720  28.323  30.643  1.00  0.00     0.029 A 
ATOM     53  C   UNL A   1      44.832  27.530  31.477  1.00  0.00     0.049 A 
ATOM     54  H   UNL A   1      43.170  26.560  30.537  1.00  0.00     0.167 HD
ATOM     55  C   UNL A   1      49.174  26.131  26.544  1.00  0.00     0.034 A 
ATOM     56  C   UNL A   1      45.182  27.005  32.696  1.00  0.00     0.034 A 
ATOM     57  C   UNL A   1      49.474  26.929  27.752  1.00  0.00     0.049 A 
ATOM     58  C   UNL A   1      46.694  26.834  32.851  1.00  0.00     0.074 A 
ATOM     59  C   UNL A   1      49.220  28.248  28.098  1.00  0.00     0.029 A 
ATOM     60  N   UNL A   1      49.811  26.278  28.935  1.00  0.00    -0.354 N 
ATOM     61  N   UNL A   1      47.551  27.028  31.884  1.00  0.00    -0.248 NA
ATOM     62  C   UNL A   1      47.367  26.442  34.088  1.00  0.00     0.031 C 
ATOM     63  C   UNL A   1      49.286  28.346  29.520  1.00  0.00     0.029 A 
ATOM     64  C   UNL A   1      49.619  27.104  30.036  1.00  0.00     0.049 A 
ATOM     65  H   UNL A   1      50.143  25.352  28.985  1.00  0.00     0.167 HD
ATOM     66  C   UNL A   1      48.812  26.675  32.274  1.00  0.00     0.074 A 
ATOM     67  C   UNL A   1      48.654  26.394  33.693  1.00  0.00     0.031 C 
ATOM     68  C   UNL A   1      49.854  26.590  31.387  1.00  0.00     0.034 A 
BRANCH  55  69
ATOM     69  C   UNL A   1      49.833  26.422  25.195  1.00  0.00     0.023 A 
ATOM     70  C   UNL A   1      51.248  26.399  25.164  1.00  0.00     0.012 A 
ATOM     71  C   UNL A   1      49.209  26.760  23.969  1.00  0.00     0.148 A 
ATOM     72  C   UNL A   1      51.991  26.744  24.026  1.00  0.00     0.002 A 
ATOM     73  C   UNL A   1      49.946  27.111  22.831  1.00  0.00     0.091 A 
ATOM     74  F   UNL A   1      47.884  26.728  23.855  1.00  0.00    -0.205 F 
ATOM     75  C   UNL A   1      51.340  27.113  22.861  1.00  0.00     0.022 A 
BRANCH  73  76
ATOM     76  S   UNL A   1      49.169  27.602  21.274  1.00  0.00     0.127 S 
ATOM     77  O   UNL A   1      48.506  26.365  20.859  1.00  0.00    -0.237 OA
ATOM     78  O   UNL A   1      48.259  28.664  21.702  1.00  0.00    -0.237 OA
ATOM     79  O   UNL A   1      50.244  28.033  20.389  1.00  0.00    -0.744 OA
ENDBRANCH  73  76
ENDBRANCH  55  69
BRANCH  56  80
ATOM     80  C   UNL A   1      44.124  26.105  33.257  1.00  0.00     0.023 A 
ATOM     81  C   UNL A   1      44.352  24.714  33.116  1.00  0.00     0.012 A 
ATOM     82  C   UNL A   1      43.263  26.551  34.278  1.00  0.00     0.148 A 
ATOM     83  C   UNL A   1      43.894  23.813  34.080  1.00  0.00     0.002 A 
ATOM     84  C   UNL A   1      42.818  25.645  35.243  1.00  0.00     0.091 A 
ATOM     85  F   UNL A   1      42.969  27.856  34.343  1.00  0.00    -0.205 F 
ATOM     86  C   UNL A   1      43.176  24.288  35.171  1.00  0.00     0.022 A 
BRANCH  84  87
ATOM     87  S   UNL A   1      41.911  26.178  36.703  1.00  0.00     0.127 S 
ATOM     88  O   UNL A   1      41.264  24.937  37.117  1.00  0.00    -0.237 OA
ATOM     89  O   UNL A   1      42.981  26.634  37.590  1.00  0.00    -0.237 OA
ATOM     90  O   UNL A   1      41.028  27.237  36.239  1.00  0.00    -0.744 OA
ENDBRANCH  84  87
ENDBRANCH  56  80
BRANCH  68  91
ATOM     91  C   UNL A   1      51.207  25.974  31.692  1.00  0.00     0.023 A 
ATOM     92  C   UNL A   1      52.377  26.745  31.811  1.00  0.00     0.012 A 
ATOM     93  C   UNL A   1      51.309  24.601  32.040  1.00  0.00     0.148 A 
ATOM     94  C   UNL A   1      53.598  26.178  32.196  1.00  0.00     0.002 A 
ATOM     95  C   UNL A   1      52.489  24.075  32.553  1.00  0.00     0.091 A 
ATOM     96  F   UNL A   1      50.260  23.784  31.862  1.00  0.00    -0.205 F 
ATOM     97  C   UNL A   1      53.648  24.850  32.596  1.00  0.00     0.022 A 
BRANCH  95  98
ATOM     98  S   UNL A   1      52.510  22.461  33.343  1.00  0.00     0.127 S 
ATOM     99  O   UNL A   1      53.903  22.344  33.762  1.00  0.00    -0.237 OA
ATOM    100  O   UNL A   1      51.555  22.636  34.441  1.00  0.00    -0.237 OA
ATOM    101  O   UNL A   1      52.064  21.530  32.315  1.00  0.00    -0.744 OA
ENDBRANCH  95  98
ENDBRANCH  68  91
ENDBRANCH  42  43
ENDBRANCH  34  37
ENDBRANCH  32  33
ENDBRANCH   1  32
TORSDOF 15
ENDMDL
