MODEL 1
REMARK VINA RESULT:     -12.1      0.000      0.000
REMARK SMILES O=C(Cc1ccccc1-c1ccn(C(F)F)c(=O)c1)NCCCCNC(=O)c1ccc(-c2c3nc(c(-c4cccc(S(=O)(=O)[O-])c4F)c4ccc([nH]4)c(-c4cccc(S(=O)(=O)[O-])c4F)c4nc(c(-c5cccc(S(=O)(=O)[O-])c5F)c5ccc2[nH]5)C=C4)C=C3)cc1
REMARK SMILES IDX 22 1 21 2 20 3 1 4 2 5 3 7 4 8 5 9 9 10 6 11 8 12 7 13 10 14
REMARK SMILES IDX 11 15 19 16 12 17 17 18 13 19 18 20 14 21 15 22 16 23 23 24
REMARK SMILES IDX 24 25 25 26 26 27 27 29 28 30 29 31 90 32 30 33 89 34 31 35
REMARK SMILES IDX 32 36 33 37 83 38 34 39 88 40 82 41 84 42 35 43 87 44 81 45
REMARK SMILES IDX 80 46 36 48 68 49 48 50 67 51 49 52 52 53 66 54 85 55 50 56
REMARK SMILES IDX 51 57 65 59 86 60 53 61 37 62 38 63 46 64 39 65 41 66 47 67
REMARK SMILES IDX 40 68 42 69 43 70 44 71 45 72 69 73 70 74 78 75 71 76 73 77
REMARK SMILES IDX 79 78 72 79 74 80 75 81 76 82 77 83 54 84 55 85 63 86 56 87
REMARK SMILES IDX 58 88 64 89 57 90 59 91 60 92 61 93 62 94
REMARK H PARENT 20 6 25 28 84 47 52 58
REMARK Flexibility Score: inf
ROOT
ATOM      1  C   UNL A   1      30.923  27.558  25.269  1.00  0.00     0.023 C 
ENDROOT
BRANCH   1   2
ATOM      2  C   UNL A   1      30.278  26.304  25.860  1.00  0.00     0.116 C 
BRANCH   2   3
ATOM      3  N   UNL A   1      30.561  25.132  25.062  1.00  0.00    -0.356 N 
ATOM      4  O   UNL A   1      31.099  23.710  26.792  1.00  0.00    -0.275 OA
ATOM      5  C   UNL A   1      30.916  23.911  25.595  1.00  0.00     0.224 C 
ATOM      6  H   UNL A   1      30.497  25.210  24.083  1.00  0.00     0.163 HD
BRANCH   5   7
ATOM      7  C   UNL A   1      31.029  22.816  24.543  1.00  0.00     0.136 C 
BRANCH   7   8
ATOM      8  C   UNL A   1      32.307  22.012  24.688  1.00  0.00    -0.031 A 
ATOM      9  C   UNL A   1      32.210  20.658  25.066  1.00  0.00     0.005 A 
ATOM     10  C   UNL A   1      33.586  22.551  24.431  1.00  0.00    -0.014 A 
ATOM     11  C   UNL A   1      33.345  19.865  25.219  1.00  0.00     0.000 A 
ATOM     12  C   UNL A   1      34.725  21.743  24.608  1.00  0.00     0.009 A 
ATOM     13  C   UNL A   1      34.603  20.410  25.001  1.00  0.00     0.001 A 
BRANCH  10  14
ATOM     14  C   UNL A   1      33.763  23.918  23.900  1.00  0.00    -0.011 A 
ATOM     15  C   UNL A   1      34.089  25.062  24.727  1.00  0.00     0.027 A 
ATOM     16  C   UNL A   1      33.501  24.103  22.594  1.00  0.00     0.080 A 
ATOM     17  C   UNL A   1      34.028  26.299  24.220  1.00  0.00     0.095 A 
ATOM     18  C   UNL A   1      33.496  25.468  22.003  1.00  0.00     0.255 A 
ATOM     19  N   UNL A   1      33.711  26.509  22.889  1.00  0.00    -0.258 N 
ATOM     20  O   UNL A   1      33.278  25.588  20.800  1.00  0.00    -0.269 OA
BRANCH  19  21
ATOM     21  C   UNL A   1      33.568  27.843  22.370  1.00  0.00     0.451 C 
ATOM     22  F   UNL A   1      32.285  28.274  22.459  1.00  0.00    -0.185 F 
ATOM     23  F   UNL A   1      34.350  28.717  23.052  1.00  0.00    -0.185 F 
ENDBRANCH  19  21
ENDBRANCH  10  14
ENDBRANCH   7   8
ENDBRANCH   5   7
ENDBRANCH   2   3
ENDBRANCH   1   2
BRANCH   1  24
ATOM     24  C   UNL A   1      31.577  28.500  26.287  1.00  0.00     0.023 C 
BRANCH  24  25
ATOM     25  C   UNL A   1      32.558  29.513  25.706  1.00  0.00     0.116 C 
BRANCH  25  26
ATOM     26  N   UNL A   1      32.220  30.880  26.070  1.00  0.00    -0.352 N 
ATOM     27  C   UNL A   1      32.815  31.711  26.988  1.00  0.00     0.251 C 
ATOM     28  H   UNL A   1      31.453  31.265  25.589  1.00  0.00     0.163 HD
ATOM     29  O   UNL A   1      32.265  32.769  27.293  1.00  0.00    -0.269 OA
BRANCH  27  30
ATOM     30  C   UNL A   1      34.097  31.336  27.627  1.00  0.00     0.039 A 
ATOM     31  C   UNL A   1      35.055  32.328  27.854  1.00  0.00     0.014 A 
ATOM     32  C   UNL A   1      34.368  30.012  27.986  1.00  0.00     0.014 A 
ATOM     33  C   UNL A   1      36.254  32.005  28.497  1.00  0.00     0.010 A 
ATOM     34  C   UNL A   1      35.530  29.707  28.694  1.00  0.00     0.010 A 
ATOM     35  C   UNL A   1      36.488  30.698  28.956  1.00  0.00    -0.014 A 
BRANCH  35  36
ATOM     36  C   UNL A   1      37.716  30.358  29.725  1.00  0.00     0.031 A 
ATOM     37  C   UNL A   1      38.737  29.407  29.160  1.00  0.00     0.074 A 
ATOM     38  C   UNL A   1      37.874  30.844  30.973  1.00  0.00     0.049 A 
ATOM     39  N   UNL A   1      39.834  28.953  29.710  1.00  0.00    -0.248 NA
ATOM     40  C   UNL A   1      38.480  28.877  27.811  1.00  0.00     0.031 C 
ATOM     41  C   UNL A   1      36.924  31.715  31.669  1.00  0.00     0.029 A 
ATOM     42  N   UNL A   1      38.878  30.651  31.890  1.00  0.00    -0.354 N 
ATOM     43  C   UNL A   1      40.380  28.063  28.793  1.00  0.00     0.074 A 
ATOM     44  C   UNL A   1      39.475  28.012  27.666  1.00  0.00     0.031 C 
ATOM     45  C   UNL A   1      37.390  31.982  32.899  1.00  0.00     0.029 A 
ATOM     46  C   UNL A   1      38.651  31.275  33.096  1.00  0.00     0.049 A 
ATOM     47  H   UNL A   1      39.684  30.117  31.704  1.00  0.00     0.167 HD
ATOM     48  C   UNL A   1      41.543  27.369  28.867  1.00  0.00     0.034 A 
ATOM     49  C   UNL A   1      39.368  31.268  34.238  1.00  0.00     0.034 A 
ATOM     50  C   UNL A   1      42.458  27.443  29.974  1.00  0.00     0.049 A 
ATOM     51  C   UNL A   1      40.666  30.510  34.287  1.00  0.00     0.074 A 
ATOM     52  C   UNL A   1      43.697  26.842  30.107  1.00  0.00     0.029 A 
ATOM     53  N   UNL A   1      42.231  28.147  31.146  1.00  0.00    -0.354 N 
ATOM     54  N   UNL A   1      41.239  29.796  33.350  1.00  0.00    -0.248 NA
ATOM     55  C   UNL A   1      41.435  30.588  35.537  1.00  0.00     0.031 C 
ATOM     56  C   UNL A   1      44.205  27.155  31.372  1.00  0.00     0.029 A 
ATOM     57  C   UNL A   1      43.299  27.986  32.013  1.00  0.00     0.049 A 
ATOM     58  H   UNL A   1      41.427  28.684  31.336  1.00  0.00     0.167 HD
ATOM     59  C   UNL A   1      42.451  29.368  33.883  1.00  0.00     0.074 A 
ATOM     60  C   UNL A   1      42.537  29.922  35.219  1.00  0.00     0.031 C 
ATOM     61  C   UNL A   1      43.399  28.579  33.322  1.00  0.00     0.034 A 
BRANCH  48  62
ATOM     62  C   UNL A   1      41.915  26.500  27.692  1.00  0.00     0.023 A 
ATOM     63  C   UNL A   1      42.632  27.055  26.612  1.00  0.00     0.012 A 
ATOM     64  C   UNL A   1      41.605  25.125  27.680  1.00  0.00     0.148 A 
ATOM     65  C   UNL A   1      42.999  26.268  25.522  1.00  0.00     0.002 A 
ATOM     66  C   UNL A   1      42.017  24.336  26.611  1.00  0.00     0.091 A 
ATOM     67  F   UNL A   1      40.907  24.617  28.706  1.00  0.00    -0.205 F 
ATOM     68  C   UNL A   1      42.702  24.908  25.526  1.00  0.00     0.022 A 
BRANCH  66  69
ATOM     69  S   UNL A   1      41.753  22.561  26.559  1.00  0.00     0.127 S 
ATOM     70  O   UNL A   1      42.408  22.204  25.301  1.00  0.00    -0.237 OA
ATOM     71  O   UNL A   1      42.458  22.111  27.761  1.00  0.00    -0.237 OA
ATOM     72  O   UNL A   1      40.311  22.366  26.590  1.00  0.00    -0.744 OA
ENDBRANCH  66  69
ENDBRANCH  48  62
BRANCH  49  73
ATOM     73  C   UNL A   1      38.893  32.048  35.417  1.00  0.00     0.023 A 
ATOM     74  C   UNL A   1      39.040  33.449  35.430  1.00  0.00     0.012 A 
ATOM     75  C   UNL A   1      38.272  31.412  36.509  1.00  0.00     0.148 A 
ATOM     76  C   UNL A   1      38.610  34.198  36.526  1.00  0.00     0.002 A 
ATOM     77  C   UNL A   1      37.793  32.170  37.571  1.00  0.00     0.091 A 
ATOM     78  F   UNL A   1      38.149  30.077  36.479  1.00  0.00    -0.205 F 
ATOM     79  C   UNL A   1      37.977  33.560  37.590  1.00  0.00     0.022 A 
BRANCH  77  80
ATOM     80  S   UNL A   1      36.846  31.451  38.916  1.00  0.00     0.127 S 
ATOM     81  O   UNL A   1      37.773  31.582  40.037  1.00  0.00    -0.237 OA
ATOM     82  O   UNL A   1      35.682  32.336  38.970  1.00  0.00    -0.237 OA
ATOM     83  O   UNL A   1      36.544  30.088  38.502  1.00  0.00    -0.744 OA
ENDBRANCH  77  80
ENDBRANCH  49  73
BRANCH  61  84
ATOM     84  C   UNL A   1      44.642  28.296  34.127  1.00  0.00     0.023 A 
ATOM     85  C   UNL A   1      45.741  29.174  34.061  1.00  0.00     0.012 A 
ATOM     86  C   UNL A   1      44.690  27.194  35.004  1.00  0.00     0.148 A 
ATOM     87  C   UNL A   1      46.883  28.940  34.828  1.00  0.00     0.002 A 
ATOM     88  C   UNL A   1      45.808  26.997  35.804  1.00  0.00     0.091 A 
ATOM     89  F   UNL A   1      43.641  26.359  35.039  1.00  0.00    -0.205 F 
ATOM     90  C   UNL A   1      46.911  27.861  35.708  1.00  0.00     0.022 A 
BRANCH  88  91
ATOM     91  S   UNL A   1      45.896  25.692  37.035  1.00  0.00     0.127 S 
ATOM     92  O   UNL A   1      45.850  24.492  36.202  1.00  0.00    -0.237 OA
ATOM     93  O   UNL A   1      47.191  25.948  37.665  1.00  0.00    -0.237 OA
ATOM     94  O   UNL A   1      44.748  25.886  37.911  1.00  0.00    -0.744 OA
ENDBRANCH  88  91
ENDBRANCH  61  84
ENDBRANCH  35  36
ENDBRANCH  27  30
ENDBRANCH  25  26
ENDBRANCH  24  25
ENDBRANCH   1  24
TORSDOF 17
ENDMDL
MODEL 2
REMARK VINA RESULT:     -11.9      4.625     10.755
REMARK SMILES O=C(Cc1ccccc1-c1ccn(C(F)F)c(=O)c1)NCCCCNC(=O)c1ccc(-c2c3nc(c(-c4cccc(S(=O)(=O)[O-])c4F)c4ccc([nH]4)c(-c4cccc(S(=O)(=O)[O-])c4F)c4nc(c(-c5cccc(S(=O)(=O)[O-])c5F)c5ccc2[nH]5)C=C4)C=C3)cc1
REMARK SMILES IDX 22 1 21 2 20 3 1 4 2 5 3 7 4 8 5 9 9 10 6 11 8 12 7 13 10 14
REMARK SMILES IDX 11 15 19 16 12 17 17 18 13 19 18 20 14 21 15 22 16 23 23 24
REMARK SMILES IDX 24 25 25 26 26 27 27 29 28 30 29 31 90 32 30 33 89 34 31 35
REMARK SMILES IDX 32 36 33 37 83 38 34 39 88 40 82 41 84 42 35 43 87 44 81 45
REMARK SMILES IDX 80 46 36 48 68 49 48 50 67 51 49 52 52 53 66 54 85 55 50 56
REMARK SMILES IDX 51 57 65 59 86 60 53 61 37 62 38 63 46 64 39 65 41 66 47 67
REMARK SMILES IDX 40 68 42 69 43 70 44 71 45 72 69 73 70 74 78 75 71 76 73 77
REMARK SMILES IDX 79 78 72 79 74 80 75 81 76 82 77 83 54 84 55 85 63 86 56 87
REMARK SMILES IDX 58 88 64 89 57 90 59 91 60 92 61 93 62 94
REMARK H PARENT 20 6 25 28 84 47 52 58
REMARK Flexibility Score: inf
ROOT
ATOM      1  C   UNL A   1      34.549  34.257  31.679  1.00  0.00     0.023 C 
ENDROOT
BRANCH   1   2
ATOM      2  C   UNL A   1      34.494  32.949  32.467  1.00  0.00     0.116 C 
BRANCH   2   3
ATOM      3  N   UNL A   1      35.755  32.662  33.115  1.00  0.00    -0.356 N 
ATOM      4  O   UNL A   1      35.350  33.794  35.080  1.00  0.00    -0.275 OA
ATOM      5  C   UNL A   1      36.071  33.078  34.390  1.00  0.00     0.224 C 
ATOM      6  H   UNL A   1      36.425  32.141  32.617  1.00  0.00     0.163 HD
BRANCH   5   7
ATOM      7  C   UNL A   1      37.406  32.531  34.878  1.00  0.00     0.136 C 
BRANCH   7   8
ATOM      8  C   UNL A   1      38.187  33.556  35.677  1.00  0.00    -0.031 A 
ATOM      9  C   UNL A   1      38.133  33.495  37.084  1.00  0.00     0.005 A 
ATOM     10  C   UNL A   1      38.992  34.548  35.076  1.00  0.00    -0.014 A 
ATOM     11  C   UNL A   1      38.826  34.407  37.877  1.00  0.00     0.000 A 
ATOM     12  C   UNL A   1      39.671  35.474  35.889  1.00  0.00     0.009 A 
ATOM     13  C   UNL A   1      39.585  35.404  37.279  1.00  0.00     0.001 A 
BRANCH  10  14
ATOM     14  C   UNL A   1      39.210  34.593  33.616  1.00  0.00    -0.011 A 
ATOM     15  C   UNL A   1      38.141  34.752  32.650  1.00  0.00     0.027 A 
ATOM     16  C   UNL A   1      40.464  34.371  33.179  1.00  0.00     0.080 A 
ATOM     17  C   UNL A   1      38.381  34.576  31.346  1.00  0.00     0.095 A 
ATOM     18  C   UNL A   1      40.753  34.239  31.727  1.00  0.00     0.255 A 
ATOM     19  N   UNL A   1      39.656  34.297  30.886  1.00  0.00    -0.258 N 
ATOM     20  O   UNL A   1      41.916  34.062  31.372  1.00  0.00    -0.269 OA
BRANCH  19  21
ATOM     21  C   UNL A   1      39.891  34.028  29.492  1.00  0.00     0.451 C 
ATOM     22  F   UNL A   1      38.727  33.881  28.813  1.00  0.00    -0.185 F 
ATOM     23  F   UNL A   1      40.589  35.036  28.913  1.00  0.00    -0.185 F 
ENDBRANCH  19  21
ENDBRANCH  10  14
ENDBRANCH   7   8
ENDBRANCH   5   7
ENDBRANCH   2   3
ENDBRANCH   1   2
BRANCH   1  24
ATOM     24  C   UNL A   1      34.067  34.169  30.226  1.00  0.00     0.023 C 
BRANCH  24  25
ATOM     25  C   UNL A   1      34.968  33.376  29.285  1.00  0.00     0.116 C 
BRANCH  25  26
ATOM     26  N   UNL A   1      34.210  32.515  28.391  1.00  0.00    -0.352 N 
ATOM     27  C   UNL A   1      34.548  31.293  27.861  1.00  0.00     0.251 C 
ATOM     28  H   UNL A   1      33.326  32.858  28.127  1.00  0.00     0.163 HD
ATOM     29  O   UNL A   1      33.852  30.806  26.970  1.00  0.00    -0.269 OA
BRANCH  27  30
ATOM     30  C   UNL A   1      35.749  30.571  28.336  1.00  0.00     0.039 A 
ATOM     31  C   UNL A   1      36.950  30.722  27.635  1.00  0.00     0.014 A 
ATOM     32  C   UNL A   1      35.697  29.733  29.453  1.00  0.00     0.014 A 
ATOM     33  C   UNL A   1      38.108  30.087  28.093  1.00  0.00     0.010 A 
ATOM     34  C   UNL A   1      36.867  29.161  29.950  1.00  0.00     0.010 A 
ATOM     35  C   UNL A   1      38.086  29.329  29.276  1.00  0.00    -0.014 A 
BRANCH  35  36
ATOM     36  C   UNL A   1      39.329  28.723  29.828  1.00  0.00     0.031 A 
ATOM     37  C   UNL A   1      39.993  29.310  31.045  1.00  0.00     0.074 A 
ATOM     38  C   UNL A   1      39.909  27.691  29.183  1.00  0.00     0.049 A 
ATOM     39  N   UNL A   1      41.108  28.951  31.629  1.00  0.00    -0.248 NA
ATOM     40  C   UNL A   1      39.334  30.465  31.674  1.00  0.00     0.031 C 
ATOM     41  C   UNL A   1      39.411  27.076  27.950  1.00  0.00     0.029 A 
ATOM     42  N   UNL A   1      41.060  26.994  29.457  1.00  0.00    -0.354 N 
ATOM     43  C   UNL A   1      41.300  29.852  32.670  1.00  0.00     0.074 A 
ATOM     44  C   UNL A   1      40.206  30.797  32.615  1.00  0.00     0.031 C 
ATOM     45  C   UNL A   1      40.247  26.096  27.577  1.00  0.00     0.029 A 
ATOM     46  C   UNL A   1      41.360  26.033  28.519  1.00  0.00     0.049 A 
ATOM     47  H   UNL A   1      41.619  27.165  30.250  1.00  0.00     0.167 HD
ATOM     48  C   UNL A   1      42.281  29.877  33.605  1.00  0.00     0.034 A 
ATOM     49  C   UNL A   1      42.418  25.203  28.417  1.00  0.00     0.034 A 
ATOM     50  C   UNL A   1      43.352  28.920  33.678  1.00  0.00     0.049 A 
ATOM     51  C   UNL A   1      43.482  25.235  29.480  1.00  0.00     0.074 A 
ATOM     52  C   UNL A   1      44.347  28.814  34.634  1.00  0.00     0.029 A 
ATOM     53  N   UNL A   1      43.580  27.912  32.754  1.00  0.00    -0.354 N 
ATOM     54  N   UNL A   1      43.563  25.997  30.543  1.00  0.00    -0.248 NA
ATOM     55  C   UNL A   1      44.581  24.267  29.350  1.00  0.00     0.031 C 
ATOM     56  C   UNL A   1      45.196  27.763  34.270  1.00  0.00     0.029 A 
ATOM     57  C   UNL A   1      44.706  27.188  33.109  1.00  0.00     0.049 A 
ATOM     58  H   UNL A   1      43.023  27.736  31.962  1.00  0.00     0.167 HD
ATOM     59  C   UNL A   1      44.699  25.578  31.227  1.00  0.00     0.074 A 
ATOM     60  C   UNL A   1      45.262  24.481  30.468  1.00  0.00     0.031 C 
ATOM     61  C   UNL A   1      45.234  26.067  32.373  1.00  0.00     0.034 A 
BRANCH  48  62
ATOM     62  C   UNL A   1      42.217  30.955  34.657  1.00  0.00     0.023 A 
ATOM     63  C   UNL A   1      41.448  30.749  35.822  1.00  0.00     0.012 A 
ATOM     64  C   UNL A   1      42.958  32.146  34.523  1.00  0.00     0.148 A 
ATOM     65  C   UNL A   1      41.385  31.725  36.815  1.00  0.00     0.002 A 
ATOM     66  C   UNL A   1      42.928  33.095  35.540  1.00  0.00     0.091 A 
ATOM     67  F   UNL A   1      43.669  32.334  33.402  1.00  0.00    -0.205 F 
ATOM     68  C   UNL A   1      42.132  32.892  36.679  1.00  0.00     0.022 A 
BRANCH  66  69
ATOM     69  S   UNL A   1      43.917  34.593  35.497  1.00  0.00     0.127 S 
ATOM     70  O   UNL A   1      43.830  34.962  34.085  1.00  0.00    -0.237 OA
ATOM     71  O   UNL A   1      43.179  35.474  36.403  1.00  0.00    -0.237 OA
ATOM     72  O   UNL A   1      45.243  34.213  35.963  1.00  0.00    -0.744 OA
ENDBRANCH  66  69
ENDBRANCH  48  62
BRANCH  49  73
ATOM     73  C   UNL A   1      42.497  24.236  27.285  1.00  0.00     0.023 A 
ATOM     74  C   UNL A   1      43.193  24.591  26.113  1.00  0.00     0.012 A 
ATOM     75  C   UNL A   1      41.912  22.958  27.376  1.00  0.00     0.148 A 
ATOM     76  C   UNL A   1      43.273  23.705  25.038  1.00  0.00     0.002 A 
ATOM     77  C   UNL A   1      42.047  22.059  26.325  1.00  0.00     0.091 A 
ATOM     78  F   UNL A   1      41.248  22.643  28.498  1.00  0.00    -0.205 F 
ATOM     79  C   UNL A   1      42.710  22.437  25.149  1.00  0.00     0.022 A 
BRANCH  77  80
ATOM     80  S   UNL A   1      41.473  20.361  26.432  1.00  0.00     0.127 S 
ATOM     81  O   UNL A   1      40.048  20.507  26.150  1.00  0.00    -0.237 OA
ATOM     82  O   UNL A   1      42.250  19.715  25.374  1.00  0.00    -0.237 OA
ATOM     83  O   UNL A   1      41.808  19.915  27.778  1.00  0.00    -0.744 OA
ENDBRANCH  77  80
ENDBRANCH  49  73
BRANCH  61  84
ATOM     84  C   UNL A   1      46.471  25.395  32.912  1.00  0.00     0.023 A 
ATOM     85  C   UNL A   1      47.747  25.879  32.564  1.00  0.00     0.012 A 
ATOM     86  C   UNL A   1      46.364  24.324  33.823  1.00  0.00     0.148 A 
ATOM     87  C   UNL A   1      48.897  25.287  33.085  1.00  0.00     0.002 A 
ATOM     88  C   UNL A   1      47.512  23.774  34.379  1.00  0.00     0.091 A 
ATOM     89  F   UNL A   1      45.141  23.866  34.129  1.00  0.00    -0.205 F 
ATOM     90  C   UNL A   1      48.780  24.244  34.001  1.00  0.00     0.022 A 
BRANCH  88  91
ATOM     91  S   UNL A   1      47.455  22.495  35.639  1.00  0.00     0.127 S 
ATOM     92  O   UNL A   1      47.203  21.298  34.838  1.00  0.00    -0.237 OA
ATOM     93  O   UNL A   1      48.797  22.571  36.217  1.00  0.00    -0.237 OA
ATOM     94  O   UNL A   1      46.382  22.873  36.549  1.00  0.00    -0.744 OA
ENDBRANCH  88  91
ENDBRANCH  61  84
ENDBRANCH  35  36
ENDBRANCH  27  30
ENDBRANCH  25  26
ENDBRANCH  24  25
ENDBRANCH   1  24
TORSDOF 17
ENDMDL
MODEL 3
REMARK VINA RESULT:     -11.8      1.853      2.170
REMARK SMILES O=C(Cc1ccccc1-c1ccn(C(F)F)c(=O)c1)NCCCCNC(=O)c1ccc(-c2c3nc(c(-c4cccc(S(=O)(=O)[O-])c4F)c4ccc([nH]4)c(-c4cccc(S(=O)(=O)[O-])c4F)c4nc(c(-c5cccc(S(=O)(=O)[O-])c5F)c5ccc2[nH]5)C=C4)C=C3)cc1
REMARK SMILES IDX 22 1 21 2 20 3 1 4 2 5 3 7 4 8 5 9 9 10 6 11 8 12 7 13 10 14
REMARK SMILES IDX 11 15 19 16 12 17 17 18 13 19 18 20 14 21 15 22 16 23 23 24
REMARK SMILES IDX 24 25 25 26 26 27 27 29 28 30 29 31 90 32 30 33 89 34 31 35
REMARK SMILES IDX 32 36 33 37 83 38 34 39 88 40 82 41 84 42 35 43 87 44 81 45
REMARK SMILES IDX 80 46 36 48 68 49 48 50 67 51 49 52 52 53 66 54 85 55 50 56
REMARK SMILES IDX 51 57 65 59 86 60 53 61 37 62 38 63 46 64 39 65 41 66 47 67
REMARK SMILES IDX 40 68 42 69 43 70 44 71 45 72 69 73 70 74 78 75 71 76 73 77
REMARK SMILES IDX 79 78 72 79 74 80 75 81 76 82 77 83 54 84 55 85 63 86 56 87
REMARK SMILES IDX 58 88 64 89 57 90 59 91 60 92 61 93 62 94
REMARK H PARENT 20 6 25 28 84 47 52 58
REMARK Flexibility Score: inf
ROOT
ATOM      1  C   UNL A   1      31.061  27.650  25.616  1.00  0.00     0.023 C 
ENDROOT
BRANCH   1   2
ATOM      2  C   UNL A   1      30.528  26.379  26.274  1.00  0.00     0.116 C 
BRANCH   2   3
ATOM      3  N   UNL A   1      30.722  25.220  25.431  1.00  0.00    -0.356 N 
ATOM      4  O   UNL A   1      31.255  23.720  27.096  1.00  0.00    -0.275 OA
ATOM      5  C   UNL A   1      31.036  23.967  25.914  1.00  0.00     0.224 C 
ATOM      6  H   UNL A   1      30.624  25.331  24.459  1.00  0.00     0.163 HD
BRANCH   5   7
ATOM      7  C   UNL A   1      31.055  22.901  24.827  1.00  0.00     0.136 C 
BRANCH   7   8
ATOM      8  C   UNL A   1      32.319  22.064  24.867  1.00  0.00    -0.031 A 
ATOM      9  C   UNL A   1      32.219  20.714  25.259  1.00  0.00     0.005 A 
ATOM     10  C   UNL A   1      33.585  22.567  24.498  1.00  0.00    -0.014 A 
ATOM     11  C   UNL A   1      33.342  19.892  25.319  1.00  0.00     0.000 A 
ATOM     12  C   UNL A   1      34.713  21.730  24.582  1.00  0.00     0.009 A 
ATOM     13  C   UNL A   1      34.590  20.403  24.992  1.00  0.00     0.001 A 
BRANCH  10  14
ATOM     14  C   UNL A   1      33.751  23.927  23.946  1.00  0.00    -0.011 A 
ATOM     15  C   UNL A   1      34.095  25.082  24.751  1.00  0.00     0.027 A 
ATOM     16  C   UNL A   1      33.464  24.096  22.642  1.00  0.00     0.080 A 
ATOM     17  C   UNL A   1      34.024  26.312  24.229  1.00  0.00     0.095 A 
ATOM     18  C   UNL A   1      33.447  25.452  22.035  1.00  0.00     0.255 A 
ATOM     19  N   UNL A   1      33.681  26.505  22.902  1.00  0.00    -0.258 N 
ATOM     20  O   UNL A   1      33.204  25.557  20.834  1.00  0.00    -0.269 OA
BRANCH  19  21
ATOM     21  C   UNL A   1      33.527  27.832  22.369  1.00  0.00     0.451 C 
ATOM     22  F   UNL A   1      32.289  28.325  22.615  1.00  0.00    -0.185 F 
ATOM     23  F   UNL A   1      34.431  28.683  22.915  1.00  0.00    -0.185 F 
ENDBRANCH  19  21
ENDBRANCH  10  14
ENDBRANCH   7   8
ENDBRANCH   5   7
ENDBRANCH   2   3
ENDBRANCH   1   2
BRANCH   1  24
ATOM     24  C   UNL A   1      31.945  28.530  26.509  1.00  0.00     0.023 C 
BRANCH  24  25
ATOM     25  C   UNL A   1      32.837  29.524  25.772  1.00  0.00     0.116 C 
BRANCH  25  26
ATOM     26  N   UNL A   1      32.543  30.902  26.132  1.00  0.00    -0.352 N 
ATOM     27  C   UNL A   1      33.173  31.721  27.038  1.00  0.00     0.251 C 
ATOM     28  H   UNL A   1      31.781  31.306  25.657  1.00  0.00     0.163 HD
ATOM     29  O   UNL A   1      32.656  32.796  27.343  1.00  0.00    -0.269 OA
BRANCH  27  30
ATOM     30  C   UNL A   1      34.450  31.313  27.664  1.00  0.00     0.039 A 
ATOM     31  C   UNL A   1      35.449  32.273  27.850  1.00  0.00     0.014 A 
ATOM     32  C   UNL A   1      34.677  29.989  28.052  1.00  0.00     0.014 A 
ATOM     33  C   UNL A   1      36.646  31.920  28.481  1.00  0.00     0.010 A 
ATOM     34  C   UNL A   1      35.838  29.657  28.747  1.00  0.00     0.010 A 
ATOM     35  C   UNL A   1      36.838  30.617  28.969  1.00  0.00    -0.014 A 
BRANCH  35  36
ATOM     36  C   UNL A   1      38.066  30.249  29.726  1.00  0.00     0.031 A 
ATOM     37  C   UNL A   1      39.054  29.267  29.155  1.00  0.00     0.074 A 
ATOM     38  C   UNL A   1      38.252  30.738  30.968  1.00  0.00     0.049 A 
ATOM     39  N   UNL A   1      40.145  28.787  29.695  1.00  0.00    -0.248 NA
ATOM     40  C   UNL A   1      38.767  28.735  27.813  1.00  0.00     0.031 C 
ATOM     41  C   UNL A   1      37.334  31.639  31.669  1.00  0.00     0.029 A 
ATOM     42  N   UNL A   1      39.261  30.524  31.875  1.00  0.00    -0.354 N 
ATOM     43  C   UNL A   1      40.656  27.876  28.777  1.00  0.00     0.074 A 
ATOM     44  C   UNL A   1      39.736  27.843  27.662  1.00  0.00     0.031 C 
ATOM     45  C   UNL A   1      37.822  31.901  32.892  1.00  0.00     0.029 A 
ATOM     46  C   UNL A   1      39.066  31.162  33.079  1.00  0.00     0.049 A 
ATOM     47  H   UNL A   1      40.050  29.967  31.683  1.00  0.00     0.167 HD
ATOM     48  C   UNL A   1      41.800  27.153  28.843  1.00  0.00     0.034 A 
ATOM     49  C   UNL A   1      39.796  31.143  34.212  1.00  0.00     0.034 A 
ATOM     50  C   UNL A   1      42.731  27.209  29.938  1.00  0.00     0.049 A 
ATOM     51  C   UNL A   1      41.073  30.351  34.251  1.00  0.00     0.074 A 
ATOM     52  C   UNL A   1      43.955  26.575  30.060  1.00  0.00     0.029 A 
ATOM     53  N   UNL A   1      42.536  27.927  31.108  1.00  0.00    -0.354 N 
ATOM     54  N   UNL A   1      41.616  29.616  33.312  1.00  0.00    -0.248 NA
ATOM     55  C   UNL A   1      41.859  30.416  35.492  1.00  0.00     0.031 C 
ATOM     56  C   UNL A   1      44.486  26.883  31.317  1.00  0.00     0.029 A 
ATOM     57  C   UNL A   1      43.610  27.742  31.963  1.00  0.00     0.049 A 
ATOM     58  H   UNL A   1      41.750  28.485  31.303  1.00  0.00     0.167 HD
ATOM     59  C   UNL A   1      42.822  29.159  33.834  1.00  0.00     0.074 A 
ATOM     60  C   UNL A   1      42.939  29.719  35.164  1.00  0.00     0.031 C 
ATOM     61  C   UNL A   1      43.742  28.340  33.267  1.00  0.00     0.034 A 
BRANCH  48  62
ATOM     62  C   UNL A   1      42.135  26.266  27.670  1.00  0.00     0.023 A 
ATOM     63  C   UNL A   1      42.893  26.782  26.598  1.00  0.00     0.012 A 
ATOM     64  C   UNL A   1      41.749  24.911  27.651  1.00  0.00     0.148 A 
ATOM     65  C   UNL A   1      43.226  25.978  25.510  1.00  0.00     0.002 A 
ATOM     66  C   UNL A   1      42.126  24.102  26.584  1.00  0.00     0.091 A 
ATOM     67  F   UNL A   1      41.013  24.441  28.668  1.00  0.00    -0.205 F 
ATOM     68  C   UNL A   1      42.853  24.636  25.507  1.00  0.00     0.022 A 
BRANCH  66  69
ATOM     69  S   UNL A   1      41.764  22.344  26.525  1.00  0.00     0.127 S 
ATOM     70  O   UNL A   1      40.311  22.349  26.358  1.00  0.00    -0.237 OA
ATOM     71  O   UNL A   1      42.512  21.916  25.342  1.00  0.00    -0.237 OA
ATOM     72  O   UNL A   1      42.246  21.791  27.783  1.00  0.00    -0.744 OA
ENDBRANCH  66  69
ENDBRANCH  48  62
BRANCH  49  73
ATOM     73  C   UNL A   1      39.356  31.943  35.392  1.00  0.00     0.023 A 
ATOM     74  C   UNL A   1      38.545  31.343  36.375  1.00  0.00     0.012 A 
ATOM     75  C   UNL A   1      39.759  33.282  35.556  1.00  0.00     0.148 A 
ATOM     76  C   UNL A   1      38.116  32.075  37.483  1.00  0.00     0.002 A 
ATOM     77  C   UNL A   1      39.377  33.986  36.692  1.00  0.00     0.091 A 
ATOM     78  F   UNL A   1      40.524  33.835  34.603  1.00  0.00    -0.205 F 
ATOM     79  C   UNL A   1      38.540  33.391  37.647  1.00  0.00     0.022 A 
BRANCH  77  80
ATOM     80  S   UNL A   1      39.985  35.636  37.052  1.00  0.00     0.127 S 
ATOM     81  O   UNL A   1      39.291  35.946  38.298  1.00  0.00    -0.237 OA
ATOM     82  O   UNL A   1      41.423  35.402  37.186  1.00  0.00    -0.237 OA
ATOM     83  O   UNL A   1      39.616  36.452  35.903  1.00  0.00    -0.744 OA
ENDBRANCH  77  80
ENDBRANCH  49  73
BRANCH  61  84
ATOM     84  C   UNL A   1      44.986  28.029  34.059  1.00  0.00     0.023 A 
ATOM     85  C   UNL A   1      45.025  26.899  34.899  1.00  0.00     0.012 A 
ATOM     86  C   UNL A   1      46.143  28.820  33.912  1.00  0.00     0.148 A 
ATOM     87  C   UNL A   1      46.183  26.582  35.609  1.00  0.00     0.002 A 
ATOM     88  C   UNL A   1      47.309  28.468  34.581  1.00  0.00     0.091 A 
ATOM     89  F   UNL A   1      46.082  29.902  33.122  1.00  0.00    -0.205 F 
ATOM     90  C   UNL A   1      47.327  27.358  35.441  1.00  0.00     0.022 A 
BRANCH  88  91
ATOM     91  S   UNL A   1      48.857  29.350  34.350  1.00  0.00     0.127 S 
ATOM     92  O   UNL A   1      49.098  29.161  32.920  1.00  0.00    -0.237 OA
ATOM     93  O   UNL A   1      48.494  30.715  34.731  1.00  0.00    -0.237 OA
ATOM     94  O   UNL A   1      49.821  28.711  35.234  1.00  0.00    -0.744 OA
ENDBRANCH  88  91
ENDBRANCH  61  84
ENDBRANCH  35  36
ENDBRANCH  27  30
ENDBRANCH  25  26
ENDBRANCH  24  25
ENDBRANCH   1  24
TORSDOF 17
ENDMDL
