MODEL 1
REMARK VINA RESULT:     -10.9      0.000      0.000
REMARK SMILES CN(CCOCC1CC1)C(=O)N1[C@@H]2CC[C@H]1[C@H](C(=O)NCCCCNC(=O)c1ccc(-c3c4nc(c(-c5cccc(S(=O)(=O)[O-])c5F)c5ccc([nH]5)c(-c5cccc(S(=O)(=O)[O-])c5F)c5nc(c(-c6cccc(S(=O)(=O)[O-])c6F)c6ccc3[nH]6)C=C5)C=C4)cc1)C2
REMARK SMILES IDX 18 1 19 2 20 3 17 5 12 6 13 7 16 8 14 9 91 10 15 11 10 12
REMARK SMILES IDX 11 13 2 14 1 15 3 16 4 17 5 18 6 19 7 20 8 21 9 22 21 23
REMARK SMILES IDX 22 24 23 25 24 26 25 27 26 28 27 30 28 31 29 32 90 33 30 34
REMARK SMILES IDX 89 35 31 36 32 37 33 38 83 39 34 40 88 41 82 42 84 43 35 44
REMARK SMILES IDX 87 45 81 46 80 47 36 49 68 50 48 51 67 52 49 53 52 54 66 55
REMARK SMILES IDX 85 56 50 57 51 58 65 60 86 61 53 62 37 63 38 64 46 65 39 66
REMARK SMILES IDX 41 67 47 68 40 69 42 70 43 71 44 72 45 73 69 74 70 75 78 76
REMARK SMILES IDX 71 77 73 78 79 79 72 80 74 81 75 82 76 83 77 84 54 85 55 86
REMARK SMILES IDX 63 87 56 88 58 89 64 90 57 91 59 92 60 93 61 94 62 95
REMARK H PARENT 20 4 25 29 84 48 52 59
REMARK Flexibility Score: inf
ROOT
ATOM      1  C   UNL A   1      35.113  23.516  26.150  1.00  0.00     0.225 C 
ATOM      2  O   UNL A   1      34.291  23.297  27.053  1.00  0.00    -0.275 OA
ATOM      3  N   UNL A   1      36.232  22.744  26.187  1.00  0.00    -0.356 N 
ATOM      4  H   UNL A   1      36.269  22.184  26.995  1.00  0.00     0.163 HD
ENDROOT
BRANCH   1   5
ATOM      5  C   UNL A   1      34.820  24.692  25.203  1.00  0.00     0.103 C 
ATOM      6  N   UNL A   1      32.770  24.121  24.397  1.00  0.00    -0.318 N 
ATOM      7  C   UNL A   1      32.598  25.508  24.811  1.00  0.00     0.088 C 
ATOM      8  C   UNL A   1      34.129  24.193  23.920  1.00  0.00     0.099 C 
ATOM      9  C   UNL A   1      32.839  26.211  23.472  1.00  0.00     0.027 C 
ATOM     10  C   UNL A   1      33.864  25.793  25.669  1.00  0.00     0.040 C 
ATOM     11  C   UNL A   1      33.975  25.339  22.880  1.00  0.00     0.028 C 
BRANCH   6  12
ATOM     12  C   UNL A   1      31.754  23.239  24.171  1.00  0.00     0.320 C 
ATOM     13  O   UNL A   1      31.021  23.410  23.192  1.00  0.00    -0.248 OA
BRANCH  12  14
ATOM     14  N   UNL A   1      31.470  22.250  25.118  1.00  0.00    -0.325 N 
ATOM     15  C   UNL A   1      30.660  22.665  26.263  1.00  0.00     0.148 C 
BRANCH  14  16
ATOM     16  C   UNL A   1      32.080  20.922  25.232  1.00  0.00     0.149 C 
BRANCH  16  17
ATOM     17  C   UNL A   1      33.380  20.616  24.466  1.00  0.00     0.181 C 
BRANCH  17  18
ATOM     18  O   UNL A   1      33.975  19.327  24.508  1.00  0.00    -0.379 OA
BRANCH  18  19
ATOM     19  C   UNL A   1      33.160  18.166  24.421  1.00  0.00     0.163 C 
BRANCH  19  20
ATOM     20  C   UNL A   1      33.436  17.026  25.351  1.00  0.00     0.015 C 
ATOM     21  C   UNL A   1      33.060  15.622  24.959  1.00  0.00     0.006 C 
ATOM     22  C   UNL A   1      34.493  15.945  25.269  1.00  0.00     0.006 C 
ENDBRANCH  19  20
ENDBRANCH  18  19
ENDBRANCH  17  18
ENDBRANCH  16  17
ENDBRANCH  14  16
ENDBRANCH  12  14
ENDBRANCH   6  12
ENDBRANCH   1   5
BRANCH   3  23
ATOM     23  C   UNL A   1      37.393  22.541  25.324  1.00  0.00     0.116 C 
BRANCH  23  24
ATOM     24  C   UNL A   1      37.238  21.424  24.307  1.00  0.00     0.023 C 
BRANCH  24  25
ATOM     25  C   UNL A   1      37.829  20.078  24.663  1.00  0.00     0.023 C 
BRANCH  25  26
ATOM     26  C   UNL A   1      38.636  20.120  25.942  1.00  0.00     0.116 C 
BRANCH  26  27
ATOM     27  N   UNL A   1      39.829  19.272  25.887  1.00  0.00    -0.352 N 
ATOM     28  C   UNL A   1      41.151  19.600  26.063  1.00  0.00     0.251 C 
ATOM     29  H   UNL A   1      39.657  18.322  25.695  1.00  0.00     0.163 HD
ATOM     30  O   UNL A   1      42.032  18.778  25.820  1.00  0.00    -0.269 OA
BRANCH  28  31
ATOM     31  C   UNL A   1      41.498  20.954  26.526  1.00  0.00     0.039 A 
ATOM     32  C   UNL A   1      42.266  21.121  27.680  1.00  0.00     0.014 A 
ATOM     33  C   UNL A   1      41.109  22.058  25.769  1.00  0.00     0.014 A 
ATOM     34  C   UNL A   1      42.707  22.398  28.024  1.00  0.00     0.010 A 
ATOM     35  C   UNL A   1      41.689  23.285  26.014  1.00  0.00     0.010 A 
ATOM     36  C   UNL A   1      42.460  23.481  27.166  1.00  0.00    -0.014 A 
BRANCH  36  37
ATOM     37  C   UNL A   1      42.950  24.848  27.449  1.00  0.00     0.031 A 
ATOM     38  C   UNL A   1      42.020  25.837  28.105  1.00  0.00     0.074 A 
ATOM     39  C   UNL A   1      44.165  25.227  27.006  1.00  0.00     0.049 A 
ATOM     40  N   UNL A   1      42.187  27.116  28.310  1.00  0.00    -0.248 NA
ATOM     41  C   UNL A   1      40.701  25.335  28.535  1.00  0.00     0.031 C 
ATOM     42  C   UNL A   1      45.103  24.377  26.265  1.00  0.00     0.029 A 
ATOM     43  N   UNL A   1      44.808  26.434  27.087  1.00  0.00    -0.354 N 
ATOM     44  C   UNL A   1      40.982  27.573  28.829  1.00  0.00     0.074 A 
ATOM     45  C   UNL A   1      40.072  26.454  28.853  1.00  0.00     0.031 C 
ATOM     46  C   UNL A   1      46.207  25.084  25.979  1.00  0.00     0.029 A 
ATOM     47  C   UNL A   1      46.039  26.445  26.475  1.00  0.00     0.049 A 
ATOM     48  H   UNL A   1      44.424  27.220  27.540  1.00  0.00     0.167 HD
ATOM     49  C   UNL A   1      40.674  28.809  29.286  1.00  0.00     0.034 A 
ATOM     50  C   UNL A   1      46.925  27.447  26.325  1.00  0.00     0.034 A 
ATOM     51  C   UNL A   1      41.618  29.888  29.328  1.00  0.00     0.049 A 
ATOM     52  C   UNL A   1      46.589  28.790  26.914  1.00  0.00     0.074 A 
ATOM     53  C   UNL A   1      41.463  31.147  29.874  1.00  0.00     0.029 A 
ATOM     54  N   UNL A   1      42.900  29.830  28.802  1.00  0.00    -0.354 N 
ATOM     55  N   UNL A   1      45.502  29.164  27.545  1.00  0.00    -0.248 NA
ATOM     56  C   UNL A   1      47.612  29.838  26.801  1.00  0.00     0.031 C 
ATOM     57  C   UNL A   1      42.643  31.862  29.652  1.00  0.00     0.029 A 
ATOM     58  C   UNL A   1      43.545  31.036  28.999  1.00  0.00     0.049 A 
ATOM     59  H   UNL A   1      43.292  29.046  28.354  1.00  0.00     0.167 HD
ATOM     60  C   UNL A   1      45.721  30.480  27.933  1.00  0.00     0.074 A 
ATOM     61  C   UNL A   1      47.056  30.827  27.487  1.00  0.00     0.031 C 
ATOM     62  C   UNL A   1      44.891  31.333  28.583  1.00  0.00     0.034 A 
BRANCH  49  63
ATOM     63  C   UNL A   1      39.286  29.033  29.829  1.00  0.00     0.023 A 
ATOM     64  C   UNL A   1      38.975  28.639  31.148  1.00  0.00     0.012 A 
ATOM     65  C   UNL A   1      38.302  29.671  29.051  1.00  0.00     0.148 A 
ATOM     66  C   UNL A   1      37.697  28.837  31.668  1.00  0.00     0.002 A 
ATOM     67  C   UNL A   1      37.046  29.914  29.594  1.00  0.00     0.091 A 
ATOM     68  F   UNL A   1      38.607  30.017  27.792  1.00  0.00    -0.205 F 
ATOM     69  C   UNL A   1      36.737  29.485  30.895  1.00  0.00     0.022 A 
BRANCH  67  70
ATOM     70  S   UNL A   1      35.765  30.814  28.715  1.00  0.00     0.127 S 
ATOM     71  O   UNL A   1      36.551  31.569  27.739  1.00  0.00    -0.237 OA
ATOM     72  O   UNL A   1      34.966  29.729  28.146  1.00  0.00    -0.237 OA
ATOM     73  O   UNL A   1      35.078  31.618  29.715  1.00  0.00    -0.744 OA
ENDBRANCH  67  70
ENDBRANCH  49  63
BRANCH  50  74
ATOM     74  C   UNL A   1      48.230  27.199  25.649  1.00  0.00     0.023 A 
ATOM     75  C   UNL A   1      49.314  26.696  26.396  1.00  0.00     0.012 A 
ATOM     76  C   UNL A   1      48.397  27.428  24.269  1.00  0.00     0.148 A 
ATOM     77  C   UNL A   1      50.548  26.459  25.790  1.00  0.00     0.002 A 
ATOM     78  C   UNL A   1      49.612  27.135  23.660  1.00  0.00     0.091 A 
ATOM     79  F   UNL A   1      47.358  27.912  23.576  1.00  0.00    -0.205 F 
ATOM     80  C   UNL A   1      50.695  26.669  24.422  1.00  0.00     0.022 A 
BRANCH  78  81
ATOM     81  S   UNL A   1      49.850  27.247  21.883  1.00  0.00     0.127 S 
ATOM     82  O   UNL A   1      48.893  26.258  21.391  1.00  0.00    -0.237 OA
ATOM     83  O   UNL A   1      49.489  28.640  21.617  1.00  0.00    -0.237 OA
ATOM     84  O   UNL A   1      51.255  26.938  21.655  1.00  0.00    -0.744 OA
ENDBRANCH  78  81
ENDBRANCH  50  74
BRANCH  62  85
ATOM     85  C   UNL A   1      45.414  32.712  28.882  1.00  0.00     0.023 A 
ATOM     86  C   UNL A   1      46.075  32.962  30.100  1.00  0.00     0.012 A 
ATOM     87  C   UNL A   1      45.318  33.734  27.919  1.00  0.00     0.148 A 
ATOM     88  C   UNL A   1      46.601  34.223  30.372  1.00  0.00     0.002 A 
ATOM     89  C   UNL A   1      45.894  34.971  28.172  1.00  0.00     0.091 A 
ATOM     90  F   UNL A   1      44.672  33.475  26.773  1.00  0.00    -0.205 F 
ATOM     91  C   UNL A   1      46.523  35.223  29.403  1.00  0.00     0.022 A 
BRANCH  89  92
ATOM     92  S   UNL A   1      45.934  36.282  26.946  1.00  0.00     0.127 S 
ATOM     93  O   UNL A   1      47.026  37.118  27.443  1.00  0.00    -0.237 OA
ATOM     94  O   UNL A   1      46.239  35.546  25.719  1.00  0.00    -0.237 OA
ATOM     95  O   UNL A   1      44.616  36.899  26.971  1.00  0.00    -0.744 OA
ENDBRANCH  89  92
ENDBRANCH  62  85
ENDBRANCH  36  37
ENDBRANCH  28  31
ENDBRANCH  26  27
ENDBRANCH  25  26
ENDBRANCH  24  25
ENDBRANCH  23  24
ENDBRANCH   3  23
TORSDOF 21
ENDMDL
MODEL 2
REMARK VINA RESULT:     -10.8      5.508      8.924
REMARK SMILES CN(CCOCC1CC1)C(=O)N1[C@@H]2CC[C@H]1[C@H](C(=O)NCCCCNC(=O)c1ccc(-c3c4nc(c(-c5cccc(S(=O)(=O)[O-])c5F)c5ccc([nH]5)c(-c5cccc(S(=O)(=O)[O-])c5F)c5nc(c(-c6cccc(S(=O)(=O)[O-])c6F)c6ccc3[nH]6)C=C5)C=C4)cc1)C2
REMARK SMILES IDX 18 1 19 2 20 3 17 5 12 6 13 7 16 8 14 9 91 10 15 11 10 12
REMARK SMILES IDX 11 13 2 14 1 15 3 16 4 17 5 18 6 19 7 20 8 21 9 22 21 23
REMARK SMILES IDX 22 24 23 25 24 26 25 27 26 28 27 30 28 31 29 32 90 33 30 34
REMARK SMILES IDX 89 35 31 36 32 37 33 38 83 39 34 40 88 41 82 42 84 43 35 44
REMARK SMILES IDX 87 45 81 46 80 47 36 49 68 50 48 51 67 52 49 53 52 54 66 55
REMARK SMILES IDX 85 56 50 57 51 58 65 60 86 61 53 62 37 63 38 64 46 65 39 66
REMARK SMILES IDX 41 67 47 68 40 69 42 70 43 71 44 72 45 73 69 74 70 75 78 76
REMARK SMILES IDX 71 77 73 78 79 79 72 80 74 81 75 82 76 83 77 84 54 85 55 86
REMARK SMILES IDX 63 87 56 88 58 89 64 90 57 91 59 92 60 93 61 94 62 95
REMARK H PARENT 20 4 25 29 84 48 52 59
REMARK Flexibility Score: inf
ROOT
ATOM      1  C   UNL A   1      31.910  23.842  26.732  1.00  0.00     0.225 C 
ATOM      2  O   UNL A   1      31.056  23.059  27.175  1.00  0.00    -0.275 OA
ATOM      3  N   UNL A   1      31.497  25.131  26.596  1.00  0.00    -0.356 N 
ATOM      4  H   UNL A   1      30.536  25.233  26.781  1.00  0.00     0.163 HD
ENDROOT
BRANCH   1   5
ATOM      5  C   UNL A   1      33.253  23.240  26.286  1.00  0.00     0.103 C 
ATOM      6  N   UNL A   1      33.298  23.819  24.086  1.00  0.00    -0.318 N 
ATOM      7  C   UNL A   1      34.607  24.236  24.574  1.00  0.00     0.088 C 
ATOM      8  C   UNL A   1      33.129  22.626  24.879  1.00  0.00     0.099 C 
ATOM      9  C   UNL A   1      35.434  23.006  24.183  1.00  0.00     0.027 C 
ATOM     10  C   UNL A   1      34.458  24.168  26.121  1.00  0.00     0.040 C 
ATOM     11  C   UNL A   1      34.426  21.867  24.478  1.00  0.00     0.028 C 
BRANCH   6  12
ATOM     12  C   UNL A   1      32.718  24.253  22.930  1.00  0.00     0.320 C 
ATOM     13  O   UNL A   1      33.261  23.988  21.853  1.00  0.00    -0.248 OA
BRANCH  12  14
ATOM     14  N   UNL A   1      31.610  25.105  22.986  1.00  0.00    -0.325 N 
ATOM     15  C   UNL A   1      30.346  24.493  23.395  1.00  0.00     0.148 C 
BRANCH  14  16
ATOM     16  C   UNL A   1      31.503  26.468  22.457  1.00  0.00     0.149 C 
BRANCH  16  17
ATOM     17  C   UNL A   1      30.265  27.318  22.797  1.00  0.00     0.181 C 
BRANCH  17  18
ATOM     18  O   UNL A   1      30.386  28.684  23.165  1.00  0.00    -0.379 OA
BRANCH  18  19
ATOM     19  C   UNL A   1      30.058  29.702  22.230  1.00  0.00     0.163 C 
BRANCH  19  20
ATOM     20  C   UNL A   1      28.640  30.174  22.154  1.00  0.00     0.015 C 
ATOM     21  C   UNL A   1      27.556  29.442  22.900  1.00  0.00     0.006 C 
ATOM     22  C   UNL A   1      27.802  30.894  23.190  1.00  0.00     0.006 C 
ENDBRANCH  19  20
ENDBRANCH  18  19
ENDBRANCH  17  18
ENDBRANCH  16  17
ENDBRANCH  14  16
ENDBRANCH  12  14
ENDBRANCH   6  12
ENDBRANCH   1   5
BRANCH   3  23
ATOM     23  C   UNL A   1      32.128  26.401  26.243  1.00  0.00     0.116 C 
BRANCH  23  24
ATOM     24  C   UNL A   1      31.222  27.612  26.368  1.00  0.00     0.023 C 
BRANCH  24  25
ATOM     25  C   UNL A   1      31.760  28.802  27.132  1.00  0.00     0.023 C 
BRANCH  25  26
ATOM     26  C   UNL A   1      32.669  29.668  26.289  1.00  0.00     0.116 C 
BRANCH  26  27
ATOM     27  N   UNL A   1      32.522  31.096  26.580  1.00  0.00    -0.352 N 
ATOM     28  C   UNL A   1      33.307  31.924  27.344  1.00  0.00     0.251 C 
ATOM     29  H   UNL A   1      31.742  31.528  26.165  1.00  0.00     0.163 HD
ATOM     30  O   UNL A   1      32.934  33.066  27.605  1.00  0.00    -0.269 OA
BRANCH  28  31
ATOM     31  C   UNL A   1      34.589  31.419  27.863  1.00  0.00     0.039 A 
ATOM     32  C   UNL A   1      35.671  32.288  28.016  1.00  0.00     0.014 A 
ATOM     33  C   UNL A   1      34.692  30.086  28.258  1.00  0.00     0.014 A 
ATOM     34  C   UNL A   1      36.829  31.829  28.641  1.00  0.00     0.010 A 
ATOM     35  C   UNL A   1      35.765  29.688  29.027  1.00  0.00     0.010 A 
ATOM     36  C   UNL A   1      36.864  30.538  29.193  1.00  0.00    -0.014 A 
BRANCH  36  37
ATOM     37  C   UNL A   1      38.044  30.014  29.917  1.00  0.00     0.031 A 
ATOM     38  C   UNL A   1      38.317  30.499  31.318  1.00  0.00     0.074 A 
ATOM     39  C   UNL A   1      38.920  29.217  29.275  1.00  0.00     0.049 A 
ATOM     40  N   UNL A   1      39.360  30.289  32.074  1.00  0.00    -0.248 NA
ATOM     41  C   UNL A   1      37.310  31.388  31.929  1.00  0.00     0.031 C 
ATOM     42  C   UNL A   1      38.804  28.774  27.882  1.00  0.00     0.029 A 
ATOM     43  N   UNL A   1      40.099  28.663  29.700  1.00  0.00    -0.354 N 
ATOM     44  C   UNL A   1      39.162  31.064  33.211  1.00  0.00     0.074 A 
ATOM     45  C   UNL A   1      37.932  31.795  33.024  1.00  0.00     0.031 C 
ATOM     46  C   UNL A   1      39.857  27.999  27.576  1.00  0.00     0.029 A 
ATOM     47  C   UNL A   1      40.743  27.928  28.733  1.00  0.00     0.049 A 
ATOM     48  H   UNL A   1      40.451  28.780  30.613  1.00  0.00     0.167 HD
ATOM     49  C   UNL A   1      39.915  31.127  34.332  1.00  0.00     0.034 A 
ATOM     50  C   UNL A   1      41.921  27.278  28.777  1.00  0.00     0.034 A 
ATOM     51  C   UNL A   1      41.092  30.332  34.533  1.00  0.00     0.049 A 
ATOM     52  C   UNL A   1      42.701  27.301  30.063  1.00  0.00     0.074 A 
ATOM     53  C   UNL A   1      41.873  30.220  35.667  1.00  0.00     0.029 A 
ATOM     54  N   UNL A   1      41.655  29.508  33.570  1.00  0.00    -0.354 N 
ATOM     55  N   UNL A   1      42.417  27.914  31.187  1.00  0.00    -0.248 NA
ATOM     56  C   UNL A   1      43.942  26.518  30.101  1.00  0.00     0.031 C 
ATOM     57  C   UNL A   1      42.928  29.348  35.380  1.00  0.00     0.029 A 
ATOM     58  C   UNL A   1      42.783  28.890  34.079  1.00  0.00     0.049 A 
ATOM     59  H   UNL A   1      41.304  29.380  32.659  1.00  0.00     0.167 HD
ATOM     60  C   UNL A   1      43.427  27.566  32.076  1.00  0.00     0.074 A 
ATOM     61  C   UNL A   1      44.313  26.667  31.364  1.00  0.00     0.031 C 
ATOM     62  C   UNL A   1      43.617  27.965  33.359  1.00  0.00     0.034 A 
BRANCH  49  63
ATOM     63  C   UNL A   1      39.455  32.039  35.441  1.00  0.00     0.023 A 
ATOM     64  C   UNL A   1      38.518  31.576  36.388  1.00  0.00     0.012 A 
ATOM     65  C   UNL A   1      39.979  33.339  35.569  1.00  0.00     0.148 A 
ATOM     66  C   UNL A   1      38.079  32.403  37.420  1.00  0.00     0.002 A 
ATOM     67  C   UNL A   1      39.577  34.141  36.631  1.00  0.00     0.091 A 
ATOM     68  F   UNL A   1      40.849  33.773  34.646  1.00  0.00    -0.205 F 
ATOM     69  C   UNL A   1      38.617  33.681  37.548  1.00  0.00     0.022 A 
BRANCH  67  70
ATOM     70  S   UNL A   1      40.269  35.769  36.935  1.00  0.00     0.127 S 
ATOM     71  O   UNL A   1      39.674  36.550  35.850  1.00  0.00    -0.237 OA
ATOM     72  O   UNL A   1      39.747  36.079  38.266  1.00  0.00    -0.237 OA
ATOM     73  O   UNL A   1      41.715  35.612  36.868  1.00  0.00    -0.744 OA
ENDBRANCH  67  70
ENDBRANCH  49  63
BRANCH  50  74
ATOM     74  C   UNL A   1      42.396  26.506  27.594  1.00  0.00     0.023 A 
ATOM     75  C   UNL A   1      43.197  27.144  26.625  1.00  0.00     0.012 A 
ATOM     76  C   UNL A   1      42.089  25.140  27.437  1.00  0.00     0.148 A 
ATOM     77  C   UNL A   1      43.652  26.447  25.506  1.00  0.00     0.002 A 
ATOM     78  C   UNL A   1      42.593  24.437  26.349  1.00  0.00     0.091 A 
ATOM     79  F   UNL A   1      41.322  24.552  28.365  1.00  0.00    -0.205 F 
ATOM     80  C   UNL A   1      43.359  25.092  25.372  1.00  0.00     0.022 A 
BRANCH  78  81
ATOM     81  S   UNL A   1      42.380  22.663  26.168  1.00  0.00     0.127 S 
ATOM     82  O   UNL A   1      43.034  22.413  24.886  1.00  0.00    -0.237 OA
ATOM     83  O   UNL A   1      43.096  22.151  27.337  1.00  0.00    -0.237 OA
ATOM     84  O   UNL A   1      40.941  22.436  26.200  1.00  0.00    -0.744 OA
ENDBRANCH  78  81
ENDBRANCH  50  74
BRANCH  62  85
ATOM     85  C   UNL A   1      44.809  27.405  34.085  1.00  0.00     0.023 A 
ATOM     86  C   UNL A   1      46.042  28.085  34.038  1.00  0.00     0.012 A 
ATOM     87  C   UNL A   1      44.682  26.248  34.877  1.00  0.00     0.148 A 
ATOM     88  C   UNL A   1      47.143  27.599  34.741  1.00  0.00     0.002 A 
ATOM     89  C   UNL A   1      45.766  25.802  35.620  1.00  0.00     0.091 A 
ATOM     90  F   UNL A   1      43.502  25.611  34.895  1.00  0.00    -0.205 F 
ATOM     91  C   UNL A   1      47.001  26.467  35.541  1.00  0.00     0.022 A 
BRANCH  89  92
ATOM     92  S   UNL A   1      45.649  24.418  36.757  1.00  0.00     0.127 S 
ATOM     93  O   UNL A   1      44.479  24.789  37.554  1.00  0.00    -0.237 OA
ATOM     94  O   UNL A   1      45.436  23.291  35.850  1.00  0.00    -0.237 OA
ATOM     95  O   UNL A   1      46.911  24.383  37.482  1.00  0.00    -0.744 OA
ENDBRANCH  89  92
ENDBRANCH  62  85
ENDBRANCH  36  37
ENDBRANCH  28  31
ENDBRANCH  26  27
ENDBRANCH  25  26
ENDBRANCH  24  25
ENDBRANCH  23  24
ENDBRANCH   3  23
TORSDOF 21
ENDMDL
MODEL 3
REMARK VINA RESULT:     -10.8      5.584     10.993
REMARK SMILES CN(CCOCC1CC1)C(=O)N1[C@@H]2CC[C@H]1[C@H](C(=O)NCCCCNC(=O)c1ccc(-c3c4nc(c(-c5cccc(S(=O)(=O)[O-])c5F)c5ccc([nH]5)c(-c5cccc(S(=O)(=O)[O-])c5F)c5nc(c(-c6cccc(S(=O)(=O)[O-])c6F)c6ccc3[nH]6)C=C5)C=C4)cc1)C2
REMARK SMILES IDX 18 1 19 2 20 3 17 5 12 6 13 7 16 8 14 9 91 10 15 11 10 12
REMARK SMILES IDX 11 13 2 14 1 15 3 16 4 17 5 18 6 19 7 20 8 21 9 22 21 23
REMARK SMILES IDX 22 24 23 25 24 26 25 27 26 28 27 30 28 31 29 32 90 33 30 34
REMARK SMILES IDX 89 35 31 36 32 37 33 38 83 39 34 40 88 41 82 42 84 43 35 44
REMARK SMILES IDX 87 45 81 46 80 47 36 49 68 50 48 51 67 52 49 53 52 54 66 55
REMARK SMILES IDX 85 56 50 57 51 58 65 60 86 61 53 62 37 63 38 64 46 65 39 66
REMARK SMILES IDX 41 67 47 68 40 69 42 70 43 71 44 72 45 73 69 74 70 75 78 76
REMARK SMILES IDX 71 77 73 78 79 79 72 80 74 81 75 82 76 83 77 84 54 85 55 86
REMARK SMILES IDX 63 87 56 88 58 89 64 90 57 91 59 92 60 93 61 94 62 95
REMARK H PARENT 20 4 25 29 84 48 52 59
REMARK Flexibility Score: inf
ROOT
ATOM      1  C   UNL A   1      31.922  24.141  26.597  1.00  0.00     0.225 C 
ATOM      2  O   UNL A   1      31.015  23.400  27.007  1.00  0.00    -0.275 OA
ATOM      3  N   UNL A   1      31.572  25.445  26.431  1.00  0.00    -0.356 N 
ATOM      4  H   UNL A   1      30.608  25.590  26.570  1.00  0.00     0.163 HD
ENDROOT
BRANCH   1   5
ATOM      5  C   UNL A   1      33.256  23.477  26.221  1.00  0.00     0.103 C 
ATOM      6  N   UNL A   1      33.374  23.932  23.995  1.00  0.00    -0.318 N 
ATOM      7  C   UNL A   1      34.682  24.338  24.494  1.00  0.00     0.088 C 
ATOM      8  C   UNL A   1      33.149  22.791  24.847  1.00  0.00     0.099 C 
ATOM      9  C   UNL A   1      35.481  23.066  24.193  1.00  0.00     0.027 C 
ATOM     10  C   UNL A   1      34.493  24.359  26.038  1.00  0.00     0.040 C 
ATOM     11  C   UNL A   1      34.432  21.974  24.523  1.00  0.00     0.028 C 
BRANCH   6  12
ATOM     12  C   UNL A   1      32.837  24.319  22.802  1.00  0.00     0.320 C 
ATOM     13  O   UNL A   1      33.487  24.140  21.767  1.00  0.00    -0.248 OA
BRANCH  12  14
ATOM     14  N   UNL A   1      31.636  25.035  22.781  1.00  0.00    -0.325 N 
ATOM     15  C   UNL A   1      30.451  24.322  23.258  1.00  0.00     0.148 C 
BRANCH  14  16
ATOM     16  C   UNL A   1      31.370  26.315  22.119  1.00  0.00     0.149 C 
BRANCH  16  17
ATOM     17  C   UNL A   1      30.416  27.327  22.779  1.00  0.00     0.181 C 
BRANCH  17  18
ATOM     18  O   UNL A   1      29.903  28.438  22.058  1.00  0.00    -0.379 OA
BRANCH  18  19
ATOM     19  C   UNL A   1      28.843  29.210  22.605  1.00  0.00     0.163 C 
BRANCH  19  20
ATOM     20  C   UNL A   1      29.047  30.682  22.782  1.00  0.00     0.015 C 
ATOM     21  C   UNL A   1      27.876  31.577  23.092  1.00  0.00     0.006 C 
ATOM     22  C   UNL A   1      29.034  31.516  24.047  1.00  0.00     0.006 C 
ENDBRANCH  19  20
ENDBRANCH  18  19
ENDBRANCH  17  18
ENDBRANCH  16  17
ENDBRANCH  14  16
ENDBRANCH  12  14
ENDBRANCH   6  12
ENDBRANCH   1   5
BRANCH   3  23
ATOM     23  C   UNL A   1      32.272  26.682  26.096  1.00  0.00     0.116 C 
BRANCH  23  24
ATOM     24  C   UNL A   1      31.387  27.915  26.042  1.00  0.00     0.023 C 
BRANCH  24  25
ATOM     25  C   UNL A   1      31.809  29.106  26.875  1.00  0.00     0.023 C 
BRANCH  25  26
ATOM     26  C   UNL A   1      32.617  30.108  26.082  1.00  0.00     0.116 C 
BRANCH  26  27
ATOM     27  N   UNL A   1      32.303  31.495  26.434  1.00  0.00    -0.352 N 
ATOM     28  C   UNL A   1      32.965  32.364  27.266  1.00  0.00     0.251 C 
ATOM     29  H   UNL A   1      31.494  31.860  26.008  1.00  0.00     0.163 HD
ATOM     30  O   UNL A   1      32.459  33.444  27.565  1.00  0.00    -0.269 OA
BRANCH  28  31
ATOM     31  C   UNL A   1      34.277  31.976  27.811  1.00  0.00     0.039 A 
ATOM     32  C   UNL A   1      35.294  32.926  27.923  1.00  0.00     0.014 A 
ATOM     33  C   UNL A   1      34.470  30.674  28.271  1.00  0.00     0.014 A 
ATOM     34  C   UNL A   1      36.478  32.580  28.572  1.00  0.00     0.010 A 
ATOM     35  C   UNL A   1      35.565  30.391  29.060  1.00  0.00     0.010 A 
ATOM     36  C   UNL A   1      36.601  31.323  29.186  1.00  0.00    -0.014 A 
BRANCH  36  37
ATOM     37  C   UNL A   1      37.811  30.920  29.937  1.00  0.00     0.031 A 
ATOM     38  C   UNL A   1      38.795  29.981  29.286  1.00  0.00     0.074 A 
ATOM     39  C   UNL A   1      37.952  31.290  31.224  1.00  0.00     0.049 A 
ATOM     40  N   UNL A   1      39.835  29.387  29.806  1.00  0.00    -0.248 NA
ATOM     41  C   UNL A   1      38.544  29.613  27.879  1.00  0.00     0.031 C 
ATOM     42  C   UNL A   1      37.002  32.112  31.982  1.00  0.00     0.029 A 
ATOM     43  N   UNL A   1      38.934  30.998  32.134  1.00  0.00    -0.354 N 
ATOM     44  C   UNL A   1      40.316  28.537  28.817  1.00  0.00     0.074 A 
ATOM     45  C   UNL A   1      39.424  28.645  27.688  1.00  0.00     0.031 C 
ATOM     46  C   UNL A   1      37.460  32.274  33.233  1.00  0.00     0.029 A 
ATOM     47  C   UNL A   1      38.708  31.535  33.380  1.00  0.00     0.049 A 
ATOM     48  H   UNL A   1      39.727  30.456  31.916  1.00  0.00     0.167 HD
ATOM     49  C   UNL A   1      41.428  27.768  28.832  1.00  0.00     0.034 A 
ATOM     50  C   UNL A   1      39.426  31.430  34.514  1.00  0.00     0.034 A 
ATOM     51  C   UNL A   1      42.346  27.735  29.934  1.00  0.00     0.049 A 
ATOM     52  C   UNL A   1      40.701  30.632  34.479  1.00  0.00     0.074 A 
ATOM     53  C   UNL A   1      43.564  27.090  30.022  1.00  0.00     0.029 A 
ATOM     54  N   UNL A   1      42.143  28.385  31.143  1.00  0.00    -0.354 N 
ATOM     55  N   UNL A   1      41.225  29.960  33.482  1.00  0.00    -0.248 NA
ATOM     56  C   UNL A   1      41.500  30.604  35.711  1.00  0.00     0.031 C 
ATOM     57  C   UNL A   1      44.085  27.324  31.298  1.00  0.00     0.029 A 
ATOM     58  C   UNL A   1      43.208  28.146  31.991  1.00  0.00     0.049 A 
ATOM     59  H   UNL A   1      41.357  28.934  31.364  1.00  0.00     0.167 HD
ATOM     60  C   UNL A   1      42.430  29.456  33.955  1.00  0.00     0.074 A 
ATOM     61  C   UNL A   1      42.568  29.923  35.320  1.00  0.00     0.031 C 
ATOM     62  C   UNL A   1      43.336  28.664  33.327  1.00  0.00     0.034 A 
BRANCH  49  63
ATOM     63  C   UNL A   1      41.738  26.954  27.602  1.00  0.00     0.023 A 
ATOM     64  C   UNL A   1      42.221  27.591  26.440  1.00  0.00     0.012 A 
ATOM     65  C   UNL A   1      41.591  25.554  27.608  1.00  0.00     0.148 A 
ATOM     66  C   UNL A   1      42.513  26.856  25.292  1.00  0.00     0.002 A 
ATOM     67  C   UNL A   1      41.934  24.820  26.478  1.00  0.00     0.091 A 
ATOM     68  F   UNL A   1      41.107  24.966  28.712  1.00  0.00    -0.205 F 
ATOM     69  C   UNL A   1      42.380  25.470  25.316  1.00  0.00     0.022 A 
BRANCH  67  70
ATOM     70  S   UNL A   1      41.880  23.026  26.431  1.00  0.00     0.127 S 
ATOM     71  O   UNL A   1      40.440  22.773  26.471  1.00  0.00    -0.237 OA
ATOM     72  O   UNL A   1      42.515  22.737  25.145  1.00  0.00    -0.237 OA
ATOM     73  O   UNL A   1      42.624  22.570  27.596  1.00  0.00    -0.744 OA
ENDBRANCH  67  70
ENDBRANCH  49  63
BRANCH  50  74
ATOM     74  C   UNL A   1      38.991  32.146  35.746  1.00  0.00     0.023 A 
ATOM     75  C   UNL A   1      39.259  33.524  35.878  1.00  0.00     0.012 A 
ATOM     76  C   UNL A   1      38.289  31.484  36.771  1.00  0.00     0.148 A 
ATOM     77  C   UNL A   1      38.868  34.219  37.022  1.00  0.00     0.002 A 
ATOM     78  C   UNL A   1      37.851  32.195  37.883  1.00  0.00     0.091 A 
ATOM     79  F   UNL A   1      38.048  30.173  36.631  1.00  0.00    -0.205 F 
ATOM     80  C   UNL A   1      38.156  33.558  38.020  1.00  0.00     0.022 A 
BRANCH  78  81
ATOM     81  S   UNL A   1      36.814  31.457  39.150  1.00  0.00     0.127 S 
ATOM     82  O   UNL A   1      35.695  32.395  39.203  1.00  0.00    -0.237 OA
ATOM     83  O   UNL A   1      36.499  30.154  38.562  1.00  0.00    -0.237 OA
ATOM     84  O   UNL A   1      37.642  31.391  40.346  1.00  0.00    -0.744 OA
ENDBRANCH  78  81
ENDBRANCH  50  74
BRANCH  62  85
ATOM     85  C   UNL A   1      44.569  28.282  34.098  1.00  0.00     0.023 A 
ATOM     86  C   UNL A   1      45.680  29.148  34.117  1.00  0.00     0.012 A 
ATOM     87  C   UNL A   1      44.593  27.102  34.865  1.00  0.00     0.148 A 
ATOM     88  C   UNL A   1      46.814  28.825  34.861  1.00  0.00     0.002 A 
ATOM     89  C   UNL A   1      45.703  26.814  35.648  1.00  0.00     0.091 A 
ATOM     90  F   UNL A   1      43.529  26.287  34.819  1.00  0.00    -0.205 F 
ATOM     91  C   UNL A   1      46.819  27.667  35.636  1.00  0.00     0.022 A 
BRANCH  89  92
ATOM     92  S   UNL A   1      45.757  25.404  36.757  1.00  0.00     0.127 S 
ATOM     93  O   UNL A   1      47.181  25.344  37.089  1.00  0.00    -0.237 OA
ATOM     94  O   UNL A   1      44.893  25.840  37.853  1.00  0.00    -0.237 OA
ATOM     95  O   UNL A   1      45.247  24.272  35.996  1.00  0.00    -0.744 OA
ENDBRANCH  89  92
ENDBRANCH  62  85
ENDBRANCH  36  37
ENDBRANCH  28  31
ENDBRANCH  26  27
ENDBRANCH  25  26
ENDBRANCH  24  25
ENDBRANCH  23  24
ENDBRANCH   3  23
TORSDOF 21
ENDMDL
