MODEL 1
REMARK VINA RESULT:     -11.8      0.000      0.000
REMARK SMILES C[NH2+][C@]1(C(=O)NCCCCNC(=O)c2ccc(-c3c4nc(c(-c5cccc(S(=O)(=O)[O-])c5F)c5ccc([nH]5)c(-c5cccc(S(=O)(=O)[O-])c5F)c5nc(c(-c6cccc(S(=O)(=O)[O-])c6F)c6ccc3[nH]6)C=C5)C=C4)cc2)CC[C@H](SC2CCCCC2)C1
REMARK SMILES IDX 9 1 8 2 7 3 6 4 4 5 5 6 3 8 77 9 87 10 78 11 79 12 2 13 1 14
REMARK SMILES IDX 80 17 81 18 82 19 86 20 83 21 85 22 84 23 10 24 11 25 12 26
REMARK SMILES IDX 13 28 14 29 15 30 76 31 16 32 75 33 17 34 18 35 19 36 69 37
REMARK SMILES IDX 20 38 74 39 68 40 70 41 21 42 73 43 67 44 66 45 22 47 54 48
REMARK SMILES IDX 34 49 53 50 35 51 38 52 52 53 71 54 36 55 37 56 51 58 72 59
REMARK SMILES IDX 39 60 23 61 24 62 32 63 25 64 27 65 33 66 26 67 28 68 29 69
REMARK SMILES IDX 30 70 31 71 55 72 56 73 64 74 57 75 59 76 65 77 58 78 60 79
REMARK SMILES IDX 61 80 62 81 63 82 40 83 41 84 49 85 42 86 44 87 50 88 43 89
REMARK SMILES IDX 45 90 46 91 47 92 48 93
REMARK H PARENT 6 7 2 15 2 16 11 27 70 46 38 57
REMARK Flexibility Score: inf
ROOT
ATOM      1  C   UNL A   1      31.866  28.897  26.849  1.00  0.00     0.023 C 
ENDROOT
BRANCH   1   2
ATOM      2  C   UNL A   1      32.120  27.427  26.521  1.00  0.00     0.023 C 
BRANCH   2   3
ATOM      3  C   UNL A   1      31.048  26.756  25.660  1.00  0.00     0.116 C 
BRANCH   3   4
ATOM      4  N   UNL A   1      30.332  25.714  26.372  1.00  0.00    -0.351 N 
ATOM      5  C   UNL A   1      30.506  24.363  26.485  1.00  0.00     0.281 C 
ATOM      6  O   UNL A   1      29.711  23.800  27.248  1.00  0.00    -0.268 OA
ATOM      7  H   UNL A   1      29.558  26.050  26.880  1.00  0.00     0.163 HD
BRANCH   5   8
ATOM      8  C   UNL A   1      31.653  23.580  25.751  1.00  0.00     0.176 C 
ATOM      9  C   UNL A   1      33.034  23.854  26.365  1.00  0.00     0.080 C 
ATOM     10  C   UNL A   1      31.509  22.051  25.902  1.00  0.00     0.093 C 
ATOM     11  C   UNL A   1      33.884  22.656  25.973  1.00  0.00     0.022 C 
ATOM     12  C   UNL A   1      32.932  21.461  25.869  1.00  0.00     0.054 C 
BRANCH   8  13
ATOM     13  N   UNL A   1      31.768  24.038  24.334  1.00  0.00    -0.336 N 
ATOM     14  C   UNL A   1      30.658  23.689  23.461  1.00  0.00     0.331 C 
ATOM     15  H   UNL A   1      31.853  25.055  24.341  1.00  0.00     0.346 HD
ATOM     16  H   UNL A   1      32.582  23.554  23.954  1.00  0.00     0.346 HD
ENDBRANCH   8  13
BRANCH  12  17
ATOM     17  S   UNL A   1      33.165  20.477  24.336  1.00  0.00    -0.155 SA
BRANCH  17  18
ATOM     18  C   UNL A   1      33.480  18.770  24.938  1.00  0.00     0.047 C 
ATOM     19  C   UNL A   1      32.238  17.877  24.927  1.00  0.00     0.014 C 
ATOM     20  C   UNL A   1      34.670  18.093  24.249  1.00  0.00     0.014 C 
ATOM     21  C   UNL A   1      32.524  16.520  25.562  1.00  0.00     0.001 C 
ATOM     22  C   UNL A   1      34.944  16.720  24.870  1.00  0.00     0.001 C 
ATOM     23  C   UNL A   1      33.699  15.835  24.871  1.00  0.00     0.000 C 
ENDBRANCH  17  18
ENDBRANCH  12  17
ENDBRANCH   5   8
ENDBRANCH   3   4
ENDBRANCH   2   3
ENDBRANCH   1   2
BRANCH   1  24
ATOM     24  C   UNL A   1      32.694  29.897  26.054  1.00  0.00     0.116 C 
BRANCH  24  25
ATOM     25  N   UNL A   1      32.484  31.280  26.464  1.00  0.00    -0.352 N 
ATOM     26  C   UNL A   1      33.253  32.046  27.309  1.00  0.00     0.251 C 
ATOM     27  H   UNL A   1      31.690  31.722  26.087  1.00  0.00     0.163 HD
ATOM     28  O   UNL A   1      32.883  33.172  27.629  1.00  0.00    -0.269 OA
BRANCH  26  29
ATOM     29  C   UNL A   1      34.505  31.484  27.854  1.00  0.00     0.039 A 
ATOM     30  C   UNL A   1      35.611  32.324  28.008  1.00  0.00     0.014 A 
ATOM     31  C   UNL A   1      34.569  30.149  28.259  1.00  0.00     0.014 A 
ATOM     32  C   UNL A   1      36.762  31.840  28.637  1.00  0.00     0.010 A 
ATOM     33  C   UNL A   1      35.686  29.692  28.950  1.00  0.00     0.010 A 
ATOM     34  C   UNL A   1      36.793  30.532  29.146  1.00  0.00    -0.014 A 
BRANCH  34  35
ATOM     35  C   UNL A   1      37.965  30.024  29.904  1.00  0.00     0.031 A 
ATOM     36  C   UNL A   1      38.243  30.529  31.293  1.00  0.00     0.074 A 
ATOM     37  C   UNL A   1      38.836  29.192  29.300  1.00  0.00     0.049 A 
ATOM     38  N   UNL A   1      39.250  30.257  32.081  1.00  0.00    -0.248 NA
ATOM     39  C   UNL A   1      37.281  31.489  31.859  1.00  0.00     0.031 C 
ATOM     40  C   UNL A   1      38.727  28.706  27.923  1.00  0.00     0.029 A 
ATOM     41  N   UNL A   1      40.004  28.633  29.756  1.00  0.00    -0.354 N 
ATOM     42  C   UNL A   1      39.067  31.041  33.214  1.00  0.00     0.074 A 
ATOM     43  C   UNL A   1      37.868  31.821  33.000  1.00  0.00     0.031 C 
ATOM     44  C   UNL A   1      39.783  27.924  27.646  1.00  0.00     0.029 A 
ATOM     45  C   UNL A   1      40.655  27.870  28.815  1.00  0.00     0.049 A 
ATOM     46  H   UNL A   1      40.343  28.766  30.670  1.00  0.00     0.167 HD
ATOM     47  C   UNL A   1      39.811  31.083  34.345  1.00  0.00     0.034 A 
ATOM     48  C   UNL A   1      41.825  27.204  28.885  1.00  0.00     0.034 A 
ATOM     49  C   UNL A   1      40.968  30.263  34.578  1.00  0.00     0.049 A 
ATOM     50  C   UNL A   1      42.595  27.212  30.178  1.00  0.00     0.074 A 
ATOM     51  C   UNL A   1      41.725  30.151  35.730  1.00  0.00     0.029 A 
ATOM     52  N   UNL A   1      41.537  29.414  33.641  1.00  0.00    -0.354 N 
ATOM     53  N   UNL A   1      42.308  27.821  31.304  1.00  0.00    -0.248 NA
ATOM     54  C   UNL A   1      43.828  26.413  30.225  1.00  0.00     0.031 C 
ATOM     55  C   UNL A   1      42.761  29.244  35.485  1.00  0.00     0.029 A 
ATOM     56  C   UNL A   1      42.640  28.780  34.186  1.00  0.00     0.049 A 
ATOM     57  H   UNL A   1      41.206  29.283  32.723  1.00  0.00     0.167 HD
ATOM     58  C   UNL A   1      43.303  27.452  32.201  1.00  0.00     0.074 A 
ATOM     59  C   UNL A   1      44.189  26.549  31.494  1.00  0.00     0.031 C 
ATOM     60  C   UNL A   1      43.478  27.839  33.489  1.00  0.00     0.034 A 
BRANCH  47  61
ATOM     61  C   UNL A   1      39.357  32.004  35.446  1.00  0.00     0.023 A 
ATOM     62  C   UNL A   1      38.498  31.510  36.450  1.00  0.00     0.012 A 
ATOM     63  C   UNL A   1      39.821  33.331  35.525  1.00  0.00     0.148 A 
ATOM     64  C   UNL A   1      38.083  32.331  37.497  1.00  0.00     0.002 A 
ATOM     65  C   UNL A   1      39.435  34.132  36.594  1.00  0.00     0.091 A 
ATOM     66  F   UNL A   1      40.618  33.790  34.548  1.00  0.00    -0.205 F 
ATOM     67  C   UNL A   1      38.560  33.637  37.574  1.00  0.00     0.022 A 
BRANCH  65  68
ATOM     68  S   UNL A   1      40.055  35.802  36.825  1.00  0.00     0.127 S 
ATOM     69  O   UNL A   1      41.492  35.568  36.955  1.00  0.00    -0.237 OA
ATOM     70  O   UNL A   1      39.653  36.455  35.578  1.00  0.00    -0.237 OA
ATOM     71  O   UNL A   1      39.392  36.313  38.017  1.00  0.00    -0.744 OA
ENDBRANCH  65  68
ENDBRANCH  47  61
BRANCH  48  72
ATOM     72  C   UNL A   1      42.295  26.406  27.717  1.00  0.00     0.023 A 
ATOM     73  C   UNL A   1      43.196  26.989  26.804  1.00  0.00     0.012 A 
ATOM     74  C   UNL A   1      41.889  25.071  27.526  1.00  0.00     0.148 A 
ATOM     75  C   UNL A   1      43.664  26.266  25.706  1.00  0.00     0.002 A 
ATOM     76  C   UNL A   1      42.401  24.340  26.460  1.00  0.00     0.091 A 
ATOM     77  F   UNL A   1      41.022  24.539  28.398  1.00  0.00    -0.205 F 
ATOM     78  C   UNL A   1      43.275  24.939  25.540  1.00  0.00     0.022 A 
BRANCH  76  79
ATOM     79  S   UNL A   1      42.061  22.589  26.245  1.00  0.00     0.127 S 
ATOM     80  O   UNL A   1      42.822  22.282  25.037  1.00  0.00    -0.237 OA
ATOM     81  O   UNL A   1      42.608  22.020  27.478  1.00  0.00    -0.237 OA
ATOM     82  O   UNL A   1      40.613  22.484  26.129  1.00  0.00    -0.744 OA
ENDBRANCH  76  79
ENDBRANCH  48  72
BRANCH  60  83
ATOM     83  C   UNL A   1      44.655  27.272  34.236  1.00  0.00     0.023 A 
ATOM     84  C   UNL A   1      45.876  27.973  34.251  1.00  0.00     0.012 A 
ATOM     85  C   UNL A   1      44.526  26.089  34.992  1.00  0.00     0.148 A 
ATOM     86  C   UNL A   1      46.960  27.493  34.985  1.00  0.00     0.002 A 
ATOM     87  C   UNL A   1      45.596  25.641  35.758  1.00  0.00     0.091 A 
ATOM     88  F   UNL A   1      43.362  25.425  34.949  1.00  0.00    -0.205 F 
ATOM     89  C   UNL A   1      46.817  26.336  35.747  1.00  0.00     0.022 A 
BRANCH  87  90
ATOM     90  S   UNL A   1      45.469  24.215  36.843  1.00  0.00     0.127 S 
ATOM     91  O   UNL A   1      46.867  23.995  37.212  1.00  0.00    -0.237 OA
ATOM     92  O   UNL A   1      44.624  24.720  37.926  1.00  0.00    -0.237 OA
ATOM     93  O   UNL A   1      44.857  23.161  36.044  1.00  0.00    -0.744 OA
ENDBRANCH  87  90
ENDBRANCH  60  83
ENDBRANCH  34  35
ENDBRANCH  26  29
ENDBRANCH  24  25
ENDBRANCH   1  24
TORSDOF 17
ENDMDL
MODEL 2
REMARK VINA RESULT:     -11.7      2.017      2.721
REMARK SMILES C[NH2+][C@]1(C(=O)NCCCCNC(=O)c2ccc(-c3c4nc(c(-c5cccc(S(=O)(=O)[O-])c5F)c5ccc([nH]5)c(-c5cccc(S(=O)(=O)[O-])c5F)c5nc(c(-c6cccc(S(=O)(=O)[O-])c6F)c6ccc3[nH]6)C=C5)C=C4)cc2)CC[C@H](SC2CCCCC2)C1
REMARK SMILES IDX 9 1 8 2 7 3 6 4 4 5 5 6 3 8 77 9 87 10 78 11 79 12 2 13 1 14
REMARK SMILES IDX 80 17 81 18 82 19 86 20 83 21 85 22 84 23 10 24 11 25 12 26
REMARK SMILES IDX 13 28 14 29 15 30 76 31 16 32 75 33 17 34 18 35 19 36 69 37
REMARK SMILES IDX 20 38 74 39 68 40 70 41 21 42 73 43 67 44 66 45 22 47 54 48
REMARK SMILES IDX 34 49 53 50 35 51 38 52 52 53 71 54 36 55 37 56 51 58 72 59
REMARK SMILES IDX 39 60 23 61 24 62 32 63 25 64 27 65 33 66 26 67 28 68 29 69
REMARK SMILES IDX 30 70 31 71 55 72 56 73 64 74 57 75 59 76 65 77 58 78 60 79
REMARK SMILES IDX 61 80 62 81 63 82 40 83 41 84 49 85 42 86 44 87 50 88 43 89
REMARK SMILES IDX 45 90 46 91 47 92 48 93
REMARK H PARENT 6 7 2 15 2 16 11 27 70 46 38 57
REMARK Flexibility Score: inf
ROOT
ATOM      1  C   UNL A   1      33.262  27.961  25.838  1.00  0.00     0.023 C 
ENDROOT
BRANCH   1   2
ATOM      2  C   UNL A   1      32.160  27.265  26.633  1.00  0.00     0.023 C 
BRANCH   2   3
ATOM      3  C   UNL A   1      31.013  26.692  25.797  1.00  0.00     0.116 C 
BRANCH   3   4
ATOM      4  N   UNL A   1      30.303  25.626  26.481  1.00  0.00    -0.351 N 
ATOM      5  C   UNL A   1      30.447  24.267  26.506  1.00  0.00     0.281 C 
ATOM      6  O   UNL A   1      29.673  23.678  27.271  1.00  0.00    -0.268 OA
ATOM      7  H   UNL A   1      29.563  25.949  27.044  1.00  0.00     0.163 HD
BRANCH   5   8
ATOM      8  C   UNL A   1      31.538  23.503  25.672  1.00  0.00     0.176 C 
ATOM      9  C   UNL A   1      32.937  23.622  26.293  1.00  0.00     0.080 C 
ATOM     10  C   UNL A   1      31.300  21.978  25.653  1.00  0.00     0.093 C 
ATOM     11  C   UNL A   1      33.708  22.425  25.758  1.00  0.00     0.022 C 
ATOM     12  C   UNL A   1      32.683  21.310  25.534  1.00  0.00     0.054 C 
BRANCH   8  13
ATOM     13  N   UNL A   1      31.671  24.110  24.314  1.00  0.00    -0.336 N 
ATOM     14  C   UNL A   1      30.663  23.718  23.341  1.00  0.00     0.331 C 
ATOM     15  H   UNL A   1      31.627  25.124  24.419  1.00  0.00     0.346 HD
ATOM     16  H   UNL A   1      32.558  23.767  23.945  1.00  0.00     0.346 HD
ENDBRANCH   8  13
BRANCH  12  17
ATOM     17  S   UNL A   1      32.843  20.492  23.898  1.00  0.00    -0.155 SA
BRANCH  17  18
ATOM     18  C   UNL A   1      33.366  18.778  24.299  1.00  0.00     0.047 C 
ATOM     19  C   UNL A   1      32.622  18.172  25.489  1.00  0.00     0.014 C 
ATOM     20  C   UNL A   1      33.354  17.840  23.086  1.00  0.00     0.014 C 
ATOM     21  C   UNL A   1      33.188  16.805  25.862  1.00  0.00     0.001 C 
ATOM     22  C   UNL A   1      33.903  16.461  23.465  1.00  0.00     0.001 C 
ATOM     23  C   UNL A   1      33.166  15.863  24.662  1.00  0.00     0.000 C 
ENDBRANCH  17  18
ENDBRANCH  12  17
ENDBRANCH   5   8
ENDBRANCH   3   4
ENDBRANCH   2   3
ENDBRANCH   1   2
BRANCH   1  24
ATOM     24  C   UNL A   1      34.305  28.695  26.669  1.00  0.00     0.116 C 
BRANCH  24  25
ATOM     25  N   UNL A   1      33.954  30.082  26.947  1.00  0.00    -0.352 N 
ATOM     26  C   UNL A   1      34.618  30.987  27.741  1.00  0.00     0.251 C 
ATOM     27  H   UNL A   1      33.137  30.413  26.509  1.00  0.00     0.163 HD
ATOM     28  O   UNL A   1      34.135  32.097  27.948  1.00  0.00    -0.269 OA
BRANCH  26  29
ATOM     29  C   UNL A   1      35.896  30.596  28.370  1.00  0.00     0.039 A 
ATOM     30  C   UNL A   1      35.875  29.698  29.440  1.00  0.00     0.014 A 
ATOM     31  C   UNL A   1      37.110  31.074  27.870  1.00  0.00     0.014 A 
ATOM     32  C   UNL A   1      37.080  29.223  29.964  1.00  0.00     0.010 A 
ATOM     33  C   UNL A   1      38.305  30.543  28.344  1.00  0.00     0.010 A 
ATOM     34  C   UNL A   1      38.303  29.613  29.394  1.00  0.00    -0.014 A 
BRANCH  34  35
ATOM     35  C   UNL A   1      39.592  29.048  29.868  1.00  0.00     0.031 A 
ATOM     36  C   UNL A   1      40.344  29.715  30.987  1.00  0.00     0.074 A 
ATOM     37  C   UNL A   1      40.136  27.999  29.219  1.00  0.00     0.049 A 
ATOM     38  N   UNL A   1      41.512  29.412  31.489  1.00  0.00    -0.248 NA
ATOM     39  C   UNL A   1      39.715  30.897  31.601  1.00  0.00     0.031 C 
ATOM     40  C   UNL A   1      39.550  27.325  28.059  1.00  0.00     0.029 A 
ATOM     41  N   UNL A   1      41.322  27.338  29.422  1.00  0.00    -0.354 N 
ATOM     42  C   UNL A   1      41.778  30.386  32.444  1.00  0.00     0.074 A 
ATOM     43  C   UNL A   1      40.663  31.306  32.432  1.00  0.00     0.031 C 
ATOM     44  C   UNL A   1      40.376  26.348  27.653  1.00  0.00     0.029 A 
ATOM     45  C   UNL A   1      41.560  26.339  28.507  1.00  0.00     0.049 A 
ATOM     46  H   UNL A   1      41.942  27.557  30.153  1.00  0.00     0.167 HD
ATOM     47  C   UNL A   1      42.839  30.486  33.280  1.00  0.00     0.034 A 
ATOM     48  C   UNL A   1      42.614  25.511  28.370  1.00  0.00     0.034 A 
ATOM     49  C   UNL A   1      43.916  29.535  33.330  1.00  0.00     0.049 A 
ATOM     50  C   UNL A   1      43.747  25.599  29.356  1.00  0.00     0.074 A 
ATOM     51  C   UNL A   1      44.980  29.487  34.213  1.00  0.00     0.029 A 
ATOM     52  N   UNL A   1      44.069  28.467  32.460  1.00  0.00    -0.354 N 
ATOM     53  N   UNL A   1      43.894  26.418  30.371  1.00  0.00    -0.248 NA
ATOM     54  C   UNL A   1      44.840  24.628  29.206  1.00  0.00     0.031 C 
ATOM     55  C   UNL A   1      45.784  28.395  33.868  1.00  0.00     0.029 A 
ATOM     56  C   UNL A   1      45.212  27.756  32.780  1.00  0.00     0.049 A 
ATOM     57  H   UNL A   1      43.455  28.247  31.722  1.00  0.00     0.167 HD
ATOM     58  C   UNL A   1      45.075  26.039  30.997  1.00  0.00     0.074 A 
ATOM     59  C   UNL A   1      45.593  24.904  30.262  1.00  0.00     0.031 C 
ATOM     60  C   UNL A   1      45.685  26.592  32.075  1.00  0.00     0.034 A 
BRANCH  47  61
ATOM     61  C   UNL A   1      42.854  31.631  34.257  1.00  0.00     0.023 A 
ATOM     62  C   UNL A   1      43.444  32.855  33.877  1.00  0.00     0.012 A 
ATOM     63  C   UNL A   1      42.238  31.523  35.518  1.00  0.00     0.148 A 
ATOM     64  C   UNL A   1      43.450  33.942  34.749  1.00  0.00     0.002 A 
ATOM     65  C   UNL A   1      42.211  32.624  36.367  1.00  0.00     0.091 A 
ATOM     66  F   UNL A   1      41.703  30.344  35.870  1.00  0.00    -0.205 F 
ATOM     67  C   UNL A   1      42.825  33.829  35.988  1.00  0.00     0.022 A 
BRANCH  65  68
ATOM     68  S   UNL A   1      41.365  32.604  37.951  1.00  0.00     0.127 S 
ATOM     69  O   UNL A   1      42.190  31.669  38.714  1.00  0.00    -0.237 OA
ATOM     70  O   UNL A   1      41.473  34.001  38.376  1.00  0.00    -0.237 OA
ATOM     71  O   UNL A   1      40.006  32.160  37.673  1.00  0.00    -0.744 OA
ENDBRANCH  65  68
ENDBRANCH  47  61
BRANCH  48  72
ATOM     72  C   UNL A   1      42.606  24.472  27.301  1.00  0.00     0.023 A 
ATOM     73  C   UNL A   1      43.248  24.740  26.076  1.00  0.00     0.012 A 
ATOM     74  C   UNL A   1      42.007  23.213  27.502  1.00  0.00     0.148 A 
ATOM     75  C   UNL A   1      43.268  23.785  25.059  1.00  0.00     0.002 A 
ATOM     76  C   UNL A   1      42.078  22.247  26.504  1.00  0.00     0.091 A 
ATOM     77  F   UNL A   1      41.391  22.981  28.670  1.00  0.00    -0.205 F 
ATOM     78  C   UNL A   1      42.693  22.536  25.277  1.00  0.00     0.022 A 
BRANCH  76  79
ATOM     79  S   UNL A   1      41.484  20.569  26.748  1.00  0.00     0.127 S 
ATOM     80  O   UNL A   1      40.048  20.780  26.901  1.00  0.00    -0.237 OA
ATOM     81  O   UNL A   1      41.883  19.921  25.498  1.00  0.00    -0.237 OA
ATOM     82  O   UNL A   1      42.184  20.075  27.927  1.00  0.00    -0.744 OA
ENDBRANCH  76  79
ENDBRANCH  48  72
BRANCH  60  83
ATOM     83  C   UNL A   1      46.969  25.967  32.550  1.00  0.00     0.023 A 
ATOM     84  C   UNL A   1      48.200  26.449  32.066  1.00  0.00     0.012 A 
ATOM     85  C   UNL A   1      46.959  24.963  33.538  1.00  0.00     0.148 A 
ATOM     86  C   UNL A   1      49.403  25.922  32.537  1.00  0.00     0.002 A 
ATOM     87  C   UNL A   1      48.161  24.474  34.037  1.00  0.00     0.091 A 
ATOM     88  F   UNL A   1      45.776  24.503  33.971  1.00  0.00    -0.205 F 
ATOM     89  C   UNL A   1      49.383  24.945  33.529  1.00  0.00     0.022 A 
BRANCH  87  90
ATOM     90  S   UNL A   1      48.230  23.285  35.381  1.00  0.00     0.127 S 
ATOM     91  O   UNL A   1      47.606  22.111  34.774  1.00  0.00    -0.237 OA
ATOM     92  O   UNL A   1      49.668  23.159  35.615  1.00  0.00    -0.237 OA
ATOM     93  O   UNL A   1      47.492  23.889  36.484  1.00  0.00    -0.744 OA
ENDBRANCH  87  90
ENDBRANCH  60  83
ENDBRANCH  34  35
ENDBRANCH  26  29
ENDBRANCH  24  25
ENDBRANCH   1  24
TORSDOF 17
ENDMDL
MODEL 3
REMARK VINA RESULT:     -11.7      4.831     10.358
REMARK SMILES C[NH2+][C@]1(C(=O)NCCCCNC(=O)c2ccc(-c3c4nc(c(-c5cccc(S(=O)(=O)[O-])c5F)c5ccc([nH]5)c(-c5cccc(S(=O)(=O)[O-])c5F)c5nc(c(-c6cccc(S(=O)(=O)[O-])c6F)c6ccc3[nH]6)C=C5)C=C4)cc2)CC[C@H](SC2CCCCC2)C1
REMARK SMILES IDX 9 1 8 2 7 3 6 4 4 5 5 6 3 8 77 9 87 10 78 11 79 12 2 13 1 14
REMARK SMILES IDX 80 17 81 18 82 19 86 20 83 21 85 22 84 23 10 24 11 25 12 26
REMARK SMILES IDX 13 28 14 29 15 30 76 31 16 32 75 33 17 34 18 35 19 36 69 37
REMARK SMILES IDX 20 38 74 39 68 40 70 41 21 42 73 43 67 44 66 45 22 47 54 48
REMARK SMILES IDX 34 49 53 50 35 51 38 52 52 53 71 54 36 55 37 56 51 58 72 59
REMARK SMILES IDX 39 60 23 61 24 62 32 63 25 64 27 65 33 66 26 67 28 68 29 69
REMARK SMILES IDX 30 70 31 71 55 72 56 73 64 74 57 75 59 76 65 77 58 78 60 79
REMARK SMILES IDX 61 80 62 81 63 82 40 83 41 84 49 85 42 86 44 87 50 88 43 89
REMARK SMILES IDX 45 90 46 91 47 92 48 93
REMARK H PARENT 6 7 2 15 2 16 11 27 70 46 38 57
REMARK Flexibility Score: inf
ROOT
ATOM      1  C   UNL A   1      35.340  21.322  25.968  1.00  0.00     0.023 C 
ENDROOT
BRANCH   1   2
ATOM      2  C   UNL A   1      34.454  20.397  25.137  1.00  0.00     0.023 C 
BRANCH   2   3
ATOM      3  C   UNL A   1      32.977  20.795  25.068  1.00  0.00     0.116 C 
BRANCH   3   4
ATOM      4  N   UNL A   1      32.550  21.556  26.227  1.00  0.00    -0.351 N 
ATOM      5  C   UNL A   1      32.082  22.830  26.394  1.00  0.00     0.281 C 
ATOM      6  O   UNL A   1      31.755  23.114  27.553  1.00  0.00    -0.268 OA
ATOM      7  H   UNL A   1      32.610  21.051  27.070  1.00  0.00     0.163 HD
BRANCH   5   8
ATOM      8  C   UNL A   1      31.918  23.847  25.208  1.00  0.00     0.176 C 
ATOM      9  C   UNL A   1      31.062  23.281  24.066  1.00  0.00     0.080 C 
ATOM     10  C   UNL A   1      31.140  25.113  25.625  1.00  0.00     0.093 C 
ATOM     11  C   UNL A   1      30.531  24.501  23.330  1.00  0.00     0.022 C 
ATOM     12  C   UNL A   1      30.397  25.615  24.372  1.00  0.00     0.054 C 
BRANCH   8  13
ATOM     13  N   UNL A   1      33.245  24.133  24.584  1.00  0.00    -0.336 N 
ATOM     14  C   UNL A   1      34.258  24.686  25.469  1.00  0.00     0.331 C 
ATOM     15  H   UNL A   1      33.606  23.258  24.204  1.00  0.00     0.346 HD
ATOM     16  H   UNL A   1      33.069  24.852  23.882  1.00  0.00     0.346 HD
ENDBRANCH   8  13
BRANCH  12  17
ATOM     17  S   UNL A   1      31.111  27.215  23.821  1.00  0.00    -0.155 SA
BRANCH  17  18
ATOM     18  C   UNL A   1      32.121  27.775  25.250  1.00  0.00     0.047 C 
ATOM     19  C   UNL A   1      33.574  28.087  24.889  1.00  0.00     0.014 C 
ATOM     20  C   UNL A   1      31.475  28.919  26.039  1.00  0.00     0.014 C 
ATOM     21  C   UNL A   1      34.398  28.414  26.131  1.00  0.00     0.001 C 
ATOM     22  C   UNL A   1      32.313  29.264  27.275  1.00  0.00     0.001 C 
ATOM     23  C   UNL A   1      33.767  29.562  26.913  1.00  0.00     0.000 C 
ENDBRANCH  17  18
ENDBRANCH  12  17
ENDBRANCH   5   8
ENDBRANCH   3   4
ENDBRANCH   2   3
ENDBRANCH   1   2
BRANCH   1  24
ATOM     24  C   UNL A   1      36.673  21.694  25.334  1.00  0.00     0.116 C 
BRANCH  24  25
ATOM     25  N   UNL A   1      37.689  20.658  25.470  1.00  0.00    -0.352 N 
ATOM     26  C   UNL A   1      38.982  20.785  25.921  1.00  0.00     0.251 C 
ATOM     27  H   UNL A   1      37.414  19.751  25.205  1.00  0.00     0.163 HD
ATOM     28  O   UNL A   1      39.746  19.824  25.883  1.00  0.00    -0.269 OA
BRANCH  26  29
ATOM     29  C   UNL A   1      39.450  22.097  26.414  1.00  0.00     0.039 A 
ATOM     30  C   UNL A   1      40.481  22.135  27.356  1.00  0.00     0.014 A 
ATOM     31  C   UNL A   1      38.909  23.281  25.908  1.00  0.00     0.014 A 
ATOM     32  C   UNL A   1      41.018  23.367  27.739  1.00  0.00     0.010 A 
ATOM     33  C   UNL A   1      39.495  24.499  26.233  1.00  0.00     0.010 A 
ATOM     34  C   UNL A   1      40.555  24.555  27.151  1.00  0.00    -0.014 A 
BRANCH  34  35
ATOM     35  C   UNL A   1      41.174  25.867  27.467  1.00  0.00     0.031 A 
ATOM     36  C   UNL A   1      42.599  26.144  27.075  1.00  0.00     0.074 A 
ATOM     37  C   UNL A   1      40.488  26.766  28.199  1.00  0.00     0.049 A 
ATOM     38  N   UNL A   1      43.332  27.198  27.323  1.00  0.00    -0.248 NA
ATOM     39  C   UNL A   1      43.305  25.084  26.334  1.00  0.00     0.031 C 
ATOM     40  C   UNL A   1      39.132  26.577  28.721  1.00  0.00     0.029 A 
ATOM     41  N   UNL A   1      40.849  28.008  28.662  1.00  0.00    -0.354 N 
ATOM     42  C   UNL A   1      44.592  26.914  26.810  1.00  0.00     0.074 A 
ATOM     43  C   UNL A   1      44.533  25.577  26.262  1.00  0.00     0.031 C 
ATOM     44  C   UNL A   1      38.778  27.659  29.430  1.00  0.00     0.029 A 
ATOM     45  C   UNL A   1      39.884  28.611  29.434  1.00  0.00     0.049 A 
ATOM     46  H   UNL A   1      41.716  28.426  28.459  1.00  0.00     0.167 HD
ATOM     47  C   UNL A   1      45.689  27.707  26.769  1.00  0.00     0.034 A 
ATOM     48  C   UNL A   1      39.892  29.795  30.077  1.00  0.00     0.034 A 
ATOM     49  C   UNL A   1      45.725  29.056  27.261  1.00  0.00     0.049 A 
ATOM     50  C   UNL A   1      41.099  30.686  29.955  1.00  0.00     0.074 A 
ATOM     51  C   UNL A   1      46.751  29.979  27.169  1.00  0.00     0.029 A 
ATOM     52  N   UNL A   1      44.688  29.678  27.941  1.00  0.00    -0.354 N 
ATOM     53  N   UNL A   1      42.220  30.470  29.309  1.00  0.00    -0.248 NA
ATOM     54  C   UNL A   1      41.029  31.997  30.616  1.00  0.00     0.031 C 
ATOM     55  C   UNL A   1      46.340  31.155  27.805  1.00  0.00     0.029 A 
ATOM     56  C   UNL A   1      45.053  30.969  28.280  1.00  0.00     0.049 A 
ATOM     57  H   UNL A   1      43.822  29.262  28.153  1.00  0.00     0.167 HD
ATOM     58  C   UNL A   1      42.973  31.629  29.457  1.00  0.00     0.074 A 
ATOM     59  C   UNL A   1      42.172  32.551  30.235  1.00  0.00     0.031 C 
ATOM     60  C   UNL A   1      44.223  31.898  29.004  1.00  0.00     0.034 A 
BRANCH  47  61
ATOM     61  C   UNL A   1      46.925  27.156  26.110  1.00  0.00     0.023 A 
ATOM     62  C   UNL A   1      47.089  27.302  24.717  1.00  0.00     0.012 A 
ATOM     63  C   UNL A   1      47.947  26.551  26.866  1.00  0.00     0.148 A 
ATOM     64  C   UNL A   1      48.235  26.826  24.082  1.00  0.00     0.002 A 
ATOM     65  C   UNL A   1      49.105  26.116  26.232  1.00  0.00     0.091 A 
ATOM     66  F   UNL A   1      47.762  26.399  28.186  1.00  0.00    -0.205 F 
ATOM     67  C   UNL A   1      49.246  26.243  24.841  1.00  0.00     0.022 A 
BRANCH  65  68
ATOM     68  S   UNL A   1      50.497  25.421  27.131  1.00  0.00     0.127 S 
ATOM     69  O   UNL A   1      50.873  26.535  28.000  1.00  0.00    -0.237 OA
ATOM     70  O   UNL A   1      49.882  24.287  27.824  1.00  0.00    -0.237 OA
ATOM     71  O   UNL A   1      51.481  25.052  26.123  1.00  0.00    -0.744 OA
ENDBRANCH  65  68
ENDBRANCH  47  61
BRANCH  48  72
ATOM     72  C   UNL A   1      38.682  30.240  30.825  1.00  0.00     0.023 A 
ATOM     73  C   UNL A   1      38.557  29.911  32.190  1.00  0.00     0.012 A 
ATOM     74  C   UNL A   1      37.679  31.015  30.211  1.00  0.00     0.148 A 
ATOM     75  C   UNL A   1      37.443  30.322  32.922  1.00  0.00     0.002 A 
ATOM     76  C   UNL A   1      36.598  31.466  30.960  1.00  0.00     0.091 A 
ATOM     77  F   UNL A   1      37.809  31.307  28.909  1.00  0.00    -0.205 F 
ATOM     78  C   UNL A   1      36.469  31.108  32.310  1.00  0.00     0.022 A 
BRANCH  76  79
ATOM     79  S   UNL A   1      35.369  32.592  30.291  1.00  0.00     0.127 S 
ATOM     80  O   UNL A   1      34.868  31.841  29.143  1.00  0.00    -0.237 OA
ATOM     81  O   UNL A   1      34.428  32.713  31.405  1.00  0.00    -0.237 OA
ATOM     82  O   UNL A   1      36.091  33.819  29.982  1.00  0.00    -0.744 OA
ENDBRANCH  76  79
ENDBRANCH  48  72
BRANCH  60  83
ATOM     83  C   UNL A   1      44.801  33.254  29.309  1.00  0.00     0.023 A 
ATOM     84  C   UNL A   1      45.520  33.452  30.503  1.00  0.00     0.012 A 
ATOM     85  C   UNL A   1      44.705  34.304  28.376  1.00  0.00     0.148 A 
ATOM     86  C   UNL A   1      46.113  34.685  30.777  1.00  0.00     0.002 A 
ATOM     87  C   UNL A   1      45.337  35.515  28.634  1.00  0.00     0.091 A 
ATOM     88  F   UNL A   1      43.999  34.101  27.254  1.00  0.00    -0.205 F 
ATOM     89  C   UNL A   1      46.031  35.711  29.839  1.00  0.00     0.022 A 
BRANCH  87  90
ATOM     90  S   UNL A   1      45.364  36.857  27.440  1.00  0.00     0.127 S 
ATOM     91  O   UNL A   1      43.952  37.231  27.378  1.00  0.00    -0.237 OA
ATOM     92  O   UNL A   1      46.227  37.840  28.093  1.00  0.00    -0.237 OA
ATOM     93  O   UNL A   1      45.917  36.289  26.217  1.00  0.00    -0.744 OA
ENDBRANCH  87  90
ENDBRANCH  60  83
ENDBRANCH  34  35
ENDBRANCH  26  29
ENDBRANCH  24  25
ENDBRANCH   1  24
TORSDOF 17
ENDMDL
