MODEL 1
REMARK VINA RESULT:     -11.6      0.000      0.000
REMARK SMILES CC1([C@](C)(Nc2cccc(Cl)c2)C(=O)NCCCCNC(=O)c2ccc(-c3c4nc(c(-c5cccc(S(=O)(=O)[O-])c5F)c5ccc([nH]5)c(-c5cccc(S(=O)(=O)[O-])c5F)c5nc(c(-c6cccc(S(=O)(=O)[O-])c6F)c6ccc3[nH]6)C=C5)C=C4)cc2)CC1
REMARK SMILES IDX 18 1 17 2 16 3 15 4 13 5 14 6 3 8 4 9 2 10 1 11 86 12 87 13
REMARK SMILES IDX 5 14 6 16 7 17 12 18 8 19 10 20 9 21 11 22 19 23 20 24 21 25
REMARK SMILES IDX 22 27 23 28 24 29 85 30 25 31 84 32 26 33 27 34 28 35 78 36
REMARK SMILES IDX 29 37 83 38 77 39 79 40 30 41 82 42 76 43 75 44 31 46 63 47
REMARK SMILES IDX 43 48 62 49 44 50 47 51 61 52 80 53 45 54 46 55 60 57 81 58
REMARK SMILES IDX 48 59 32 60 33 61 41 62 34 63 36 64 42 65 35 66 37 67 38 68
REMARK SMILES IDX 39 69 40 70 64 71 65 72 73 73 66 74 68 75 74 76 67 77 69 78
REMARK SMILES IDX 70 79 71 80 72 81 49 82 50 83 58 84 51 85 53 86 59 87 52 88
REMARK SMILES IDX 54 89 55 90 56 91 57 92
REMARK H PARENT 15 7 5 15 20 26 79 45 47 56
REMARK Flexibility Score: inf
ROOT
ATOM      1  C   UNL A   1      31.566  31.938  27.098  1.00  0.00     0.023 C 
ENDROOT
BRANCH   1   2
ATOM      2  C   UNL A   1      31.274  31.210  25.801  1.00  0.00     0.023 C 
BRANCH   2   3
ATOM      3  C   UNL A   1      31.936  29.841  25.683  1.00  0.00     0.116 C 
BRANCH   3   4
ATOM      4  N   UNL A   1      32.967  29.710  24.674  1.00  0.00    -0.354 N 
ATOM      5  C   UNL A   1      33.019  28.857  23.595  1.00  0.00     0.245 C 
ATOM      6  O   UNL A   1      33.969  28.984  22.815  1.00  0.00    -0.272 OA
ATOM      7  H   UNL A   1      33.739  30.316  24.774  1.00  0.00     0.163 HD
BRANCH   5   8
ATOM      8  C   UNL A   1      31.880  27.800  23.352  1.00  0.00     0.119 C 
ATOM      9  C   UNL A   1      31.009  27.615  24.624  1.00  0.00     0.046 C 
BRANCH   8  10
ATOM     10  C   UNL A   1      32.582  26.401  23.056  1.00  0.00    -0.001 C 
ATOM     11  C   UNL A   1      33.601  25.999  24.125  1.00  0.00     0.014 C 
ATOM     12  C   UNL A   1      32.898  25.908  21.644  1.00  0.00     0.010 C 
ATOM     13  C   UNL A   1      31.812  25.246  22.427  1.00  0.00     0.010 C 
ENDBRANCH   8  10
BRANCH   8  14
ATOM     14  N   UNL A   1      30.918  28.232  22.295  1.00  0.00    -0.371 N 
ATOM     15  H   UNL A   1      31.146  27.981  21.370  1.00  0.00     0.161 HD
BRANCH  14  16
ATOM     16  C   UNL A   1      29.731  28.952  22.467  1.00  0.00     0.036 A 
ATOM     17  C   UNL A   1      28.474  28.392  22.752  1.00  0.00     0.026 A 
ATOM     18  C   UNL A   1      29.791  30.355  22.491  1.00  0.00     0.046 A 
ATOM     19  C   UNL A   1      27.386  29.162  23.194  1.00  0.00     0.004 A 
ATOM     20  C   UNL A   1      28.684  31.134  22.862  1.00  0.00     0.043 A 
ATOM     21  C   UNL A   1      27.493  30.541  23.259  1.00  0.00     0.020 A 
ATOM     22  Cl  UNL A   1      28.805  32.853  22.847  1.00  0.00    -0.084 Cl
ENDBRANCH  14  16
ENDBRANCH   8  14
ENDBRANCH   5   8
ENDBRANCH   3   4
ENDBRANCH   2   3
ENDBRANCH   1   2
BRANCH   1  23
ATOM     23  C   UNL A   1      32.764  32.862  26.987  1.00  0.00     0.116 C 
BRANCH  23  24
ATOM     24  N   UNL A   1      32.514  34.152  27.626  1.00  0.00    -0.352 N 
ATOM     25  C   UNL A   1      33.058  34.653  28.779  1.00  0.00     0.251 C 
ATOM     26  H   UNL A   1      31.871  34.738  27.167  1.00  0.00     0.163 HD
ATOM     27  O   UNL A   1      32.575  35.648  29.317  1.00  0.00    -0.269 OA
BRANCH  25  28
ATOM     28  C   UNL A   1      34.224  33.970  29.365  1.00  0.00     0.039 A 
ATOM     29  C   UNL A   1      35.509  34.328  28.959  1.00  0.00     0.014 A 
ATOM     30  C   UNL A   1      34.031  33.009  30.361  1.00  0.00     0.014 A 
ATOM     31  C   UNL A   1      36.607  33.753  29.596  1.00  0.00     0.010 A 
ATOM     32  C   UNL A   1      35.121  32.533  31.072  1.00  0.00     0.010 A 
ATOM     33  C   UNL A   1      36.421  32.876  30.679  1.00  0.00    -0.014 A 
BRANCH  33  34
ATOM     34  C   UNL A   1      37.567  32.279  31.401  1.00  0.00     0.031 A 
ATOM     35  C   UNL A   1      38.317  31.129  30.783  1.00  0.00     0.074 A 
ATOM     36  C   UNL A   1      37.876  32.711  32.639  1.00  0.00     0.049 A 
ATOM     37  N   UNL A   1      39.297  30.422  31.282  1.00  0.00    -0.248 NA
ATOM     38  C   UNL A   1      37.887  30.691  29.444  1.00  0.00     0.031 C 
ATOM     39  C   UNL A   1      37.161  33.758  33.374  1.00  0.00     0.029 A 
ATOM     40  N   UNL A   1      38.856  32.306  33.508  1.00  0.00    -0.354 N 
ATOM     41  C   UNL A   1      39.575  29.442  30.336  1.00  0.00     0.074 A 
ATOM     42  C   UNL A   1      38.624  29.607  29.261  1.00  0.00     0.031 C 
ATOM     43  C   UNL A   1      37.734  33.920  34.577  1.00  0.00     0.029 A 
ATOM     44  C   UNL A   1      38.831  32.967  34.713  1.00  0.00     0.049 A 
ATOM     45  H   UNL A   1      39.515  31.609  33.289  1.00  0.00     0.167 HD
ATOM     46  C   UNL A   1      40.558  28.514  30.342  1.00  0.00     0.034 A 
ATOM     47  C   UNL A   1      39.599  32.813  35.808  1.00  0.00     0.034 A 
ATOM     48  C   UNL A   1      41.525  28.384  31.397  1.00  0.00     0.049 A 
ATOM     49  C   UNL A   1      40.712  31.802  35.775  1.00  0.00     0.074 A 
ATOM     50  C   UNL A   1      42.607  27.527  31.471  1.00  0.00     0.029 A 
ATOM     51  N   UNL A   1      41.523  29.132  32.565  1.00  0.00    -0.354 N 
ATOM     52  N   UNL A   1      41.048  30.977  34.814  1.00  0.00    -0.248 NA
ATOM     53  C   UNL A   1      41.576  31.727  36.961  1.00  0.00     0.031 C 
ATOM     54  C   UNL A   1      43.245  27.740  32.697  1.00  0.00     0.029 A 
ATOM     55  C   UNL A   1      42.583  28.755  33.369  1.00  0.00     0.049 A 
ATOM     56  H   UNL A   1      40.864  29.829  32.788  1.00  0.00     0.167 HD
ATOM     57  C   UNL A   1      42.180  30.307  35.262  1.00  0.00     0.074 A 
ATOM     58  C   UNL A   1      42.485  30.842  36.575  1.00  0.00     0.031 C 
ATOM     59  C   UNL A   1      42.897  29.331  34.651  1.00  0.00     0.034 A 
BRANCH  46  60
ATOM     60  C   UNL A   1      40.671  27.609  29.143  1.00  0.00     0.023 A 
ATOM     61  C   UNL A   1      39.856  26.461  29.057  1.00  0.00     0.012 A 
ATOM     62  C   UNL A   1      41.547  27.912  28.083  1.00  0.00     0.148 A 
ATOM     63  C   UNL A   1      39.936  25.609  27.957  1.00  0.00     0.002 A 
ATOM     64  C   UNL A   1      41.586  27.086  26.965  1.00  0.00     0.091 A 
ATOM     65  F   UNL A   1      42.330  28.994  28.190  1.00  0.00    -0.205 F 
ATOM     66  C   UNL A   1      40.793  25.928  26.907  1.00  0.00     0.022 A 
BRANCH  64  67
ATOM     67  S   UNL A   1      42.593  27.448  25.523  1.00  0.00     0.127 S 
ATOM     68  O   UNL A   1      42.004  28.704  25.061  1.00  0.00    -0.237 OA
ATOM     69  O   UNL A   1      43.927  27.578  26.109  1.00  0.00    -0.237 OA
ATOM     70  O   UNL A   1      42.429  26.316  24.623  1.00  0.00    -0.744 OA
ENDBRANCH  64  67
ENDBRANCH  46  60
BRANCH  47  71
ATOM     71  C   UNL A   1      39.375  33.680  37.000  1.00  0.00     0.023 A 
ATOM     72  C   UNL A   1      39.775  35.030  36.964  1.00  0.00     0.012 A 
ATOM     73  C   UNL A   1      38.733  33.183  38.150  1.00  0.00     0.148 A 
ATOM     74  C   UNL A   1      39.569  35.861  38.065  1.00  0.00     0.002 A 
ATOM     75  C   UNL A   1      38.479  34.031  39.221  1.00  0.00     0.091 A 
ATOM     76  F   UNL A   1      38.367  31.894  38.165  1.00  0.00    -0.205 F 
ATOM     77  C   UNL A   1      38.912  35.365  39.189  1.00  0.00     0.022 A 
BRANCH  75  78
ATOM     78  S   UNL A   1      37.523  33.516  40.651  1.00  0.00     0.127 S 
ATOM     79  O   UNL A   1      37.421  34.762  41.407  1.00  0.00    -0.237 OA
ATOM     80  O   UNL A   1      36.275  33.066  40.031  1.00  0.00    -0.237 OA
ATOM     81  O   UNL A   1      38.296  32.455  41.282  1.00  0.00    -0.744 OA
ENDBRANCH  75  78
ENDBRANCH  47  71
BRANCH  59  82
ATOM     82  C   UNL A   1      44.108  28.800  35.372  1.00  0.00     0.023 A 
ATOM     83  C   UNL A   1      45.366  29.400  35.170  1.00  0.00     0.012 A 
ATOM     84  C   UNL A   1      43.978  27.756  36.308  1.00  0.00     0.148 A 
ATOM     85  C   UNL A   1      46.486  28.944  35.865  1.00  0.00     0.002 A 
ATOM     86  C   UNL A   1      45.087  27.343  37.035  1.00  0.00     0.091 A 
ATOM     87  F   UNL A   1      42.773  27.190  36.472  1.00  0.00    -0.205 F 
ATOM     88  C   UNL A   1      46.343  27.925  36.805  1.00  0.00     0.022 A 
BRANCH  86  89
ATOM     89  S   UNL A   1      44.980  26.111  38.336  1.00  0.00     0.127 S 
ATOM     90  O   UNL A   1      44.019  26.725  39.250  1.00  0.00    -0.237 OA
ATOM     91  O   UNL A   1      44.473  24.942  37.614  1.00  0.00    -0.237 OA
ATOM     92  O   UNL A   1      46.330  25.959  38.861  1.00  0.00    -0.744 OA
ENDBRANCH  86  89
ENDBRANCH  59  82
ENDBRANCH  33  34
ENDBRANCH  25  28
ENDBRANCH  23  24
ENDBRANCH   1  23
TORSDOF 17
ENDMDL
MODEL 2
REMARK VINA RESULT:     -11.5      3.108      8.640
REMARK SMILES CC1([C@](C)(Nc2cccc(Cl)c2)C(=O)NCCCCNC(=O)c2ccc(-c3c4nc(c(-c5cccc(S(=O)(=O)[O-])c5F)c5ccc([nH]5)c(-c5cccc(S(=O)(=O)[O-])c5F)c5nc(c(-c6cccc(S(=O)(=O)[O-])c6F)c6ccc3[nH]6)C=C5)C=C4)cc2)CC1
REMARK SMILES IDX 18 1 17 2 16 3 15 4 13 5 14 6 3 8 4 9 2 10 1 11 86 12 87 13
REMARK SMILES IDX 5 14 6 16 7 17 12 18 8 19 10 20 9 21 11 22 19 23 20 24 21 25
REMARK SMILES IDX 22 27 23 28 24 29 85 30 25 31 84 32 26 33 27 34 28 35 78 36
REMARK SMILES IDX 29 37 83 38 77 39 79 40 30 41 82 42 76 43 75 44 31 46 63 47
REMARK SMILES IDX 43 48 62 49 44 50 47 51 61 52 80 53 45 54 46 55 60 57 81 58
REMARK SMILES IDX 48 59 32 60 33 61 41 62 34 63 36 64 42 65 35 66 37 67 38 68
REMARK SMILES IDX 39 69 40 70 64 71 65 72 73 73 66 74 68 75 74 76 67 77 69 78
REMARK SMILES IDX 70 79 71 80 72 81 49 82 50 83 58 84 51 85 53 86 59 87 52 88
REMARK SMILES IDX 54 89 55 90 56 91 57 92
REMARK H PARENT 15 7 5 15 20 26 79 45 47 56
REMARK Flexibility Score: inf
ROOT
ATOM      1  C   UNL A   1      31.656  28.861  25.501  1.00  0.00     0.023 C 
ENDROOT
BRANCH   1   2
ATOM      2  C   UNL A   1      31.302  29.031  24.036  1.00  0.00     0.023 C 
BRANCH   2   3
ATOM      3  C   UNL A   1      31.081  27.723  23.284  1.00  0.00     0.116 C 
BRANCH   3   4
ATOM      4  N   UNL A   1      32.213  27.213  22.536  1.00  0.00    -0.354 N 
ATOM      5  C   UNL A   1      32.724  25.935  22.507  1.00  0.00     0.245 C 
ATOM      6  O   UNL A   1      33.653  25.713  21.723  1.00  0.00    -0.272 OA
ATOM      7  H   UNL A   1      32.680  27.870  21.971  1.00  0.00     0.163 HD
BRANCH   5   8
ATOM      8  C   UNL A   1      32.108  24.802  23.408  1.00  0.00     0.119 C 
ATOM      9  C   UNL A   1      30.557  24.873  23.411  1.00  0.00     0.046 C 
BRANCH   8  10
ATOM     10  C   UNL A   1      32.594  25.062  24.902  1.00  0.00    -0.001 C 
ATOM     11  C   UNL A   1      33.924  25.817  24.981  1.00  0.00     0.014 C 
ATOM     12  C   UNL A   1      32.339  24.081  26.046  1.00  0.00     0.010 C 
ATOM     13  C   UNL A   1      31.601  25.379  26.014  1.00  0.00     0.010 C 
ENDBRANCH   8  10
BRANCH   8  14
ATOM     14  N   UNL A   1      32.423  23.435  22.897  1.00  0.00    -0.371 N 
ATOM     15  H   UNL A   1      31.950  23.156  22.079  1.00  0.00     0.161 HD
BRANCH  14  16
ATOM     16  C   UNL A   1      33.313  22.505  23.446  1.00  0.00     0.036 A 
ATOM     17  C   UNL A   1      34.697  22.693  23.596  1.00  0.00     0.026 A 
ATOM     18  C   UNL A   1      32.793  21.332  24.019  1.00  0.00     0.046 A 
ATOM     19  C   UNL A   1      35.490  21.861  24.403  1.00  0.00     0.004 A 
ATOM     20  C   UNL A   1      33.597  20.457  24.766  1.00  0.00     0.043 A 
ATOM     21  C   UNL A   1      34.936  20.741  25.000  1.00  0.00     0.020 A 
ATOM     22  Cl  UNL A   1      32.914  19.019  25.423  1.00  0.00    -0.084 Cl
ENDBRANCH  14  16
ENDBRANCH   8  14
ENDBRANCH   5   8
ENDBRANCH   3   4
ENDBRANCH   2   3
ENDBRANCH   1   2
BRANCH   1  23
ATOM     23  C   UNL A   1      32.922  29.604  25.881  1.00  0.00     0.116 C 
BRANCH  23  24
ATOM     24  N   UNL A   1      32.648  30.991  26.244  1.00  0.00    -0.352 N 
ATOM     25  C   UNL A   1      33.266  31.764  27.192  1.00  0.00     0.251 C 
ATOM     26  H   UNL A   1      31.924  31.430  25.742  1.00  0.00     0.163 HD
ATOM     27  O   UNL A   1      32.771  32.832  27.548  1.00  0.00    -0.269 OA
BRANCH  25  28
ATOM     28  C   UNL A   1      34.528  31.284  27.782  1.00  0.00     0.039 A 
ATOM     29  C   UNL A   1      35.571  32.182  28.001  1.00  0.00     0.014 A 
ATOM     30  C   UNL A   1      34.644  29.945  28.165  1.00  0.00     0.014 A 
ATOM     31  C   UNL A   1      36.719  31.741  28.657  1.00  0.00     0.010 A 
ATOM     32  C   UNL A   1      35.731  29.543  28.923  1.00  0.00     0.010 A 
ATOM     33  C   UNL A   1      36.794  30.427  29.152  1.00  0.00    -0.014 A 
BRANCH  33  34
ATOM     34  C   UNL A   1      37.984  29.940  29.886  1.00  0.00     0.031 A 
ATOM     35  C   UNL A   1      38.260  30.450  31.275  1.00  0.00     0.074 A 
ATOM     36  C   UNL A   1      38.853  29.112  29.276  1.00  0.00     0.049 A 
ATOM     37  N   UNL A   1      39.281  30.206  32.054  1.00  0.00    -0.248 NA
ATOM     38  C   UNL A   1      37.279  31.386  31.852  1.00  0.00     0.031 C 
ATOM     39  C   UNL A   1      38.734  28.623  27.899  1.00  0.00     0.029 A 
ATOM     40  N   UNL A   1      40.021  28.554  29.726  1.00  0.00    -0.354 N 
ATOM     41  C   UNL A   1      39.082  30.980  33.191  1.00  0.00     0.074 A 
ATOM     42  C   UNL A   1      37.875  31.745  32.979  1.00  0.00     0.031 C 
ATOM     43  C   UNL A   1      39.781  27.830  27.622  1.00  0.00     0.029 A 
ATOM     44  C   UNL A   1      40.662  27.782  28.785  1.00  0.00     0.049 A 
ATOM     45  H   UNL A   1      40.368  28.692  30.636  1.00  0.00     0.167 HD
ATOM     46  C   UNL A   1      39.815  31.020  34.327  1.00  0.00     0.034 A 
ATOM     47  C   UNL A   1      41.832  27.120  28.850  1.00  0.00     0.034 A 
ATOM     48  C   UNL A   1      40.991  30.224  34.545  1.00  0.00     0.049 A 
ATOM     49  C   UNL A   1      42.609  27.148  30.138  1.00  0.00     0.074 A 
ATOM     50  C   UNL A   1      41.767  30.132  35.686  1.00  0.00     0.029 A 
ATOM     51  N   UNL A   1      41.561  29.384  33.601  1.00  0.00    -0.354 N 
ATOM     52  N   UNL A   1      42.332  27.777  31.254  1.00  0.00    -0.248 NA
ATOM     53  C   UNL A   1      43.838  26.345  30.190  1.00  0.00     0.031 C 
ATOM     54  C   UNL A   1      42.823  29.255  35.421  1.00  0.00     0.029 A 
ATOM     55  C   UNL A   1      42.683  28.772  34.129  1.00  0.00     0.049 A 
ATOM     56  H   UNL A   1      41.218  29.245  32.688  1.00  0.00     0.167 HD
ATOM     57  C   UNL A   1      43.331  27.421  32.152  1.00  0.00     0.074 A 
ATOM     58  C   UNL A   1      44.208  26.502  31.454  1.00  0.00     0.031 C 
ATOM     59  C   UNL A   1      43.515  27.825  33.433  1.00  0.00     0.034 A 
BRANCH  46  60
ATOM     60  C   UNL A   1      39.327  31.910  35.441  1.00  0.00     0.023 A 
ATOM     61  C   UNL A   1      38.411  31.404  36.387  1.00  0.00     0.012 A 
ATOM     62  C   UNL A   1      39.804  33.228  35.581  1.00  0.00     0.148 A 
ATOM     63  C   UNL A   1      37.947  32.204  37.429  1.00  0.00     0.002 A 
ATOM     64  C   UNL A   1      39.377  34.003  36.653  1.00  0.00     0.091 A 
ATOM     65  F   UNL A   1      40.658  33.700  34.662  1.00  0.00    -0.205 F 
ATOM     66  C   UNL A   1      38.438  33.499  37.569  1.00  0.00     0.022 A 
BRANCH  64  67
ATOM     67  S   UNL A   1      40.008  35.654  36.971  1.00  0.00     0.127 S 
ATOM     68  O   UNL A   1      39.307  36.004  38.206  1.00  0.00    -0.237 OA
ATOM     69  O   UNL A   1      41.440  35.407  37.131  1.00  0.00    -0.237 OA
ATOM     70  O   UNL A   1      39.653  36.453  35.806  1.00  0.00    -0.744 OA
ENDBRANCH  64  67
ENDBRANCH  46  60
BRANCH  47  71
ATOM     71  C   UNL A   1      42.305  26.331  27.678  1.00  0.00     0.023 A 
ATOM     72  C   UNL A   1      43.181  26.923  26.747  1.00  0.00     0.012 A 
ATOM     73  C   UNL A   1      41.924  24.987  27.504  1.00  0.00     0.148 A 
ATOM     74  C   UNL A   1      43.642  26.201  25.646  1.00  0.00     0.002 A 
ATOM     75  C   UNL A   1      42.433  24.255  26.438  1.00  0.00     0.091 A 
ATOM     76  F   UNL A   1      41.085  24.445  28.398  1.00  0.00    -0.205 F 
ATOM     77  C   UNL A   1      43.277  24.865  25.498  1.00  0.00     0.022 A 
BRANCH  75  78
ATOM     78  S   UNL A   1      42.125  22.497  26.241  1.00  0.00     0.127 S 
ATOM     79  O   UNL A   1      40.669  22.460  26.125  1.00  0.00    -0.237 OA
ATOM     80  O   UNL A   1      42.851  22.203  25.004  1.00  0.00    -0.237 OA
ATOM     81  O   UNL A   1      42.681  21.863  27.429  1.00  0.00    -0.744 OA
ENDBRANCH  75  78
ENDBRANCH  47  71
BRANCH  59  82
ATOM     82  C   UNL A   1      44.686  27.249  34.185  1.00  0.00     0.023 A 
ATOM     83  C   UNL A   1      45.924  27.922  34.184  1.00  0.00     0.012 A 
ATOM     84  C   UNL A   1      44.531  26.080  34.955  1.00  0.00     0.148 A 
ATOM     85  C   UNL A   1      47.001  27.419  34.912  1.00  0.00     0.002 A 
ATOM     86  C   UNL A   1      45.594  25.615  35.720  1.00  0.00     0.091 A 
ATOM     87  F   UNL A   1      43.349  25.447  34.929  1.00  0.00    -0.205 F 
ATOM     88  C   UNL A   1      46.833  26.274  35.689  1.00  0.00     0.022 A 
BRANCH  86  89
ATOM     89  S   UNL A   1      45.441  24.210  36.827  1.00  0.00     0.127 S 
ATOM     90  O   UNL A   1      45.017  23.153  35.910  1.00  0.00    -0.237 OA
ATOM     91  O   UNL A   1      46.806  24.066  37.335  1.00  0.00    -0.237 OA
ATOM     92  O   UNL A   1      44.459  24.592  37.832  1.00  0.00    -0.744 OA
ENDBRANCH  86  89
ENDBRANCH  59  82
ENDBRANCH  33  34
ENDBRANCH  25  28
ENDBRANCH  23  24
ENDBRANCH   1  23
TORSDOF 17
ENDMDL
MODEL 3
REMARK VINA RESULT:     -11.5      7.187     10.670
REMARK SMILES CC1([C@](C)(Nc2cccc(Cl)c2)C(=O)NCCCCNC(=O)c2ccc(-c3c4nc(c(-c5cccc(S(=O)(=O)[O-])c5F)c5ccc([nH]5)c(-c5cccc(S(=O)(=O)[O-])c5F)c5nc(c(-c6cccc(S(=O)(=O)[O-])c6F)c6ccc3[nH]6)C=C5)C=C4)cc2)CC1
REMARK SMILES IDX 18 1 17 2 16 3 15 4 13 5 14 6 3 8 4 9 2 10 1 11 86 12 87 13
REMARK SMILES IDX 5 14 6 16 7 17 12 18 8 19 10 20 9 21 11 22 19 23 20 24 21 25
REMARK SMILES IDX 22 27 23 28 24 29 85 30 25 31 84 32 26 33 27 34 28 35 78 36
REMARK SMILES IDX 29 37 83 38 77 39 79 40 30 41 82 42 76 43 75 44 31 46 63 47
REMARK SMILES IDX 43 48 62 49 44 50 47 51 61 52 80 53 45 54 46 55 60 57 81 58
REMARK SMILES IDX 48 59 32 60 33 61 41 62 34 63 36 64 42 65 35 66 37 67 38 68
REMARK SMILES IDX 39 69 40 70 64 71 65 72 73 73 66 74 68 75 74 76 67 77 69 78
REMARK SMILES IDX 70 79 71 80 72 81 49 82 50 83 58 84 51 85 53 86 59 87 52 88
REMARK SMILES IDX 54 89 55 90 56 91 57 92
REMARK H PARENT 15 7 5 15 20 26 79 45 47 56
REMARK Flexibility Score: inf
ROOT
ATOM      1  C   UNL A   1      38.296  19.942  24.669  1.00  0.00     0.023 C 
ENDROOT
BRANCH   1   2
ATOM      2  C   UNL A   1      36.820  19.850  25.001  1.00  0.00     0.023 C 
BRANCH   2   3
ATOM      3  C   UNL A   1      36.131  21.196  25.198  1.00  0.00     0.116 C 
BRANCH   3   4
ATOM      4  N   UNL A   1      35.472  21.401  26.471  1.00  0.00    -0.354 N 
ATOM      5  C   UNL A   1      34.133  21.588  26.731  1.00  0.00     0.245 C 
ATOM      6  O   UNL A   1      33.789  21.660  27.916  1.00  0.00    -0.272 OA
ATOM      7  H   UNL A   1      36.062  21.408  27.260  1.00  0.00     0.163 HD
BRANCH   5   8
ATOM      8  C   UNL A   1      33.088  21.658  25.557  1.00  0.00     0.119 C 
ATOM      9  C   UNL A   1      33.800  21.820  24.187  1.00  0.00     0.046 C 
BRANCH   8  10
ATOM     10  C   UNL A   1      32.201  22.961  25.784  1.00  0.00    -0.001 C 
ATOM     11  C   UNL A   1      33.032  24.220  26.043  1.00  0.00     0.014 C 
ATOM     12  C   UNL A   1      30.838  22.933  26.475  1.00  0.00     0.010 C 
ATOM     13  C   UNL A   1      30.911  23.185  25.004  1.00  0.00     0.010 C 
ENDBRANCH   8  10
BRANCH   8  14
ATOM     14  N   UNL A   1      32.296  20.400  25.426  1.00  0.00    -0.371 N 
ATOM     15  H   UNL A   1      31.449  20.363  25.928  1.00  0.00     0.161 HD
BRANCH  14  16
ATOM     16  C   UNL A   1      32.617  19.266  24.671  1.00  0.00     0.036 A 
ATOM     17  C   UNL A   1      32.247  19.046  23.334  1.00  0.00     0.026 A 
ATOM     18  C   UNL A   1      33.487  18.312  25.225  1.00  0.00     0.046 A 
ATOM     19  C   UNL A   1      32.828  18.041  22.543  1.00  0.00     0.004 A 
ATOM     20  C   UNL A   1      34.015  17.261  24.458  1.00  0.00     0.043 A 
ATOM     21  C   UNL A   1      33.726  17.149  23.105  1.00  0.00     0.020 A 
ATOM     22  Cl  UNL A   1      35.056  16.103  25.196  1.00  0.00    -0.084 Cl
ENDBRANCH  14  16
ENDBRANCH   8  14
ENDBRANCH   5   8
ENDBRANCH   3   4
ENDBRANCH   2   3
ENDBRANCH   1   2
BRANCH   1  23
ATOM     23  C   UNL A   1      39.151  20.203  25.895  1.00  0.00     0.116 C 
BRANCH  23  24
ATOM     24  N   UNL A   1      40.213  19.211  26.036  1.00  0.00    -0.352 N 
ATOM     25  C   UNL A   1      41.563  19.417  26.154  1.00  0.00     0.251 C 
ATOM     26  H   UNL A   1      39.922  18.271  26.048  1.00  0.00     0.163 HD
ATOM     27  O   UNL A   1      42.351  18.481  26.025  1.00  0.00    -0.269 OA
BRANCH  25  28
ATOM     28  C   UNL A   1      42.049  20.780  26.427  1.00  0.00     0.039 A 
ATOM     29  C   UNL A   1      42.228  21.672  25.371  1.00  0.00     0.014 A 
ATOM     30  C   UNL A   1      42.271  21.180  27.747  1.00  0.00     0.014 A 
ATOM     31  C   UNL A   1      42.584  22.991  25.649  1.00  0.00     0.010 A 
ATOM     32  C   UNL A   1      42.505  22.517  28.026  1.00  0.00     0.010 A 
ATOM     33  C   UNL A   1      42.693  23.430  26.980  1.00  0.00    -0.014 A 
BRANCH  33  34
ATOM     34  C   UNL A   1      43.032  24.834  27.309  1.00  0.00     0.031 A 
ATOM     35  C   UNL A   1      44.437  25.329  27.095  1.00  0.00     0.074 A 
ATOM     36  C   UNL A   1      42.105  25.630  27.876  1.00  0.00     0.049 A 
ATOM     37  N   UNL A   1      44.954  26.494  27.386  1.00  0.00    -0.248 NA
ATOM     38  C   UNL A   1      45.400  24.379  26.509  1.00  0.00     0.031 C 
ATOM     39  C   UNL A   1      40.737  25.230  28.214  1.00  0.00     0.029 A 
ATOM     40  N   UNL A   1      42.181  26.934  28.291  1.00  0.00    -0.354 N 
ATOM     41  C   UNL A   1      46.300  26.404  27.052  1.00  0.00     0.074 A 
ATOM     42  C   UNL A   1      46.535  25.056  26.590  1.00  0.00     0.031 C 
ATOM     43  C   UNL A   1      40.100  26.271  28.773  1.00  0.00     0.029 A 
ATOM     44  C   UNL A   1      41.022  27.398  28.867  1.00  0.00     0.049 A 
ATOM     45  H   UNL A   1      42.989  27.486  28.186  1.00  0.00     0.167 HD
ATOM     46  C   UNL A   1      47.247  27.369  27.087  1.00  0.00     0.034 A 
ATOM     47  C   UNL A   1      40.740  28.593  29.418  1.00  0.00     0.034 A 
ATOM     48  C   UNL A   1      46.994  28.719  27.509  1.00  0.00     0.049 A 
ATOM     49  C   UNL A   1      41.797  29.663  29.409  1.00  0.00     0.074 A 
ATOM     50  C   UNL A   1      47.862  29.795  27.514  1.00  0.00     0.029 A 
ATOM     51  N   UNL A   1      45.782  29.177  28.002  1.00  0.00    -0.354 N 
ATOM     52  N   UNL A   1      43.027  29.602  28.959  1.00  0.00    -0.248 NA
ATOM     53  C   UNL A   1      41.418  30.977  29.946  1.00  0.00     0.031 C 
ATOM     54  C   UNL A   1      47.181  30.899  28.036  1.00  0.00     0.029 A 
ATOM     55  C   UNL A   1      45.878  30.519  28.320  1.00  0.00     0.049 A 
ATOM     56  H   UNL A   1      44.972  28.627  28.110  1.00  0.00     0.167 HD
ATOM     57  C   UNL A   1      43.560  30.875  29.127  1.00  0.00     0.074 A 
ATOM     58  C   UNL A   1      42.508  31.692  29.700  1.00  0.00     0.031 C 
ATOM     59  C   UNL A   1      44.807  31.326  28.845  1.00  0.00     0.034 A 
BRANCH  46  60
ATOM     60  C   UNL A   1      48.627  27.010  26.599  1.00  0.00     0.023 A 
ATOM     61  C   UNL A   1      49.483  26.252  27.426  1.00  0.00     0.012 A 
ATOM     62  C   UNL A   1      49.063  27.381  25.313  1.00  0.00     0.148 A 
ATOM     63  C   UNL A   1      50.762  25.903  26.998  1.00  0.00     0.002 A 
ATOM     64  C   UNL A   1      50.321  26.986  24.873  1.00  0.00     0.091 A 
ATOM     65  F   UNL A   1      48.246  28.119  24.549  1.00  0.00    -0.205 F 
ATOM     66  C   UNL A   1      51.177  26.260  25.718  1.00  0.00     0.022 A 
BRANCH  64  67
ATOM     67  S   UNL A   1      50.921  27.323  23.214  1.00  0.00     0.127 S 
ATOM     68  O   UNL A   1      49.858  26.744  22.393  1.00  0.00    -0.237 OA
ATOM     69  O   UNL A   1      50.974  28.784  23.201  1.00  0.00    -0.237 OA
ATOM     70  O   UNL A   1      52.215  26.664  23.111  1.00  0.00    -0.744 OA
ENDBRANCH  64  67
ENDBRANCH  46  60
BRANCH  47  71
ATOM     71  C   UNL A   1      39.380  28.855  29.968  1.00  0.00     0.023 A 
ATOM     72  C   UNL A   1      39.067  28.441  31.278  1.00  0.00     0.012 A 
ATOM     73  C   UNL A   1      38.411  29.545  29.216  1.00  0.00     0.148 A 
ATOM     74  C   UNL A   1      37.803  28.682  31.817  1.00  0.00     0.002 A 
ATOM     75  C   UNL A   1      37.173  29.832  29.779  1.00  0.00     0.091 A 
ATOM     76  F   UNL A   1      38.727  29.924  27.970  1.00  0.00    -0.205 F 
ATOM     77  C   UNL A   1      36.861  29.385  31.072  1.00  0.00     0.022 A 
BRANCH  75  78
ATOM     78  S   UNL A   1      35.948  30.848  28.946  1.00  0.00     0.127 S 
ATOM     79  O   UNL A   1      36.790  31.770  28.188  1.00  0.00    -0.237 OA
ATOM     80  O   UNL A   1      35.237  29.855  28.138  1.00  0.00    -0.237 OA
ATOM     81  O   UNL A   1      35.146  31.447  30.004  1.00  0.00    -0.744 OA
ENDBRANCH  75  78
ENDBRANCH  47  71
BRANCH  59  82
ATOM     82  C   UNL A   1      45.100  32.779  29.111  1.00  0.00     0.023 A 
ATOM     83  C   UNL A   1      45.641  33.172  30.351  1.00  0.00     0.012 A 
ATOM     84  C   UNL A   1      44.909  33.740  28.100  1.00  0.00     0.148 A 
ATOM     85  C   UNL A   1      45.957  34.509  30.591  1.00  0.00     0.002 A 
ATOM     86  C   UNL A   1      45.275  35.060  28.329  1.00  0.00     0.091 A 
ATOM     87  F   UNL A   1      44.378  33.345  26.934  1.00  0.00    -0.205 F 
ATOM     88  C   UNL A   1      45.785  35.449  29.577  1.00  0.00     0.022 A 
BRANCH  86  89
ATOM     89  S   UNL A   1      45.186  36.319  27.051  1.00  0.00     0.127 S 
ATOM     90  O   UNL A   1      45.961  35.706  25.975  1.00  0.00    -0.237 OA
ATOM     91  O   UNL A   1      43.746  36.399  26.797  1.00  0.00    -0.237 OA
ATOM     92  O   UNL A   1      45.766  37.523  27.629  1.00  0.00    -0.744 OA
ENDBRANCH  86  89
ENDBRANCH  59  82
ENDBRANCH  33  34
ENDBRANCH  25  28
ENDBRANCH  23  24
ENDBRANCH   1  23
TORSDOF 17
ENDMDL
