MODEL 1
REMARK VINA RESULT:     -12.0      0.000      0.000
REMARK SMILES COc1cccc(-c2nn(-c3cc4c(cc3C(N)=O)OCO4)cc2C(=O)NCCCCNC(=O)c2ccc(-c3c4nc(c(-c5cccc(S(=O)(=O)[O-])c5F)c5ccc([nH]5)c(-c5cccc(S(=O)(=O)[O-])c5F)c5nc(c(-c6cccc(S(=O)(=O)[O-])c6F)c6ccc3[nH]6)C=C5)C=C4)cc2)c1
REMARK SMILES IDX 30 1 29 2 28 3 27 4 25 5 26 6 24 8 8 9 9 10 10 11 23 12 7 13
REMARK SMILES IDX 3 14 4 15 98 16 5 17 6 18 2 19 1 20 11 21 12 22 16 23 13 24
REMARK SMILES IDX 15 25 14 26 22 27 20 28 21 29 17 30 18 31 19 32 31 35 32 36
REMARK SMILES IDX 33 37 34 39 35 40 36 41 97 42 37 43 96 44 38 45 39 46 40 47
REMARK SMILES IDX 90 48 41 49 95 50 89 51 91 52 42 53 94 54 88 55 87 56 43 58
REMARK SMILES IDX 75 59 55 60 74 61 56 62 59 63 73 64 92 65 57 66 58 67 72 69
REMARK SMILES IDX 93 70 60 71 44 72 45 73 53 74 46 75 48 76 54 77 47 78 49 79
REMARK SMILES IDX 50 80 51 81 52 82 76 83 77 84 85 85 78 86 80 87 86 88 79 89
REMARK SMILES IDX 81 90 82 91 83 92 84 93 61 94 62 95 70 96 63 97 65 98 71 99
REMARK SMILES IDX 64 100 66 101 67 102 68 103 69 104
REMARK H PARENT 27 7 18 33 18 34 32 38 91 57 59 68
REMARK Flexibility Score: inf
ROOT
ATOM      1  C   UNL A   1      34.444  31.762  27.772  1.00  0.00     0.023 C 
ENDROOT
BRANCH   1   2
ATOM      2  C   UNL A   1      34.879  30.338  27.387  1.00  0.00     0.023 C 
BRANCH   2   3
ATOM      3  C   UNL A   1      33.918  29.602  26.448  1.00  0.00     0.116 C 
BRANCH   3   4
ATOM      4  N   UNL A   1      32.768  29.095  27.165  1.00  0.00    -0.352 N 
ATOM      5  C   UNL A   1      32.030  27.942  27.064  1.00  0.00     0.255 C 
ATOM      6  O   UNL A   1      31.046  27.878  27.801  1.00  0.00    -0.269 OA
ATOM      7  H   UNL A   1      32.449  29.702  27.871  1.00  0.00     0.163 HD
BRANCH   5   8
ATOM      8  C   UNL A   1      32.379  26.862  26.147  1.00  0.00     0.086 A 
ATOM      9  C   UNL A   1      31.629  26.376  25.013  1.00  0.00     0.106 A 
ATOM     10  N   UNL A   1      32.222  25.295  24.453  1.00  0.00    -0.167 NA
ATOM     11  N   UNL A   1      33.186  24.978  25.344  1.00  0.00    -0.239 N 
ATOM     12  C   UNL A   1      33.499  26.059  26.130  1.00  0.00     0.129 A 
BRANCH   9  13
ATOM     13  C   UNL A   1      30.392  26.937  24.458  1.00  0.00     0.007 A 
ATOM     14  C   UNL A   1      29.208  28.677  23.252  1.00  0.00     0.119 A 
ATOM     15  C   UNL A   1      28.040  27.912  23.287  1.00  0.00     0.046 A 
ATOM     16  C   UNL A   1      30.380  28.198  23.847  1.00  0.00     0.056 A 
ATOM     17  C   UNL A   1      28.040  26.664  23.902  1.00  0.00     0.005 A 
ATOM     18  C   UNL A   1      29.206  26.186  24.498  1.00  0.00     0.011 A 
BRANCH  14  19
ATOM     19  O   UNL A   1      29.092  29.914  22.674  1.00  0.00    -0.497 OA
ATOM     20  C   UNL A   1      30.038  30.150  21.631  1.00  0.00     0.278 C 
ENDBRANCH  14  19
ENDBRANCH   9  13
BRANCH  11  21
ATOM     21  C   UNL A   1      33.931  23.772  25.303  1.00  0.00     0.081 A 
ATOM     22  C   UNL A   1      35.091  23.736  24.507  1.00  0.00     0.079 A 
ATOM     23  C   UNL A   1      33.573  22.659  26.125  1.00  0.00     0.069 A 
ATOM     24  C   UNL A   1      35.903  22.625  24.625  1.00  0.00     0.167 A 
ATOM     25  C   UNL A   1      34.479  21.597  26.276  1.00  0.00     0.066 A 
ATOM     26  C   UNL A   1      35.618  21.606  25.506  1.00  0.00     0.166 A 
ATOM     27  O   UNL A   1      37.054  22.387  23.937  1.00  0.00    -0.454 OA
ATOM     28  O   UNL A   1      36.549  20.615  25.479  1.00  0.00    -0.454 OA
ATOM     29  C   UNL A   1      37.322  21.026  24.336  1.00  0.00     0.468 C 
BRANCH  23  30
ATOM     30  C   UNL A   1      32.192  22.485  26.682  1.00  0.00     0.251 C 
ATOM     31  N   UNL A   1      31.282  21.768  25.958  1.00  0.00    -0.366 N 
ATOM     32  O   UNL A   1      31.814  23.005  27.725  1.00  0.00    -0.269 OA
ATOM     33  H   UNL A   1      31.553  21.338  25.116  1.00  0.00     0.159 HD
ATOM     34  H   UNL A   1      30.356  21.682  26.279  1.00  0.00     0.159 HD
ENDBRANCH  23  30
ENDBRANCH  11  21
ENDBRANCH   5   8
ENDBRANCH   3   4
ENDBRANCH   2   3
ENDBRANCH   1   2
BRANCH   1  35
ATOM     35  C   UNL A   1      35.463  32.542  28.596  1.00  0.00     0.116 C 
BRANCH  35  36
ATOM     36  N   UNL A   1      35.025  32.769  29.978  1.00  0.00    -0.352 N 
ATOM     37  C   UNL A   1      35.349  32.043  31.111  1.00  0.00     0.251 C 
ATOM     38  H   UNL A   1      34.424  33.535  30.117  1.00  0.00     0.163 HD
ATOM     39  O   UNL A   1      34.634  32.078  32.106  1.00  0.00    -0.269 OA
BRANCH  37  40
ATOM     40  C   UNL A   1      36.589  31.250  31.111  1.00  0.00     0.039 A 
ATOM     41  C   UNL A   1      36.635  29.927  30.658  1.00  0.00     0.014 A 
ATOM     42  C   UNL A   1      37.740  31.884  31.565  1.00  0.00     0.014 A 
ATOM     43  C   UNL A   1      37.869  29.282  30.597  1.00  0.00     0.010 A 
ATOM     44  C   UNL A   1      38.963  31.326  31.322  1.00  0.00     0.010 A 
ATOM     45  C   UNL A   1      39.031  30.000  30.920  1.00  0.00    -0.014 A 
BRANCH  45  46
ATOM     46  C   UNL A   1      40.364  29.448  30.718  1.00  0.00     0.031 A 
ATOM     47  C   UNL A   1      41.079  29.148  31.986  1.00  0.00     0.074 A 
ATOM     48  C   UNL A   1      40.773  29.010  29.503  1.00  0.00     0.049 A 
ATOM     49  N   UNL A   1      42.128  29.744  32.447  1.00  0.00    -0.248 NA
ATOM     50  C   UNL A   1      40.460  28.215  32.944  1.00  0.00     0.031 C 
ATOM     51  C   UNL A   1      40.001  28.994  28.251  1.00  0.00     0.029 A 
ATOM     52  N   UNL A   1      41.899  28.329  29.157  1.00  0.00    -0.354 N 
ATOM     53  C   UNL A   1      42.458  29.055  33.612  1.00  0.00     0.074 A 
ATOM     54  C   UNL A   1      41.277  28.331  33.993  1.00  0.00     0.031 C 
ATOM     55  C   UNL A   1      40.554  28.114  27.389  1.00  0.00     0.029 A 
ATOM     56  C   UNL A   1      41.795  27.627  27.954  1.00  0.00     0.049 A 
ATOM     57  H   UNL A   1      42.716  28.331  29.706  1.00  0.00     0.167 HD
ATOM     58  C   UNL A   1      43.761  28.889  33.973  1.00  0.00     0.034 A 
ATOM     59  C   UNL A   1      42.642  26.673  27.483  1.00  0.00     0.034 A 
ATOM     60  C   UNL A   1      44.621  29.762  33.209  1.00  0.00     0.049 A 
ATOM     61  C   UNL A   1      43.924  26.842  28.204  1.00  0.00     0.074 A 
ATOM     62  C   UNL A   1      44.692  31.125  32.997  1.00  0.00     0.029 A 
ATOM     63  N   UNL A   1      45.329  29.180  32.184  1.00  0.00    -0.354 N 
ATOM     64  N   UNL A   1      44.689  27.886  28.058  1.00  0.00    -0.248 NA
ATOM     65  C   UNL A   1      44.117  26.086  29.431  1.00  0.00     0.031 C 
ATOM     66  C   UNL A   1      45.021  31.264  31.617  1.00  0.00     0.029 A 
ATOM     67  C   UNL A   1      45.228  29.989  31.085  1.00  0.00     0.049 A 
ATOM     68  H   UNL A   1      45.822  28.330  32.232  1.00  0.00     0.167 HD
ATOM     69  C   UNL A   1      45.073  28.201  29.354  1.00  0.00     0.074 A 
ATOM     70  C   UNL A   1      44.797  26.995  30.137  1.00  0.00     0.031 C 
ATOM     71  C   UNL A   1      45.275  29.500  29.725  1.00  0.00     0.034 A 
BRANCH  58  72
ATOM     72  C   UNL A   1      44.330  27.674  34.680  1.00  0.00     0.023 A 
ATOM     73  C   UNL A   1      45.251  27.922  35.725  1.00  0.00     0.012 A 
ATOM     74  C   UNL A   1      44.252  26.345  34.204  1.00  0.00     0.148 A 
ATOM     75  C   UNL A   1      46.104  26.925  36.208  1.00  0.00     0.002 A 
ATOM     76  C   UNL A   1      45.050  25.339  34.739  1.00  0.00     0.091 A 
ATOM     77  F   UNL A   1      43.505  26.051  33.139  1.00  0.00    -0.205 F 
ATOM     78  C   UNL A   1      46.004  25.631  35.715  1.00  0.00     0.022 A 
BRANCH  76  79
ATOM     79  S   UNL A   1      44.936  23.639  34.167  1.00  0.00     0.127 S 
ATOM     80  O   UNL A   1      46.161  23.064  34.717  1.00  0.00    -0.237 OA
ATOM     81  O   UNL A   1      43.698  23.193  34.807  1.00  0.00    -0.237 OA
ATOM     82  O   UNL A   1      44.863  23.714  32.713  1.00  0.00    -0.744 OA
ENDBRANCH  76  79
ENDBRANCH  58  72
BRANCH  59  83
ATOM     83  C   UNL A   1      42.385  25.487  26.628  1.00  0.00     0.023 A 
ATOM     84  C   UNL A   1      43.245  25.200  25.546  1.00  0.00     0.012 A 
ATOM     85  C   UNL A   1      41.484  24.481  27.040  1.00  0.00     0.148 A 
ATOM     86  C   UNL A   1      43.236  23.942  24.925  1.00  0.00     0.002 A 
ATOM     87  C   UNL A   1      41.477  23.235  26.419  1.00  0.00     0.091 A 
ATOM     88  F   UNL A   1      40.704  24.712  28.103  1.00  0.00    -0.205 F 
ATOM     89  C   UNL A   1      42.360  22.956  25.369  1.00  0.00     0.022 A 
BRANCH  87  90
ATOM     90  S   UNL A   1      40.403  21.900  26.969  1.00  0.00     0.127 S 
ATOM     91  O   UNL A   1      39.074  22.490  26.802  1.00  0.00    -0.237 OA
ATOM     92  O   UNL A   1      40.729  20.843  26.016  1.00  0.00    -0.237 OA
ATOM     93  O   UNL A   1      40.774  21.644  28.354  1.00  0.00    -0.744 OA
ENDBRANCH  87  90
ENDBRANCH  59  83
BRANCH  71  94
ATOM     94  C   UNL A   1      45.318  30.549  28.641  1.00  0.00     0.023 A 
ATOM     95  C   UNL A   1      44.161  31.199  28.157  1.00  0.00     0.012 A 
ATOM     96  C   UNL A   1      46.575  31.007  28.222  1.00  0.00     0.148 A 
ATOM     97  C   UNL A   1      44.260  32.263  27.256  1.00  0.00     0.002 A 
ATOM     98  C   UNL A   1      46.672  32.096  27.365  1.00  0.00     0.091 A 
ATOM     99  F   UNL A   1      47.665  30.382  28.694  1.00  0.00    -0.205 F 
ATOM    100  C   UNL A   1      45.517  32.721  26.871  1.00  0.00     0.022 A 
BRANCH  98 101
ATOM    101  S   UNL A   1      48.262  32.804  26.937  1.00  0.00     0.127 S 
ATOM    102  O   UNL A   1      48.711  33.341  28.219  1.00  0.00    -0.237 OA
ATOM    103  O   UNL A   1      49.010  31.636  26.465  1.00  0.00    -0.237 OA
ATOM    104  O   UNL A   1      47.994  33.793  25.900  1.00  0.00    -0.744 OA
ENDBRANCH  98 101
ENDBRANCH  71  94
ENDBRANCH  45  46
ENDBRANCH  37  40
ENDBRANCH  35  36
ENDBRANCH   1  35
TORSDOF 18
ENDMDL
MODEL 2
REMARK VINA RESULT:     -11.9      4.114      9.296
REMARK SMILES COc1cccc(-c2nn(-c3cc4c(cc3C(N)=O)OCO4)cc2C(=O)NCCCCNC(=O)c2ccc(-c3c4nc(c(-c5cccc(S(=O)(=O)[O-])c5F)c5ccc([nH]5)c(-c5cccc(S(=O)(=O)[O-])c5F)c5nc(c(-c6cccc(S(=O)(=O)[O-])c6F)c6ccc3[nH]6)C=C5)C=C4)cc2)c1
REMARK SMILES IDX 30 1 29 2 28 3 27 4 25 5 26 6 24 8 8 9 9 10 10 11 23 12 7 13
REMARK SMILES IDX 3 14 4 15 98 16 5 17 6 18 2 19 1 20 11 21 12 22 16 23 13 24
REMARK SMILES IDX 15 25 14 26 22 27 20 28 21 29 17 30 18 31 19 32 31 35 32 36
REMARK SMILES IDX 33 37 34 39 35 40 36 41 97 42 37 43 96 44 38 45 39 46 40 47
REMARK SMILES IDX 90 48 41 49 95 50 89 51 91 52 42 53 94 54 88 55 87 56 43 58
REMARK SMILES IDX 75 59 55 60 74 61 56 62 59 63 73 64 92 65 57 66 58 67 72 69
REMARK SMILES IDX 93 70 60 71 44 72 45 73 53 74 46 75 48 76 54 77 47 78 49 79
REMARK SMILES IDX 50 80 51 81 52 82 76 83 77 84 85 85 78 86 80 87 86 88 79 89
REMARK SMILES IDX 81 90 82 91 83 92 84 93 61 94 62 95 70 96 63 97 65 98 71 99
REMARK SMILES IDX 64 100 66 101 67 102 68 103 69 104
REMARK H PARENT 27 7 18 33 18 34 32 38 91 57 59 68
REMARK Flexibility Score: inf
ROOT
ATOM      1  C   UNL A   1      39.122  23.736  26.159  1.00  0.00     0.023 C 
ENDROOT
BRANCH   1   2
ATOM      2  C   UNL A   1      37.901  22.863  26.493  1.00  0.00     0.023 C 
BRANCH   2   3
ATOM      3  C   UNL A   1      37.673  21.682  25.542  1.00  0.00     0.116 C 
BRANCH   3   4
ATOM      4  N   UNL A   1      37.397  22.138  24.197  1.00  0.00    -0.352 N 
ATOM      5  C   UNL A   1      36.339  22.804  23.628  1.00  0.00     0.255 C 
ATOM      6  O   UNL A   1      36.407  22.961  22.409  1.00  0.00    -0.269 OA
ATOM      7  H   UNL A   1      38.115  21.929  23.558  1.00  0.00     0.163 HD
BRANCH   5   8
ATOM      8  C   UNL A   1      35.206  23.292  24.407  1.00  0.00     0.086 A 
ATOM      9  C   UNL A   1      33.924  22.659  24.612  1.00  0.00     0.106 A 
ATOM     10  N   UNL A   1      33.086  23.456  25.317  1.00  0.00    -0.167 NA
ATOM     11  N   UNL A   1      33.742  24.636  25.353  1.00  0.00    -0.239 N 
ATOM     12  C   UNL A   1      35.086  24.454  25.137  1.00  0.00     0.129 A 
BRANCH   9  13
ATOM     13  C   UNL A   1      33.511  21.323  24.171  1.00  0.00     0.007 A 
ATOM     14  C   UNL A   1      33.490  18.913  24.447  1.00  0.00     0.119 A 
ATOM     15  C   UNL A   1      32.588  18.796  23.386  1.00  0.00     0.046 A 
ATOM     16  C   UNL A   1      33.962  20.172  24.832  1.00  0.00     0.056 A 
ATOM     17  C   UNL A   1      32.145  19.932  22.717  1.00  0.00     0.005 A 
ATOM     18  C   UNL A   1      32.616  21.188  23.098  1.00  0.00     0.011 A 
BRANCH  14  19
ATOM     19  O   UNL A   1      33.910  17.734  25.004  1.00  0.00    -0.497 OA
ATOM     20  C   UNL A   1      33.923  16.639  24.087  1.00  0.00     0.278 C 
ENDBRANCH  14  19
ENDBRANCH   9  13
BRANCH  11  21
ATOM     21  C   UNL A   1      33.156  25.850  25.793  1.00  0.00     0.081 A 
ATOM     22  C   UNL A   1      34.012  26.918  26.123  1.00  0.00     0.079 A 
ATOM     23  C   UNL A   1      31.737  26.021  25.803  1.00  0.00     0.069 A 
ATOM     24  C   UNL A   1      33.426  28.144  26.367  1.00  0.00     0.167 A 
ATOM     25  C   UNL A   1      31.202  27.308  25.967  1.00  0.00     0.066 A 
ATOM     26  C   UNL A   1      32.067  28.335  26.260  1.00  0.00     0.166 A 
ATOM     27  O   UNL A   1      34.068  29.293  26.717  1.00  0.00    -0.454 OA
ATOM     28  O   UNL A   1      31.695  29.616  26.526  1.00  0.00    -0.454 OA
ATOM     29  C   UNL A   1      32.942  30.144  27.018  1.00  0.00     0.468 C 
BRANCH  23  30
ATOM     30  C   UNL A   1      30.791  24.859  25.836  1.00  0.00     0.251 C 
ATOM     31  N   UNL A   1      30.350  24.342  24.650  1.00  0.00    -0.366 N 
ATOM     32  O   UNL A   1      30.339  24.384  26.871  1.00  0.00    -0.269 OA
ATOM     33  H   UNL A   1      30.692  24.701  23.800  1.00  0.00     0.159 HD
ATOM     34  H   UNL A   1      29.690  23.613  24.645  1.00  0.00     0.159 HD
ENDBRANCH  23  30
ENDBRANCH  11  21
ENDBRANCH   5   8
ENDBRANCH   3   4
ENDBRANCH   2   3
ENDBRANCH   1   2
BRANCH   1  35
ATOM     35  C   UNL A   1      40.366  23.441  26.989  1.00  0.00     0.116 C 
BRANCH  35  36
ATOM     36  N   UNL A   1      41.610  23.583  26.223  1.00  0.00    -0.352 N 
ATOM     37  C   UNL A   1      42.317  24.739  25.941  1.00  0.00     0.251 C 
ATOM     38  H   UNL A   1      41.991  22.749  25.865  1.00  0.00     0.163 HD
ATOM     39  O   UNL A   1      43.090  24.787  24.991  1.00  0.00    -0.269 OA
BRANCH  37  40
ATOM     40  C   UNL A   1      42.145  25.905  26.822  1.00  0.00     0.039 A 
ATOM     41  C   UNL A   1      42.809  26.026  28.047  1.00  0.00     0.014 A 
ATOM     42  C   UNL A   1      41.300  26.913  26.371  1.00  0.00     0.014 A 
ATOM     43  C   UNL A   1      42.668  27.209  28.772  1.00  0.00     0.010 A 
ATOM     44  C   UNL A   1      41.318  28.136  26.978  1.00  0.00     0.010 A 
ATOM     45  C   UNL A   1      41.929  28.265  28.217  1.00  0.00    -0.014 A 
BRANCH  45  46
ATOM     46  C   UNL A   1      41.880  29.584  28.835  1.00  0.00     0.031 A 
ATOM     47  C   UNL A   1      43.024  30.455  28.461  1.00  0.00     0.074 A 
ATOM     48  C   UNL A   1      40.763  30.035  29.455  1.00  0.00     0.049 A 
ATOM     49  N   UNL A   1      43.973  30.869  29.234  1.00  0.00    -0.248 NA
ATOM     50  C   UNL A   1      43.254  30.750  27.036  1.00  0.00     0.031 C 
ATOM     51  C   UNL A   1      39.476  29.337  29.600  1.00  0.00     0.029 A 
ATOM     52  N   UNL A   1      40.476  31.273  29.940  1.00  0.00    -0.354 N 
ATOM     53  C   UNL A   1      44.749  31.712  28.443  1.00  0.00     0.074 A 
ATOM     54  C   UNL A   1      44.426  31.388  27.082  1.00  0.00     0.031 C 
ATOM     55  C   UNL A   1      38.503  30.233  29.871  1.00  0.00     0.029 A 
ATOM     56  C   UNL A   1      39.111  31.532  30.077  1.00  0.00     0.049 A 
ATOM     57  H   UNL A   1      41.171  31.930  30.174  1.00  0.00     0.167 HD
ATOM     58  C   UNL A   1      45.343  32.814  28.981  1.00  0.00     0.034 A 
ATOM     59  C   UNL A   1      38.520  32.737  30.290  1.00  0.00     0.034 A 
ATOM     60  C   UNL A   1      45.319  32.758  30.424  1.00  0.00     0.049 A 
ATOM     61  C   UNL A   1      39.563  33.639  30.827  1.00  0.00     0.074 A 
ATOM     62  C   UNL A   1      45.764  31.863  31.376  1.00  0.00     0.029 A 
ATOM     63  N   UNL A   1      44.382  33.547  31.050  1.00  0.00    -0.354 N 
ATOM     64  N   UNL A   1      40.115  33.472  31.994  1.00  0.00    -0.248 NA
ATOM     65  C   UNL A   1      40.325  34.436  29.879  1.00  0.00     0.031 C 
ATOM     66  C   UNL A   1      44.741  31.846  32.369  1.00  0.00     0.029 A 
ATOM     67  C   UNL A   1      43.778  32.797  32.022  1.00  0.00     0.049 A 
ATOM     68  H   UNL A   1      44.181  34.486  30.837  1.00  0.00     0.167 HD
ATOM     69  C   UNL A   1      41.465  33.690  31.759  1.00  0.00     0.074 A 
ATOM     70  C   UNL A   1      41.519  34.398  30.479  1.00  0.00     0.031 C 
ATOM     71  C   UNL A   1      42.415  33.002  32.459  1.00  0.00     0.034 A 
BRANCH  58  72
ATOM     72  C   UNL A   1      45.562  34.133  28.265  1.00  0.00     0.023 A 
ATOM     73  C   UNL A   1      46.903  34.560  28.118  1.00  0.00     0.012 A 
ATOM     74  C   UNL A   1      44.558  35.092  28.001  1.00  0.00     0.148 A 
ATOM     75  C   UNL A   1      47.225  35.885  27.811  1.00  0.00     0.002 A 
ATOM     76  C   UNL A   1      44.881  36.391  27.623  1.00  0.00     0.091 A 
ATOM     77  F   UNL A   1      43.275  34.811  28.237  1.00  0.00    -0.205 F 
ATOM     78  C   UNL A   1      46.213  36.802  27.563  1.00  0.00     0.022 A 
BRANCH  76  79
ATOM     79  S   UNL A   1      43.613  37.610  27.250  1.00  0.00     0.127 S 
ATOM     80  O   UNL A   1      42.733  36.851  26.365  1.00  0.00    -0.237 OA
ATOM     81  O   UNL A   1      43.069  37.887  28.579  1.00  0.00    -0.237 OA
ATOM     82  O   UNL A   1      44.312  38.735  26.644  1.00  0.00    -0.744 OA
ENDBRANCH  76  79
ENDBRANCH  58  72
BRANCH  59  83
ATOM     83  C   UNL A   1      37.192  33.252  29.870  1.00  0.00     0.023 A 
ATOM     84  C   UNL A   1      36.673  32.910  28.603  1.00  0.00     0.012 A 
ATOM     85  C   UNL A   1      36.312  33.831  30.810  1.00  0.00     0.148 A 
ATOM     86  C   UNL A   1      35.317  33.099  28.299  1.00  0.00     0.002 A 
ATOM     87  C   UNL A   1      34.967  34.018  30.503  1.00  0.00     0.091 A 
ATOM     88  F   UNL A   1      36.770  34.106  32.037  1.00  0.00    -0.205 F 
ATOM     89  C   UNL A   1      34.461  33.642  29.252  1.00  0.00     0.022 A 
BRANCH  87  90
ATOM     90  S   UNL A   1      33.796  34.675  31.701  1.00  0.00     0.127 S 
ATOM     91  O   UNL A   1      32.629  34.959  30.863  1.00  0.00    -0.237 OA
ATOM     92  O   UNL A   1      33.636  33.545  32.612  1.00  0.00    -0.237 OA
ATOM     93  O   UNL A   1      34.432  35.859  32.262  1.00  0.00    -0.744 OA
ENDBRANCH  87  90
ENDBRANCH  59  83
BRANCH  71  94
ATOM     94  C   UNL A   1      41.970  32.196  33.655  1.00  0.00     0.023 A 
ATOM     95  C   UNL A   1      41.642  30.825  33.576  1.00  0.00     0.012 A 
ATOM     96  C   UNL A   1      42.049  32.800  34.918  1.00  0.00     0.148 A 
ATOM     97  C   UNL A   1      41.373  30.083  34.730  1.00  0.00     0.002 A 
ATOM     98  C   UNL A   1      41.830  32.049  36.066  1.00  0.00     0.091 A 
ATOM     99  F   UNL A   1      42.367  34.102  34.977  1.00  0.00    -0.205 F 
ATOM    100  C   UNL A   1      41.481  30.694  35.977  1.00  0.00     0.022 A 
BRANCH  98 101
ATOM    101  S   UNL A   1      42.078  32.750  37.697  1.00  0.00     0.127 S 
ATOM    102  O   UNL A   1      41.910  31.583  38.559  1.00  0.00    -0.237 OA
ATOM    103  O   UNL A   1      43.448  33.260  37.615  1.00  0.00    -0.237 OA
ATOM    104  O   UNL A   1      41.067  33.791  37.844  1.00  0.00    -0.744 OA
ENDBRANCH  98 101
ENDBRANCH  71  94
ENDBRANCH  45  46
ENDBRANCH  37  40
ENDBRANCH  35  36
ENDBRANCH   1  35
TORSDOF 18
ENDMDL
MODEL 3
REMARK VINA RESULT:     -11.7      3.320      8.765
REMARK SMILES COc1cccc(-c2nn(-c3cc4c(cc3C(N)=O)OCO4)cc2C(=O)NCCCCNC(=O)c2ccc(-c3c4nc(c(-c5cccc(S(=O)(=O)[O-])c5F)c5ccc([nH]5)c(-c5cccc(S(=O)(=O)[O-])c5F)c5nc(c(-c6cccc(S(=O)(=O)[O-])c6F)c6ccc3[nH]6)C=C5)C=C4)cc2)c1
REMARK SMILES IDX 30 1 29 2 28 3 27 4 25 5 26 6 24 8 8 9 9 10 10 11 23 12 7 13
REMARK SMILES IDX 3 14 4 15 98 16 5 17 6 18 2 19 1 20 11 21 12 22 16 23 13 24
REMARK SMILES IDX 15 25 14 26 22 27 20 28 21 29 17 30 18 31 19 32 31 35 32 36
REMARK SMILES IDX 33 37 34 39 35 40 36 41 97 42 37 43 96 44 38 45 39 46 40 47
REMARK SMILES IDX 90 48 41 49 95 50 89 51 91 52 42 53 94 54 88 55 87 56 43 58
REMARK SMILES IDX 75 59 55 60 74 61 56 62 59 63 73 64 92 65 57 66 58 67 72 69
REMARK SMILES IDX 93 70 60 71 44 72 45 73 53 74 46 75 48 76 54 77 47 78 49 79
REMARK SMILES IDX 50 80 51 81 52 82 76 83 77 84 85 85 78 86 80 87 86 88 79 89
REMARK SMILES IDX 81 90 82 91 83 92 84 93 61 94 62 95 70 96 63 97 65 98 71 99
REMARK SMILES IDX 64 100 66 101 67 102 68 103 69 104
REMARK H PARENT 27 7 18 33 18 34 32 38 91 57 59 68
REMARK Flexibility Score: inf
ROOT
ATOM      1  C   UNL A   1      39.417  23.793  26.527  1.00  0.00     0.023 C 
ENDROOT
BRANCH   1   2
ATOM      2  C   UNL A   1      37.894  23.625  26.399  1.00  0.00     0.023 C 
BRANCH   2   3
ATOM      3  C   UNL A   1      37.443  22.322  25.729  1.00  0.00     0.116 C 
BRANCH   3   4
ATOM      4  N   UNL A   1      37.285  22.493  24.301  1.00  0.00    -0.352 N 
ATOM      5  C   UNL A   1      36.270  22.987  23.520  1.00  0.00     0.255 C 
ATOM      6  O   UNL A   1      36.450  22.906  22.305  1.00  0.00    -0.269 OA
ATOM      7  H   UNL A   1      38.067  22.195  23.783  1.00  0.00     0.163 HD
BRANCH   5   8
ATOM      8  C   UNL A   1      35.055  23.568  24.083  1.00  0.00     0.086 A 
ATOM      9  C   UNL A   1      33.746  22.968  24.193  1.00  0.00     0.106 A 
ATOM     10  N   UNL A   1      32.839  23.845  24.685  1.00  0.00    -0.167 NA
ATOM     11  N   UNL A   1      33.506  25.019  24.667  1.00  0.00    -0.239 N 
ATOM     12  C   UNL A   1      34.863  24.809  24.650  1.00  0.00     0.129 A 
BRANCH   9  13
ATOM     13  C   UNL A   1      33.369  21.589  23.862  1.00  0.00     0.007 A 
ATOM     14  C   UNL A   1      33.415  19.209  24.330  1.00  0.00     0.119 A 
ATOM     15  C   UNL A   1      32.514  18.984  23.286  1.00  0.00     0.046 A 
ATOM     16  C   UNL A   1      33.853  20.508  24.612  1.00  0.00     0.056 A 
ATOM     17  C   UNL A   1      32.039  20.050  22.529  1.00  0.00     0.005 A 
ATOM     18  C   UNL A   1      32.476  21.345  22.807  1.00  0.00     0.011 A 
BRANCH  14  19
ATOM     19  O   UNL A   1      33.868  18.091  24.978  1.00  0.00    -0.497 OA
ATOM     20  C   UNL A   1      33.821  16.908  24.180  1.00  0.00     0.278 C 
ENDBRANCH  14  19
ENDBRANCH   9  13
BRANCH  11  21
ATOM     21  C   UNL A   1      32.891  26.278  24.882  1.00  0.00     0.081 A 
ATOM     22  C   UNL A   1      33.013  26.868  26.154  1.00  0.00     0.079 A 
ATOM     23  C   UNL A   1      32.254  26.977  23.811  1.00  0.00     0.069 A 
ATOM     24  C   UNL A   1      32.573  28.170  26.292  1.00  0.00     0.167 A 
ATOM     25  C   UNL A   1      31.909  28.328  23.980  1.00  0.00     0.066 A 
ATOM     26  C   UNL A   1      32.068  28.883  25.228  1.00  0.00     0.166 A 
ATOM     27  O   UNL A   1      32.585  28.912  27.434  1.00  0.00    -0.454 OA
ATOM     28  O   UNL A   1      31.706  30.148  25.570  1.00  0.00    -0.454 OA
ATOM     29  C   UNL A   1      31.841  30.071  27.002  1.00  0.00     0.468 C 
BRANCH  23  30
ATOM     30  C   UNL A   1      31.763  26.279  22.578  1.00  0.00     0.251 C 
ATOM     31  N   UNL A   1      32.383  26.542  21.389  1.00  0.00    -0.366 N 
ATOM     32  O   UNL A   1      30.793  25.531  22.565  1.00  0.00    -0.269 OA
ATOM     33  H   UNL A   1      33.165  27.139  21.363  1.00  0.00     0.159 HD
ATOM     34  H   UNL A   1      32.048  26.135  20.558  1.00  0.00     0.159 HD
ENDBRANCH  23  30
ENDBRANCH  11  21
ENDBRANCH   5   8
ENDBRANCH   3   4
ENDBRANCH   2   3
ENDBRANCH   1   2
BRANCH   1  35
ATOM     35  C   UNL A   1      40.167  22.533  26.945  1.00  0.00     0.116 C 
BRANCH  35  36
ATOM     36  N   UNL A   1      41.360  22.282  26.127  1.00  0.00    -0.352 N 
ATOM     37  C   UNL A   1      42.248  23.202  25.599  1.00  0.00     0.251 C 
ATOM     38  H   UNL A   1      41.553  21.337  25.930  1.00  0.00     0.163 HD
ATOM     39  O   UNL A   1      42.949  22.918  24.635  1.00  0.00    -0.269 OA
BRANCH  37  40
ATOM     40  C   UNL A   1      42.357  24.525  26.236  1.00  0.00     0.039 A 
ATOM     41  C   UNL A   1      41.769  25.672  25.693  1.00  0.00     0.014 A 
ATOM     42  C   UNL A   1      43.059  24.588  27.435  1.00  0.00     0.014 A 
ATOM     43  C   UNL A   1      41.835  26.864  26.414  1.00  0.00     0.010 A 
ATOM     44  C   UNL A   1      42.955  25.696  28.225  1.00  0.00     0.010 A 
ATOM     45  C   UNL A   1      42.420  26.859  27.689  1.00  0.00    -0.014 A 
BRANCH  45  46
ATOM     46  C   UNL A   1      42.373  28.021  28.567  1.00  0.00     0.031 A 
ATOM     47  C   UNL A   1      43.357  29.075  28.206  1.00  0.00     0.074 A 
ATOM     48  C   UNL A   1      41.352  28.211  29.436  1.00  0.00     0.049 A 
ATOM     49  N   UNL A   1      44.391  29.441  28.888  1.00  0.00    -0.248 NA
ATOM     50  C   UNL A   1      43.303  29.661  26.855  1.00  0.00     0.031 C 
ATOM     51  C   UNL A   1      40.174  27.354  29.635  1.00  0.00     0.029 A 
ATOM     52  N   UNL A   1      41.056  29.292  30.208  1.00  0.00    -0.354 N 
ATOM     53  C   UNL A   1      44.941  30.504  28.177  1.00  0.00     0.074 A 
ATOM     54  C   UNL A   1      44.408  30.411  26.847  1.00  0.00     0.031 C 
ATOM     55  C   UNL A   1      39.195  28.062  30.237  1.00  0.00     0.029 A 
ATOM     56  C   UNL A   1      39.720  29.359  30.610  1.00  0.00     0.049 A 
ATOM     57  H   UNL A   1      41.725  29.969  30.460  1.00  0.00     0.167 HD
ATOM     58  C   UNL A   1      45.530  31.545  28.831  1.00  0.00     0.034 A 
ATOM     59  C   UNL A   1      39.080  30.424  31.161  1.00  0.00     0.034 A 
ATOM     60  C   UNL A   1      45.768  31.212  30.216  1.00  0.00     0.049 A 
ATOM     61  C   UNL A   1      40.125  31.322  31.701  1.00  0.00     0.074 A 
ATOM     62  C   UNL A   1      46.448  30.209  30.878  1.00  0.00     0.029 A 
ATOM     63  N   UNL A   1      44.897  31.751  31.133  1.00  0.00    -0.354 N 
ATOM     64  N   UNL A   1      40.888  31.001  32.706  1.00  0.00    -0.248 NA
ATOM     65  C   UNL A   1      40.637  32.369  30.831  1.00  0.00     0.031 C 
ATOM     66  C   UNL A   1      45.624  29.884  31.995  1.00  0.00     0.029 A 
ATOM     67  C   UNL A   1      44.540  30.764  32.011  1.00  0.00     0.049 A 
ATOM     68  H   UNL A   1      44.585  32.684  31.155  1.00  0.00     0.167 HD
ATOM     69  C   UNL A   1      42.152  31.415  32.310  1.00  0.00     0.074 A 
ATOM     70  C   UNL A   1      41.918  32.356  31.213  1.00  0.00     0.031 C 
ATOM     71  C   UNL A   1      43.265  30.722  32.691  1.00  0.00     0.034 A 
BRANCH  58  72
ATOM     72  C   UNL A   1      45.507  32.993  28.380  1.00  0.00     0.023 A 
ATOM     73  C   UNL A   1      46.739  33.687  28.418  1.00  0.00     0.012 A 
ATOM     74  C   UNL A   1      44.342  33.774  28.211  1.00  0.00     0.148 A 
ATOM     75  C   UNL A   1      46.800  35.084  28.378  1.00  0.00     0.002 A 
ATOM     76  C   UNL A   1      44.412  35.159  28.097  1.00  0.00     0.091 A 
ATOM     77  F   UNL A   1      43.134  33.214  28.292  1.00  0.00    -0.205 F 
ATOM     78  C   UNL A   1      45.635  35.821  28.216  1.00  0.00     0.022 A 
BRANCH  76  79
ATOM     79  S   UNL A   1      42.941  36.162  27.847  1.00  0.00     0.127 S 
ATOM     80  O   UNL A   1      42.206  35.912  29.084  1.00  0.00    -0.237 OA
ATOM     81  O   UNL A   1      43.513  37.502  27.723  1.00  0.00    -0.237 OA
ATOM     82  O   UNL A   1      42.324  35.660  26.625  1.00  0.00    -0.744 OA
ENDBRANCH  76  79
ENDBRANCH  58  72
BRANCH  59  83
ATOM     83  C   UNL A   1      37.661  30.852  31.073  1.00  0.00     0.023 A 
ATOM     84  C   UNL A   1      36.961  31.215  32.242  1.00  0.00     0.012 A 
ATOM     85  C   UNL A   1      37.083  31.185  29.828  1.00  0.00     0.148 A 
ATOM     86  C   UNL A   1      35.751  31.921  32.176  1.00  0.00     0.002 A 
ATOM     87  C   UNL A   1      35.881  31.884  29.766  1.00  0.00     0.091 A 
ATOM     88  F   UNL A   1      37.761  30.903  28.708  1.00  0.00    -0.205 F 
ATOM     89  C   UNL A   1      35.216  32.265  30.938  1.00  0.00     0.022 A 
BRANCH  87  90
ATOM     90  S   UNL A   1      35.154  32.398  28.202  1.00  0.00     0.127 S 
ATOM     91  O   UNL A   1      35.068  31.132  27.474  1.00  0.00    -0.237 OA
ATOM     92  O   UNL A   1      33.872  32.946  28.635  1.00  0.00    -0.237 OA
ATOM     93  O   UNL A   1      36.093  33.355  27.630  1.00  0.00    -0.744 OA
ENDBRANCH  87  90
ENDBRANCH  59  83
BRANCH  71  94
ATOM     94  C   UNL A   1      43.109  29.656  33.748  1.00  0.00     0.023 A 
ATOM     95  C   UNL A   1      42.562  28.382  33.478  1.00  0.00     0.012 A 
ATOM     96  C   UNL A   1      43.685  29.891  35.006  1.00  0.00     0.148 A 
ATOM     97  C   UNL A   1      42.567  27.378  34.450  1.00  0.00     0.002 A 
ATOM     98  C   UNL A   1      43.732  28.875  35.952  1.00  0.00     0.091 A 
ATOM     99  F   UNL A   1      44.205  31.104  35.246  1.00  0.00    -0.205 F 
ATOM    100  C   UNL A   1      43.165  27.621  35.684  1.00  0.00     0.022 A 
BRANCH  98 101
ATOM    101  S   UNL A   1      44.599  29.093  37.506  1.00  0.00     0.127 S 
ATOM    102  O   UNL A   1      43.877  30.213  38.104  1.00  0.00    -0.237 OA
ATOM    103  O   UNL A   1      44.387  27.803  38.168  1.00  0.00    -0.237 OA
ATOM    104  O   UNL A   1      45.989  29.356  37.155  1.00  0.00    -0.744 OA
ENDBRANCH  98 101
ENDBRANCH  71  94
ENDBRANCH  45  46
ENDBRANCH  37  40
ENDBRANCH  35  36
ENDBRANCH   1  35
TORSDOF 18
ENDMDL
