MODEL 1
REMARK VINA RESULT:     -12.4      0.000      0.000
REMARK SMILES Cc1c(C(=O)NC(=S)Nc2ccccc2C(=O)NCCCCNC(=O)c2ccc(-c3c4nc(c(-c5cccc(S(=O)(=O)[O-])c5F)c5ccc([nH]5)c(-c5cccc(S(=O)(=O)[O-])c5F)c5nc(c(-c6cccc(S(=O)(=O)[O-])c6F)c6ccc3[nH]6)C=C5)C=C4)cc2)cccc1[N+](=O)[O-]
REMARK SMILES IDX 19 1 18 2 16 3 17 4 15 6 10 7 11 8 12 9 14 10 13 11 9 12
REMARK SMILES IDX 7 14 8 15 6 16 4 17 5 18 3 20 1 21 2 22 92 23 89 24 91 25
REMARK SMILES IDX 90 26 93 27 94 28 95 29 20 30 21 31 22 32 23 33 24 34 25 36
REMARK SMILES IDX 26 37 27 38 88 39 28 40 87 41 29 42 30 43 31 44 81 45 32 46
REMARK SMILES IDX 86 47 80 48 82 49 33 50 85 51 79 52 78 53 34 55 66 56 46 57
REMARK SMILES IDX 65 58 47 59 50 60 64 61 83 62 48 63 49 64 63 66 84 67 51 68
REMARK SMILES IDX 35 69 36 70 44 71 37 72 39 73 45 74 38 75 40 76 41 77 42 78
REMARK SMILES IDX 43 79 67 80 68 81 76 82 69 83 71 84 77 85 70 86 72 87 73 88
REMARK SMILES IDX 74 89 75 90 52 91 53 92 61 93 54 94 56 95 62 96 55 97 57 98
REMARK SMILES IDX 58 99 59 100 60 101
REMARK H PARENT 18 5 9 13 6 19 23 35 82 54 50 65
REMARK Flexibility Score: inf
ROOT
ATOM      1  C   UNL A   1      31.482  30.363  25.241  1.00  0.00     0.116 C 
ENDROOT
BRANCH   1   2
ATOM      2  N   UNL A   1      32.356  29.516  24.373  1.00  0.00    -0.352 N 
ATOM      3  C   UNL A   1      32.172  28.852  23.113  1.00  0.00     0.253 C 
ATOM      4  O   UNL A   1      33.169  28.441  22.524  1.00  0.00    -0.269 OA
ATOM      5  H   UNL A   1      33.257  29.386  24.748  1.00  0.00     0.163 HD
BRANCH   3   6
ATOM      6  C   UNL A   1      30.784  28.532  22.514  1.00  0.00     0.063 A 
ATOM      7  C   UNL A   1      29.697  27.294  23.231  1.00  0.00     0.053 A 
ATOM      8  C   UNL A   1      27.879  27.542  23.377  1.00  0.00     0.027 A 
ATOM      9  C   UNL A   1      27.313  29.318  23.248  1.00  0.00     0.002 A 
ATOM     10  C   UNL A   1      30.262  29.954  21.972  1.00  0.00     0.016 A 
ATOM     11  C   UNL A   1      28.720  30.527  22.464  1.00  0.00     0.001 A 
BRANCH   7  12
ATOM     12  N   UNL A   1      30.266  26.900  24.525  1.00  0.00    -0.332 N 
ATOM     13  H   UNL A   1      29.947  27.423  25.296  1.00  0.00     0.169 HD
BRANCH  12  14
ATOM     14  C   UNL A   1      31.190  25.895  24.831  1.00  0.00     0.177 C 
ATOM     15  S   UNL A   1      30.964  25.079  26.289  1.00  0.00    -0.040 S 
BRANCH  14  16
ATOM     16  N   UNL A   1      32.439  25.601  24.107  1.00  0.00    -0.299 N 
ATOM     17  C   UNL A   1      33.491  24.582  23.564  1.00  0.00     0.257 C 
ATOM     18  O   UNL A   1      34.156  24.885  22.577  1.00  0.00    -0.269 OA
ATOM     19  H   UNL A   1      32.777  26.482  23.827  1.00  0.00     0.172 HD
BRANCH  17  20
ATOM     20  C   UNL A   1      33.566  23.168  24.138  1.00  0.00     0.049 A 
ATOM     21  C   UNL A   1      34.586  24.188  25.902  1.00  0.00     0.053 C 
ATOM     22  C   UNL A   1      35.187  23.048  24.439  1.00  0.00     0.039 A 
ATOM     23  C   UNL A   1      36.226  21.317  24.679  1.00  0.00     0.273 A 
ATOM     24  C   UNL A   1      32.654  21.729  24.466  1.00  0.00     0.014 A 
ATOM     25  C   UNL A   1      35.161  19.835  24.948  1.00  0.00     0.086 A 
ATOM     26  C   UNL A   1      33.382  20.123  24.880  1.00  0.00     0.008 A 
BRANCH  23  27
ATOM     27  N   UNL A   1      37.666  20.899  25.049  1.00  0.00     0.063 N 
ATOM     28  O   UNL A   1      38.020  19.782  24.636  1.00  0.00    -0.258 OA
ATOM     29  O   UNL A   1      38.402  21.659  25.687  1.00  0.00    -0.258 OA
ENDBRANCH  23  27
ENDBRANCH  17  20
ENDBRANCH  14  16
ENDBRANCH  12  14
ENDBRANCH   7  12
ENDBRANCH   3   6
ENDBRANCH   1   2
BRANCH   1  30
ATOM     30  C   UNL A   1      31.744  30.606  26.734  1.00  0.00     0.023 C 
BRANCH  30  31
ATOM     31  C   UNL A   1      32.621  31.760  27.131  1.00  0.00     0.023 C 
BRANCH  31  32
ATOM     32  C   UNL A   1      33.834  31.274  27.858  1.00  0.00     0.116 C 
BRANCH  32  33
ATOM     33  N   UNL A   1      34.013  29.849  27.811  1.00  0.00    -0.352 N 
ATOM     34  C   UNL A   1      35.214  29.193  27.663  1.00  0.00     0.251 C 
ATOM     35  H   UNL A   1      33.206  29.292  27.892  1.00  0.00     0.163 HD
ATOM     36  O   UNL A   1      35.179  28.039  27.245  1.00  0.00    -0.269 OA
BRANCH  34  37
ATOM     37  C   UNL A   1      36.470  29.809  28.194  1.00  0.00     0.039 A 
ATOM     38  C   UNL A   1      37.419  30.177  27.242  1.00  0.00     0.014 A 
ATOM     39  C   UNL A   1      36.896  29.534  29.491  1.00  0.00     0.014 A 
ATOM     40  C   UNL A   1      38.747  29.870  27.473  1.00  0.00     0.010 A 
ATOM     41  C   UNL A   1      38.158  29.081  29.677  1.00  0.00     0.010 A 
ATOM     42  C   UNL A   1      39.047  29.154  28.615  1.00  0.00    -0.014 A 
BRANCH  42  43
ATOM     43  C   UNL A   1      40.341  28.668  29.000  1.00  0.00     0.031 A 
ATOM     44  C   UNL A   1      40.500  27.226  28.775  1.00  0.00     0.074 A 
ATOM     45  C   UNL A   1      41.286  29.639  29.008  1.00  0.00     0.049 A 
ATOM     46  N   UNL A   1      41.568  26.582  29.029  1.00  0.00    -0.248 NA
ATOM     47  C   UNL A   1      39.438  26.368  28.229  1.00  0.00     0.031 C 
ATOM     48  C   UNL A   1      42.691  29.603  28.632  1.00  0.00     0.029 A 
ATOM     49  N   UNL A   1      41.116  30.947  29.468  1.00  0.00    -0.354 N 
ATOM     50  C   UNL A   1      41.475  25.373  28.367  1.00  0.00     0.074 A 
ATOM     51  C   UNL A   1      40.088  25.218  28.036  1.00  0.00     0.031 C 
ATOM     52  C   UNL A   1      43.313  30.685  29.146  1.00  0.00     0.029 A 
ATOM     53  C   UNL A   1      42.349  31.375  29.989  1.00  0.00     0.049 A 
ATOM     54  H   UNL A   1      40.284  31.473  29.434  1.00  0.00     0.167 HD
ATOM     55  C   UNL A   1      42.643  24.767  28.032  1.00  0.00     0.034 A 
ATOM     56  C   UNL A   1      42.456  31.508  31.350  1.00  0.00     0.034 A 
ATOM     57  C   UNL A   1      43.752  25.574  28.578  1.00  0.00     0.049 A 
ATOM     58  C   UNL A   1      43.268  30.369  31.950  1.00  0.00     0.074 A 
ATOM     59  C   UNL A   1      44.558  26.557  28.029  1.00  0.00     0.029 A 
ATOM     60  N   UNL A   1      43.825  25.732  29.958  1.00  0.00    -0.354 N 
ATOM     61  N   UNL A   1      43.525  29.244  31.336  1.00  0.00    -0.248 NA
ATOM     62  C   UNL A   1      43.945  30.457  33.238  1.00  0.00     0.031 C 
ATOM     63  C   UNL A   1      45.054  27.357  29.105  1.00  0.00     0.029 A 
ATOM     64  C   UNL A   1      44.562  26.854  30.298  1.00  0.00     0.049 A 
ATOM     65  H   UNL A   1      43.407  25.122  30.610  1.00  0.00     0.167 HD
ATOM     66  C   UNL A   1      44.348  28.457  32.095  1.00  0.00     0.074 A 
ATOM     67  C   UNL A   1      44.612  29.288  33.262  1.00  0.00     0.031 C 
ATOM     68  C   UNL A   1      44.742  27.199  31.708  1.00  0.00     0.034 A 
BRANCH  55  69
ATOM     69  C   UNL A   1      42.867  23.622  27.062  1.00  0.00     0.023 A 
ATOM     70  C   UNL A   1      43.464  23.981  25.831  1.00  0.00     0.012 A 
ATOM     71  C   UNL A   1      42.533  22.252  27.210  1.00  0.00     0.148 A 
ATOM     72  C   UNL A   1      43.688  23.067  24.800  1.00  0.00     0.002 A 
ATOM     73  C   UNL A   1      42.772  21.328  26.180  1.00  0.00     0.091 A 
ATOM     74  F   UNL A   1      41.977  21.811  28.338  1.00  0.00    -0.205 F 
ATOM     75  C   UNL A   1      43.343  21.739  24.973  1.00  0.00     0.022 A 
BRANCH  73  76
ATOM     76  S   UNL A   1      42.380  19.570  26.306  1.00  0.00     0.127 S 
ATOM     77  O   UNL A   1      41.194  19.460  25.454  1.00  0.00    -0.237 OA
ATOM     78  O   UNL A   1      43.580  18.942  25.755  1.00  0.00    -0.237 OA
ATOM     79  O   UNL A   1      42.139  19.297  27.717  1.00  0.00    -0.744 OA
ENDBRANCH  73  76
ENDBRANCH  55  69
BRANCH  56  80
ATOM     80  C   UNL A   1      41.202  32.133  31.915  1.00  0.00     0.023 A 
ATOM     81  C   UNL A   1      40.690  33.235  31.177  1.00  0.00     0.012 A 
ATOM     82  C   UNL A   1      40.303  31.363  32.673  1.00  0.00     0.148 A 
ATOM     83  C   UNL A   1      39.316  33.361  30.952  1.00  0.00     0.002 A 
ATOM     84  C   UNL A   1      38.930  31.529  32.482  1.00  0.00     0.091 A 
ATOM     85  F   UNL A   1      40.796  30.437  33.506  1.00  0.00    -0.205 F 
ATOM     86  C   UNL A   1      38.440  32.464  31.555  1.00  0.00     0.022 A 
BRANCH  84  87
ATOM     87  S   UNL A   1      37.753  30.491  33.359  1.00  0.00     0.127 S 
ATOM     88  O   UNL A   1      37.869  30.998  34.722  1.00  0.00    -0.237 OA
ATOM     89  O   UNL A   1      36.481  30.799  32.710  1.00  0.00    -0.237 OA
ATOM     90  O   UNL A   1      38.222  29.129  33.145  1.00  0.00    -0.744 OA
ENDBRANCH  84  87
ENDBRANCH  56  80
BRANCH  68  91
ATOM     91  C   UNL A   1      45.361  26.149  32.627  1.00  0.00     0.023 A 
ATOM     92  C   UNL A   1      46.749  25.933  32.689  1.00  0.00     0.012 A 
ATOM     93  C   UNL A   1      44.578  25.426  33.572  1.00  0.00     0.148 A 
ATOM     94  C   UNL A   1      47.320  24.994  33.552  1.00  0.00     0.002 A 
ATOM     95  C   UNL A   1      45.167  24.615  34.534  1.00  0.00     0.091 A 
ATOM     96  F   UNL A   1      43.240  25.482  33.536  1.00  0.00    -0.205 F 
ATOM     97  C   UNL A   1      46.533  24.354  34.495  1.00  0.00     0.022 A 
BRANCH  95  98
ATOM     98  S   UNL A   1      44.239  23.982  35.940  1.00  0.00     0.127 S 
ATOM     99  O   UNL A   1      45.273  23.256  36.673  1.00  0.00    -0.237 OA
ATOM    100  O   UNL A   1      43.787  25.218  36.583  1.00  0.00    -0.237 OA
ATOM    101  O   UNL A   1      43.168  23.172  35.378  1.00  0.00    -0.744 OA
ENDBRANCH  95  98
ENDBRANCH  68  91
ENDBRANCH  42  43
ENDBRANCH  34  37
ENDBRANCH  32  33
ENDBRANCH  31  32
ENDBRANCH  30  31
ENDBRANCH   1  30
TORSDOF 19
ENDMDL
MODEL 2
REMARK VINA RESULT:     -12.3      3.639      4.893
REMARK SMILES Cc1c(C(=O)NC(=S)Nc2ccccc2C(=O)NCCCCNC(=O)c2ccc(-c3c4nc(c(-c5cccc(S(=O)(=O)[O-])c5F)c5ccc([nH]5)c(-c5cccc(S(=O)(=O)[O-])c5F)c5nc(c(-c6cccc(S(=O)(=O)[O-])c6F)c6ccc3[nH]6)C=C5)C=C4)cc2)cccc1[N+](=O)[O-]
REMARK SMILES IDX 19 1 18 2 16 3 17 4 15 6 10 7 11 8 12 9 14 10 13 11 9 12
REMARK SMILES IDX 7 14 8 15 6 16 4 17 5 18 3 20 1 21 2 22 92 23 89 24 91 25
REMARK SMILES IDX 90 26 93 27 94 28 95 29 20 30 21 31 22 32 23 33 24 34 25 36
REMARK SMILES IDX 26 37 27 38 88 39 28 40 87 41 29 42 30 43 31 44 81 45 32 46
REMARK SMILES IDX 86 47 80 48 82 49 33 50 85 51 79 52 78 53 34 55 66 56 46 57
REMARK SMILES IDX 65 58 47 59 50 60 64 61 83 62 48 63 49 64 63 66 84 67 51 68
REMARK SMILES IDX 35 69 36 70 44 71 37 72 39 73 45 74 38 75 40 76 41 77 42 78
REMARK SMILES IDX 43 79 67 80 68 81 76 82 69 83 71 84 77 85 70 86 72 87 73 88
REMARK SMILES IDX 74 89 75 90 52 91 53 92 61 93 54 94 56 95 62 96 55 97 57 98
REMARK SMILES IDX 58 99 59 100 60 101
REMARK H PARENT 18 5 9 13 6 19 23 35 82 54 50 65
REMARK Flexibility Score: inf
ROOT
ATOM      1  C   UNL A   1      34.684  29.026  27.105  1.00  0.00     0.116 C 
ENDROOT
BRANCH   1   2
ATOM      2  N   UNL A   1      33.278  28.603  27.383  1.00  0.00    -0.352 N 
ATOM      3  C   UNL A   1      32.141  28.304  26.557  1.00  0.00     0.253 C 
ATOM      4  O   UNL A   1      31.185  27.731  27.073  1.00  0.00    -0.269 OA
ATOM      5  H   UNL A   1      33.089  28.510  28.345  1.00  0.00     0.163 HD
BRANCH   3   6
ATOM      6  C   UNL A   1      32.015  28.759  25.085  1.00  0.00     0.063 A 
ATOM      7  C   UNL A   1      31.765  27.591  23.743  1.00  0.00     0.053 A 
ATOM      8  C   UNL A   1      30.618  27.927  22.343  1.00  0.00     0.027 A 
ATOM      9  C   UNL A   1      29.353  29.265  22.665  1.00  0.00     0.002 A 
ATOM     10  C   UNL A   1      31.243  30.167  25.183  1.00  0.00     0.016 A 
ATOM     11  C   UNL A   1      29.822  30.413  24.251  1.00  0.00     0.001 A 
BRANCH   7  12
ATOM     12  N   UNL A   1      31.474  26.283  24.340  1.00  0.00    -0.332 N 
ATOM     13  H   UNL A   1      30.836  26.301  25.089  1.00  0.00     0.169 HD
BRANCH  12  14
ATOM     14  C   UNL A   1      31.964  25.015  24.009  1.00  0.00     0.177 C 
ATOM     15  S   UNL A   1      33.069  24.940  22.738  1.00  0.00    -0.040 S 
BRANCH  14  16
ATOM     16  N   UNL A   1      31.480  23.724  24.528  1.00  0.00    -0.299 N 
ATOM     17  C   UNL A   1      31.754  22.294  25.094  1.00  0.00     0.257 C 
ATOM     18  O   UNL A   1      30.917  21.775  25.827  1.00  0.00    -0.269 OA
ATOM     19  H   UNL A   1      30.499  23.801  24.509  1.00  0.00     0.172 HD
BRANCH  17  20
ATOM     20  C   UNL A   1      33.113  21.628  24.886  1.00  0.00     0.049 A 
ATOM     21  C   UNL A   1      32.334  21.222  22.784  1.00  0.00     0.053 C 
ATOM     22  C   UNL A   1      32.642  20.130  24.370  1.00  0.00     0.039 A 
ATOM     23  C   UNL A   1      33.783  18.448  24.408  1.00  0.00     0.273 A 
ATOM     24  C   UNL A   1      34.826  21.829  25.078  1.00  0.00     0.014 A 
ATOM     25  C   UNL A   1      35.578  18.765  24.690  1.00  0.00     0.086 A 
ATOM     26  C   UNL A   1      36.037  20.488  24.967  1.00  0.00     0.008 A 
BRANCH  23  27
ATOM     27  N   UNL A   1      33.664  16.984  23.929  1.00  0.00     0.063 N 
ATOM     28  O   UNL A   1      33.677  16.126  24.827  1.00  0.00    -0.258 OA
ATOM     29  O   UNL A   1      33.534  16.719  22.729  1.00  0.00    -0.258 OA
ENDBRANCH  23  27
ENDBRANCH  17  20
ENDBRANCH  14  16
ENDBRANCH  12  14
ENDBRANCH   7  12
ENDBRANCH   3   6
ENDBRANCH   1   2
BRANCH   1  30
ATOM     30  C   UNL A   1      35.473  29.997  27.996  1.00  0.00     0.023 C 
BRANCH  30  31
ATOM     31  C   UNL A   1      35.015  31.425  28.083  1.00  0.00     0.023 C 
BRANCH  31  32
ATOM     32  C   UNL A   1      34.896  31.854  29.511  1.00  0.00     0.116 C 
BRANCH  32  33
ATOM     33  N   UNL A   1      34.149  33.068  29.698  1.00  0.00    -0.352 N 
ATOM     34  C   UNL A   1      34.276  33.935  30.758  1.00  0.00     0.251 C 
ATOM     35  H   UNL A   1      33.488  33.298  29.006  1.00  0.00     0.163 HD
ATOM     36  O   UNL A   1      33.331  34.684  30.991  1.00  0.00    -0.269 OA
BRANCH  34  37
ATOM     37  C   UNL A   1      35.596  34.084  31.446  1.00  0.00     0.039 A 
ATOM     38  C   UNL A   1      36.683  34.378  30.624  1.00  0.00     0.014 A 
ATOM     39  C   UNL A   1      35.832  33.451  32.663  1.00  0.00     0.014 A 
ATOM     40  C   UNL A   1      37.870  33.697  30.820  1.00  0.00     0.010 A 
ATOM     41  C   UNL A   1      36.923  32.658  32.782  1.00  0.00     0.010 A 
ATOM     42  C   UNL A   1      37.888  32.712  31.787  1.00  0.00    -0.014 A 
BRANCH  42  43
ATOM     43  C   UNL A   1      38.984  31.839  32.094  1.00  0.00     0.031 A 
ATOM     44  C   UNL A   1      38.894  30.545  31.406  1.00  0.00     0.074 A 
ATOM     45  C   UNL A   1      40.086  32.507  32.514  1.00  0.00     0.049 A 
ATOM     46  N   UNL A   1      39.763  29.621  31.518  1.00  0.00    -0.248 NA
ATOM     47  C   UNL A   1      37.787  30.176  30.512  1.00  0.00     0.031 C 
ATOM     48  C   UNL A   1      41.498  32.260  32.271  1.00  0.00     0.029 A 
ATOM     49  N   UNL A   1      40.101  33.606  33.375  1.00  0.00    -0.354 N 
ATOM     50  C   UNL A   1      39.545  28.738  30.478  1.00  0.00     0.074 A 
ATOM     51  C   UNL A   1      38.225  29.026  29.995  1.00  0.00     0.031 C 
ATOM     52  C   UNL A   1      42.228  32.948  33.175  1.00  0.00     0.029 A 
ATOM     53  C   UNL A   1      41.294  33.547  34.115  1.00  0.00     0.049 A 
ATOM     54  H   UNL A   1      39.403  34.298  33.451  1.00  0.00     0.167 HD
ATOM     55  C   UNL A   1      40.612  28.009  30.060  1.00  0.00     0.034 A 
ATOM     56  C   UNL A   1      41.205  33.219  35.444  1.00  0.00     0.034 A 
ATOM     57  C   UNL A   1      41.754  28.319  30.942  1.00  0.00     0.049 A 
ATOM     58  C   UNL A   1      41.675  31.792  35.688  1.00  0.00     0.074 A 
ATOM     59  C   UNL A   1      42.812  29.206  30.832  1.00  0.00     0.029 A 
ATOM     60  N   UNL A   1      41.634  28.016  32.293  1.00  0.00    -0.354 N 
ATOM     61  N   UNL A   1      41.804  30.888  34.753  1.00  0.00    -0.248 NA
ATOM     62  C   UNL A   1      42.141  31.310  36.983  1.00  0.00     0.031 C 
ATOM     63  C   UNL A   1      43.275  29.489  32.154  1.00  0.00     0.029 A 
ATOM     64  C   UNL A   1      42.511  28.768  33.058  1.00  0.00     0.049 A 
ATOM     65  H   UNL A   1      41.007  27.350  32.660  1.00  0.00     0.167 HD
ATOM     66  C   UNL A   1      42.327  29.732  35.267  1.00  0.00     0.074 A 
ATOM     67  C   UNL A   1      42.557  30.070  36.665  1.00  0.00     0.031 C 
ATOM     68  C   UNL A   1      42.526  28.603  34.511  1.00  0.00     0.034 A 
BRANCH  55  69
ATOM     69  C   UNL A   1      40.762  27.206  28.781  1.00  0.00     0.023 A 
ATOM     70  C   UNL A   1      39.821  26.164  28.608  1.00  0.00     0.012 A 
ATOM     71  C   UNL A   1      41.730  27.339  27.755  1.00  0.00     0.148 A 
ATOM     72  C   UNL A   1      39.847  25.289  27.520  1.00  0.00     0.002 A 
ATOM     73  C   UNL A   1      41.749  26.471  26.652  1.00  0.00     0.091 A 
ATOM     74  F   UNL A   1      42.653  28.299  27.819  1.00  0.00    -0.205 F 
ATOM     75  C   UNL A   1      40.811  25.441  26.541  1.00  0.00     0.022 A 
BRANCH  73  76
ATOM     76  S   UNL A   1      42.948  26.590  25.308  1.00  0.00     0.127 S 
ATOM     77  O   UNL A   1      42.484  27.780  24.589  1.00  0.00    -0.237 OA
ATOM     78  O   UNL A   1      44.208  26.774  26.028  1.00  0.00    -0.237 OA
ATOM     79  O   UNL A   1      42.851  25.349  24.550  1.00  0.00    -0.744 OA
ENDBRANCH  73  76
ENDBRANCH  55  69
BRANCH  56  80
ATOM     80  C   UNL A   1      40.022  33.912  36.077  1.00  0.00     0.023 A 
ATOM     81  C   UNL A   1      38.842  33.126  36.176  1.00  0.00     0.012 A 
ATOM     82  C   UNL A   1      40.218  34.942  37.013  1.00  0.00     0.148 A 
ATOM     83  C   UNL A   1      38.066  33.156  37.338  1.00  0.00     0.002 A 
ATOM     84  C   UNL A   1      39.406  34.999  38.148  1.00  0.00     0.091 A 
ATOM     85  F   UNL A   1      41.231  35.797  36.824  1.00  0.00    -0.205 F 
ATOM     86  C   UNL A   1      38.391  34.050  38.353  1.00  0.00     0.022 A 
BRANCH  84  87
ATOM     87  S   UNL A   1      39.694  36.238  39.417  1.00  0.00     0.127 S 
ATOM     88  O   UNL A   1      38.934  35.696  40.538  1.00  0.00    -0.237 OA
ATOM     89  O   UNL A   1      41.143  36.202  39.602  1.00  0.00    -0.237 OA
ATOM     90  O   UNL A   1      39.192  37.481  38.850  1.00  0.00    -0.744 OA
ENDBRANCH  84  87
ENDBRANCH  56  80
BRANCH  68  91
ATOM     91  C   UNL A   1      42.776  27.204  35.067  1.00  0.00     0.023 A 
ATOM     92  C   UNL A   1      41.784  26.481  35.751  1.00  0.00     0.012 A 
ATOM     93  C   UNL A   1      43.987  26.499  34.805  1.00  0.00     0.148 A 
ATOM     94  C   UNL A   1      42.002  25.188  36.235  1.00  0.00     0.002 A 
ATOM     95  C   UNL A   1      44.137  25.161  35.147  1.00  0.00     0.091 A 
ATOM     96  F   UNL A   1      45.033  27.123  34.247  1.00  0.00    -0.205 F 
ATOM     97  C   UNL A   1      43.168  24.516  35.910  1.00  0.00     0.022 A 
BRANCH  95  98
ATOM     98  S   UNL A   1      45.498  24.167  34.517  1.00  0.00     0.127 S 
ATOM     99  O   UNL A   1      46.628  24.700  35.274  1.00  0.00    -0.237 OA
ATOM    100  O   UNL A   1      45.086  22.815  34.901  1.00  0.00    -0.237 OA
ATOM    101  O   UNL A   1      45.528  24.399  33.080  1.00  0.00    -0.744 OA
ENDBRANCH  95  98
ENDBRANCH  68  91
ENDBRANCH  42  43
ENDBRANCH  34  37
ENDBRANCH  32  33
ENDBRANCH  31  32
ENDBRANCH  30  31
ENDBRANCH   1  30
TORSDOF 19
ENDMDL
MODEL 3
REMARK VINA RESULT:     -11.7      3.048      4.063
REMARK SMILES Cc1c(C(=O)NC(=S)Nc2ccccc2C(=O)NCCCCNC(=O)c2ccc(-c3c4nc(c(-c5cccc(S(=O)(=O)[O-])c5F)c5ccc([nH]5)c(-c5cccc(S(=O)(=O)[O-])c5F)c5nc(c(-c6cccc(S(=O)(=O)[O-])c6F)c6ccc3[nH]6)C=C5)C=C4)cc2)cccc1[N+](=O)[O-]
REMARK SMILES IDX 19 1 18 2 16 3 17 4 15 6 10 7 11 8 12 9 14 10 13 11 9 12
REMARK SMILES IDX 7 14 8 15 6 16 4 17 5 18 3 20 1 21 2 22 92 23 89 24 91 25
REMARK SMILES IDX 90 26 93 27 94 28 95 29 20 30 21 31 22 32 23 33 24 34 25 36
REMARK SMILES IDX 26 37 27 38 88 39 28 40 87 41 29 42 30 43 31 44 81 45 32 46
REMARK SMILES IDX 86 47 80 48 82 49 33 50 85 51 79 52 78 53 34 55 66 56 46 57
REMARK SMILES IDX 65 58 47 59 50 60 64 61 83 62 48 63 49 64 63 66 84 67 51 68
REMARK SMILES IDX 35 69 36 70 44 71 37 72 39 73 45 74 38 75 40 76 41 77 42 78
REMARK SMILES IDX 43 79 67 80 68 81 76 82 69 83 71 84 77 85 70 86 72 87 73 88
REMARK SMILES IDX 74 89 75 90 52 91 53 92 61 93 54 94 56 95 62 96 55 97 57 98
REMARK SMILES IDX 58 99 59 100 60 101
REMARK H PARENT 18 5 9 13 6 19 23 35 82 54 50 65
REMARK Flexibility Score: inf
ROOT
ATOM      1  C   UNL A   1      34.267  29.047  26.473  1.00  0.00     0.116 C 
ENDROOT
BRANCH   1   2
ATOM      2  N   UNL A   1      34.205  28.930  24.985  1.00  0.00    -0.352 N 
ATOM      3  C   UNL A   1      33.137  28.958  24.023  1.00  0.00     0.253 C 
ATOM      4  O   UNL A   1      33.430  29.095  22.837  1.00  0.00    -0.269 OA
ATOM      5  H   UNL A   1      35.090  28.807  24.572  1.00  0.00     0.163 HD
BRANCH   3   6
ATOM      6  C   UNL A   1      31.655  28.717  24.389  1.00  0.00     0.063 A 
ATOM      7  C   UNL A   1      30.527  27.859  23.284  1.00  0.00     0.053 A 
ATOM      8  C   UNL A   1      29.284  26.644  23.891  1.00  0.00     0.027 A 
ATOM      9  C   UNL A   1      29.617  25.962  25.599  1.00  0.00     0.002 A 
ATOM     10  C   UNL A   1      31.686  28.473  25.978  1.00  0.00     0.016 A 
ATOM     11  C   UNL A   1      30.955  27.062  26.627  1.00  0.00     0.001 A 
BRANCH   7  12
ATOM     12  N   UNL A   1      31.325  27.276  22.200  1.00  0.00    -0.332 N 
ATOM     13  H   UNL A   1      31.637  27.918  21.522  1.00  0.00     0.169 HD
BRANCH  12  14
ATOM     14  C   UNL A   1      31.710  25.949  21.980  1.00  0.00     0.177 C 
ATOM     15  S   UNL A   1      32.695  25.658  20.644  1.00  0.00    -0.040 S 
BRANCH  14  16
ATOM     16  N   UNL A   1      31.199  24.759  22.684  1.00  0.00    -0.299 N 
ATOM     17  C   UNL A   1      31.434  23.494  23.570  1.00  0.00     0.257 C 
ATOM     18  O   UNL A   1      30.514  23.078  24.268  1.00  0.00    -0.269 OA
ATOM     19  H   UNL A   1      30.230  24.764  22.509  1.00  0.00     0.172 HD
BRANCH  17  20
ATOM     20  C   UNL A   1      32.833  22.893  23.702  1.00  0.00     0.049 A 
ATOM     21  C   UNL A   1      32.179  21.575  21.962  1.00  0.00     0.053 C 
ATOM     22  C   UNL A   1      32.461  21.291  23.870  1.00  0.00     0.039 A 
ATOM     23  C   UNL A   1      33.677  19.865  24.657  1.00  0.00     0.273 A 
ATOM     24  C   UNL A   1      34.522  23.267  23.830  1.00  0.00     0.014 A 
ATOM     25  C   UNL A   1      35.438  20.389  24.819  1.00  0.00     0.086 A 
ATOM     26  C   UNL A   1      35.800  22.089  24.338  1.00  0.00     0.008 A 
BRANCH  23  27
ATOM     27  N   UNL A   1      33.652  18.333  24.853  1.00  0.00     0.063 N 
ATOM     28  O   UNL A   1      33.011  17.931  25.837  1.00  0.00    -0.258 OA
ATOM     29  O   UNL A   1      34.216  17.583  24.049  1.00  0.00    -0.258 OA
ENDBRANCH  23  27
ENDBRANCH  17  20
ENDBRANCH  14  16
ENDBRANCH  12  14
ENDBRANCH   7  12
ENDBRANCH   3   6
ENDBRANCH   1   2
BRANCH   1  30
ATOM     30  C   UNL A   1      34.282  30.387  27.222  1.00  0.00     0.023 C 
BRANCH  30  31
ATOM     31  C   UNL A   1      35.310  30.599  28.297  1.00  0.00     0.023 C 
BRANCH  31  32
ATOM     32  C   UNL A   1      36.196  31.755  27.958  1.00  0.00     0.116 C 
BRANCH  32  33
ATOM     33  N   UNL A   1      35.542  33.033  28.023  1.00  0.00    -0.352 N 
ATOM     34  C   UNL A   1      35.555  33.890  29.099  1.00  0.00     0.251 C 
ATOM     35  H   UNL A   1      35.040  33.320  27.227  1.00  0.00     0.163 HD
ATOM     36  O   UNL A   1      34.656  34.724  29.168  1.00  0.00    -0.269 OA
BRANCH  34  37
ATOM     37  C   UNL A   1      36.739  33.920  30.014  1.00  0.00     0.039 A 
ATOM     38  C   UNL A   1      37.971  34.167  29.410  1.00  0.00     0.014 A 
ATOM     39  C   UNL A   1      36.713  33.228  31.222  1.00  0.00     0.014 A 
ATOM     40  C   UNL A   1      39.059  33.397  29.778  1.00  0.00     0.010 A 
ATOM     41  C   UNL A   1      37.714  32.357  31.491  1.00  0.00     0.010 A 
ATOM     42  C   UNL A   1      38.842  32.378  30.684  1.00  0.00    -0.014 A 
BRANCH  42  43
ATOM     43  C   UNL A   1      39.809  31.420  31.136  1.00  0.00     0.031 A 
ATOM     44  C   UNL A   1      39.721  30.139  30.422  1.00  0.00     0.074 A 
ATOM     45  C   UNL A   1      40.885  31.996  31.724  1.00  0.00     0.049 A 
ATOM     46  N   UNL A   1      40.489  29.149  30.646  1.00  0.00    -0.248 NA
ATOM     47  C   UNL A   1      38.734  29.864  29.369  1.00  0.00     0.031 C 
ATOM     48  C   UNL A   1      42.295  31.639  31.688  1.00  0.00     0.029 A 
ATOM     49  N   UNL A   1      40.859  33.088  32.595  1.00  0.00    -0.354 N 
ATOM     50  C   UNL A   1      40.359  28.290  29.572  1.00  0.00     0.074 A 
ATOM     51  C   UNL A   1      39.152  28.684  28.905  1.00  0.00     0.031 C 
ATOM     52  C   UNL A   1      42.934  32.263  32.700  1.00  0.00     0.029 A 
ATOM     53  C   UNL A   1      41.920  32.930  33.502  1.00  0.00     0.049 A 
ATOM     54  H   UNL A   1      40.214  33.832  32.578  1.00  0.00     0.167 HD
ATOM     55  C   UNL A   1      41.415  27.480  29.304  1.00  0.00     0.034 A 
ATOM     56  C   UNL A   1      41.611  32.606  34.798  1.00  0.00     0.034 A 
ATOM     57  C   UNL A   1      42.435  27.695  30.350  1.00  0.00     0.049 A 
ATOM     58  C   UNL A   1      41.926  31.145  35.086  1.00  0.00     0.074 A 
ATOM     59  C   UNL A   1      43.564  28.495  30.411  1.00  0.00     0.029 A 
ATOM     60  N   UNL A   1      42.093  27.397  31.664  1.00  0.00    -0.354 N 
ATOM     61  N   UNL A   1      42.121  30.237  34.166  1.00  0.00    -0.248 NA
ATOM     62  C   UNL A   1      42.156  30.622  36.428  1.00  0.00     0.031 C 
ATOM     63  C   UNL A   1      43.847  28.735  31.791  1.00  0.00     0.029 A 
ATOM     64  C   UNL A   1      42.903  28.074  32.561  1.00  0.00     0.049 A 
ATOM     65  H   UNL A   1      41.369  26.782  31.924  1.00  0.00     0.167 HD
ATOM     66  C   UNL A   1      42.470  29.041  34.734  1.00  0.00     0.074 A 
ATOM     67  C   UNL A   1      42.515  29.354  36.156  1.00  0.00     0.031 C 
ATOM     68  C   UNL A   1      42.690  27.903  33.998  1.00  0.00     0.034 A 
BRANCH  55  69
ATOM     69  C   UNL A   1      41.690  26.673  28.049  1.00  0.00     0.023 A 
ATOM     70  C   UNL A   1      41.549  27.380  26.833  1.00  0.00     0.012 A 
ATOM     71  C   UNL A   1      42.038  25.304  27.930  1.00  0.00     0.148 A 
ATOM     72  C   UNL A   1      41.705  26.781  25.582  1.00  0.00     0.002 A 
ATOM     73  C   UNL A   1      42.210  24.702  26.673  1.00  0.00     0.091 A 
ATOM     74  F   UNL A   1      42.206  24.553  29.019  1.00  0.00    -0.205 F 
ATOM     75  C   UNL A   1      42.036  25.440  25.500  1.00  0.00     0.022 A 
BRANCH  73  76
ATOM     76  S   UNL A   1      42.662  22.968  26.451  1.00  0.00     0.127 S 
ATOM     77  O   UNL A   1      41.540  22.276  27.090  1.00  0.00    -0.237 OA
ATOM     78  O   UNL A   1      42.700  22.839  24.995  1.00  0.00    -0.237 OA
ATOM     79  O   UNL A   1      43.945  22.782  27.116  1.00  0.00    -0.744 OA
ENDBRANCH  73  76
ENDBRANCH  55  69
BRANCH  56  80
ATOM     80  C   UNL A   1      40.405  33.389  35.260  1.00  0.00     0.023 A 
ATOM     81  C   UNL A   1      39.165  32.698  35.173  1.00  0.00     0.012 A 
ATOM     82  C   UNL A   1      40.540  34.396  36.230  1.00  0.00     0.148 A 
ATOM     83  C   UNL A   1      38.230  32.786  36.208  1.00  0.00     0.002 A 
ATOM     84  C   UNL A   1      39.576  34.514  37.234  1.00  0.00     0.091 A 
ATOM     85  F   UNL A   1      41.634  35.169  36.205  1.00  0.00    -0.205 F 
ATOM     86  C   UNL A   1      38.470  33.648  37.274  1.00  0.00     0.022 A 
BRANCH  84  87
ATOM     87  S   UNL A   1      39.769  35.722  38.550  1.00  0.00     0.127 S 
ATOM     88  O   UNL A   1      39.598  36.978  37.826  1.00  0.00    -0.237 OA
ATOM     89  O   UNL A   1      38.675  35.404  39.465  1.00  0.00    -0.237 OA
ATOM     90  O   UNL A   1      41.098  35.477  39.094  1.00  0.00    -0.744 OA
ENDBRANCH  84  87
ENDBRANCH  56  80
BRANCH  68  91
ATOM     91  C   UNL A   1      42.744  26.486  34.563  1.00  0.00     0.023 A 
ATOM     92  C   UNL A   1      41.690  25.936  35.313  1.00  0.00     0.012 A 
ATOM     93  C   UNL A   1      43.810  25.594  34.246  1.00  0.00     0.148 A 
ATOM     94  C   UNL A   1      41.725  24.629  35.805  1.00  0.00     0.002 A 
ATOM     95  C   UNL A   1      43.764  24.252  34.602  1.00  0.00     0.091 A 
ATOM     96  F   UNL A   1      44.909  26.038  33.623  1.00  0.00    -0.205 F 
ATOM     97  C   UNL A   1      42.749  23.777  35.428  1.00  0.00     0.022 A 
BRANCH  95  98
ATOM     98  S   UNL A   1      44.910  23.048  33.916  1.00  0.00     0.127 S 
ATOM     99  O   UNL A   1      44.714  23.237  32.481  1.00  0.00    -0.237 OA
ATOM    100  O   UNL A   1      46.195  23.530  34.427  1.00  0.00    -0.237 OA
ATOM    101  O   UNL A   1      44.499  21.757  34.451  1.00  0.00    -0.744 OA
ENDBRANCH  95  98
ENDBRANCH  68  91
ENDBRANCH  42  43
ENDBRANCH  34  37
ENDBRANCH  32  33
ENDBRANCH  31  32
ENDBRANCH  30  31
ENDBRANCH   1  30
TORSDOF 19
ENDMDL
