MODEL 1
REMARK VINA RESULT:     -12.2      0.000      0.000
REMARK SMILES CC(=O)c1ccccc1S(=O)(=O)N1CCC(C(=O)NCCCCNC(=O)c2ccc(-c3c4nc(c(-c5cccc(S(=O)(=O)[O-])c5F)c5ccc([nH]5)c(-c5cccc(S(=O)(=O)[O-])c5F)c5nc(c(-c6cccc(S(=O)(=O)[O-])c6F)c6ccc3[nH]6)C=C5)C=C4)cc2)CC1
REMARK SMILES IDX 21 1 20 2 19 3 17 4 18 5 16 7 13 8 14 9 91 10 15 11 90 12
REMARK SMILES IDX 10 13 11 14 12 15 9 16 4 17 5 18 6 19 8 20 7 21 2 22 1 23
REMARK SMILES IDX 3 24 22 25 23 26 24 27 25 28 26 30 27 31 28 32 89 33 29 34
REMARK SMILES IDX 88 35 30 36 31 37 32 38 82 39 33 40 87 41 81 42 83 43 34 44
REMARK SMILES IDX 86 45 80 46 79 47 35 49 67 50 47 51 66 52 48 53 51 54 65 55
REMARK SMILES IDX 84 56 49 57 50 58 64 60 85 61 52 62 36 63 37 64 45 65 38 66
REMARK SMILES IDX 40 67 46 68 39 69 41 70 42 71 43 72 44 73 68 74 69 75 77 76
REMARK SMILES IDX 70 77 72 78 78 79 71 80 73 81 74 82 75 83 76 84 53 85 54 86
REMARK SMILES IDX 62 87 55 88 57 89 63 90 56 91 58 92 59 93 60 94 61 95
REMARK H PARENT 19 6 24 29 83 48 51 59
REMARK Flexibility Score: inf
ROOT
ATOM      1  C   UNL A   1      34.709  20.665  25.610  1.00  0.00     0.023 C 
ENDROOT
BRANCH   1   2
ATOM      2  C   UNL A   1      33.184  20.651  25.561  1.00  0.00     0.116 C 
BRANCH   2   3
ATOM      3  N   UNL A   1      32.686  20.418  24.220  1.00  0.00    -0.356 N 
ATOM      4  C   UNL A   1      32.218  21.299  23.292  1.00  0.00     0.223 C 
ATOM      5  O   UNL A   1      31.813  20.855  22.217  1.00  0.00    -0.275 OA
ATOM      6  H   UNL A   1      32.687  19.476  23.935  1.00  0.00     0.163 HD
BRANCH   4   7
ATOM      7  C   UNL A   1      32.214  22.797  23.566  1.00  0.00     0.081 C 
ATOM      8  N   UNL A   1      32.034  25.550  23.048  1.00  0.00    -0.198 NA
ATOM      9  C   UNL A   1      32.926  24.805  22.139  1.00  0.00     0.103 C 
ATOM     10  C   UNL A   1      30.708  24.888  23.217  1.00  0.00     0.103 C 
ATOM     11  C   UNL A   1      33.343  23.510  22.816  1.00  0.00     0.030 C 
ATOM     12  C   UNL A   1      30.807  23.375  23.394  1.00  0.00     0.030 C 
BRANCH   8  13
ATOM     13  S   UNL A   1      31.952  27.229  22.783  1.00  0.00     0.243 S 
ATOM     14  O   UNL A   1      30.707  27.528  22.119  1.00  0.00    -0.207 OA
ATOM     15  O   UNL A   1      33.220  27.657  22.214  1.00  0.00    -0.207 OA
BRANCH  13  16
ATOM     16  C   UNL A   1      31.892  28.030  24.361  1.00  0.00     0.093 A 
ATOM     17  C   UNL A   1      32.318  27.492  25.572  1.00  0.00     0.037 A 
ATOM     18  C   UNL A   1      32.253  28.265  26.744  1.00  0.00     0.013 A 
ATOM     19  C   UNL A   1      31.798  29.582  26.700  1.00  0.00     0.001 A 
ATOM     20  C   UNL A   1      31.429  29.359  24.329  1.00  0.00     0.022 A 
ATOM     21  C   UNL A   1      31.391  30.131  25.490  1.00  0.00     0.001 A 
BRANCH  17  22
ATOM     22  C   UNL A   1      32.896  26.156  25.760  1.00  0.00     0.161 C 
ATOM     23  C   UNL A   1      34.343  25.994  25.389  1.00  0.00     0.093 C 
ATOM     24  O   UNL A   1      32.239  25.301  26.341  1.00  0.00    -0.294 OA
ENDBRANCH  17  22
ENDBRANCH  13  16
ENDBRANCH   8  13
ENDBRANCH   4   7
ENDBRANCH   2   3
ENDBRANCH   1   2
BRANCH   1  25
ATOM     25  C   UNL A   1      35.314  22.052  25.807  1.00  0.00     0.023 C 
BRANCH  25  26
ATOM     26  C   UNL A   1      36.678  22.241  25.162  1.00  0.00     0.116 C 
BRANCH  26  27
ATOM     27  N   UNL A   1      37.586  21.128  25.413  1.00  0.00    -0.352 N 
ATOM     28  C   UNL A   1      38.844  21.166  25.960  1.00  0.00     0.251 C 
ATOM     29  H   UNL A   1      37.254  20.237  25.156  1.00  0.00     0.163 HD
ATOM     30  O   UNL A   1      39.541  20.158  25.998  1.00  0.00    -0.269 OA
BRANCH  28  31
ATOM     31  C   UNL A   1      39.345  22.454  26.469  1.00  0.00     0.039 A 
ATOM     32  C   UNL A   1      40.399  22.456  27.385  1.00  0.00     0.014 A 
ATOM     33  C   UNL A   1      38.826  23.651  25.970  1.00  0.00     0.014 A 
ATOM     34  C   UNL A   1      40.975  23.670  27.757  1.00  0.00     0.010 A 
ATOM     35  C   UNL A   1      39.460  24.849  26.273  1.00  0.00     0.010 A 
ATOM     36  C   UNL A   1      40.530  24.872  27.179  1.00  0.00    -0.014 A 
BRANCH  36  37
ATOM     37  C   UNL A   1      41.170  26.166  27.515  1.00  0.00     0.031 A 
ATOM     38  C   UNL A   1      42.584  26.437  27.082  1.00  0.00     0.074 A 
ATOM     39  C   UNL A   1      40.509  27.058  28.280  1.00  0.00     0.049 A 
ATOM     40  N   UNL A   1      43.328  27.487  27.310  1.00  0.00    -0.248 NA
ATOM     41  C   UNL A   1      43.266  25.376  26.320  1.00  0.00     0.031 C 
ATOM     42  C   UNL A   1      39.170  26.865  28.842  1.00  0.00     0.029 A 
ATOM     43  N   UNL A   1      40.885  28.294  28.738  1.00  0.00    -0.354 N 
ATOM     44  C   UNL A   1      44.570  27.198  26.759  1.00  0.00     0.074 A 
ATOM     45  C   UNL A   1      44.495  25.857  26.222  1.00  0.00     0.031 C 
ATOM     46  C   UNL A   1      38.835  27.948  29.561  1.00  0.00     0.029 A 
ATOM     47  C   UNL A   1      39.940  28.901  29.531  1.00  0.00     0.049 A 
ATOM     48  H   UNL A   1      41.751  28.709  28.520  1.00  0.00     0.167 HD
ATOM     49  C   UNL A   1      45.665  27.989  26.674  1.00  0.00     0.034 A 
ATOM     50  C   UNL A   1      39.962  30.091  30.162  1.00  0.00     0.034 A 
ATOM     51  C   UNL A   1      45.714  29.340  27.160  1.00  0.00     0.049 A 
ATOM     52  C   UNL A   1      41.165  30.979  29.994  1.00  0.00     0.074 A 
ATOM     53  C   UNL A   1      46.736  30.262  27.035  1.00  0.00     0.029 A 
ATOM     54  N   UNL A   1      44.697  29.961  27.870  1.00  0.00    -0.354 N 
ATOM     55  N   UNL A   1      42.267  30.756  29.319  1.00  0.00    -0.248 NA
ATOM     56  C   UNL A   1      41.112  32.299  30.637  1.00  0.00     0.031 C 
ATOM     57  C   UNL A   1      46.346  31.437  27.687  1.00  0.00     0.029 A 
ATOM     58  C   UNL A   1      45.069  31.253  28.195  1.00  0.00     0.049 A 
ATOM     59  H   UNL A   1      43.837  29.544  28.106  1.00  0.00     0.167 HD
ATOM     60  C   UNL A   1      43.022  31.919  29.426  1.00  0.00     0.074 A 
ATOM     61  C   UNL A   1      42.240  32.852  30.213  1.00  0.00     0.031 C 
ATOM     62  C   UNL A   1      44.256  32.187  28.932  1.00  0.00     0.034 A 
BRANCH  49  63
ATOM     63  C   UNL A   1      46.878  27.432  25.977  1.00  0.00     0.023 A 
ATOM     64  C   UNL A   1      47.014  27.590  24.583  1.00  0.00     0.012 A 
ATOM     65  C   UNL A   1      47.904  26.796  26.703  1.00  0.00     0.148 A 
ATOM     66  C   UNL A   1      48.133  27.095  23.916  1.00  0.00     0.002 A 
ATOM     67  C   UNL A   1      49.039  26.347  26.039  1.00  0.00     0.091 A 
ATOM     68  F   UNL A   1      47.746  26.632  28.025  1.00  0.00    -0.205 F 
ATOM     69  C   UNL A   1      49.150  26.484  24.645  1.00  0.00     0.022 A 
BRANCH  67  70
ATOM     70  S   UNL A   1      50.440  25.620  26.896  1.00  0.00     0.127 S 
ATOM     71  O   UNL A   1      51.347  25.332  25.786  1.00  0.00    -0.237 OA
ATOM     72  O   UNL A   1      50.871  26.715  27.765  1.00  0.00    -0.237 OA
ATOM     73  O   UNL A   1      49.920  24.455  27.598  1.00  0.00    -0.744 OA
ENDBRANCH  67  70
ENDBRANCH  49  63
BRANCH  50  74
ATOM     74  C   UNL A   1      38.776  30.542  30.944  1.00  0.00     0.023 A 
ATOM     75  C   UNL A   1      38.752  30.345  32.338  1.00  0.00     0.012 A 
ATOM     76  C   UNL A   1      37.691  31.189  30.324  1.00  0.00     0.148 A 
ATOM     77  C   UNL A   1      37.655  30.754  33.097  1.00  0.00     0.002 A 
ATOM     78  C   UNL A   1      36.625  31.643  31.093  1.00  0.00     0.091 A 
ATOM     79  F   UNL A   1      37.727  31.358  28.994  1.00  0.00    -0.205 F 
ATOM     80  C   UNL A   1      36.596  31.411  32.476  1.00  0.00     0.022 A 
BRANCH  78  81
ATOM     81  S   UNL A   1      35.283  32.615  30.398  1.00  0.00     0.127 S 
ATOM     82  O   UNL A   1      34.356  32.694  31.522  1.00  0.00    -0.237 OA
ATOM     83  O   UNL A   1      35.960  33.871  30.067  1.00  0.00    -0.237 OA
ATOM     84  O   UNL A   1      34.815  31.866  29.240  1.00  0.00    -0.744 OA
ENDBRANCH  78  81
ENDBRANCH  50  74
BRANCH  62  85
ATOM     85  C   UNL A   1      44.831  33.554  29.192  1.00  0.00     0.023 A 
ATOM     86  C   UNL A   1      45.648  33.768  30.319  1.00  0.00     0.012 A 
ATOM     87  C   UNL A   1      44.621  34.605  28.278  1.00  0.00     0.148 A 
ATOM     88  C   UNL A   1      46.220  35.018  30.551  1.00  0.00     0.002 A 
ATOM     89  C   UNL A   1      45.236  35.832  28.489  1.00  0.00     0.091 A 
ATOM     90  F   UNL A   1      43.825  34.386  27.221  1.00  0.00    -0.205 F 
ATOM     91  C   UNL A   1      46.025  36.046  29.631  1.00  0.00     0.022 A 
BRANCH  89  92
ATOM     92  S   UNL A   1      45.120  37.179  27.306  1.00  0.00     0.127 S 
ATOM     93  O   UNL A   1      46.084  36.767  26.287  1.00  0.00    -0.237 OA
ATOM     94  O   UNL A   1      43.719  37.104  26.885  1.00  0.00    -0.237 OA
ATOM     95  O   UNL A   1      45.462  38.389  28.041  1.00  0.00    -0.744 OA
ENDBRANCH  89  92
ENDBRANCH  62  85
ENDBRANCH  36  37
ENDBRANCH  28  31
ENDBRANCH  26  27
ENDBRANCH  25  26
ENDBRANCH   1  25
TORSDOF 17
ENDMDL
MODEL 2
REMARK VINA RESULT:     -12.0      2.111      7.825
REMARK SMILES CC(=O)c1ccccc1S(=O)(=O)N1CCC(C(=O)NCCCCNC(=O)c2ccc(-c3c4nc(c(-c5cccc(S(=O)(=O)[O-])c5F)c5ccc([nH]5)c(-c5cccc(S(=O)(=O)[O-])c5F)c5nc(c(-c6cccc(S(=O)(=O)[O-])c6F)c6ccc3[nH]6)C=C5)C=C4)cc2)CC1
REMARK SMILES IDX 21 1 20 2 19 3 17 4 18 5 16 7 13 8 14 9 91 10 15 11 90 12
REMARK SMILES IDX 10 13 11 14 12 15 9 16 4 17 5 18 6 19 8 20 7 21 2 22 1 23
REMARK SMILES IDX 3 24 22 25 23 26 24 27 25 28 26 30 27 31 28 32 89 33 29 34
REMARK SMILES IDX 88 35 30 36 31 37 32 38 82 39 33 40 87 41 81 42 83 43 34 44
REMARK SMILES IDX 86 45 80 46 79 47 35 49 67 50 47 51 66 52 48 53 51 54 65 55
REMARK SMILES IDX 84 56 49 57 50 58 64 60 85 61 52 62 36 63 37 64 45 65 38 66
REMARK SMILES IDX 40 67 46 68 39 69 41 70 42 71 43 72 44 73 68 74 69 75 77 76
REMARK SMILES IDX 70 77 72 78 78 79 71 80 73 81 74 82 75 83 76 84 53 85 54 86
REMARK SMILES IDX 62 87 55 88 57 89 63 90 56 91 58 92 59 93 60 94 61 95
REMARK H PARENT 19 6 24 29 83 48 51 59
REMARK Flexibility Score: inf
ROOT
ATOM      1  C   UNL A   1      36.902  21.502  24.588  1.00  0.00     0.023 C 
ENDROOT
BRANCH   1   2
ATOM      2  C   UNL A   1      35.921  21.874  25.696  1.00  0.00     0.116 C 
BRANCH   2   3
ATOM      3  N   UNL A   1      34.902  20.861  25.882  1.00  0.00    -0.356 N 
ATOM      4  C   UNL A   1      33.581  20.873  25.551  1.00  0.00     0.223 C 
ATOM      5  O   UNL A   1      32.897  19.892  25.844  1.00  0.00    -0.275 OA
ATOM      6  H   UNL A   1      35.215  20.034  26.315  1.00  0.00     0.163 HD
BRANCH   4   7
ATOM      7  C   UNL A   1      32.968  22.060  24.821  1.00  0.00     0.081 C 
ATOM      8  N   UNL A   1      32.849  24.430  23.321  1.00  0.00    -0.198 NA
ATOM      9  C   UNL A   1      33.790  24.461  24.457  1.00  0.00     0.103 C 
ATOM     10  C   UNL A   1      33.002  23.204  22.486  1.00  0.00     0.103 C 
ATOM     11  C   UNL A   1      33.387  23.390  25.456  1.00  0.00     0.030 C 
ATOM     12  C   UNL A   1      33.172  21.929  23.309  1.00  0.00     0.030 C 
BRANCH   8  13
ATOM     13  S   UNL A   1      32.724  25.875  22.431  1.00  0.00     0.243 S 
ATOM     14  O   UNL A   1      31.577  25.780  21.562  1.00  0.00    -0.207 OA
ATOM     15  O   UNL A   1      34.039  26.191  21.898  1.00  0.00    -0.207 OA
BRANCH  13  16
ATOM     16  C   UNL A   1      32.391  27.191  23.569  1.00  0.00     0.093 A 
ATOM     17  C   UNL A   1      31.352  27.234  24.494  1.00  0.00     0.037 A 
ATOM     18  C   UNL A   1      31.238  28.327  25.370  1.00  0.00     0.013 A 
ATOM     19  C   UNL A   1      32.179  29.355  25.347  1.00  0.00     0.001 A 
ATOM     20  C   UNL A   1      33.332  28.238  23.550  1.00  0.00     0.022 A 
ATOM     21  C   UNL A   1      33.231  29.307  24.440  1.00  0.00     0.001 A 
BRANCH  17  22
ATOM     22  C   UNL A   1      30.338  26.191  24.693  1.00  0.00     0.161 C 
ATOM     23  C   UNL A   1      30.276  25.570  26.061  1.00  0.00     0.093 C 
ATOM     24  O   UNL A   1      29.510  25.991  23.813  1.00  0.00    -0.294 OA
ENDBRANCH  17  22
ENDBRANCH  13  16
ENDBRANCH   8  13
ENDBRANCH   4   7
ENDBRANCH   2   3
ENDBRANCH   1   2
BRANCH   1  25
ATOM     25  C   UNL A   1      37.763  20.280  24.900  1.00  0.00     0.023 C 
BRANCH  25  26
ATOM     26  C   UNL A   1      38.898  20.544  25.876  1.00  0.00     0.116 C 
BRANCH  26  27
ATOM     27  N   UNL A   1      39.830  19.427  25.979  1.00  0.00    -0.352 N 
ATOM     28  C   UNL A   1      41.186  19.469  26.182  1.00  0.00     0.251 C 
ATOM     29  H   UNL A   1      39.436  18.528  25.890  1.00  0.00     0.163 HD
ATOM     30  O   UNL A   1      41.861  18.447  26.125  1.00  0.00    -0.269 OA
BRANCH  28  31
ATOM     31  C   UNL A   1      41.814  20.778  26.439  1.00  0.00     0.039 A 
ATOM     32  C   UNL A   1      42.184  21.575  25.354  1.00  0.00     0.014 A 
ATOM     33  C   UNL A   1      41.950  21.241  27.749  1.00  0.00     0.014 A 
ATOM     34  C   UNL A   1      42.640  22.871  25.587  1.00  0.00     0.010 A 
ATOM     35  C   UNL A   1      42.319  22.560  27.972  1.00  0.00     0.010 A 
ATOM     36  C   UNL A   1      42.680  23.384  26.896  1.00  0.00    -0.014 A 
BRANCH  36  37
ATOM     37  C   UNL A   1      43.104  24.779  27.159  1.00  0.00     0.031 A 
ATOM     38  C   UNL A   1      42.151  25.740  27.815  1.00  0.00     0.074 A 
ATOM     39  C   UNL A   1      44.311  25.202  26.732  1.00  0.00     0.049 A 
ATOM     40  N   UNL A   1      42.320  27.006  28.094  1.00  0.00    -0.248 NA
ATOM     41  C   UNL A   1      40.819  25.221  28.175  1.00  0.00     0.031 C 
ATOM     42  C   UNL A   1      45.283  24.389  25.997  1.00  0.00     0.029 A 
ATOM     43  N   UNL A   1      44.915  26.428  26.833  1.00  0.00    -0.354 N 
ATOM     44  C   UNL A   1      41.111  27.442  28.622  1.00  0.00     0.074 A 
ATOM     45  C   UNL A   1      40.201  26.317  28.586  1.00  0.00     0.031 C 
ATOM     46  C   UNL A   1      46.363  25.136  25.723  1.00  0.00     0.029 A 
ATOM     47  C   UNL A   1      46.154  26.485  26.239  1.00  0.00     0.049 A 
ATOM     48  H   UNL A   1      44.501  27.198  27.288  1.00  0.00     0.167 HD
ATOM     49  C   UNL A   1      40.794  28.657  29.125  1.00  0.00     0.034 A 
ATOM     50  C   UNL A   1      47.022  27.509  26.125  1.00  0.00     0.034 A 
ATOM     51  C   UNL A   1      41.720  29.752  29.209  1.00  0.00     0.049 A 
ATOM     52  C   UNL A   1      46.673  28.830  26.754  1.00  0.00     0.074 A 
ATOM     53  C   UNL A   1      41.534  30.992  29.793  1.00  0.00     0.029 A 
ATOM     54  N   UNL A   1      43.005  29.741  28.690  1.00  0.00    -0.354 N 
ATOM     55  N   UNL A   1      45.588  29.172  27.407  1.00  0.00    -0.248 NA
ATOM     56  C   UNL A   1      47.684  29.894  26.671  1.00  0.00     0.031 C 
ATOM     57  C   UNL A   1      42.703  31.739  29.608  1.00  0.00     0.029 A 
ATOM     58  C   UNL A   1      43.625  30.954  28.933  1.00  0.00     0.049 A 
ATOM     59  H   UNL A   1      43.418  28.982  28.218  1.00  0.00     0.167 HD
ATOM     60  C   UNL A   1      45.799  30.476  27.841  1.00  0.00     0.074 A 
ATOM     61  C   UNL A   1      47.126  30.853  27.397  1.00  0.00     0.031 C 
ATOM     62  C   UNL A   1      44.966  31.293  28.531  1.00  0.00     0.034 A 
BRANCH  49  63
ATOM     63  C   UNL A   1      39.407  28.845  29.679  1.00  0.00     0.023 A 
ATOM     64  C   UNL A   1      39.130  28.462  31.007  1.00  0.00     0.012 A 
ATOM     65  C   UNL A   1      38.392  29.443  28.907  1.00  0.00     0.148 A 
ATOM     66  C   UNL A   1      37.857  28.637  31.548  1.00  0.00     0.002 A 
ATOM     67  C   UNL A   1      37.138  29.659  29.469  1.00  0.00     0.091 A 
ATOM     68  F   UNL A   1      38.666  29.779  27.639  1.00  0.00    -0.205 F 
ATOM     69  C   UNL A   1      36.866  29.245  30.783  1.00  0.00     0.022 A 
BRANCH  67  70
ATOM     70  S   UNL A   1      35.818  30.507  28.595  1.00  0.00     0.127 S 
ATOM     71  O   UNL A   1      35.139  31.200  29.689  1.00  0.00    -0.237 OA
ATOM     72  O   UNL A   1      36.561  31.381  27.688  1.00  0.00    -0.237 OA
ATOM     73  O   UNL A   1      35.040  29.466  27.936  1.00  0.00    -0.744 OA
ENDBRANCH  67  70
ENDBRANCH  49  63
BRANCH  50  74
ATOM     74  C   UNL A   1      48.337  27.299  25.455  1.00  0.00     0.023 A 
ATOM     75  C   UNL A   1      49.434  26.844  26.213  1.00  0.00     0.012 A 
ATOM     76  C   UNL A   1      48.500  27.517  24.074  1.00  0.00     0.148 A 
ATOM     77  C   UNL A   1      50.678  26.642  25.614  1.00  0.00     0.002 A 
ATOM     78  C   UNL A   1      49.727  27.261  23.473  1.00  0.00     0.091 A 
ATOM     79  F   UNL A   1      47.447  27.960  23.372  1.00  0.00    -0.205 F 
ATOM     80  C   UNL A   1      50.822  26.840  24.244  1.00  0.00     0.022 A 
BRANCH  78  81
ATOM     81  S   UNL A   1      49.968  27.361  21.696  1.00  0.00     0.127 S 
ATOM     82  O   UNL A   1      48.901  26.498  21.200  1.00  0.00    -0.237 OA
ATOM     83  O   UNL A   1      49.773  28.791  21.445  1.00  0.00    -0.237 OA
ATOM     84  O   UNL A   1      51.327  26.893  21.457  1.00  0.00    -0.744 OA
ENDBRANCH  78  81
ENDBRANCH  50  74
BRANCH  62  85
ATOM     85  C   UNL A   1      45.470  32.667  28.886  1.00  0.00     0.023 A 
ATOM     86  C   UNL A   1      46.195  32.862  30.077  1.00  0.00     0.012 A 
ATOM     87  C   UNL A   1      45.290  33.747  27.999  1.00  0.00     0.148 A 
ATOM     88  C   UNL A   1      46.703  34.120  30.399  1.00  0.00     0.002 A 
ATOM     89  C   UNL A   1      45.843  34.985  28.302  1.00  0.00     0.091 A 
ATOM     90  F   UNL A   1      44.581  33.545  26.879  1.00  0.00    -0.205 F 
ATOM     91  C   UNL A   1      46.538  35.177  29.507  1.00  0.00     0.022 A 
BRANCH  89  92
ATOM     92  S   UNL A   1      45.764  36.374  27.166  1.00  0.00     0.127 S 
ATOM     93  O   UNL A   1      44.326  36.624  27.098  1.00  0.00    -0.237 OA
ATOM     94  O   UNL A   1      46.529  37.401  27.876  1.00  0.00    -0.237 OA
ATOM     95  O   UNL A   1      46.380  35.914  25.928  1.00  0.00    -0.744 OA
ENDBRANCH  89  92
ENDBRANCH  62  85
ENDBRANCH  36  37
ENDBRANCH  28  31
ENDBRANCH  26  27
ENDBRANCH  25  26
ENDBRANCH   1  25
TORSDOF 17
ENDMDL
MODEL 3
REMARK VINA RESULT:     -11.9      2.227      3.046
REMARK SMILES CC(=O)c1ccccc1S(=O)(=O)N1CCC(C(=O)NCCCCNC(=O)c2ccc(-c3c4nc(c(-c5cccc(S(=O)(=O)[O-])c5F)c5ccc([nH]5)c(-c5cccc(S(=O)(=O)[O-])c5F)c5nc(c(-c6cccc(S(=O)(=O)[O-])c6F)c6ccc3[nH]6)C=C5)C=C4)cc2)CC1
REMARK SMILES IDX 21 1 20 2 19 3 17 4 18 5 16 7 13 8 14 9 91 10 15 11 90 12
REMARK SMILES IDX 10 13 11 14 12 15 9 16 4 17 5 18 6 19 8 20 7 21 2 22 1 23
REMARK SMILES IDX 3 24 22 25 23 26 24 27 25 28 26 30 27 31 28 32 89 33 29 34
REMARK SMILES IDX 88 35 30 36 31 37 32 38 82 39 33 40 87 41 81 42 83 43 34 44
REMARK SMILES IDX 86 45 80 46 79 47 35 49 67 50 47 51 66 52 48 53 51 54 65 55
REMARK SMILES IDX 84 56 49 57 50 58 64 60 85 61 52 62 36 63 37 64 45 65 38 66
REMARK SMILES IDX 40 67 46 68 39 69 41 70 42 71 43 72 44 73 68 74 69 75 77 76
REMARK SMILES IDX 70 77 72 78 78 79 71 80 73 81 74 82 75 83 76 84 53 85 54 86
REMARK SMILES IDX 62 87 55 88 57 89 63 90 56 91 58 92 59 93 60 94 61 95
REMARK H PARENT 19 6 24 29 83 48 51 59
REMARK Flexibility Score: inf
ROOT
ATOM      1  C   UNL A   1      35.422  22.041  25.656  1.00  0.00     0.023 C 
ENDROOT
BRANCH   1   2
ATOM      2  C   UNL A   1      34.213  21.870  26.573  1.00  0.00     0.116 C 
BRANCH   2   3
ATOM      3  N   UNL A   1      33.387  20.747  26.178  1.00  0.00    -0.356 N 
ATOM      4  C   UNL A   1      32.422  20.661  25.220  1.00  0.00     0.223 C 
ATOM      5  O   UNL A   1      31.824  19.593  25.088  1.00  0.00    -0.275 OA
ATOM      6  H   UNL A   1      33.549  19.916  26.680  1.00  0.00     0.163 HD
BRANCH   4   7
ATOM      7  C   UNL A   1      32.104  21.848  24.321  1.00  0.00     0.081 C 
ATOM      8  N   UNL A   1      32.413  24.349  23.083  1.00  0.00    -0.198 NA
ATOM      9  C   UNL A   1      32.599  24.354  24.547  1.00  0.00     0.103 C 
ATOM     10  C   UNL A   1      33.176  23.255  22.414  1.00  0.00     0.103 C 
ATOM     11  C   UNL A   1      31.909  23.133  25.132  1.00  0.00     0.030 C 
ATOM     12  C   UNL A   1      33.089  21.920  23.151  1.00  0.00     0.030 C 
BRANCH   8  13
ATOM     13  S   UNL A   1      32.545  25.865  22.322  1.00  0.00     0.243 S 
ATOM     14  O   UNL A   1      31.383  26.062  21.491  1.00  0.00    -0.207 OA
ATOM     15  O   UNL A   1      33.885  25.975  21.767  1.00  0.00    -0.207 OA
BRANCH  13  16
ATOM     16  C   UNL A   1      32.492  27.113  23.577  1.00  0.00     0.093 A 
ATOM     17  C   UNL A   1      31.352  27.573  24.230  1.00  0.00     0.037 A 
ATOM     18  C   UNL A   1      31.467  28.541  25.243  1.00  0.00     0.013 A 
ATOM     19  C   UNL A   1      32.719  29.019  25.627  1.00  0.00     0.001 A 
ATOM     20  C   UNL A   1      33.750  27.608  23.968  1.00  0.00     0.022 A 
ATOM     21  C   UNL A   1      33.862  28.548  24.993  1.00  0.00     0.001 A 
BRANCH  17  22
ATOM     22  C   UNL A   1      29.981  27.105  23.994  1.00  0.00     0.161 C 
ATOM     23  C   UNL A   1      29.112  27.981  23.137  1.00  0.00     0.093 C 
ATOM     24  O   UNL A   1      29.666  25.979  24.363  1.00  0.00    -0.294 OA
ENDBRANCH  17  22
ENDBRANCH  13  16
ENDBRANCH   8  13
ENDBRANCH   4   7
ENDBRANCH   2   3
ENDBRANCH   1   2
BRANCH   1  25
ATOM     25  C   UNL A   1      36.080  23.416  25.740  1.00  0.00     0.023 C 
BRANCH  25  26
ATOM     26  C   UNL A   1      37.424  23.515  25.037  1.00  0.00     0.116 C 
BRANCH  26  27
ATOM     27  N   UNL A   1      38.405  22.565  25.548  1.00  0.00    -0.352 N 
ATOM     28  C   UNL A   1      39.503  22.818  26.331  1.00  0.00     0.251 C 
ATOM     29  H   UNL A   1      38.261  21.622  25.298  1.00  0.00     0.163 HD
ATOM     30  O   UNL A   1      40.310  21.930  26.584  1.00  0.00    -0.269 OA
BRANCH  28  31
ATOM     31  C   UNL A   1      39.703  24.189  26.831  1.00  0.00     0.039 A 
ATOM     32  C   UNL A   1      39.340  24.489  28.145  1.00  0.00     0.014 A 
ATOM     33  C   UNL A   1      40.328  25.142  26.023  1.00  0.00     0.014 A 
ATOM     34  C   UNL A   1      39.662  25.740  28.670  1.00  0.00     0.010 A 
ATOM     35  C   UNL A   1      40.725  26.351  26.577  1.00  0.00     0.010 A 
ATOM     36  C   UNL A   1      40.385  26.667  27.900  1.00  0.00    -0.014 A 
BRANCH  36  37
ATOM     37  C   UNL A   1      40.790  27.978  28.460  1.00  0.00     0.031 A 
ATOM     38  C   UNL A   1      42.248  28.291  28.656  1.00  0.00     0.074 A 
ATOM     39  C   UNL A   1      39.846  28.849  28.871  1.00  0.00     0.049 A 
ATOM     40  N   UNL A   1      42.799  29.361  29.164  1.00  0.00    -0.248 NA
ATOM     41  C   UNL A   1      43.214  27.252  28.260  1.00  0.00     0.031 C 
ATOM     42  C   UNL A   1      38.400  28.616  28.823  1.00  0.00     0.029 A 
ATOM     43  N   UNL A   1      39.962  30.094  29.432  1.00  0.00    -0.354 N 
ATOM     44  C   UNL A   1      44.165  29.110  29.186  1.00  0.00     0.074 A 
ATOM     45  C   UNL A   1      44.358  27.769  28.680  1.00  0.00     0.031 C 
ATOM     46  C   UNL A   1      37.766  29.687  29.325  1.00  0.00     0.029 A 
ATOM     47  C   UNL A   1      38.756  30.671  29.752  1.00  0.00     0.049 A 
ATOM     48  H   UNL A   1      40.828  30.535  29.592  1.00  0.00     0.167 HD
ATOM     49  C   UNL A   1      45.173  29.932  29.560  1.00  0.00     0.034 A 
ATOM     50  C   UNL A   1      38.480  31.860  30.323  1.00  0.00     0.034 A 
ATOM     51  C   UNL A   1      44.978  31.282  30.008  1.00  0.00     0.049 A 
ATOM     52  C   UNL A   1      39.617  32.783  30.664  1.00  0.00     0.074 A 
ATOM     53  C   UNL A   1      45.933  32.234  30.313  1.00  0.00     0.029 A 
ATOM     54  N   UNL A   1      43.741  31.872  30.222  1.00  0.00    -0.354 N 
ATOM     55  N   UNL A   1      40.907  32.594  30.514  1.00  0.00    -0.248 NA
ATOM     56  C   UNL A   1      39.264  34.099  31.214  1.00  0.00     0.031 C 
ATOM     57  C   UNL A   1      45.274  33.395  30.731  1.00  0.00     0.029 A 
ATOM     58  C   UNL A   1      43.907  33.174  30.660  1.00  0.00     0.049 A 
ATOM     59  H   UNL A   1      42.872  31.430  30.081  1.00  0.00     0.167 HD
ATOM     60  C   UNL A   1      41.516  33.777  30.916  1.00  0.00     0.074 A 
ATOM     61  C   UNL A   1      40.451  34.685  31.294  1.00  0.00     0.031 C 
ATOM     62  C   UNL A   1      42.835  34.082  30.981  1.00  0.00     0.034 A 
BRANCH  49  63
ATOM     63  C   UNL A   1      46.581  29.411  29.439  1.00  0.00     0.023 A 
ATOM     64  C   UNL A   1      47.136  28.654  30.490  1.00  0.00     0.012 A 
ATOM     65  C   UNL A   1      47.337  29.628  28.271  1.00  0.00     0.148 A 
ATOM     66  C   UNL A   1      48.432  28.150  30.398  1.00  0.00     0.002 A 
ATOM     67  C   UNL A   1      48.611  29.083  28.166  1.00  0.00     0.091 A 
ATOM     68  F   UNL A   1      46.803  30.371  27.291  1.00  0.00    -0.205 F 
ATOM     69  C   UNL A   1      49.165  28.355  29.232  1.00  0.00     0.022 A 
BRANCH  67  70
ATOM     70  S   UNL A   1      49.605  29.220  26.676  1.00  0.00     0.127 S 
ATOM     71  O   UNL A   1      48.758  28.545  25.694  1.00  0.00    -0.237 OA
ATOM     72  O   UNL A   1      49.702  30.669  26.504  1.00  0.00    -0.237 OA
ATOM     73  O   UNL A   1      50.867  28.556  26.973  1.00  0.00    -0.744 OA
ENDBRANCH  67  70
ENDBRANCH  49  63
BRANCH  50  74
ATOM     74  C   UNL A   1      37.063  32.275  30.533  1.00  0.00     0.023 A 
ATOM     75  C   UNL A   1      36.466  32.079  31.792  1.00  0.00     0.012 A 
ATOM     76  C   UNL A   1      36.318  32.887  29.507  1.00  0.00     0.148 A 
ATOM     77  C   UNL A   1      35.141  32.454  32.018  1.00  0.00     0.002 A 
ATOM     78  C   UNL A   1      35.016  33.308  29.755  1.00  0.00     0.091 A 
ATOM     79  F   UNL A   1      36.901  33.056  28.312  1.00  0.00    -0.205 F 
ATOM     80  C   UNL A   1      34.419  33.077  31.004  1.00  0.00     0.022 A 
BRANCH  78  81
ATOM     81  S   UNL A   1      34.060  34.238  28.551  1.00  0.00     0.127 S 
ATOM     82  O   UNL A   1      32.858  34.564  29.311  1.00  0.00    -0.237 OA
ATOM     83  O   UNL A   1      34.944  35.373  28.276  1.00  0.00    -0.237 OA
ATOM     84  O   UNL A   1      33.874  33.339  27.420  1.00  0.00    -0.744 OA
ENDBRANCH  78  81
ENDBRANCH  50  74
BRANCH  62  85
ATOM     85  C   UNL A   1      43.211  35.464  31.444  1.00  0.00     0.023 A 
ATOM     86  C   UNL A   1      43.393  35.717  32.818  1.00  0.00     0.012 A 
ATOM     87  C   UNL A   1      43.458  36.490  30.511  1.00  0.00     0.148 A 
ATOM     88  C   UNL A   1      43.781  36.982  33.259  1.00  0.00     0.002 A 
ATOM     89  C   UNL A   1      43.893  37.732  30.954  1.00  0.00     0.091 A 
ATOM     90  F   UNL A   1      43.261  36.234  29.209  1.00  0.00    -0.205 F 
ATOM     91  C   UNL A   1      44.042  37.985  32.328  1.00  0.00     0.022 A 
BRANCH  89  92
ATOM     92  S   UNL A   1      44.348  39.050  29.821  1.00  0.00     0.127 S 
ATOM     93  O   UNL A   1      43.067  39.354  29.186  1.00  0.00    -0.237 OA
ATOM     94  O   UNL A   1      44.839  40.087  30.730  1.00  0.00    -0.237 OA
ATOM     95  O   UNL A   1      45.366  38.488  28.943  1.00  0.00    -0.744 OA
ENDBRANCH  89  92
ENDBRANCH  62  85
ENDBRANCH  36  37
ENDBRANCH  28  31
ENDBRANCH  26  27
ENDBRANCH  25  26
ENDBRANCH   1  25
TORSDOF 17
ENDMDL
