MODEL 1
REMARK VINA RESULT:     -12.0      0.000      0.000
REMARK SMILES CNc1nccc(-c2cc(C(=O)NCCCCNC(=O)c3ccc(-c4c5nc(c(-c6cccc(S(=O)(=O)[O-])c6F)c6ccc([nH]6)c(-c6cccc(S(=O)(=O)[O-])c6F)c6nc(c(-c7cccc(S(=O)(=O)[O-])c7F)c7ccc4[nH]7)C=C6)C=C5)cc3)ccn2)n1
REMARK SMILES IDX 16 1 15 2 14 3 13 4 11 5 12 6 10 8 8 9 9 10 86 11 85 12
REMARK SMILES IDX 84 13 7 14 3 15 4 16 87 17 5 18 6 19 2 20 1 21 17 23 18 24
REMARK SMILES IDX 19 25 20 27 21 28 22 29 83 30 23 31 82 32 24 33 25 34 26 35
REMARK SMILES IDX 76 36 27 37 81 38 75 39 77 40 28 41 80 42 74 43 73 44 29 46
REMARK SMILES IDX 61 47 41 48 60 49 42 50 45 51 59 52 78 53 43 54 44 55 58 57
REMARK SMILES IDX 79 58 46 59 30 60 31 61 39 62 32 63 34 64 40 65 33 66 35 67
REMARK SMILES IDX 36 68 37 69 38 70 62 71 63 72 71 73 64 74 66 75 72 76 65 77
REMARK SMILES IDX 67 78 68 79 69 80 70 81 47 82 48 83 56 84 49 85 51 86 57 87
REMARK SMILES IDX 50 88 52 89 53 90 54 91 55 92
REMARK H PARENT 13 7 2 22 18 26 77 45 45 56
REMARK Flexibility Score: inf
ROOT
ATOM      1  C   UNL A   1      31.800  31.431  26.808  1.00  0.00     0.023 C 
ENDROOT
BRANCH   1   2
ATOM      2  C   UNL A   1      32.071  29.924  26.795  1.00  0.00     0.023 C 
BRANCH   2   3
ATOM      3  C   UNL A   1      33.367  29.525  26.081  1.00  0.00     0.116 C 
BRANCH   3   4
ATOM      4  N   UNL A   1      33.656  28.120  26.294  1.00  0.00    -0.352 N 
ATOM      5  C   UNL A   1      33.307  26.985  25.608  1.00  0.00     0.251 C 
ATOM      6  O   UNL A   1      33.734  25.907  26.027  1.00  0.00    -0.269 OA
ATOM      7  H   UNL A   1      34.212  27.947  27.087  1.00  0.00     0.163 HD
BRANCH   5   8
ATOM      8  C   UNL A   1      32.506  26.987  24.352  1.00  0.00     0.043 A 
ATOM      9  C   UNL A   1      30.715  27.695  22.917  1.00  0.00     0.090 A 
ATOM     10  C   UNL A   1      31.287  27.638  24.185  1.00  0.00     0.044 A 
ATOM     11  N   UNL A   1      31.246  27.054  21.849  1.00  0.00    -0.255 NA
ATOM     12  C   UNL A   1      32.367  26.334  22.055  1.00  0.00     0.112 A 
ATOM     13  C   UNL A   1      33.036  26.290  23.264  1.00  0.00     0.034 A 
BRANCH   9  14
ATOM     14  C   UNL A   1      29.607  28.621  22.652  1.00  0.00     0.094 A 
ATOM     15  C   UNL A   1      28.823  30.491  21.579  1.00  0.00     0.222 A 
ATOM     16  N   UNL A   1      27.580  30.312  22.047  1.00  0.00    -0.222 NA
ATOM     17  N   UNL A   1      29.852  29.675  21.845  1.00  0.00    -0.211 NA
ATOM     18  C   UNL A   1      27.365  29.239  22.823  1.00  0.00     0.117 A 
ATOM     19  C   UNL A   1      28.351  28.351  23.163  1.00  0.00     0.051 A 
BRANCH  15  20
ATOM     20  N   UNL A   1      28.979  31.561  20.742  1.00  0.00    -0.357 N 
ATOM     21  C   UNL A   1      27.875  32.398  20.385  1.00  0.00     0.143 C 
ATOM     22  H   UNL A   1      29.871  31.759  20.377  1.00  0.00     0.163 HD
ENDBRANCH  15  20
ENDBRANCH   9  14
ENDBRANCH   5   8
ENDBRANCH   3   4
ENDBRANCH   2   3
ENDBRANCH   1   2
BRANCH   1  23
ATOM     23  C   UNL A   1      33.002  32.297  27.173  1.00  0.00     0.116 C 
BRANCH  23  24
ATOM     24  N   UNL A   1      32.645  33.668  27.505  1.00  0.00    -0.352 N 
ATOM     25  C   UNL A   1      33.188  34.481  28.472  1.00  0.00     0.251 C 
ATOM     26  H   UNL A   1      31.920  34.064  26.969  1.00  0.00     0.163 HD
ATOM     27  O   UNL A   1      32.704  35.585  28.689  1.00  0.00    -0.269 OA
BRANCH  25  28
ATOM     28  C   UNL A   1      34.330  33.992  29.274  1.00  0.00     0.039 A 
ATOM     29  C   UNL A   1      34.069  33.246  30.426  1.00  0.00     0.014 A 
ATOM     30  C   UNL A   1      35.645  34.240  28.874  1.00  0.00     0.014 A 
ATOM     31  C   UNL A   1      35.131  32.698  31.147  1.00  0.00     0.010 A 
ATOM     32  C   UNL A   1      36.698  33.633  29.552  1.00  0.00     0.010 A 
ATOM     33  C   UNL A   1      36.453  32.862  30.698  1.00  0.00    -0.014 A 
BRANCH  33  34
ATOM     34  C   UNL A   1      37.586  32.217  31.405  1.00  0.00     0.031 A 
ATOM     35  C   UNL A   1      38.357  31.102  30.755  1.00  0.00     0.074 A 
ATOM     36  C   UNL A   1      37.857  32.567  32.678  1.00  0.00     0.049 A 
ATOM     37  N   UNL A   1      39.363  30.413  31.227  1.00  0.00    -0.248 NA
ATOM     38  C   UNL A   1      37.918  30.681  29.415  1.00  0.00     0.031 C 
ATOM     39  C   UNL A   1      37.103  33.547  33.462  1.00  0.00     0.029 A 
ATOM     40  N   UNL A   1      38.818  32.114  33.546  1.00  0.00    -0.354 N 
ATOM     41  C   UNL A   1      39.651  29.454  30.264  1.00  0.00     0.074 A 
ATOM     42  C   UNL A   1      38.688  29.625  29.199  1.00  0.00     0.031 C 
ATOM     43  C   UNL A   1      37.626  33.618  34.696  1.00  0.00     0.029 A 
ATOM     44  C   UNL A   1      38.743  32.682  34.796  1.00  0.00     0.049 A 
ATOM     45  H   UNL A   1      39.496  31.445  33.299  1.00  0.00     0.167 HD
ATOM     46  C   UNL A   1      40.647  28.537  30.250  1.00  0.00     0.034 A 
ATOM     47  C   UNL A   1      39.489  32.476  35.899  1.00  0.00     0.034 A 
ATOM     48  C   UNL A   1      41.635  28.409  31.287  1.00  0.00     0.049 A 
ATOM     49  C   UNL A   1      40.652  31.526  35.827  1.00  0.00     0.074 A 
ATOM     50  C   UNL A   1      42.763  27.608  31.309  1.00  0.00     0.029 A 
ATOM     51  N   UNL A   1      41.608  29.095  32.492  1.00  0.00    -0.354 N 
ATOM     52  N   UNL A   1      41.043  30.778  34.824  1.00  0.00    -0.248 NA
ATOM     53  C   UNL A   1      41.506  31.424  37.020  1.00  0.00     0.031 C 
ATOM     54  C   UNL A   1      43.409  27.797  32.536  1.00  0.00     0.029 A 
ATOM     55  C   UNL A   1      42.692  28.728  33.272  1.00  0.00     0.049 A 
ATOM     56  H   UNL A   1      40.919  29.747  32.755  1.00  0.00     0.167 HD
ATOM     57  C   UNL A   1      42.199  30.136  35.251  1.00  0.00     0.074 A 
ATOM     58  C   UNL A   1      42.459  30.604  36.598  1.00  0.00     0.031 C 
ATOM     59  C   UNL A   1      42.966  29.232  34.594  1.00  0.00     0.034 A 
BRANCH  46  60
ATOM     60  C   UNL A   1      40.749  27.644  29.041  1.00  0.00     0.023 A 
ATOM     61  C   UNL A   1      39.932  26.499  28.952  1.00  0.00     0.012 A 
ATOM     62  C   UNL A   1      41.629  27.946  27.984  1.00  0.00     0.148 A 
ATOM     63  C   UNL A   1      40.021  25.642  27.857  1.00  0.00     0.002 A 
ATOM     64  C   UNL A   1      41.680  27.111  26.873  1.00  0.00     0.091 A 
ATOM     65  F   UNL A   1      42.418  29.023  28.092  1.00  0.00    -0.205 F 
ATOM     66  C   UNL A   1      40.888  25.952  26.814  1.00  0.00     0.022 A 
BRANCH  64  67
ATOM     67  S   UNL A   1      42.712  27.476  25.448  1.00  0.00     0.127 S 
ATOM     68  O   UNL A   1      42.583  26.248  24.667  1.00  0.00    -0.237 OA
ATOM     69  O   UNL A   1      42.043  28.641  24.866  1.00  0.00    -0.237 OA
ATOM     70  O   UNL A   1      44.038  27.751  25.985  1.00  0.00    -0.744 OA
ENDBRANCH  64  67
ENDBRANCH  46  60
BRANCH  47  71
ATOM     71  C   UNL A   1      39.197  33.260  37.131  1.00  0.00     0.023 A 
ATOM     72  C   UNL A   1      38.383  32.697  38.133  1.00  0.00     0.012 A 
ATOM     73  C   UNL A   1      39.788  34.520  37.349  1.00  0.00     0.148 A 
ATOM     74  C   UNL A   1      38.148  33.383  39.325  1.00  0.00     0.002 A 
ATOM     75  C   UNL A   1      39.593  35.173  38.560  1.00  0.00     0.091 A 
ATOM     76  F   UNL A   1      40.553  35.038  36.378  1.00  0.00    -0.205 F 
ATOM     77  C   UNL A   1      38.762  34.614  39.544  1.00  0.00     0.022 A 
BRANCH  75  78
ATOM     78  S   UNL A   1      40.455  36.691  38.988  1.00  0.00     0.127 S 
ATOM     79  O   UNL A   1      40.904  36.406  40.348  1.00  0.00    -0.237 OA
ATOM     80  O   UNL A   1      41.518  36.726  37.982  1.00  0.00    -0.237 OA
ATOM     81  O   UNL A   1      39.470  37.754  38.858  1.00  0.00    -0.744 OA
ENDBRANCH  75  78
ENDBRANCH  47  71
BRANCH  59  82
ATOM     82  C   UNL A   1      44.174  28.686  35.310  1.00  0.00     0.023 A 
ATOM     83  C   UNL A   1      45.433  29.281  35.102  1.00  0.00     0.012 A 
ATOM     84  C   UNL A   1      44.047  27.643  36.248  1.00  0.00     0.148 A 
ATOM     85  C   UNL A   1      46.553  28.831  35.799  1.00  0.00     0.002 A 
ATOM     86  C   UNL A   1      45.159  27.230  36.972  1.00  0.00     0.091 A 
ATOM     87  F   UNL A   1      42.843  27.074  36.415  1.00  0.00    -0.205 F 
ATOM     88  C   UNL A   1      46.415  27.815  36.742  1.00  0.00     0.022 A 
BRANCH  86  89
ATOM     89  S   UNL A   1      45.051  25.994  38.272  1.00  0.00     0.127 S 
ATOM     90  O   UNL A   1      44.588  24.821  37.533  1.00  0.00    -0.237 OA
ATOM     91  O   UNL A   1      46.435  25.912  38.742  1.00  0.00    -0.237 OA
ATOM     92  O   UNL A   1      44.115  26.528  39.252  1.00  0.00    -0.744 OA
ENDBRANCH  86  89
ENDBRANCH  59  82
ENDBRANCH  33  34
ENDBRANCH  25  28
ENDBRANCH  23  24
ENDBRANCH   1  23
TORSDOF 16
ENDMDL
MODEL 2
REMARK VINA RESULT:     -12.0      4.510      9.821
REMARK SMILES CNc1nccc(-c2cc(C(=O)NCCCCNC(=O)c3ccc(-c4c5nc(c(-c6cccc(S(=O)(=O)[O-])c6F)c6ccc([nH]6)c(-c6cccc(S(=O)(=O)[O-])c6F)c6nc(c(-c7cccc(S(=O)(=O)[O-])c7F)c7ccc4[nH]7)C=C6)C=C5)cc3)ccn2)n1
REMARK SMILES IDX 16 1 15 2 14 3 13 4 11 5 12 6 10 8 8 9 9 10 86 11 85 12
REMARK SMILES IDX 84 13 7 14 3 15 4 16 87 17 5 18 6 19 2 20 1 21 17 23 18 24
REMARK SMILES IDX 19 25 20 27 21 28 22 29 83 30 23 31 82 32 24 33 25 34 26 35
REMARK SMILES IDX 76 36 27 37 81 38 75 39 77 40 28 41 80 42 74 43 73 44 29 46
REMARK SMILES IDX 61 47 41 48 60 49 42 50 45 51 59 52 78 53 43 54 44 55 58 57
REMARK SMILES IDX 79 58 46 59 30 60 31 61 39 62 32 63 34 64 40 65 33 66 35 67
REMARK SMILES IDX 36 68 37 69 38 70 62 71 63 72 71 73 64 74 66 75 72 76 65 77
REMARK SMILES IDX 67 78 68 79 69 80 70 81 47 82 48 83 56 84 49 85 51 86 57 87
REMARK SMILES IDX 50 88 52 89 53 90 54 91 55 92
REMARK H PARENT 13 7 2 22 18 26 77 45 45 56
REMARK Flexibility Score: inf
ROOT
ATOM      1  C   UNL A   1      33.183  27.581  25.650  1.00  0.00     0.023 C 
ENDROOT
BRANCH   1   2
ATOM      2  C   UNL A   1      33.660  26.212  25.157  1.00  0.00     0.023 C 
BRANCH   2   3
ATOM      3  C   UNL A   1      32.576  25.381  24.465  1.00  0.00     0.116 C 
BRANCH   3   4
ATOM      4  N   UNL A   1      31.469  25.131  25.369  1.00  0.00    -0.352 N 
ATOM      5  C   UNL A   1      31.124  24.052  26.142  1.00  0.00     0.251 C 
ATOM      6  O   UNL A   1      30.115  24.146  26.842  1.00  0.00    -0.269 OA
ATOM      7  H   UNL A   1      30.841  25.885  25.442  1.00  0.00     0.163 HD
BRANCH   5   8
ATOM      8  C   UNL A   1      31.936  22.806  26.236  1.00  0.00     0.043 A 
ATOM      9  C   UNL A   1      32.693  20.645  25.513  1.00  0.00     0.090 A 
ATOM     10  C   UNL A   1      31.770  21.684  25.430  1.00  0.00     0.044 A 
ATOM     11  N   UNL A   1      33.698  20.634  26.422  1.00  0.00    -0.255 NA
ATOM     12  C   UNL A   1      33.774  21.679  27.271  1.00  0.00     0.112 A 
ATOM     13  C   UNL A   1      32.943  22.782  27.203  1.00  0.00     0.034 A 
BRANCH   9  14
ATOM     14  C   UNL A   1      32.723  19.604  24.478  1.00  0.00     0.094 A 
ATOM     15  C   UNL A   1      33.088  17.413  23.906  1.00  0.00     0.222 A 
ATOM     16  N   UNL A   1      32.708  17.618  22.637  1.00  0.00    -0.222 NA
ATOM     17  N   UNL A   1      33.102  18.363  24.851  1.00  0.00    -0.211 NA
ATOM     18  C   UNL A   1      32.311  18.858  22.308  1.00  0.00     0.117 A 
ATOM     19  C   UNL A   1      32.299  19.900  23.196  1.00  0.00     0.051 A 
BRANCH  15  20
ATOM     20  N   UNL A   1      33.422  16.123  24.209  1.00  0.00    -0.357 N 
ATOM     21  C   UNL A   1      32.851  15.445  25.332  1.00  0.00     0.143 C 
ATOM     22  H   UNL A   1      34.071  15.649  23.640  1.00  0.00     0.163 HD
ENDBRANCH  15  20
ENDBRANCH   9  14
ENDBRANCH   5   8
ENDBRANCH   3   4
ENDBRANCH   2   3
ENDBRANCH   1   2
BRANCH   1  23
ATOM     23  C   UNL A   1      34.093  28.247  26.677  1.00  0.00     0.116 C 
BRANCH  23  24
ATOM     24  N   UNL A   1      33.761  29.643  26.920  1.00  0.00    -0.352 N 
ATOM     25  C   UNL A   1      34.481  30.582  27.622  1.00  0.00     0.251 C 
ATOM     26  H   UNL A   1      32.912  29.956  26.533  1.00  0.00     0.163 HD
ATOM     27  O   UNL A   1      34.012  31.696  27.817  1.00  0.00    -0.269 OA
BRANCH  25  28
ATOM     28  C   UNL A   1      35.803  30.218  28.175  1.00  0.00     0.039 A 
ATOM     29  C   UNL A   1      35.863  29.651  29.451  1.00  0.00     0.014 A 
ATOM     30  C   UNL A   1      36.969  30.403  27.428  1.00  0.00     0.014 A 
ATOM     31  C   UNL A   1      37.090  29.217  29.955  1.00  0.00     0.010 A 
ATOM     32  C   UNL A   1      38.178  29.904  27.902  1.00  0.00     0.010 A 
ATOM     33  C   UNL A   1      38.253  29.313  29.171  1.00  0.00    -0.014 A 
BRANCH  33  34
ATOM     34  C   UNL A   1      39.549  28.780  29.659  1.00  0.00     0.031 A 
ATOM     35  C   UNL A   1      40.291  29.473  30.766  1.00  0.00     0.074 A 
ATOM     36  C   UNL A   1      40.108  27.726  29.032  1.00  0.00     0.049 A 
ATOM     37  N   UNL A   1      41.439  29.160  31.308  1.00  0.00    -0.248 NA
ATOM     38  C   UNL A   1      39.684  30.697  31.313  1.00  0.00     0.031 C 
ATOM     39  C   UNL A   1      39.546  27.042  27.866  1.00  0.00     0.029 A 
ATOM     40  N   UNL A   1      41.288  27.068  29.267  1.00  0.00    -0.354 N 
ATOM     41  C   UNL A   1      41.712  30.166  32.226  1.00  0.00     0.074 A 
ATOM     42  C   UNL A   1      40.628  31.119  32.141  1.00  0.00     0.031 C 
ATOM     43  C   UNL A   1      40.383  26.066  27.484  1.00  0.00     0.029 A 
ATOM     44  C   UNL A   1      41.545  26.059  28.368  1.00  0.00     0.049 A 
ATOM     45  H   UNL A   1      41.895  27.295  30.008  1.00  0.00     0.167 HD
ATOM     46  C   UNL A   1      42.751  30.271  33.089  1.00  0.00     0.034 A 
ATOM     47  C   UNL A   1      42.596  25.222  28.266  1.00  0.00     0.034 A 
ATOM     48  C   UNL A   1      43.797  29.291  33.208  1.00  0.00     0.049 A 
ATOM     49  C   UNL A   1      43.689  25.293  29.296  1.00  0.00     0.074 A 
ATOM     50  C   UNL A   1      44.819  29.231  34.138  1.00  0.00     0.029 A 
ATOM     51  N   UNL A   1      43.960  28.203  32.363  1.00  0.00    -0.354 N 
ATOM     52  N   UNL A   1      43.821  26.126  30.300  1.00  0.00    -0.248 NA
ATOM     53  C   UNL A   1      44.753  24.282  29.211  1.00  0.00     0.031 C 
ATOM     54  C   UNL A   1      45.612  28.114  33.844  1.00  0.00     0.029 A 
ATOM     55  C   UNL A   1      45.072  27.471  32.740  1.00  0.00     0.049 A 
ATOM     56  H   UNL A   1      43.370  27.984  31.606  1.00  0.00     0.167 HD
ATOM     57  C   UNL A   1      44.965  25.728  30.981  1.00  0.00     0.074 A 
ATOM     58  C   UNL A   1      45.476  24.562  30.288  1.00  0.00     0.031 C 
ATOM     59  C   UNL A   1      45.547  26.287  32.071  1.00  0.00     0.034 A 
BRANCH  46  60
ATOM     60  C   UNL A   1      42.767  31.460  34.013  1.00  0.00     0.023 A 
ATOM     61  C   UNL A   1      43.332  32.675  33.573  1.00  0.00     0.012 A 
ATOM     62  C   UNL A   1      42.204  31.389  35.302  1.00  0.00     0.148 A 
ATOM     63  C   UNL A   1      43.382  33.784  34.415  1.00  0.00     0.002 A 
ATOM     64  C   UNL A   1      42.216  32.514  36.120  1.00  0.00     0.091 A 
ATOM     65  F   UNL A   1      41.693  30.223  35.717  1.00  0.00    -0.205 F 
ATOM     66  C   UNL A   1      42.816  33.708  35.683  1.00  0.00     0.022 A 
BRANCH  64  67
ATOM     67  S   UNL A   1      41.442  32.527  37.741  1.00  0.00     0.127 S 
ATOM     68  O   UNL A   1      41.602  33.926  38.135  1.00  0.00    -0.237 OA
ATOM     69  O   UNL A   1      40.065  32.135  37.434  1.00  0.00    -0.237 OA
ATOM     70  O   UNL A   1      42.181  31.555  38.536  1.00  0.00    -0.744 OA
ENDBRANCH  64  67
ENDBRANCH  46  60
BRANCH  47  71
ATOM     71  C   UNL A   1      42.602  24.192  27.192  1.00  0.00     0.023 A 
ATOM     72  C   UNL A   1      43.314  24.438  26.001  1.00  0.00     0.012 A 
ATOM     73  C   UNL A   1      41.980  22.942  27.377  1.00  0.00     0.148 A 
ATOM     74  C   UNL A   1      43.392  23.463  25.007  1.00  0.00     0.002 A 
ATOM     75  C   UNL A   1      42.107  21.956  26.405  1.00  0.00     0.091 A 
ATOM     76  F   UNL A   1      41.304  22.734  28.515  1.00  0.00    -0.205 F 
ATOM     77  C   UNL A   1      42.800  22.219  25.213  1.00  0.00     0.022 A 
BRANCH  75  78
ATOM     78  S   UNL A   1      41.502  20.282  26.644  1.00  0.00     0.127 S 
ATOM     79  O   UNL A   1      41.927  19.631  25.408  1.00  0.00    -0.237 OA
ATOM     80  O   UNL A   1      42.232  19.866  27.843  1.00  0.00    -0.237 OA
ATOM     81  O   UNL A   1      40.063  20.405  26.830  1.00  0.00    -0.744 OA
ENDBRANCH  75  78
ENDBRANCH  47  71
BRANCH  59  82
ATOM     82  C   UNL A   1      46.802  25.644  32.601  1.00  0.00     0.023 A 
ATOM     83  C   UNL A   1      48.056  26.063  32.114  1.00  0.00     0.012 A 
ATOM     84  C   UNL A   1      46.744  24.692  33.637  1.00  0.00     0.148 A 
ATOM     85  C   UNL A   1      49.233  25.525  32.633  1.00  0.00     0.002 A 
ATOM     86  C   UNL A   1      47.922  24.194  34.181  1.00  0.00     0.091 A 
ATOM     87  F   UNL A   1      45.540  24.291  34.072  1.00  0.00    -0.205 F 
ATOM     88  C   UNL A   1      49.167  24.601  33.674  1.00  0.00     0.022 A 
BRANCH  86  89
ATOM     89  S   UNL A   1      47.931  23.073  35.586  1.00  0.00     0.127 S 
ATOM     90  O   UNL A   1      47.133  23.812  36.562  1.00  0.00    -0.237 OA
ATOM     91  O   UNL A   1      47.279  21.882  35.040  1.00  0.00    -0.237 OA
ATOM     92  O   UNL A   1      49.333  22.884  35.935  1.00  0.00    -0.744 OA
ENDBRANCH  86  89
ENDBRANCH  59  82
ENDBRANCH  33  34
ENDBRANCH  25  28
ENDBRANCH  23  24
ENDBRANCH   1  23
TORSDOF 16
ENDMDL
MODEL 3
REMARK VINA RESULT:     -12.0      3.652      9.358
REMARK SMILES CNc1nccc(-c2cc(C(=O)NCCCCNC(=O)c3ccc(-c4c5nc(c(-c6cccc(S(=O)(=O)[O-])c6F)c6ccc([nH]6)c(-c6cccc(S(=O)(=O)[O-])c6F)c6nc(c(-c7cccc(S(=O)(=O)[O-])c7F)c7ccc4[nH]7)C=C6)C=C5)cc3)ccn2)n1
REMARK SMILES IDX 16 1 15 2 14 3 13 4 11 5 12 6 10 8 8 9 9 10 86 11 85 12
REMARK SMILES IDX 84 13 7 14 3 15 4 16 87 17 5 18 6 19 2 20 1 21 17 23 18 24
REMARK SMILES IDX 19 25 20 27 21 28 22 29 83 30 23 31 82 32 24 33 25 34 26 35
REMARK SMILES IDX 76 36 27 37 81 38 75 39 77 40 28 41 80 42 74 43 73 44 29 46
REMARK SMILES IDX 61 47 41 48 60 49 42 50 45 51 59 52 78 53 43 54 44 55 58 57
REMARK SMILES IDX 79 58 46 59 30 60 31 61 39 62 32 63 34 64 40 65 33 66 35 67
REMARK SMILES IDX 36 68 37 69 38 70 62 71 63 72 71 73 64 74 66 75 72 76 65 77
REMARK SMILES IDX 67 78 68 79 69 80 70 81 47 82 48 83 56 84 49 85 51 86 57 87
REMARK SMILES IDX 50 88 52 89 53 90 54 91 55 92
REMARK H PARENT 13 7 2 22 18 26 77 45 45 56
REMARK Flexibility Score: inf
ROOT
ATOM      1  C   UNL A   1      33.733  28.355  25.878  1.00  0.00     0.023 C 
ENDROOT
BRANCH   1   2
ATOM      2  C   UNL A   1      33.318  29.269  24.721  1.00  0.00     0.023 C 
BRANCH   2   3
ATOM      3  C   UNL A   1      33.541  28.663  23.332  1.00  0.00     0.116 C 
BRANCH   3   4
ATOM      4  N   UNL A   1      32.282  28.534  22.623  1.00  0.00    -0.352 N 
ATOM      5  C   UNL A   1      31.236  27.655  22.739  1.00  0.00     0.251 C 
ATOM      6  O   UNL A   1      30.267  27.815  21.994  1.00  0.00    -0.269 OA
ATOM      7  H   UNL A   1      32.153  29.210  21.920  1.00  0.00     0.163 HD
BRANCH   5   8
ATOM      8  C   UNL A   1      31.174  26.568  23.756  1.00  0.00     0.043 A 
ATOM      9  C   UNL A   1      31.815  24.474  24.741  1.00  0.00     0.090 A 
ATOM     10  C   UNL A   1      31.826  25.343  23.653  1.00  0.00     0.044 A 
ATOM     11  N   UNL A   1      31.109  24.728  25.869  1.00  0.00    -0.255 NA
ATOM     12  C   UNL A   1      30.391  25.869  25.905  1.00  0.00     0.112 A 
ATOM     13  C   UNL A   1      30.410  26.816  24.898  1.00  0.00     0.034 A 
BRANCH   9  14
ATOM     14  C   UNL A   1      32.734  23.330  24.778  1.00  0.00     0.094 A 
ATOM     15  C   UNL A   1      34.664  22.385  25.582  1.00  0.00     0.222 A 
ATOM     16  N   UNL A   1      34.423  21.221  24.962  1.00  0.00    -0.222 NA
ATOM     17  N   UNL A   1      33.852  23.450  25.526  1.00  0.00    -0.211 NA
ATOM     18  C   UNL A   1      33.289  21.128  24.250  1.00  0.00     0.117 A 
ATOM     19  C   UNL A   1      32.400  22.161  24.121  1.00  0.00     0.051 A 
BRANCH  15  20
ATOM     20  N   UNL A   1      35.797  22.411  26.346  1.00  0.00    -0.357 N 
ATOM     21  C   UNL A   1      37.099  22.400  25.753  1.00  0.00     0.143 C 
ATOM     22  H   UNL A   1      35.715  22.437  27.327  1.00  0.00     0.163 HD
ENDBRANCH  15  20
ENDBRANCH   9  14
ENDBRANCH   5   8
ENDBRANCH   3   4
ENDBRANCH   2   3
ENDBRANCH   1   2
BRANCH   1  23
ATOM     23  C   UNL A   1      33.347  28.859  27.265  1.00  0.00     0.116 C 
BRANCH  23  24
ATOM     24  N   UNL A   1      33.441  30.305  27.399  1.00  0.00    -0.352 N 
ATOM     25  C   UNL A   1      34.484  31.051  27.896  1.00  0.00     0.251 C 
ATOM     26  H   UNL A   1      32.656  30.815  27.094  1.00  0.00     0.163 HD
ATOM     27  O   UNL A   1      34.364  32.262  28.030  1.00  0.00    -0.269 OA
BRANCH  25  28
ATOM     28  C   UNL A   1      35.730  30.370  28.308  1.00  0.00     0.039 A 
ATOM     29  C   UNL A   1      36.843  30.442  27.466  1.00  0.00     0.014 A 
ATOM     30  C   UNL A   1      35.809  29.695  29.528  1.00  0.00     0.014 A 
ATOM     31  C   UNL A   1      38.055  29.884  27.877  1.00  0.00     0.010 A 
ATOM     32  C   UNL A   1      37.035  29.203  29.966  1.00  0.00     0.010 A 
ATOM     33  C   UNL A   1      38.168  29.286  29.143  1.00  0.00    -0.014 A 
BRANCH  33  34
ATOM     34  C   UNL A   1      39.468  28.764  29.628  1.00  0.00     0.031 A 
ATOM     35  C   UNL A   1      40.198  29.451  30.748  1.00  0.00     0.074 A 
ATOM     36  C   UNL A   1      40.043  27.725  28.990  1.00  0.00     0.049 A 
ATOM     37  N   UNL A   1      41.348  29.146  31.291  1.00  0.00    -0.248 NA
ATOM     38  C   UNL A   1      39.574  30.660  31.308  1.00  0.00     0.031 C 
ATOM     39  C   UNL A   1      39.494  27.050  27.813  1.00  0.00     0.029 A 
ATOM     40  N   UNL A   1      41.231  27.079  29.221  1.00  0.00    -0.354 N 
ATOM     41  C   UNL A   1      41.605  30.143  32.223  1.00  0.00     0.074 A 
ATOM     42  C   UNL A   1      40.509  31.083  32.146  1.00  0.00     0.031 C 
ATOM     43  C   UNL A   1      40.345  26.089  27.421  1.00  0.00     0.029 A 
ATOM     44  C   UNL A   1      41.504  26.086  28.310  1.00  0.00     0.049 A 
ATOM     45  H   UNL A   1      41.832  27.304  29.968  1.00  0.00     0.167 HD
ATOM     46  C   UNL A   1      42.639  30.249  33.090  1.00  0.00     0.034 A 
ATOM     47  C   UNL A   1      42.566  25.263  28.202  1.00  0.00     0.034 A 
ATOM     48  C   UNL A   1      43.696  29.281  33.201  1.00  0.00     0.049 A 
ATOM     49  C   UNL A   1      43.654  25.335  29.237  1.00  0.00     0.074 A 
ATOM     50  C   UNL A   1      44.716  29.221  34.134  1.00  0.00     0.029 A 
ATOM     51  N   UNL A   1      43.876  28.207  32.343  1.00  0.00    -0.354 N 
ATOM     52  N   UNL A   1      43.771  26.155  30.252  1.00  0.00    -0.248 NA
ATOM     53  C   UNL A   1      44.731  24.338  29.142  1.00  0.00     0.031 C 
ATOM     54  C   UNL A   1      45.524  28.119  33.828  1.00  0.00     0.029 A 
ATOM     55  C   UNL A   1      44.997  27.484  32.715  1.00  0.00     0.049 A 
ATOM     56  H   UNL A   1      43.293  27.990  31.580  1.00  0.00     0.167 HD
ATOM     57  C   UNL A   1      44.918  25.763  30.932  1.00  0.00     0.074 A 
ATOM     58  C   UNL A   1      45.446  24.613  30.226  1.00  0.00     0.031 C 
ATOM     59  C   UNL A   1      45.489  26.314  32.031  1.00  0.00     0.034 A 
BRANCH  46  60
ATOM     60  C   UNL A   1      42.636  31.426  34.031  1.00  0.00     0.023 A 
ATOM     61  C   UNL A   1      43.264  32.627  33.642  1.00  0.00     0.012 A 
ATOM     62  C   UNL A   1      41.995  31.358  35.283  1.00  0.00     0.148 A 
ATOM     63  C   UNL A   1      43.298  33.725  34.500  1.00  0.00     0.002 A 
ATOM     64  C   UNL A   1      41.993  32.472  36.115  1.00  0.00     0.091 A 
ATOM     65  F   UNL A   1      41.424  30.203  35.651  1.00  0.00    -0.205 F 
ATOM     66  C   UNL A   1      42.655  33.651  35.732  1.00  0.00     0.022 A 
BRANCH  64  67
ATOM     67  S   UNL A   1      41.124  32.490  37.687  1.00  0.00     0.127 S 
ATOM     68  O   UNL A   1      41.941  31.580  38.488  1.00  0.00    -0.237 OA
ATOM     69  O   UNL A   1      41.217  33.897  38.081  1.00  0.00    -0.237 OA
ATOM     70  O   UNL A   1      39.772  32.036  37.393  1.00  0.00    -0.744 OA
ENDBRANCH  64  67
ENDBRANCH  46  60
BRANCH  47  71
ATOM     71  C   UNL A   1      42.589  24.247  27.113  1.00  0.00     0.023 A 
ATOM     72  C   UNL A   1      43.331  24.504  25.943  1.00  0.00     0.012 A 
ATOM     73  C   UNL A   1      41.953  23.000  27.268  1.00  0.00     0.148 A 
ATOM     74  C   UNL A   1      43.424  23.542  24.938  1.00  0.00     0.002 A 
ATOM     75  C   UNL A   1      42.095  22.027  26.285  1.00  0.00     0.091 A 
ATOM     76  F   UNL A   1      41.249  22.782  28.386  1.00  0.00    -0.205 F 
ATOM     77  C   UNL A   1      42.817  22.300  25.113  1.00  0.00     0.022 A 
BRANCH  75  78
ATOM     78  S   UNL A   1      41.471  20.354  26.488  1.00  0.00     0.127 S 
ATOM     79  O   UNL A   1      42.128  19.655  25.386  1.00  0.00    -0.237 OA
ATOM     80  O   UNL A   1      41.966  20.007  27.821  1.00  0.00    -0.237 OA
ATOM     81  O   UNL A   1      40.022  20.459  26.394  1.00  0.00    -0.744 OA
ENDBRANCH  75  78
ENDBRANCH  47  71
BRANCH  59  82
ATOM     82  C   UNL A   1      46.750  25.681  32.558  1.00  0.00     0.023 A 
ATOM     83  C   UNL A   1      48.001  26.145  32.108  1.00  0.00     0.012 A 
ATOM     84  C   UNL A   1      46.698  24.689  33.557  1.00  0.00     0.148 A 
ATOM     85  C   UNL A   1      49.182  25.615  32.626  1.00  0.00     0.002 A 
ATOM     86  C   UNL A   1      47.878  24.197  34.101  1.00  0.00     0.091 A 
ATOM     87  F   UNL A   1      45.497  24.244  33.956  1.00  0.00    -0.205 F 
ATOM     88  C   UNL A   1      49.121  24.651  33.631  1.00  0.00     0.022 A 
BRANCH  86  89
ATOM     89  S   UNL A   1      47.891  23.025  35.463  1.00  0.00     0.127 S 
ATOM     90  O   UNL A   1      47.265  21.853  34.853  1.00  0.00    -0.237 OA
ATOM     91  O   UNL A   1      49.321  22.879  35.737  1.00  0.00    -0.237 OA
ATOM     92  O   UNL A   1      47.134  23.654  36.537  1.00  0.00    -0.744 OA
ENDBRANCH  86  89
ENDBRANCH  59  82
ENDBRANCH  33  34
ENDBRANCH  25  28
ENDBRANCH  23  24
ENDBRANCH   1  23
TORSDOF 16
ENDMDL
