MODEL 1
REMARK VINA RESULT:     -10.9      0.000      0.000
REMARK SMILES C[NH2+]C[C@H](C)C(=O)N1CCc2cc(C(=O)NCCCCNC(=O)c3ccc(-c4c5nc(c(-c6cccc(S(=O)(=O)[O-])c6F)c6ccc([nH]6)c(-c6cccc(S(=O)(=O)[O-])c6F)c6nc(c(-c7cccc(S(=O)(=O)[O-])c7F)c7ccc4[nH]7)C=C6)C=C5)cc3)ccc21
REMARK SMILES IDX 18 1 17 2 16 3 14 4 15 5 13 7 8 8 9 9 89 10 10 11 11 12
REMARK SMILES IDX 88 13 12 14 87 15 6 16 7 17 4 18 5 19 3 20 2 21 1 22 19 25
REMARK SMILES IDX 20 26 21 27 22 28 23 30 24 31 25 32 86 33 26 34 85 35 27 36
REMARK SMILES IDX 28 37 29 38 79 39 30 40 84 41 78 42 80 43 31 44 83 45 77 46
REMARK SMILES IDX 76 47 32 49 64 50 44 51 63 52 45 53 48 54 62 55 81 56 46 57
REMARK SMILES IDX 47 58 61 60 82 61 49 62 33 63 34 64 42 65 35 66 37 67 43 68
REMARK SMILES IDX 36 69 38 70 39 71 40 72 41 73 65 74 66 75 74 76 67 77 69 78
REMARK SMILES IDX 75 79 68 80 70 81 71 82 72 83 73 84 50 85 51 86 59 87 52 88
REMARK SMILES IDX 54 89 60 90 53 91 55 92 56 93 57 94 58 95
REMARK H PARENT 16 6 2 23 2 24 21 29 80 48 48 59
REMARK Flexibility Score: inf
ROOT
ATOM      1  C   UNL A   1      31.618  28.875  25.550  1.00  0.00     0.023 C 
ENDROOT
BRANCH   1   2
ATOM      2  C   UNL A   1      31.377  29.030  24.046  1.00  0.00     0.116 C 
BRANCH   2   3
ATOM      3  N   UNL A   1      30.014  28.673  23.695  1.00  0.00    -0.352 N 
ATOM      4  C   UNL A   1      29.392  27.452  23.588  1.00  0.00     0.251 C 
ATOM      5  O   UNL A   1      28.187  27.426  23.343  1.00  0.00    -0.269 OA
ATOM      6  H   UNL A   1      29.433  29.442  23.499  1.00  0.00     0.163 HD
BRANCH   4   7
ATOM      7  C   UNL A   1      30.106  26.166  23.826  1.00  0.00     0.040 A 
ATOM      8  N   UNL A   1      32.415  22.923  25.016  1.00  0.00    -0.311 N 
ATOM      9  C   UNL A   1      31.808  22.561  26.305  1.00  0.00     0.130 C 
ATOM     10  C   UNL A   1      31.646  23.933  24.443  1.00  0.00     0.047 A 
ATOM     11  C   UNL A   1      30.733  23.615  26.616  1.00  0.00     0.059 C 
ATOM     12  C   UNL A   1      30.758  24.455  25.380  1.00  0.00    -0.022 A 
ATOM     13  C   UNL A   1      31.602  24.364  23.138  1.00  0.00     0.027 A 
ATOM     14  C   UNL A   1      30.011  25.592  25.102  1.00  0.00     0.019 A 
ATOM     15  C   UNL A   1      30.822  25.480  22.834  1.00  0.00     0.016 A 
BRANCH   8  16
ATOM     16  C   UNL A   1      33.573  22.313  24.596  1.00  0.00     0.235 C 
ATOM     17  O   UNL A   1      33.537  21.135  24.209  1.00  0.00    -0.274 OA
BRANCH  16  18
ATOM     18  C   UNL A   1      34.955  22.910  24.942  1.00  0.00     0.131 C 
ATOM     19  C   UNL A   1      35.114  24.403  25.180  1.00  0.00     0.024 C 
BRANCH  18  20
ATOM     20  C   UNL A   1      35.544  22.139  26.145  1.00  0.00     0.273 C 
BRANCH  20  21
ATOM     21  N   UNL A   1      36.918  21.659  25.945  1.00  0.00    -0.348 N 
ATOM     22  C   UNL A   1      36.987  20.602  24.942  1.00  0.00     0.330 C 
ATOM     23  H   UNL A   1      37.499  22.440  25.642  1.00  0.00     0.346 HD
ATOM     24  H   UNL A   1      37.249  21.275  26.830  1.00  0.00     0.346 HD
ENDBRANCH  20  21
ENDBRANCH  18  20
ENDBRANCH  16  18
ENDBRANCH   8  16
ENDBRANCH   4   7
ENDBRANCH   2   3
ENDBRANCH   1   2
BRANCH   1  25
ATOM     25  C   UNL A   1      32.885  28.105  25.916  1.00  0.00     0.023 C 
BRANCH  25  26
ATOM     26  C   UNL A   1      34.144  28.954  26.004  1.00  0.00     0.116 C 
BRANCH  26  27
ATOM     27  N   UNL A   1      33.909  30.271  26.573  1.00  0.00    -0.352 N 
ATOM     28  C   UNL A   1      34.630  30.924  27.547  1.00  0.00     0.251 C 
ATOM     29  H   UNL A   1      33.133  30.759  26.215  1.00  0.00     0.163 HD
ATOM     30  O   UNL A   1      34.229  31.986  27.996  1.00  0.00    -0.269 OA
BRANCH  28  31
ATOM     31  C   UNL A   1      35.875  30.309  28.060  1.00  0.00     0.039 A 
ATOM     32  C   UNL A   1      37.056  30.480  27.336  1.00  0.00     0.014 A 
ATOM     33  C   UNL A   1      35.877  29.586  29.256  1.00  0.00     0.014 A 
ATOM     34  C   UNL A   1      38.249  29.952  27.834  1.00  0.00     0.010 A 
ATOM     35  C   UNL A   1      37.079  29.141  29.793  1.00  0.00     0.010 A 
ATOM     36  C   UNL A   1      38.274  29.295  29.074  1.00  0.00    -0.014 A 
BRANCH  36  37
ATOM     37  C   UNL A   1      39.531  28.724  29.616  1.00  0.00     0.031 A 
ATOM     38  C   UNL A   1      40.149  29.312  30.858  1.00  0.00     0.074 A 
ATOM     39  C   UNL A   1      40.146  27.718  28.965  1.00  0.00     0.049 A 
ATOM     40  N   UNL A   1      41.238  28.953  31.486  1.00  0.00    -0.248 NA
ATOM     41  C   UNL A   1      39.470  30.474  31.455  1.00  0.00     0.031 C 
ATOM     42  C   UNL A   1      39.691  27.119  27.707  1.00  0.00     0.029 A 
ATOM     43  N   UNL A   1      41.294  27.030  29.264  1.00  0.00    -0.354 N 
ATOM     44  C   UNL A   1      41.390  29.860  32.528  1.00  0.00     0.074 A 
ATOM     45  C   UNL A   1      40.314  30.818  32.416  1.00  0.00     0.031 C 
ATOM     46  C   UNL A   1      40.539  26.138  27.357  1.00  0.00     0.029 A 
ATOM     47  C   UNL A   1      41.606  26.051  28.349  1.00  0.00     0.049 A 
ATOM     48  H   UNL A   1      41.843  27.218  30.059  1.00  0.00     0.167 HD
ATOM     49  C   UNL A   1      42.317  29.873  33.517  1.00  0.00     0.034 A 
ATOM     50  C   UNL A   1      42.628  25.176  28.323  1.00  0.00     0.034 A 
ATOM     51  C   UNL A   1      43.359  28.894  33.647  1.00  0.00     0.049 A 
ATOM     52  C   UNL A   1      43.618  25.177  29.459  1.00  0.00     0.074 A 
ATOM     53  C   UNL A   1      44.307  28.770  34.648  1.00  0.00     0.029 A 
ATOM     54  N   UNL A   1      43.593  27.865  32.747  1.00  0.00    -0.354 N 
ATOM     55  N   UNL A   1      43.657  25.948  30.519  1.00  0.00    -0.248 NA
ATOM     56  C   UNL A   1      44.676  24.158  29.416  1.00  0.00     0.031 C 
ATOM     57  C   UNL A   1      45.123  27.676  34.342  1.00  0.00     0.029 A 
ATOM     58  C   UNL A   1      44.666  27.101  33.167  1.00  0.00     0.049 A 
ATOM     59  H   UNL A   1      43.070  27.703  31.929  1.00  0.00     0.167 HD
ATOM     60  C   UNL A   1      44.710  25.476  31.294  1.00  0.00     0.074 A 
ATOM     61  C   UNL A   1      45.275  24.346  30.585  1.00  0.00     0.031 C 
ATOM     62  C   UNL A   1      45.177  25.942  32.479  1.00  0.00     0.034 A 
BRANCH  49  63
ATOM     63  C   UNL A   1      42.198  30.953  34.562  1.00  0.00     0.023 A 
ATOM     64  C   UNL A   1      41.430  30.715  35.722  1.00  0.00     0.012 A 
ATOM     65  C   UNL A   1      42.858  32.188  34.415  1.00  0.00     0.148 A 
ATOM     66  C   UNL A   1      41.281  31.704  36.694  1.00  0.00     0.002 A 
ATOM     67  C   UNL A   1      42.745  33.152  35.411  1.00  0.00     0.091 A 
ATOM     68  F   UNL A   1      43.564  32.408  33.297  1.00  0.00    -0.205 F 
ATOM     69  C   UNL A   1      41.944  32.918  36.543  1.00  0.00     0.022 A 
BRANCH  67  70
ATOM     70  S   UNL A   1      43.626  34.715  35.349  1.00  0.00     0.127 S 
ATOM     71  O   UNL A   1      45.013  34.268  35.238  1.00  0.00    -0.237 OA
ATOM     72  O   UNL A   1      43.084  35.327  34.135  1.00  0.00    -0.237 OA
ATOM     73  O   UNL A   1      43.288  35.413  36.581  1.00  0.00    -0.744 OA
ENDBRANCH  67  70
ENDBRANCH  49  63
BRANCH  50  74
ATOM     74  C   UNL A   1      42.708  24.156  27.240  1.00  0.00     0.023 A 
ATOM     75  C   UNL A   1      43.503  24.419  26.106  1.00  0.00     0.012 A 
ATOM     76  C   UNL A   1      42.036  22.923  27.335  1.00  0.00     0.148 A 
ATOM     77  C   UNL A   1      43.598  23.490  25.071  1.00  0.00     0.002 A 
ATOM     78  C   UNL A   1      42.178  21.979  26.324  1.00  0.00     0.091 A 
ATOM     79  F   UNL A   1      41.282  22.694  28.419  1.00  0.00    -0.205 F 
ATOM     80  C   UNL A   1      42.944  22.266  25.184  1.00  0.00     0.022 A 
BRANCH  78  81
ATOM     81  S   UNL A   1      41.475  20.330  26.438  1.00  0.00     0.127 S 
ATOM     82  O   UNL A   1      41.939  19.897  27.753  1.00  0.00    -0.237 OA
ATOM     83  O   UNL A   1      40.041  20.608  26.350  1.00  0.00    -0.237 OA
ATOM     84  O   UNL A   1      42.015  19.592  25.304  1.00  0.00    -0.744 OA
ENDBRANCH  78  81
ENDBRANCH  50  74
BRANCH  62  85
ATOM     85  C   UNL A   1      46.319  25.199  33.122  1.00  0.00     0.023 A 
ATOM     86  C   UNL A   1      47.644  25.635  32.926  1.00  0.00     0.012 A 
ATOM     87  C   UNL A   1      46.070  24.106  33.975  1.00  0.00     0.148 A 
ATOM     88  C   UNL A   1      48.706  24.971  33.540  1.00  0.00     0.002 A 
ATOM     89  C   UNL A   1      47.127  23.482  34.623  1.00  0.00     0.091 A 
ATOM     90  F   UNL A   1      44.804  23.692  34.132  1.00  0.00    -0.205 F 
ATOM     91  C   UNL A   1      48.447  23.904  34.396  1.00  0.00     0.022 A 
BRANCH  89  92
ATOM     92  S   UNL A   1      46.874  22.167  35.821  1.00  0.00     0.127 S 
ATOM     93  O   UNL A   1      48.245  21.881  36.242  1.00  0.00    -0.237 OA
ATOM     94  O   UNL A   1      46.048  22.823  36.835  1.00  0.00    -0.237 OA
ATOM     95  O   UNL A   1      46.202  21.095  35.100  1.00  0.00    -0.744 OA
ENDBRANCH  89  92
ENDBRANCH  62  85
ENDBRANCH  36  37
ENDBRANCH  28  31
ENDBRANCH  26  27
ENDBRANCH  25  26
ENDBRANCH   1  25
TORSDOF 18
ENDMDL
MODEL 2
REMARK VINA RESULT:     -10.9      4.979     10.019
REMARK SMILES C[NH2+]C[C@H](C)C(=O)N1CCc2cc(C(=O)NCCCCNC(=O)c3ccc(-c4c5nc(c(-c6cccc(S(=O)(=O)[O-])c6F)c6ccc([nH]6)c(-c6cccc(S(=O)(=O)[O-])c6F)c6nc(c(-c7cccc(S(=O)(=O)[O-])c7F)c7ccc4[nH]7)C=C6)C=C5)cc3)ccc21
REMARK SMILES IDX 18 1 17 2 16 3 14 4 15 5 13 7 8 8 9 9 89 10 10 11 11 12
REMARK SMILES IDX 88 13 12 14 87 15 6 16 7 17 4 18 5 19 3 20 2 21 1 22 19 25
REMARK SMILES IDX 20 26 21 27 22 28 23 30 24 31 25 32 86 33 26 34 85 35 27 36
REMARK SMILES IDX 28 37 29 38 79 39 30 40 84 41 78 42 80 43 31 44 83 45 77 46
REMARK SMILES IDX 76 47 32 49 64 50 44 51 63 52 45 53 48 54 62 55 81 56 46 57
REMARK SMILES IDX 47 58 61 60 82 61 49 62 33 63 34 64 42 65 35 66 37 67 43 68
REMARK SMILES IDX 36 69 38 70 39 71 40 72 41 73 65 74 66 75 74 76 67 77 69 78
REMARK SMILES IDX 75 79 68 80 70 81 71 82 72 83 73 84 50 85 51 86 59 87 52 88
REMARK SMILES IDX 54 89 60 90 53 91 55 92 56 93 57 94 58 95
REMARK H PARENT 16 6 2 23 2 24 21 29 80 48 48 59
REMARK Flexibility Score: inf
ROOT
ATOM      1  C   UNL A   1      35.188  20.551  25.115  1.00  0.00     0.023 C 
ENDROOT
BRANCH   1   2
ATOM      2  C   UNL A   1      33.662  20.573  25.235  1.00  0.00     0.116 C 
BRANCH   2   3
ATOM      3  N   UNL A   1      33.246  21.138  26.507  1.00  0.00    -0.352 N 
ATOM      4  C   UNL A   1      32.769  22.384  26.836  1.00  0.00     0.251 C 
ATOM      5  O   UNL A   1      32.411  22.588  27.995  1.00  0.00    -0.269 OA
ATOM      6  H   UNL A   1      33.320  20.519  27.268  1.00  0.00     0.163 HD
BRANCH   4   7
ATOM      7  C   UNL A   1      32.604  23.470  25.830  1.00  0.00     0.040 A 
ATOM      8  N   UNL A   1      32.046  26.918  23.580  1.00  0.00    -0.311 N 
ATOM      9  C   UNL A   1      33.268  27.684  23.870  1.00  0.00     0.130 C 
ATOM     10  C   UNL A   1      32.165  25.668  24.183  1.00  0.00     0.047 A 
ATOM     11  C   UNL A   1      34.058  26.900  24.930  1.00  0.00     0.059 C 
ATOM     12  C   UNL A   1      33.232  25.663  25.078  1.00  0.00    -0.022 A 
ATOM     13  C   UNL A   1      31.466  24.511  23.938  1.00  0.00     0.027 A 
ATOM     14  C   UNL A   1      33.442  24.590  25.934  1.00  0.00     0.019 A 
ATOM     15  C   UNL A   1      31.696  23.409  24.763  1.00  0.00     0.016 A 
BRANCH   8  16
ATOM     16  C   UNL A   1      31.024  27.487  22.859  1.00  0.00     0.235 C 
ATOM     17  O   UNL A   1      30.776  27.071  21.717  1.00  0.00    -0.274 OA
BRANCH  16  18
ATOM     18  C   UNL A   1      30.430  28.854  23.266  1.00  0.00     0.131 C 
ATOM     19  C   UNL A   1      30.830  29.510  24.578  1.00  0.00     0.024 C 
BRANCH  18  20
ATOM     20  C   UNL A   1      30.647  29.856  22.110  1.00  0.00     0.273 C 
BRANCH  20  21
ATOM     21  N   UNL A   1      29.568  30.840  21.947  1.00  0.00    -0.348 N 
ATOM     22  C   UNL A   1      28.287  30.203  21.662  1.00  0.00     0.330 C 
ATOM     23  H   UNL A   1      29.483  31.381  22.807  1.00  0.00     0.346 HD
ATOM     24  H   UNL A   1      29.805  31.439  21.156  1.00  0.00     0.346 HD
ENDBRANCH  20  21
ENDBRANCH  18  20
ENDBRANCH  16  18
ENDBRANCH   8  16
ENDBRANCH   4   7
ENDBRANCH   2   3
ENDBRANCH   1   2
BRANCH   1  25
ATOM     25  C   UNL A   1      35.812  21.873  24.676  1.00  0.00     0.023 C 
BRANCH  25  26
ATOM     26  C   UNL A   1      37.002  22.325  25.509  1.00  0.00     0.116 C 
BRANCH  26  27
ATOM     27  N   UNL A   1      37.975  21.268  25.738  1.00  0.00    -0.352 N 
ATOM     28  C   UNL A   1      39.261  21.377  26.216  1.00  0.00     0.251 C 
ATOM     29  H   UNL A   1      37.674  20.356  25.524  1.00  0.00     0.163 HD
ATOM     30  O   UNL A   1      39.989  20.398  26.241  1.00  0.00    -0.269 OA
BRANCH  28  31
ATOM     31  C   UNL A   1      39.756  22.698  26.665  1.00  0.00     0.039 A 
ATOM     32  C   UNL A   1      40.660  22.749  27.728  1.00  0.00     0.014 A 
ATOM     33  C   UNL A   1      39.344  23.873  26.031  1.00  0.00     0.014 A 
ATOM     34  C   UNL A   1      41.178  23.982  28.131  1.00  0.00     0.010 A 
ATOM     35  C   UNL A   1      39.930  25.085  26.374  1.00  0.00     0.010 A 
ATOM     36  C   UNL A   1      40.831  25.157  27.445  1.00  0.00    -0.014 A 
BRANCH  36  37
ATOM     37  C   UNL A   1      41.369  26.476  27.861  1.00  0.00     0.031 A 
ATOM     38  C   UNL A   1      42.805  26.826  27.573  1.00  0.00     0.074 A 
ATOM     39  C   UNL A   1      40.586  27.333  28.545  1.00  0.00     0.049 A 
ATOM     40  N   UNL A   1      43.458  27.924  27.852  1.00  0.00    -0.248 NA
ATOM     41  C   UNL A   1      43.624  25.797  26.911  1.00  0.00     0.031 C 
ATOM     42  C   UNL A   1      39.205  27.075  28.957  1.00  0.00     0.029 A 
ATOM     43  N   UNL A   1      40.846  28.591  29.024  1.00  0.00    -0.354 N 
ATOM     44  C   UNL A   1      44.764  27.706  27.430  1.00  0.00     0.074 A 
ATOM     45  C   UNL A   1      44.825  26.353  26.926  1.00  0.00     0.031 C 
ATOM     46  C   UNL A   1      38.732  28.151  29.607  1.00  0.00     0.029 A 
ATOM     47  C   UNL A   1      39.780  29.165  29.676  1.00  0.00     0.049 A 
ATOM     48  H   UNL A   1      41.714  29.042  28.912  1.00  0.00     0.167 HD
ATOM     49  C   UNL A   1      45.811  28.566  27.421  1.00  0.00     0.034 A 
ATOM     50  C   UNL A   1      39.659  30.377  30.251  1.00  0.00     0.034 A 
ATOM     51  C   UNL A   1      45.733  29.923  27.884  1.00  0.00     0.049 A 
ATOM     52  C   UNL A   1      40.820  31.333  30.185  1.00  0.00     0.074 A 
ATOM     53  C   UNL A   1      46.710  30.902  27.855  1.00  0.00     0.029 A 
ATOM     54  N   UNL A   1      44.610  30.497  28.461  1.00  0.00    -0.354 N 
ATOM     55  N   UNL A   1      42.002  31.162  29.644  1.00  0.00    -0.248 NA
ATOM     56  C   UNL A   1      40.613  32.667  30.769  1.00  0.00     0.031 C 
ATOM     57  C   UNL A   1      46.182  32.063  28.431  1.00  0.00     0.029 A 
ATOM     58  C   UNL A   1      44.867  31.815  28.791  1.00  0.00     0.049 A 
ATOM     59  H   UNL A   1      43.755  30.033  28.612  1.00  0.00     0.167 HD
ATOM     60  C   UNL A   1      42.662  32.379  29.777  1.00  0.00     0.074 A 
ATOM     61  C   UNL A   1      41.742  33.281  30.439  1.00  0.00     0.031 C 
ATOM     62  C   UNL A   1      43.919  32.717  29.396  1.00  0.00     0.034 A 
BRANCH  49  63
ATOM     63  C   UNL A   1      47.109  28.070  26.837  1.00  0.00     0.023 A 
ATOM     64  C   UNL A   1      48.161  27.697  27.700  1.00  0.00     0.012 A 
ATOM     65  C   UNL A   1      47.285  27.947  25.445  1.00  0.00     0.148 A 
ATOM     66  C   UNL A   1      49.383  27.259  27.189  1.00  0.00     0.002 A 
ATOM     67  C   UNL A   1      48.488  27.463  24.944  1.00  0.00     0.091 A 
ATOM     68  F   UNL A   1      46.285  28.326  24.637  1.00  0.00    -0.205 F 
ATOM     69  C   UNL A   1      49.543  27.134  25.813  1.00  0.00     0.022 A 
BRANCH  67  70
ATOM     70  S   UNL A   1      48.764  27.188  23.191  1.00  0.00     0.127 S 
ATOM     71  O   UNL A   1      48.158  25.871  23.000  1.00  0.00    -0.237 OA
ATOM     72  O   UNL A   1      48.022  28.293  22.583  1.00  0.00    -0.237 OA
ATOM     73  O   UNL A   1      50.206  27.250  22.999  1.00  0.00    -0.744 OA
ENDBRANCH  67  70
ENDBRANCH  49  63
BRANCH  50  74
ATOM     74  C   UNL A   1      38.357  30.792  30.845  1.00  0.00     0.023 A 
ATOM     75  C   UNL A   1      38.089  30.488  32.194  1.00  0.00     0.012 A 
ATOM     76  C   UNL A   1      37.402  31.511  30.100  1.00  0.00     0.148 A 
ATOM     77  C   UNL A   1      36.879  30.858  32.781  1.00  0.00     0.002 A 
ATOM     78  C   UNL A   1      36.221  31.923  30.707  1.00  0.00     0.091 A 
ATOM     79  F   UNL A   1      37.674  31.786  28.817  1.00  0.00    -0.205 F 
ATOM     80  C   UNL A   1      35.950  31.584  32.041  1.00  0.00     0.022 A 
BRANCH  78  81
ATOM     81  S   UNL A   1      35.020  32.966  29.873  1.00  0.00     0.127 S 
ATOM     82  O   UNL A   1      34.380  32.018  28.965  1.00  0.00    -0.237 OA
ATOM     83  O   UNL A   1      34.184  33.413  30.988  1.00  0.00    -0.237 OA
ATOM     84  O   UNL A   1      35.791  34.026  29.238  1.00  0.00    -0.744 OA
ENDBRANCH  78  81
ENDBRANCH  50  74
BRANCH  62  85
ATOM     85  C   UNL A   1      44.361  34.138  29.629  1.00  0.00     0.023 A 
ATOM     86  C   UNL A   1      45.009  34.488  30.829  1.00  0.00     0.012 A 
ATOM     87  C   UNL A   1      44.193  35.112  28.625  1.00  0.00     0.148 A 
ATOM     88  C   UNL A   1      45.448  35.795  31.042  1.00  0.00     0.002 A 
ATOM     89  C   UNL A   1      44.678  36.398  28.823  1.00  0.00     0.091 A 
ATOM     90  F   UNL A   1      43.555  34.765  27.497  1.00  0.00    -0.205 F 
ATOM     91  C   UNL A   1      45.293  36.745  30.036  1.00  0.00     0.022 A 
BRANCH  89  92
ATOM     92  S   UNL A   1      44.612  37.654  27.540  1.00  0.00     0.127 S 
ATOM     93  O   UNL A   1      45.024  38.850  28.274  1.00  0.00    -0.237 OA
ATOM     94  O   UNL A   1      45.593  37.163  26.572  1.00  0.00    -0.237 OA
ATOM     95  O   UNL A   1      43.239  37.657  27.055  1.00  0.00    -0.744 OA
ENDBRANCH  89  92
ENDBRANCH  62  85
ENDBRANCH  36  37
ENDBRANCH  28  31
ENDBRANCH  26  27
ENDBRANCH  25  26
ENDBRANCH   1  25
TORSDOF 18
ENDMDL
MODEL 3
REMARK VINA RESULT:     -10.7      2.494      3.091
REMARK SMILES C[NH2+]C[C@H](C)C(=O)N1CCc2cc(C(=O)NCCCCNC(=O)c3ccc(-c4c5nc(c(-c6cccc(S(=O)(=O)[O-])c6F)c6ccc([nH]6)c(-c6cccc(S(=O)(=O)[O-])c6F)c6nc(c(-c7cccc(S(=O)(=O)[O-])c7F)c7ccc4[nH]7)C=C6)C=C5)cc3)ccc21
REMARK SMILES IDX 18 1 17 2 16 3 14 4 15 5 13 7 8 8 9 9 89 10 10 11 11 12
REMARK SMILES IDX 88 13 12 14 87 15 6 16 7 17 4 18 5 19 3 20 2 21 1 22 19 25
REMARK SMILES IDX 20 26 21 27 22 28 23 30 24 31 25 32 86 33 26 34 85 35 27 36
REMARK SMILES IDX 28 37 29 38 79 39 30 40 84 41 78 42 80 43 31 44 83 45 77 46
REMARK SMILES IDX 76 47 32 49 64 50 44 51 63 52 45 53 48 54 62 55 81 56 46 57
REMARK SMILES IDX 47 58 61 60 82 61 49 62 33 63 34 64 42 65 35 66 37 67 43 68
REMARK SMILES IDX 36 69 38 70 39 71 40 72 41 73 65 74 66 75 74 76 67 77 69 78
REMARK SMILES IDX 75 79 68 80 70 81 71 82 72 83 73 84 50 85 51 86 59 87 52 88
REMARK SMILES IDX 54 89 60 90 53 91 55 92 56 93 57 94 58 95
REMARK H PARENT 16 6 2 23 2 24 21 29 80 48 48 59
REMARK Flexibility Score: inf
ROOT
ATOM      1  C   UNL A   1      32.091  27.751  26.827  1.00  0.00     0.023 C 
ENDROOT
BRANCH   1   2
ATOM      2  C   UNL A   1      31.069  26.680  26.439  1.00  0.00     0.116 C 
BRANCH   2   3
ATOM      3  N   UNL A   1      30.929  26.589  24.997  1.00  0.00    -0.352 N 
ATOM      4  C   UNL A   1      31.292  25.605  24.108  1.00  0.00     0.251 C 
ATOM      5  O   UNL A   1      30.988  25.742  22.924  1.00  0.00    -0.269 OA
ATOM      6  H   UNL A   1      30.497  27.369  24.582  1.00  0.00     0.163 HD
BRANCH   4   7
ATOM      7  C   UNL A   1      31.977  24.353  24.535  1.00  0.00     0.040 A 
ATOM      8  N   UNL A   1      34.309  20.974  25.173  1.00  0.00    -0.311 N 
ATOM      9  C   UNL A   1      35.589  21.553  25.605  1.00  0.00     0.130 C 
ATOM     10  C   UNL A   1      33.387  22.010  25.043  1.00  0.00     0.047 A 
ATOM     11  C   UNL A   1      35.464  23.080  25.487  1.00  0.00     0.059 C 
ATOM     12  C   UNL A   1      34.036  23.241  25.078  1.00  0.00    -0.022 A 
ATOM     13  C   UNL A   1      32.014  21.956  24.991  1.00  0.00     0.027 A 
ATOM     14  C   UNL A   1      33.356  24.417  24.789  1.00  0.00     0.019 A 
ATOM     15  C   UNL A   1      31.312  23.136  24.743  1.00  0.00     0.016 A 
BRANCH   8  16
ATOM     16  C   UNL A   1      34.201  19.625  24.931  1.00  0.00     0.235 C 
ATOM     17  O   UNL A   1      35.217  18.971  24.650  1.00  0.00    -0.274 OA
BRANCH  16  18
ATOM     18  C   UNL A   1      32.830  18.980  24.631  1.00  0.00     0.131 C 
ATOM     19  C   UNL A   1      32.541  18.381  23.264  1.00  0.00     0.024 C 
BRANCH  18  20
ATOM     20  C   UNL A   1      32.526  17.927  25.721  1.00  0.00     0.273 C 
BRANCH  20  21
ATOM     21  N   UNL A   1      33.494  16.823  25.787  1.00  0.00    -0.348 N 
ATOM     22  C   UNL A   1      32.840  15.520  25.757  1.00  0.00     0.330 C 
ATOM     23  H   UNL A   1      34.128  16.892  24.991  1.00  0.00     0.346 HD
ATOM     24  H   UNL A   1      34.000  16.900  26.669  1.00  0.00     0.346 HD
ENDBRANCH  20  21
ENDBRANCH  18  20
ENDBRANCH  16  18
ENDBRANCH   8  16
ENDBRANCH   4   7
ENDBRANCH   2   3
ENDBRANCH   1   2
BRANCH   1  25
ATOM     25  C   UNL A   1      32.319  28.827  25.767  1.00  0.00     0.023 C 
BRANCH  25  26
ATOM     26  C   UNL A   1      33.540  29.704  26.001  1.00  0.00     0.116 C 
BRANCH  26  27
ATOM     27  N   UNL A   1      33.206  31.031  26.495  1.00  0.00    -0.352 N 
ATOM     28  C   UNL A   1      33.843  31.769  27.466  1.00  0.00     0.251 C 
ATOM     29  H   UNL A   1      32.421  31.456  26.080  1.00  0.00     0.163 HD
ATOM     30  O   UNL A   1      33.363  32.825  27.845  1.00  0.00    -0.269 OA
BRANCH  28  31
ATOM     31  C   UNL A   1      35.095  31.251  28.063  1.00  0.00     0.039 A 
ATOM     32  C   UNL A   1      36.233  32.059  28.042  1.00  0.00     0.014 A 
ATOM     33  C   UNL A   1      35.138  29.986  28.653  1.00  0.00     0.014 A 
ATOM     34  C   UNL A   1      37.407  31.609  28.647  1.00  0.00     0.010 A 
ATOM     35  C   UNL A   1      36.279  29.579  29.333  1.00  0.00     0.010 A 
ATOM     36  C   UNL A   1      37.435  30.373  29.314  1.00  0.00    -0.014 A 
BRANCH  36  37
ATOM     37  C   UNL A   1      38.675  29.876  29.959  1.00  0.00     0.031 A 
ATOM     38  C   UNL A   1      39.077  30.398  31.314  1.00  0.00     0.074 A 
ATOM     39  C   UNL A   1      39.466  29.002  29.308  1.00  0.00     0.049 A 
ATOM     40  N   UNL A   1      40.117  30.086  32.041  1.00  0.00    -0.248 NA
ATOM     41  C   UNL A   1      38.212  31.426  31.917  1.00  0.00     0.031 C 
ATOM     42  C   UNL A   1      39.227  28.487  27.957  1.00  0.00     0.029 A 
ATOM     43  N   UNL A   1      40.638  28.402  29.689  1.00  0.00    -0.354 N 
ATOM     44  C   UNL A   1      40.050  30.899  33.167  1.00  0.00     0.074 A 
ATOM     45  C   UNL A   1      38.897  31.755  33.002  1.00  0.00     0.031 C 
ATOM     46  C   UNL A   1      40.210  27.631  27.634  1.00  0.00     0.029 A 
ATOM     47  C   UNL A   1      41.157  27.551  28.742  1.00  0.00     0.049 A 
ATOM     48  H   UNL A   1      41.068  28.564  30.560  1.00  0.00     0.167 HD
ATOM     49  C   UNL A   1      40.848  30.905  34.262  1.00  0.00     0.034 A 
ATOM     50  C   UNL A   1      42.264  26.785  28.771  1.00  0.00     0.034 A 
ATOM     51  C   UNL A   1      41.967  30.022  34.440  1.00  0.00     0.049 A 
ATOM     52  C   UNL A   1      43.109  26.772  30.018  1.00  0.00     0.074 A 
ATOM     53  C   UNL A   1      42.799  29.894  35.537  1.00  0.00     0.029 A 
ATOM     54  N   UNL A   1      42.413  29.113  33.492  1.00  0.00    -0.354 N 
ATOM     55  N   UNL A   1      42.941  27.436  31.136  1.00  0.00    -0.248 NA
ATOM     56  C   UNL A   1      44.268  25.868  30.023  1.00  0.00     0.031 C 
ATOM     57  C   UNL A   1      43.759  28.919  35.245  1.00  0.00     0.029 A 
ATOM     58  C   UNL A   1      43.506  28.419  33.978  1.00  0.00     0.049 A 
ATOM     59  H   UNL A   1      42.010  28.982  32.604  1.00  0.00     0.167 HD
ATOM     60  C   UNL A   1      43.942  26.995  31.994  1.00  0.00     0.074 A 
ATOM     61  C   UNL A   1      44.703  25.998  31.269  1.00  0.00     0.031 C 
ATOM     62  C   UNL A   1      44.215  27.387  33.264  1.00  0.00     0.034 A 
BRANCH  49  63
ATOM     63  C   UNL A   1      40.493  31.862  35.372  1.00  0.00     0.023 A 
ATOM     64  C   UNL A   1      41.284  33.012  35.577  1.00  0.00     0.012 A 
ATOM     65  C   UNL A   1      39.370  31.643  36.193  1.00  0.00     0.148 A 
ATOM     66  C   UNL A   1      40.995  33.901  36.612  1.00  0.00     0.002 A 
ATOM     67  C   UNL A   1      39.059  32.560  37.192  1.00  0.00     0.091 A 
ATOM     68  F   UNL A   1      38.641  30.535  36.002  1.00  0.00    -0.205 F 
ATOM     69  C   UNL A   1      39.879  33.680  37.412  1.00  0.00     0.022 A 
BRANCH  67  70
ATOM     70  S   UNL A   1      37.597  32.408  38.223  1.00  0.00     0.127 S 
ATOM     71  O   UNL A   1      37.577  30.972  38.497  1.00  0.00    -0.237 OA
ATOM     72  O   UNL A   1      37.943  33.243  39.375  1.00  0.00    -0.237 OA
ATOM     73  O   UNL A   1      36.490  32.910  37.422  1.00  0.00    -0.744 OA
ENDBRANCH  67  70
ENDBRANCH  49  63
BRANCH  50  74
ATOM     74  C   UNL A   1      42.579  25.887  27.624  1.00  0.00     0.023 A 
ATOM     75  C   UNL A   1      43.446  26.345  26.611  1.00  0.00     0.012 A 
ATOM     76  C   UNL A   1      42.058  24.582  27.543  1.00  0.00     0.148 A 
ATOM     77  C   UNL A   1      43.759  25.534  25.521  1.00  0.00     0.002 A 
ATOM     78  C   UNL A   1      42.416  23.759  26.481  1.00  0.00     0.091 A 
ATOM     79  F   UNL A   1      41.231  24.168  28.513  1.00  0.00    -0.205 F 
ATOM     80  C   UNL A   1      43.253  24.238  25.461  1.00  0.00     0.022 A 
BRANCH  78  81
ATOM     81  S   UNL A   1      41.915  22.038  26.380  1.00  0.00     0.127 S 
ATOM     82  O   UNL A   1      42.656  21.578  25.209  1.00  0.00    -0.237 OA
ATOM     83  O   UNL A   1      42.393  21.511  27.659  1.00  0.00    -0.237 OA
ATOM     84  O   UNL A   1      40.465  22.056  26.242  1.00  0.00    -0.744 OA
ENDBRANCH  78  81
ENDBRANCH  50  74
BRANCH  62  85
ATOM     85  C   UNL A   1      45.347  26.698  33.980  1.00  0.00     0.023 A 
ATOM     86  C   UNL A   1      46.649  27.233  33.920  1.00  0.00     0.012 A 
ATOM     87  C   UNL A   1      45.105  25.556  34.768  1.00  0.00     0.148 A 
ATOM     88  C   UNL A   1      47.699  26.619  34.602  1.00  0.00     0.002 A 
ATOM     89  C   UNL A   1      46.144  24.980  35.486  1.00  0.00     0.091 A 
ATOM     90  F   UNL A   1      43.863  25.049  34.796  1.00  0.00    -0.205 F 
ATOM     91  C   UNL A   1      47.445  25.501  35.394  1.00  0.00     0.022 A 
BRANCH  89  92
ATOM     92  S   UNL A   1      45.884  23.602  36.609  1.00  0.00     0.127 S 
ATOM     93  O   UNL A   1      47.238  23.363  37.105  1.00  0.00    -0.237 OA
ATOM     94  O   UNL A   1      44.965  24.172  37.595  1.00  0.00    -0.237 OA
ATOM     95  O   UNL A   1      45.312  22.533  35.802  1.00  0.00    -0.744 OA
ENDBRANCH  89  92
ENDBRANCH  62  85
ENDBRANCH  36  37
ENDBRANCH  28  31
ENDBRANCH  26  27
ENDBRANCH  25  26
ENDBRANCH   1  25
TORSDOF 18
ENDMDL
