MODEL 1
REMARK VINA RESULT:     -12.0      0.000      0.000
REMARK SMILES CC(=O)c1nnn(-c2ccc(C(=O)NCCCCNC(=O)c3ccc(-c4c5nc(c(-c6cccc(S(=O)(=O)[O-])c6F)c6ccc([nH]6)c(-c6cccc(S(=O)(=O)[O-])c6F)c6nc(c(-c7cccc(S(=O)(=O)[O-])c7F)c7ccc4[nH]7)C=C6)C=C5)cc3)cc2)c1C
REMARK SMILES IDX 17 1 16 2 15 3 14 4 12 5 13 6 11 8 8 9 9 10 86 11 10 12
REMARK SMILES IDX 85 13 7 14 4 15 5 16 87 17 6 18 88 19 2 20 1 21 3 22 18 23
REMARK SMILES IDX 19 24 20 25 21 27 22 28 23 29 84 30 24 31 83 32 25 33 26 34
REMARK SMILES IDX 27 35 77 36 28 37 82 38 76 39 78 40 29 41 81 42 75 43 74 44
REMARK SMILES IDX 30 46 62 47 42 48 61 49 43 50 46 51 60 52 79 53 44 54 45 55
REMARK SMILES IDX 59 57 80 58 47 59 31 60 32 61 40 62 33 63 35 64 41 65 34 66
REMARK SMILES IDX 36 67 37 68 38 69 39 70 63 71 64 72 72 73 65 74 67 75 73 76
REMARK SMILES IDX 66 77 68 78 69 79 70 80 71 81 48 82 49 83 57 84 50 85 52 86
REMARK SMILES IDX 58 87 51 88 53 89 54 90 55 91 56 92
REMARK H PARENT 14 7 19 26 78 45 46 56
REMARK Flexibility Score: inf
ROOT
ATOM      1  C   UNL A   1      37.889  19.795  24.997  1.00  0.00     0.023 C 
ENDROOT
BRANCH   1   2
ATOM      2  C   UNL A   1      36.891  20.905  24.636  1.00  0.00     0.023 C 
BRANCH   2   3
ATOM      3  C   UNL A   1      35.431  20.620  25.012  1.00  0.00     0.116 C 
BRANCH   3   4
ATOM      4  N   UNL A   1      35.099  21.195  26.303  1.00  0.00    -0.352 N 
ATOM      5  C   UNL A   1      34.433  22.335  26.683  1.00  0.00     0.251 C 
ATOM      6  O   UNL A   1      34.344  22.577  27.886  1.00  0.00    -0.269 OA
ATOM      7  H   UNL A   1      35.417  20.658  27.065  1.00  0.00     0.163 HD
BRANCH   5   8
ATOM      8  C   UNL A   1      33.773  23.266  25.724  1.00  0.00     0.039 A 
ATOM      9  C   UNL A   1      32.569  25.224  24.134  1.00  0.00     0.067 A 
ATOM     10  C   UNL A   1      33.878  25.418  24.562  1.00  0.00     0.029 A 
ATOM     11  C   UNL A   1      31.901  24.023  24.389  1.00  0.00     0.029 A 
ATOM     12  C   UNL A   1      34.463  24.447  25.384  1.00  0.00     0.016 A 
ATOM     13  C   UNL A   1      32.525  23.033  25.143  1.00  0.00     0.016 A 
BRANCH   9  14
ATOM     14  N   UNL A   1      31.866  26.265  23.505  1.00  0.00    -0.217 N 
ATOM     15  C   UNL A   1      30.414  27.815  23.032  1.00  0.00     0.151 A 
ATOM     16  N   UNL A   1      30.910  27.288  21.864  1.00  0.00    -0.126 NA
ATOM     17  C   UNL A   1      31.045  27.207  24.104  1.00  0.00     0.073 A 
ATOM     18  N   UNL A   1      31.864  26.417  22.167  1.00  0.00    -0.061 NA
ATOM     19  C   UNL A   1      31.015  27.415  25.574  1.00  0.00     0.069 C 
BRANCH  15  20
ATOM     20  C   UNL A   1      29.405  28.867  23.019  1.00  0.00     0.181 C 
ATOM     21  C   UNL A   1      27.953  28.468  23.104  1.00  0.00     0.095 C 
ATOM     22  O   UNL A   1      29.715  30.057  22.965  1.00  0.00    -0.293 OA
ENDBRANCH  15  20
ENDBRANCH   9  14
ENDBRANCH   5   8
ENDBRANCH   3   4
ENDBRANCH   2   3
ENDBRANCH   1   2
BRANCH   1  23
ATOM     23  C   UNL A   1      39.073  20.248  25.845  1.00  0.00     0.116 C 
BRANCH  23  24
ATOM     24  N   UNL A   1      40.190  19.305  25.804  1.00  0.00    -0.352 N 
ATOM     25  C   UNL A   1      41.541  19.586  25.896  1.00  0.00     0.251 C 
ATOM     26  H   UNL A   1      39.951  18.356  25.698  1.00  0.00     0.163 HD
ATOM     27  O   UNL A   1      42.370  18.812  25.445  1.00  0.00    -0.269 OA
BRANCH  25  28
ATOM     28  C   UNL A   1      41.961  20.833  26.561  1.00  0.00     0.039 A 
ATOM     29  C   UNL A   1      42.358  21.945  25.819  1.00  0.00     0.014 A 
ATOM     30  C   UNL A   1      41.921  20.883  27.954  1.00  0.00     0.014 A 
ATOM     31  C   UNL A   1      42.630  23.133  26.492  1.00  0.00     0.010 A 
ATOM     32  C   UNL A   1      42.055  22.088  28.605  1.00  0.00     0.010 A 
ATOM     33  C   UNL A   1      42.444  23.210  27.886  1.00  0.00    -0.014 A 
BRANCH  33  34
ATOM     34  C   UNL A   1      42.487  24.510  28.553  1.00  0.00     0.031 A 
ATOM     35  C   UNL A   1      41.289  25.352  28.278  1.00  0.00     0.074 A 
ATOM     36  C   UNL A   1      43.411  24.880  29.469  1.00  0.00     0.049 A 
ATOM     37  N   UNL A   1      41.241  26.411  27.541  1.00  0.00    -0.248 NA
ATOM     38  C   UNL A   1      39.968  24.865  28.708  1.00  0.00     0.031 C 
ATOM     39  C   UNL A   1      44.465  24.059  30.075  1.00  0.00     0.029 A 
ATOM     40  N   UNL A   1      43.522  26.053  30.156  1.00  0.00    -0.354 N 
ATOM     41  C   UNL A   1      39.935  26.878  27.650  1.00  0.00     0.074 A 
ATOM     42  C   UNL A   1      39.160  25.786  28.176  1.00  0.00     0.031 C 
ATOM     43  C   UNL A   1      44.919  24.660  31.197  1.00  0.00     0.029 A 
ATOM     44  C   UNL A   1      44.319  25.975  31.299  1.00  0.00     0.049 A 
ATOM     45  H   UNL A   1      43.078  26.884  29.870  1.00  0.00     0.167 HD
ATOM     46  C   UNL A   1      39.668  28.211  27.578  1.00  0.00     0.034 A 
ATOM     47  C   UNL A   1      44.437  26.908  32.280  1.00  0.00     0.034 A 
ATOM     48  C   UNL A   1      40.766  28.939  26.991  1.00  0.00     0.049 A 
ATOM     49  C   UNL A   1      44.013  28.202  31.698  1.00  0.00     0.074 A 
ATOM     50  C   UNL A   1      41.490  28.825  25.819  1.00  0.00     0.029 A 
ATOM     51  N   UNL A   1      41.546  29.690  27.837  1.00  0.00    -0.354 N 
ATOM     52  N   UNL A   1      44.671  28.814  30.755  1.00  0.00    -0.248 NA
ATOM     53  C   UNL A   1      42.621  28.585  31.852  1.00  0.00     0.031 C 
ATOM     54  C   UNL A   1      42.844  29.050  26.208  1.00  0.00     0.029 A 
ATOM     55  C   UNL A   1      42.853  29.387  27.562  1.00  0.00     0.049 A 
ATOM     56  H   UNL A   1      41.225  30.328  28.515  1.00  0.00     0.167 HD
ATOM     57  C   UNL A   1      43.678  29.270  29.900  1.00  0.00     0.074 A 
ATOM     58  C   UNL A   1      42.440  29.187  30.674  1.00  0.00     0.031 C 
ATOM     59  C   UNL A   1      43.900  29.389  28.558  1.00  0.00     0.034 A 
BRANCH  46  60
ATOM     60  C   UNL A   1      38.601  28.904  28.395  1.00  0.00     0.023 A 
ATOM     61  C   UNL A   1      37.737  29.794  27.721  1.00  0.00     0.012 A 
ATOM     62  C   UNL A   1      38.578  28.940  29.809  1.00  0.00     0.148 A 
ATOM     63  C   UNL A   1      36.928  30.700  28.417  1.00  0.00     0.002 A 
ATOM     64  C   UNL A   1      37.704  29.773  30.496  1.00  0.00     0.091 A 
ATOM     65  F   UNL A   1      39.499  28.277  30.512  1.00  0.00    -0.205 F 
ATOM     66  C   UNL A   1      36.902  30.681  29.806  1.00  0.00     0.022 A 
BRANCH  64  67
ATOM     67  S   UNL A   1      37.587  29.737  32.288  1.00  0.00     0.127 S 
ATOM     68  O   UNL A   1      38.874  30.304  32.678  1.00  0.00    -0.237 OA
ATOM     69  O   UNL A   1      36.429  30.600  32.525  1.00  0.00    -0.237 OA
ATOM     70  O   UNL A   1      37.368  28.338  32.637  1.00  0.00    -0.744 OA
ENDBRANCH  64  67
ENDBRANCH  46  60
BRANCH  47  71
ATOM     71  C   UNL A   1      44.626  26.750  33.745  1.00  0.00     0.023 A 
ATOM     72  C   UNL A   1      45.821  27.202  34.346  1.00  0.00     0.012 A 
ATOM     73  C   UNL A   1      43.534  26.454  34.590  1.00  0.00     0.148 A 
ATOM     74  C   UNL A   1      45.908  27.403  35.730  1.00  0.00     0.002 A 
ATOM     75  C   UNL A   1      43.626  26.650  35.965  1.00  0.00     0.091 A 
ATOM     76  F   UNL A   1      42.374  26.074  34.038  1.00  0.00    -0.205 F 
ATOM     77  C   UNL A   1      44.807  27.140  36.539  1.00  0.00     0.022 A 
BRANCH  75  78
ATOM     78  S   UNL A   1      42.235  26.356  37.065  1.00  0.00     0.127 S 
ATOM     79  O   UNL A   1      42.873  26.397  38.381  1.00  0.00    -0.237 OA
ATOM     80  O   UNL A   1      41.368  27.492  36.767  1.00  0.00    -0.237 OA
ATOM     81  O   UNL A   1      41.712  25.045  36.698  1.00  0.00    -0.744 OA
ENDBRANCH  75  78
ENDBRANCH  47  71
BRANCH  59  82
ATOM     82  C   UNL A   1      45.315  29.284  28.043  1.00  0.00     0.023 A 
ATOM     83  C   UNL A   1      46.224  30.363  28.056  1.00  0.00     0.012 A 
ATOM     84  C   UNL A   1      45.784  28.008  27.694  1.00  0.00     0.148 A 
ATOM     85  C   UNL A   1      47.567  30.170  27.712  1.00  0.00     0.002 A 
ATOM     86  C   UNL A   1      47.127  27.810  27.400  1.00  0.00     0.091 A 
ATOM     87  F   UNL A   1      44.907  26.992  27.681  1.00  0.00    -0.205 F 
ATOM     88  C   UNL A   1      48.022  28.891  27.399  1.00  0.00     0.022 A 
BRANCH  86  89
ATOM     89  S   UNL A   1      47.787  26.168  27.111  1.00  0.00     0.127 S 
ATOM     90  O   UNL A   1      47.460  25.485  28.361  1.00  0.00    -0.237 OA
ATOM     91  O   UNL A   1      47.018  25.719  25.950  1.00  0.00    -0.237 OA
ATOM     92  O   UNL A   1      49.210  26.346  26.848  1.00  0.00    -0.744 OA
ENDBRANCH  86  89
ENDBRANCH  59  82
ENDBRANCH  33  34
ENDBRANCH  25  28
ENDBRANCH  23  24
ENDBRANCH   1  23
TORSDOF 16
ENDMDL
MODEL 2
REMARK VINA RESULT:     -11.8      2.070      2.412
REMARK SMILES CC(=O)c1nnn(-c2ccc(C(=O)NCCCCNC(=O)c3ccc(-c4c5nc(c(-c6cccc(S(=O)(=O)[O-])c6F)c6ccc([nH]6)c(-c6cccc(S(=O)(=O)[O-])c6F)c6nc(c(-c7cccc(S(=O)(=O)[O-])c7F)c7ccc4[nH]7)C=C6)C=C5)cc3)cc2)c1C
REMARK SMILES IDX 17 1 16 2 15 3 14 4 12 5 13 6 11 8 8 9 9 10 86 11 10 12
REMARK SMILES IDX 85 13 7 14 4 15 5 16 87 17 6 18 88 19 2 20 1 21 3 22 18 23
REMARK SMILES IDX 19 24 20 25 21 27 22 28 23 29 84 30 24 31 83 32 25 33 26 34
REMARK SMILES IDX 27 35 77 36 28 37 82 38 76 39 78 40 29 41 81 42 75 43 74 44
REMARK SMILES IDX 30 46 62 47 42 48 61 49 43 50 46 51 60 52 79 53 44 54 45 55
REMARK SMILES IDX 59 57 80 58 47 59 31 60 32 61 40 62 33 63 35 64 41 65 34 66
REMARK SMILES IDX 36 67 37 68 38 69 39 70 63 71 64 72 72 73 65 74 67 75 73 76
REMARK SMILES IDX 66 77 68 78 69 79 70 80 71 81 48 82 49 83 57 84 50 85 52 86
REMARK SMILES IDX 58 87 51 88 53 89 54 90 55 91 56 92
REMARK H PARENT 14 7 19 26 78 45 46 56
REMARK Flexibility Score: inf
ROOT
ATOM      1  C   UNL A   1      38.377  20.083  24.774  1.00  0.00     0.023 C 
ENDROOT
BRANCH   1   2
ATOM      2  C   UNL A   1      37.028  19.376  24.973  1.00  0.00     0.023 C 
BRANCH   2   3
ATOM      3  C   UNL A   1      35.800  20.297  24.972  1.00  0.00     0.116 C 
BRANCH   3   4
ATOM      4  N   UNL A   1      34.568  19.531  25.013  1.00  0.00    -0.352 N 
ATOM      5  C   UNL A   1      33.273  19.847  25.341  1.00  0.00     0.251 C 
ATOM      6  O   UNL A   1      32.435  18.946  25.315  1.00  0.00    -0.269 OA
ATOM      7  H   UNL A   1      34.685  18.589  24.752  1.00  0.00     0.163 HD
BRANCH   5   8
ATOM      8  C   UNL A   1      32.818  21.226  25.678  1.00  0.00     0.039 A 
ATOM      9  C   UNL A   1      32.094  23.900  26.053  1.00  0.00     0.067 A 
ATOM     10  C   UNL A   1      31.638  23.232  24.921  1.00  0.00     0.029 A 
ATOM     11  C   UNL A   1      32.803  23.221  27.049  1.00  0.00     0.029 A 
ATOM     12  C   UNL A   1      32.031  21.903  24.724  1.00  0.00     0.016 A 
ATOM     13  C   UNL A   1      33.120  21.877  26.876  1.00  0.00     0.016 A 
BRANCH   9  14
ATOM     14  N   UNL A   1      31.919  25.288  26.178  1.00  0.00    -0.217 N 
ATOM     15  C   UNL A   1      32.270  27.426  26.380  1.00  0.00     0.151 A 
ATOM     16  N   UNL A   1      31.077  27.104  26.982  1.00  0.00    -0.126 NA
ATOM     17  C   UNL A   1      32.812  26.283  25.815  1.00  0.00     0.073 A 
ATOM     18  N   UNL A   1      30.830  25.819  26.764  1.00  0.00    -0.061 NA
ATOM     19  C   UNL A   1      33.999  26.016  24.965  1.00  0.00     0.069 C 
BRANCH  15  20
ATOM     20  C   UNL A   1      32.771  28.795  26.377  1.00  0.00     0.181 C 
ATOM     21  C   UNL A   1      33.101  29.433  25.052  1.00  0.00     0.095 C 
ATOM     22  O   UNL A   1      32.904  29.435  27.420  1.00  0.00    -0.293 OA
ENDBRANCH  15  20
ENDBRANCH   9  14
ENDBRANCH   5   8
ENDBRANCH   3   4
ENDBRANCH   2   3
ENDBRANCH   1   2
BRANCH   1  23
ATOM     23  C   UNL A   1      39.267  20.126  26.012  1.00  0.00     0.116 C 
BRANCH  23  24
ATOM     24  N   UNL A   1      40.435  19.254  25.897  1.00  0.00    -0.352 N 
ATOM     25  C   UNL A   1      41.770  19.617  25.912  1.00  0.00     0.251 C 
ATOM     26  H   UNL A   1      40.249  18.293  25.796  1.00  0.00     0.163 HD
ATOM     27  O   UNL A   1      42.616  18.897  25.407  1.00  0.00    -0.269 OA
BRANCH  25  28
ATOM     28  C   UNL A   1      42.151  20.884  26.564  1.00  0.00     0.039 A 
ATOM     29  C   UNL A   1      42.417  22.027  25.810  1.00  0.00     0.014 A 
ATOM     30  C   UNL A   1      42.209  20.918  27.956  1.00  0.00     0.014 A 
ATOM     31  C   UNL A   1      42.655  23.225  26.479  1.00  0.00     0.010 A 
ATOM     32  C   UNL A   1      42.308  22.123  28.612  1.00  0.00     0.010 A 
ATOM     33  C   UNL A   1      42.567  23.275  27.883  1.00  0.00    -0.014 A 
BRANCH  33  34
ATOM     34  C   UNL A   1      42.569  24.570  28.564  1.00  0.00     0.031 A 
ATOM     35  C   UNL A   1      41.349  25.379  28.293  1.00  0.00     0.074 A 
ATOM     36  C   UNL A   1      43.479  24.956  29.487  1.00  0.00     0.049 A 
ATOM     37  N   UNL A   1      41.272  26.444  27.567  1.00  0.00    -0.248 NA
ATOM     38  C   UNL A   1      40.041  24.849  28.714  1.00  0.00     0.031 C 
ATOM     39  C   UNL A   1      44.555  24.160  30.088  1.00  0.00     0.029 A 
ATOM     40  N   UNL A   1      43.554  26.125  30.186  1.00  0.00    -0.354 N 
ATOM     41  C   UNL A   1      39.952  26.871  27.676  1.00  0.00     0.074 A 
ATOM     42  C   UNL A   1      39.208  25.752  28.188  1.00  0.00     0.031 C 
ATOM     43  C   UNL A   1      44.988  24.763  31.217  1.00  0.00     0.029 A 
ATOM     44  C   UNL A   1      44.349  26.059  31.331  1.00  0.00     0.049 A 
ATOM     45  H   UNL A   1      43.087  26.946  29.907  1.00  0.00     0.167 HD
ATOM     46  C   UNL A   1      39.646  28.196  27.617  1.00  0.00     0.034 A 
ATOM     47  C   UNL A   1      44.437  26.985  32.321  1.00  0.00     0.034 A 
ATOM     48  C   UNL A   1      40.725  28.963  27.041  1.00  0.00     0.049 A 
ATOM     49  C   UNL A   1      43.977  28.272  31.751  1.00  0.00     0.074 A 
ATOM     50  C   UNL A   1      41.456  28.882  25.871  1.00  0.00     0.029 A 
ATOM     51  N   UNL A   1      41.480  29.728  27.898  1.00  0.00    -0.354 N 
ATOM     52  N   UNL A   1      44.620  28.912  30.817  1.00  0.00    -0.248 NA
ATOM     53  C   UNL A   1      42.574  28.613  31.905  1.00  0.00     0.031 C 
ATOM     54  C   UNL A   1      42.801  29.143  26.267  1.00  0.00     0.029 A 
ATOM     55  C   UNL A   1      42.796  29.465  27.624  1.00  0.00     0.049 A 
ATOM     56  H   UNL A   1      41.138  30.348  28.581  1.00  0.00     0.167 HD
ATOM     57  C   UNL A   1      43.617  29.349  29.963  1.00  0.00     0.074 A 
ATOM     58  C   UNL A   1      42.379  29.222  30.732  1.00  0.00     0.031 C 
ATOM     59  C   UNL A   1      43.840  29.488  28.623  1.00  0.00     0.034 A 
BRANCH  46  60
ATOM     60  C   UNL A   1      38.557  28.850  28.437  1.00  0.00     0.023 A 
ATOM     61  C   UNL A   1      37.661  29.711  27.766  1.00  0.00     0.012 A 
ATOM     62  C   UNL A   1      38.535  28.881  29.851  1.00  0.00     0.148 A 
ATOM     63  C   UNL A   1      36.823  30.587  28.466  1.00  0.00     0.002 A 
ATOM     64  C   UNL A   1      37.634  29.682  30.542  1.00  0.00     0.091 A 
ATOM     65  F   UNL A   1      39.480  28.249  30.552  1.00  0.00    -0.205 F 
ATOM     66  C   UNL A   1      36.799  30.563  29.855  1.00  0.00     0.022 A 
BRANCH  64  67
ATOM     67  S   UNL A   1      37.520  29.637  32.334  1.00  0.00     0.127 S 
ATOM     68  O   UNL A   1      36.283  30.374  32.568  1.00  0.00    -0.237 OA
ATOM     69  O   UNL A   1      37.446  28.198  32.588  1.00  0.00    -0.237 OA
ATOM     70  O   UNL A   1      38.744  30.264  32.818  1.00  0.00    -0.744 OA
ENDBRANCH  64  67
ENDBRANCH  46  60
BRANCH  47  71
ATOM     71  C   UNL A   1      44.625  26.817  33.786  1.00  0.00     0.023 A 
ATOM     72  C   UNL A   1      45.798  27.310  34.398  1.00  0.00     0.012 A 
ATOM     73  C   UNL A   1      43.543  26.467  34.622  1.00  0.00     0.148 A 
ATOM     74  C   UNL A   1      45.871  27.498  35.784  1.00  0.00     0.002 A 
ATOM     75  C   UNL A   1      43.621  26.650  36.000  1.00  0.00     0.091 A 
ATOM     76  F   UNL A   1      42.402  26.047  34.060  1.00  0.00    -0.205 F 
ATOM     77  C   UNL A   1      44.778  27.181  36.585  1.00  0.00     0.022 A 
BRANCH  75  78
ATOM     78  S   UNL A   1      42.237  26.286  37.089  1.00  0.00     0.127 S 
ATOM     79  O   UNL A   1      42.871  26.322  38.407  1.00  0.00    -0.237 OA
ATOM     80  O   UNL A   1      41.333  27.399  36.812  1.00  0.00    -0.237 OA
ATOM     81  O   UNL A   1      41.760  24.966  36.693  1.00  0.00    -0.744 OA
ENDBRANCH  75  78
ENDBRANCH  47  71
BRANCH  59  82
ATOM     82  C   UNL A   1      45.258  29.429  28.112  1.00  0.00     0.023 A 
ATOM     83  C   UNL A   1      45.847  28.254  27.599  1.00  0.00     0.012 A 
ATOM     84  C   UNL A   1      45.955  30.643  27.993  1.00  0.00     0.148 A 
ATOM     85  C   UNL A   1      47.109  28.291  26.997  1.00  0.00     0.002 A 
ATOM     86  C   UNL A   1      47.185  30.685  27.351  1.00  0.00     0.091 A 
ATOM     87  F   UNL A   1      45.385  31.752  28.490  1.00  0.00    -0.205 F 
ATOM     88  C   UNL A   1      47.772  29.509  26.858  1.00  0.00     0.022 A 
BRANCH  86  89
ATOM     89  S   UNL A   1      48.021  32.240  27.038  1.00  0.00     0.127 S 
ATOM     90  O   UNL A   1      49.281  31.795  26.446  1.00  0.00    -0.237 OA
ATOM     91  O   UNL A   1      47.110  32.906  26.106  1.00  0.00    -0.237 OA
ATOM     92  O   UNL A   1      48.136  32.903  28.331  1.00  0.00    -0.744 OA
ENDBRANCH  86  89
ENDBRANCH  59  82
ENDBRANCH  33  34
ENDBRANCH  25  28
ENDBRANCH  23  24
ENDBRANCH   1  23
TORSDOF 16
ENDMDL
MODEL 3
REMARK VINA RESULT:     -11.6      2.988      8.197
REMARK SMILES CC(=O)c1nnn(-c2ccc(C(=O)NCCCCNC(=O)c3ccc(-c4c5nc(c(-c6cccc(S(=O)(=O)[O-])c6F)c6ccc([nH]6)c(-c6cccc(S(=O)(=O)[O-])c6F)c6nc(c(-c7cccc(S(=O)(=O)[O-])c7F)c7ccc4[nH]7)C=C6)C=C5)cc3)cc2)c1C
REMARK SMILES IDX 17 1 16 2 15 3 14 4 12 5 13 6 11 8 8 9 9 10 86 11 10 12
REMARK SMILES IDX 85 13 7 14 4 15 5 16 87 17 6 18 88 19 2 20 1 21 3 22 18 23
REMARK SMILES IDX 19 24 20 25 21 27 22 28 23 29 84 30 24 31 83 32 25 33 26 34
REMARK SMILES IDX 27 35 77 36 28 37 82 38 76 39 78 40 29 41 81 42 75 43 74 44
REMARK SMILES IDX 30 46 62 47 42 48 61 49 43 50 46 51 60 52 79 53 44 54 45 55
REMARK SMILES IDX 59 57 80 58 47 59 31 60 32 61 40 62 33 63 35 64 41 65 34 66
REMARK SMILES IDX 36 67 37 68 38 69 39 70 63 71 64 72 72 73 65 74 67 75 73 76
REMARK SMILES IDX 66 77 68 78 69 79 70 80 71 81 48 82 49 83 57 84 50 85 52 86
REMARK SMILES IDX 58 87 51 88 53 89 54 90 55 91 56 92
REMARK H PARENT 14 7 19 26 78 45 46 56
REMARK Flexibility Score: inf
ROOT
ATOM      1  C   UNL A   1      33.552  30.337  27.004  1.00  0.00     0.023 C 
ENDROOT
BRANCH   1   2
ATOM      2  C   UNL A   1      33.524  28.842  27.356  1.00  0.00     0.023 C 
BRANCH   2   3
ATOM      3  C   UNL A   1      33.511  27.887  26.155  1.00  0.00     0.116 C 
BRANCH   3   4
ATOM      4  N   UNL A   1      32.166  27.711  25.638  1.00  0.00    -0.352 N 
ATOM      5  C   UNL A   1      31.466  26.619  25.186  1.00  0.00     0.251 C 
ATOM      6  O   UNL A   1      30.325  26.800  24.764  1.00  0.00    -0.269 OA
ATOM      7  H   UNL A   1      31.647  28.547  25.604  1.00  0.00     0.163 HD
BRANCH   5   8
ATOM      8  C   UNL A   1      31.994  25.225  25.223  1.00  0.00     0.039 A 
ATOM      9  C   UNL A   1      32.764  22.541  25.100  1.00  0.00     0.067 A 
ATOM     10  C   UNL A   1      32.756  23.292  23.928  1.00  0.00     0.029 A 
ATOM     11  C   UNL A   1      32.509  23.139  26.337  1.00  0.00     0.029 A 
ATOM     12  C   UNL A   1      32.338  24.627  23.993  1.00  0.00     0.016 A 
ATOM     13  C   UNL A   1      32.171  24.488  26.395  1.00  0.00     0.016 A 
BRANCH   9  14
ATOM     14  N   UNL A   1      32.952  21.150  25.050  1.00  0.00    -0.217 N 
ATOM     15  C   UNL A   1      33.721  19.162  24.608  1.00  0.00     0.151 A 
ATOM     16  N   UNL A   1      32.363  19.088  24.813  1.00  0.00    -0.126 NA
ATOM     17  C   UNL A   1      34.134  20.471  24.799  1.00  0.00     0.073 A 
ATOM     18  N   UNL A   1      31.928  20.287  25.179  1.00  0.00    -0.061 NA
ATOM     19  C   UNL A   1      35.458  21.142  24.820  1.00  0.00     0.069 C 
BRANCH  15  20
ATOM     20  C   UNL A   1      34.501  17.978  24.275  1.00  0.00     0.181 C 
ATOM     21  C   UNL A   1      33.969  17.041  23.220  1.00  0.00     0.095 C 
ATOM     22  O   UNL A   1      35.583  17.746  24.816  1.00  0.00    -0.293 OA
ENDBRANCH  15  20
ENDBRANCH   9  14
ENDBRANCH   5   8
ENDBRANCH   3   4
ENDBRANCH   2   3
ENDBRANCH   1   2
BRANCH   1  23
ATOM     23  C   UNL A   1      34.815  31.074  27.437  1.00  0.00     0.116 C 
BRANCH  23  24
ATOM     24  N   UNL A   1      34.576  32.000  28.543  1.00  0.00    -0.352 N 
ATOM     25  C   UNL A   1      35.081  31.933  29.829  1.00  0.00     0.251 C 
ATOM     26  H   UNL A   1      33.983  32.761  28.351  1.00  0.00     0.163 HD
ATOM     27  O   UNL A   1      34.510  32.491  30.753  1.00  0.00    -0.269 OA
BRANCH  25  28
ATOM     28  C   UNL A   1      36.332  31.187  30.060  1.00  0.00     0.039 A 
ATOM     29  C   UNL A   1      36.334  29.794  30.135  1.00  0.00     0.014 A 
ATOM     30  C   UNL A   1      37.520  31.909  30.170  1.00  0.00     0.014 A 
ATOM     31  C   UNL A   1      37.556  29.134  30.234  1.00  0.00     0.010 A 
ATOM     32  C   UNL A   1      38.730  31.255  30.129  1.00  0.00     0.010 A 
ATOM     33  C   UNL A   1      38.757  29.869  30.198  1.00  0.00    -0.014 A 
BRANCH  33  34
ATOM     34  C   UNL A   1      40.032  29.167  30.051  1.00  0.00     0.031 A 
ATOM     35  C   UNL A   1      40.700  28.884  31.351  1.00  0.00     0.074 A 
ATOM     36  C   UNL A   1      40.505  28.658  28.890  1.00  0.00     0.049 A 
ATOM     37  N   UNL A   1      41.762  29.454  31.816  1.00  0.00    -0.248 NA
ATOM     38  C   UNL A   1      40.018  28.014  32.323  1.00  0.00     0.031 C 
ATOM     39  C   UNL A   1      39.827  28.581  27.592  1.00  0.00     0.029 A 
ATOM     40  N   UNL A   1      41.662  27.975  28.658  1.00  0.00    -0.354 N 
ATOM     41  C   UNL A   1      42.033  28.807  33.017  1.00  0.00     0.074 A 
ATOM     42  C   UNL A   1      40.828  28.111  33.381  1.00  0.00     0.031 C 
ATOM     43  C   UNL A   1      40.457  27.680  26.805  1.00  0.00     0.029 A 
ATOM     44  C   UNL A   1      41.669  27.245  27.470  1.00  0.00     0.049 A 
ATOM     45  H   UNL A   1      42.429  27.997  29.276  1.00  0.00     0.167 HD
ATOM     46  C   UNL A   1      43.315  28.659  33.450  1.00  0.00     0.034 A 
ATOM     47  C   UNL A   1      42.583  26.315  27.084  1.00  0.00     0.034 A 
ATOM     48  C   UNL A   1      44.209  29.567  32.772  1.00  0.00     0.049 A 
ATOM     49  C   UNL A   1      43.817  26.578  27.858  1.00  0.00     0.074 A 
ATOM     50  C   UNL A   1      44.232  30.934  32.566  1.00  0.00     0.029 A 
ATOM     51  N   UNL A   1      45.041  29.034  31.817  1.00  0.00    -0.354 N 
ATOM     52  N   UNL A   1      44.542  27.650  27.708  1.00  0.00    -0.248 NA
ATOM     53  C   UNL A   1      43.993  25.862  29.109  1.00  0.00     0.031 C 
ATOM     54  C   UNL A   1      44.638  31.087  31.207  1.00  0.00     0.029 A 
ATOM     55  C   UNL A   1      44.936  29.822  30.701  1.00  0.00     0.049 A 
ATOM     56  H   UNL A   1      45.608  28.235  31.916  1.00  0.00     0.167 HD
ATOM     57  C   UNL A   1      44.875  28.009  29.006  1.00  0.00     0.074 A 
ATOM     58  C   UNL A   1      44.595  26.822  29.815  1.00  0.00     0.031 C 
ATOM     59  C   UNL A   1      45.061  29.317  29.353  1.00  0.00     0.034 A 
BRANCH  46  60
ATOM     60  C   UNL A   1      43.826  27.437  34.179  1.00  0.00     0.023 A 
ATOM     61  C   UNL A   1      43.916  26.231  33.450  1.00  0.00     0.012 A 
ATOM     62  C   UNL A   1      43.957  27.345  35.584  1.00  0.00     0.148 A 
ATOM     63  C   UNL A   1      44.082  24.998  34.090  1.00  0.00     0.002 A 
ATOM     64  C   UNL A   1      44.217  26.131  36.207  1.00  0.00     0.091 A 
ATOM     65  F   UNL A   1      43.688  28.402  36.354  1.00  0.00    -0.205 F 
ATOM     66  C   UNL A   1      44.246  24.948  35.468  1.00  0.00     0.022 A 
BRANCH  64  67
ATOM     67  S   UNL A   1      44.502  26.027  37.978  1.00  0.00     0.127 S 
ATOM     68  O   UNL A   1      45.665  26.895  38.139  1.00  0.00    -0.237 OA
ATOM     69  O   UNL A   1      43.248  26.561  38.510  1.00  0.00    -0.237 OA
ATOM     70  O   UNL A   1      44.713  24.611  38.257  1.00  0.00    -0.744 OA
ENDBRANCH  64  67
ENDBRANCH  46  60
BRANCH  47  71
ATOM     71  C   UNL A   1      42.413  25.058  26.311  1.00  0.00     0.023 A 
ATOM     72  C   UNL A   1      43.380  24.698  25.347  1.00  0.00     0.012 A 
ATOM     73  C   UNL A   1      41.496  24.069  26.725  1.00  0.00     0.148 A 
ATOM     74  C   UNL A   1      43.464  23.389  24.855  1.00  0.00     0.002 A 
ATOM     75  C   UNL A   1      41.579  22.770  26.230  1.00  0.00     0.091 A 
ATOM     76  F   UNL A   1      40.604  24.373  27.677  1.00  0.00    -0.205 F 
ATOM     77  C   UNL A   1      42.572  22.420  25.307  1.00  0.00     0.022 A 
BRANCH  75  78
ATOM     78  S   UNL A   1      40.476  21.465  26.790  1.00  0.00     0.127 S 
ATOM     79  O   UNL A   1      40.981  20.305  26.054  1.00  0.00    -0.237 OA
ATOM     80  O   UNL A   1      40.738  21.443  28.226  1.00  0.00    -0.237 OA
ATOM     81  O   UNL A   1      39.137  21.883  26.394  1.00  0.00    -0.744 OA
ENDBRANCH  75  78
ENDBRANCH  47  71
BRANCH  59  82
ATOM     82  C   UNL A   1      45.174  30.349  28.259  1.00  0.00     0.023 A 
ATOM     83  C   UNL A   1      44.054  30.925  27.621  1.00  0.00     0.012 A 
ATOM     84  C   UNL A   1      46.449  30.874  27.991  1.00  0.00     0.148 A 
ATOM     85  C   UNL A   1      44.210  31.987  26.724  1.00  0.00     0.002 A 
ATOM     86  C   UNL A   1      46.595  31.961  27.139  1.00  0.00     0.091 A 
ATOM     87  F   UNL A   1      47.505  30.314  28.602  1.00  0.00    -0.205 F 
ATOM     88  C   UNL A   1      45.479  32.516  26.495  1.00  0.00     0.022 A 
BRANCH  86  89
ATOM     89  S   UNL A   1      48.186  32.755  26.905  1.00  0.00     0.127 S 
ATOM     90  O   UNL A   1      49.029  31.633  26.496  1.00  0.00    -0.237 OA
ATOM     91  O   UNL A   1      47.901  33.725  25.847  1.00  0.00    -0.237 OA
ATOM     92  O   UNL A   1      48.526  33.359  28.188  1.00  0.00    -0.744 OA
ENDBRANCH  86  89
ENDBRANCH  59  82
ENDBRANCH  33  34
ENDBRANCH  25  28
ENDBRANCH  23  24
ENDBRANCH   1  23
TORSDOF 16
ENDMDL
