MODEL 1
REMARK VINA RESULT:     -13.2      0.000      0.000
REMARK SMILES O=C(NCCCCNC(=O)c1ccc(-c2c3nc(c(-c4cccc(S(=O)(=O)[O-])c4F)c4ccc([nH]4)c(-c4cccc(S(=O)(=O)[O-])c4F)c4nc(c(-c5cccc(S(=O)(=O)[O-])c5F)c5ccc2[nH]5)C=C4)C=C3)cc1)c1ccc(C[C@H]2SC(=O)N(c3ccccc3)C2=O)cc1
REMARK SMILES IDX 5 1 4 2 3 3 1 4 2 5 74 7 75 8 93 9 76 10 92 11 77 12 78 13
REMARK SMILES IDX 79 14 80 15 90 16 81 17 83 18 91 19 82 20 84 21 85 22 89 23
REMARK SMILES IDX 86 24 88 25 87 26 6 27 7 28 8 29 9 30 10 32 11 33 12 34
REMARK SMILES IDX 73 35 13 36 72 37 14 38 15 39 16 40 66 41 17 42 71 43 65 44
REMARK SMILES IDX 67 45 18 46 70 47 64 48 63 49 19 51 51 52 31 53 50 54 32 55
REMARK SMILES IDX 35 56 49 57 68 58 33 59 34 60 48 62 69 63 36 64 20 65 21 66
REMARK SMILES IDX 29 67 22 68 24 69 30 70 23 71 25 72 26 73 27 74 28 75 52 76
REMARK SMILES IDX 53 77 61 78 54 79 56 80 62 81 55 82 57 83 58 84 59 85 60 86
REMARK SMILES IDX 37 87 38 88 46 89 39 90 41 91 47 92 40 93 42 94 43 95 44 96
REMARK SMILES IDX 45 97
REMARK H PARENT 3 6 8 31 67 50 35 61
REMARK Flexibility Score: inf
ROOT
ATOM      1  C   UNL A   1      32.884  29.102  24.452  1.00  0.00     0.023 C 
ENDROOT
BRANCH   1   2
ATOM      2  C   UNL A   1      32.838  29.265  22.937  1.00  0.00     0.116 C 
BRANCH   2   3
ATOM      3  N   UNL A   1      31.518  29.634  22.447  1.00  0.00    -0.352 N 
ATOM      4  O   UNL A   1      29.386  29.258  21.763  1.00  0.00    -0.269 OA
ATOM      5  C   UNL A   1      30.404  28.840  22.300  1.00  0.00     0.251 C 
ATOM      6  H   UNL A   1      31.407  30.576  22.185  1.00  0.00     0.163 HD
BRANCH   5   7
ATOM      7  C   UNL A   1      30.459  27.445  22.777  1.00  0.00     0.039 A 
ATOM      8  C   UNL A   1      29.735  27.061  23.906  1.00  0.00     0.014 A 
ATOM      9  C   UNL A   1      31.283  26.533  22.117  1.00  0.00     0.014 A 
ATOM     10  C   UNL A   1      29.923  25.789  24.441  1.00  0.00     0.004 A 
ATOM     11  C   UNL A   1      31.478  25.262  22.663  1.00  0.00     0.004 A 
ATOM     12  C   UNL A   1      30.834  24.895  23.855  1.00  0.00    -0.046 A 
BRANCH  12  13
ATOM     13  C   UNL A   1      31.143  23.575  24.527  1.00  0.00     0.060 C 
BRANCH  13  14
ATOM     14  C   UNL A   1      32.649  23.280  24.683  1.00  0.00     0.151 C 
ATOM     15  S   UNL A   1      33.148  22.938  26.393  1.00  0.00    -0.050 SA
ATOM     16  C   UNL A   1      32.990  22.008  23.927  1.00  0.00     0.248 C 
ATOM     17  C   UNL A   1      33.202  21.211  26.131  1.00  0.00     0.293 C 
ATOM     18  N   UNL A   1      33.191  20.933  24.782  1.00  0.00    -0.240 N 
ATOM     19  O   UNL A   1      32.975  21.974  22.698  1.00  0.00    -0.273 OA
ATOM     20  O   UNL A   1      33.289  20.443  27.072  1.00  0.00    -0.261 OA
BRANCH  18  21
ATOM     21  C   UNL A   1      33.393  19.609  24.302  1.00  0.00     0.053 A 
ATOM     22  C   UNL A   1      32.442  18.992  23.476  1.00  0.00     0.027 A 
ATOM     23  C   UNL A   1      34.558  18.895  24.626  1.00  0.00     0.027 A 
ATOM     24  C   UNL A   1      32.660  17.707  22.972  1.00  0.00     0.002 A 
ATOM     25  C   UNL A   1      34.758  17.596  24.152  1.00  0.00     0.002 A 
ATOM     26  C   UNL A   1      33.812  17.006  23.318  1.00  0.00     0.000 A 
ENDBRANCH  18  21
ENDBRANCH  13  14
ENDBRANCH  12  13
ENDBRANCH   5   7
ENDBRANCH   2   3
ENDBRANCH   1   2
BRANCH   1  27
ATOM     27  C   UNL A   1      31.802  29.858  25.221  1.00  0.00     0.023 C 
BRANCH  27  28
ATOM     28  C   UNL A   1      32.180  30.278  26.637  1.00  0.00     0.116 C 
BRANCH  28  29
ATOM     29  N   UNL A   1      32.202  31.723  26.819  1.00  0.00    -0.352 N 
ATOM     30  C   UNL A   1      33.138  32.505  27.457  1.00  0.00     0.251 C 
ATOM     31  H   UNL A   1      31.440  32.209  26.430  1.00  0.00     0.163 HD
ATOM     32  O   UNL A   1      32.923  33.702  27.629  1.00  0.00    -0.269 OA
BRANCH  30  33
ATOM     33  C   UNL A   1      34.384  31.893  27.967  1.00  0.00     0.039 A 
ATOM     34  C   UNL A   1      35.512  32.698  28.143  1.00  0.00     0.014 A 
ATOM     35  C   UNL A   1      34.429  30.538  28.304  1.00  0.00     0.014 A 
ATOM     36  C   UNL A   1      36.658  32.163  28.736  1.00  0.00     0.010 A 
ATOM     37  C   UNL A   1      35.541  30.029  28.971  1.00  0.00     0.010 A 
ATOM     38  C   UNL A   1      36.666  30.836  29.198  1.00  0.00    -0.014 A 
BRANCH  38  39
ATOM     39  C   UNL A   1      37.827  30.284  29.946  1.00  0.00     0.031 A 
ATOM     40  C   UNL A   1      38.115  30.742  31.351  1.00  0.00     0.074 A 
ATOM     41  C   UNL A   1      38.677  29.438  29.328  1.00  0.00     0.049 A 
ATOM     42  N   UNL A   1      39.116  30.425  32.132  1.00  0.00    -0.248 NA
ATOM     43  C   UNL A   1      37.170  31.700  31.948  1.00  0.00     0.031 C 
ATOM     44  C   UNL A   1      38.552  28.973  27.945  1.00  0.00     0.029 A 
ATOM     45  N   UNL A   1      39.830  28.839  29.774  1.00  0.00    -0.354 N 
ATOM     46  C   UNL A   1      38.940  31.166  33.294  1.00  0.00     0.074 A 
ATOM     47  C   UNL A   1      37.757  31.976  33.103  1.00  0.00     0.031 C 
ATOM     48  C   UNL A   1      39.578  28.156  27.659  1.00  0.00     0.029 A 
ATOM     49  C   UNL A   1      40.457  28.071  28.820  1.00  0.00     0.049 A 
ATOM     50  H   UNL A   1      40.174  28.948  30.690  1.00  0.00     0.167 HD
ATOM     51  C   UNL A   1      39.680  31.155  34.429  1.00  0.00     0.034 A 
ATOM     52  C   UNL A   1      41.618  27.387  28.867  1.00  0.00     0.034 A 
ATOM     53  C   UNL A   1      40.839  30.327  34.628  1.00  0.00     0.049 A 
ATOM     54  C   UNL A   1      42.414  27.383  30.145  1.00  0.00     0.074 A 
ATOM     55  C   UNL A   1      41.607  30.185  35.771  1.00  0.00     0.029 A 
ATOM     56  N   UNL A   1      41.407  29.512  33.661  1.00  0.00    -0.354 N 
ATOM     57  N   UNL A   1      42.149  27.973  31.285  1.00  0.00    -0.248 NA
ATOM     58  C   UNL A   1      43.653  26.592  30.153  1.00  0.00     0.031 C 
ATOM     59  C   UNL A   1      42.662  29.313  35.483  1.00  0.00     0.029 A 
ATOM     60  C   UNL A   1      42.525  28.876  34.175  1.00  0.00     0.049 A 
ATOM     61  H   UNL A   1      41.065  29.401  32.745  1.00  0.00     0.167 HD
ATOM     62  C   UNL A   1      43.165  27.595  32.156  1.00  0.00     0.074 A 
ATOM     63  C   UNL A   1      44.039  26.708  31.417  1.00  0.00     0.031 C 
ATOM     64  C   UNL A   1      43.360  27.957  33.447  1.00  0.00     0.034 A 
BRANCH  51  65
ATOM     65  C   UNL A   1      39.235  32.039  35.566  1.00  0.00     0.023 A 
ATOM     66  C   UNL A   1      38.361  31.527  36.548  1.00  0.00     0.012 A 
ATOM     67  C   UNL A   1      39.728  33.352  35.699  1.00  0.00     0.148 A 
ATOM     68  C   UNL A   1      37.956  32.318  37.622  1.00  0.00     0.002 A 
ATOM     69  C   UNL A   1      39.360  34.118  36.798  1.00  0.00     0.091 A 
ATOM     70  F   UNL A   1      40.545  33.828  34.748  1.00  0.00    -0.205 F 
ATOM     71  C   UNL A   1      38.463  33.608  37.753  1.00  0.00     0.022 A 
BRANCH  69  72
ATOM     72  S   UNL A   1      40.021  35.759  37.106  1.00  0.00     0.127 S 
ATOM     73  O   UNL A   1      39.645  36.463  35.880  1.00  0.00    -0.237 OA
ATOM     74  O   UNL A   1      39.280  36.170  38.298  1.00  0.00    -0.237 OA
ATOM     75  O   UNL A   1      41.452  35.585  37.309  1.00  0.00    -0.744 OA
ENDBRANCH  69  72
ENDBRANCH  51  65
BRANCH  52  76
ATOM     76  C   UNL A   1      42.075  26.604  27.683  1.00  0.00     0.023 A 
ATOM     77  C   UNL A   1      42.838  27.241  26.685  1.00  0.00     0.012 A 
ATOM     78  C   UNL A   1      41.770  25.236  27.547  1.00  0.00     0.148 A 
ATOM     79  C   UNL A   1      43.258  26.539  25.554  1.00  0.00     0.002 A 
ATOM     80  C   UNL A   1      42.241  24.529  26.447  1.00  0.00     0.091 A 
ATOM     81  F   UNL A   1      41.036  24.651  28.504  1.00  0.00    -0.205 F 
ATOM     82  C   UNL A   1      42.967  25.183  25.439  1.00  0.00     0.022 A 
BRANCH  80  83
ATOM     83  S   UNL A   1      42.027  22.754  26.276  1.00  0.00     0.127 S 
ATOM     84  O   UNL A   1      42.653  22.500  24.981  1.00  0.00    -0.237 OA
ATOM     85  O   UNL A   1      42.770  22.250  27.431  1.00  0.00    -0.237 OA
ATOM     86  O   UNL A   1      40.590  22.522  26.339  1.00  0.00    -0.744 OA
ENDBRANCH  80  83
ENDBRANCH  52  76
BRANCH  64  87
ATOM     87  C   UNL A   1      44.541  27.363  34.172  1.00  0.00     0.023 A 
ATOM     88  C   UNL A   1      45.781  28.031  34.172  1.00  0.00     0.012 A 
ATOM     89  C   UNL A   1      44.396  26.177  34.920  1.00  0.00     0.148 A 
ATOM     90  C   UNL A   1      46.867  27.511  34.876  1.00  0.00     0.002 A 
ATOM     91  C   UNL A   1      45.466  25.694  35.662  1.00  0.00     0.091 A 
ATOM     92  F   UNL A   1      43.212  25.547  34.894  1.00  0.00    -0.205 F 
ATOM     93  C   UNL A   1      46.705  26.351  35.630  1.00  0.00     0.022 A 
BRANCH  91  94
ATOM     94  S   UNL A   1      45.325  24.265  36.741  1.00  0.00     0.127 S 
ATOM     95  O   UNL A   1      46.713  24.067  37.155  1.00  0.00    -0.237 OA
ATOM     96  O   UNL A   1      44.439  24.760  37.795  1.00  0.00    -0.237 OA
ATOM     97  O   UNL A   1      44.762  23.196  35.927  1.00  0.00    -0.744 OA
ENDBRANCH  91  94
ENDBRANCH  64  87
ENDBRANCH  38  39
ENDBRANCH  30  33
ENDBRANCH  28  29
ENDBRANCH  27  28
ENDBRANCH   1  27
TORSDOF 17
ENDMDL
MODEL 2
REMARK VINA RESULT:     -12.9      1.996      2.674
REMARK SMILES O=C(NCCCCNC(=O)c1ccc(-c2c3nc(c(-c4cccc(S(=O)(=O)[O-])c4F)c4ccc([nH]4)c(-c4cccc(S(=O)(=O)[O-])c4F)c4nc(c(-c5cccc(S(=O)(=O)[O-])c5F)c5ccc2[nH]5)C=C4)C=C3)cc1)c1ccc(C[C@H]2SC(=O)N(c3ccccc3)C2=O)cc1
REMARK SMILES IDX 5 1 4 2 3 3 1 4 2 5 74 7 75 8 93 9 76 10 92 11 77 12 78 13
REMARK SMILES IDX 79 14 80 15 90 16 81 17 83 18 91 19 82 20 84 21 85 22 89 23
REMARK SMILES IDX 86 24 88 25 87 26 6 27 7 28 8 29 9 30 10 32 11 33 12 34
REMARK SMILES IDX 73 35 13 36 72 37 14 38 15 39 16 40 66 41 17 42 71 43 65 44
REMARK SMILES IDX 67 45 18 46 70 47 64 48 63 49 19 51 51 52 31 53 50 54 32 55
REMARK SMILES IDX 35 56 49 57 68 58 33 59 34 60 48 62 69 63 36 64 20 65 21 66
REMARK SMILES IDX 29 67 22 68 24 69 30 70 23 71 25 72 26 73 27 74 28 75 52 76
REMARK SMILES IDX 53 77 61 78 54 79 56 80 62 81 55 82 57 83 58 84 59 85 60 86
REMARK SMILES IDX 37 87 38 88 46 89 39 90 41 91 47 92 40 93 42 94 43 95 44 96
REMARK SMILES IDX 45 97
REMARK H PARENT 3 6 8 31 67 50 35 61
REMARK Flexibility Score: inf
ROOT
ATOM      1  C   UNL A   1      31.815  30.160  26.604  1.00  0.00     0.023 C 
ENDROOT
BRANCH   1   2
ATOM      2  C   UNL A   1      32.062  29.495  25.254  1.00  0.00     0.116 C 
BRANCH   2   3
ATOM      3  N   UNL A   1      31.086  29.881  24.245  1.00  0.00    -0.352 N 
ATOM      4  O   UNL A   1      29.660  29.544  22.511  1.00  0.00    -0.269 OA
ATOM      5  C   UNL A   1      30.365  29.074  23.395  1.00  0.00     0.251 C 
ATOM      6  H   UNL A   1      30.920  30.847  24.159  1.00  0.00     0.163 HD
BRANCH   5   7
ATOM      7  C   UNL A   1      30.476  27.611  23.542  1.00  0.00     0.039 A 
ATOM      8  C   UNL A   1      29.820  26.959  24.588  1.00  0.00     0.014 A 
ATOM      9  C   UNL A   1      31.283  26.897  22.656  1.00  0.00     0.014 A 
ATOM     10  C   UNL A   1      30.063  25.607  24.813  1.00  0.00     0.004 A 
ATOM     11  C   UNL A   1      31.534  25.543  22.892  1.00  0.00     0.004 A 
ATOM     12  C   UNL A   1      30.961  24.897  23.998  1.00  0.00    -0.046 A 
BRANCH  12  13
ATOM     13  C   UNL A   1      31.334  23.471  24.341  1.00  0.00     0.060 C 
BRANCH  13  14
ATOM     14  C   UNL A   1      32.801  23.108  24.035  1.00  0.00     0.151 C 
ATOM     15  S   UNL A   1      33.929  23.420  25.421  1.00  0.00    -0.050 SA
ATOM     16  C   UNL A   1      32.906  21.613  23.791  1.00  0.00     0.248 C 
ATOM     17  C   UNL A   1      33.983  21.734  25.879  1.00  0.00     0.293 C 
ATOM     18  N   UNL A   1      33.479  20.949  24.866  1.00  0.00    -0.240 N 
ATOM     19  O   UNL A   1      32.429  21.098  22.780  1.00  0.00    -0.273 OA
ATOM     20  O   UNL A   1      34.464  21.396  26.944  1.00  0.00    -0.261 OA
BRANCH  18  21
ATOM     21  C   UNL A   1      33.562  19.529  24.924  1.00  0.00     0.053 A 
ATOM     22  C   UNL A   1      34.679  18.854  24.412  1.00  0.00     0.027 A 
ATOM     23  C   UNL A   1      32.538  18.772  25.515  1.00  0.00     0.027 A 
ATOM     24  C   UNL A   1      34.778  17.463  24.507  1.00  0.00     0.002 A 
ATOM     25  C   UNL A   1      32.620  17.379  25.575  1.00  0.00     0.002 A 
ATOM     26  C   UNL A   1      33.745  16.725  25.079  1.00  0.00     0.000 A 
ENDBRANCH  18  21
ENDBRANCH  13  14
ENDBRANCH  12  13
ENDBRANCH   5   7
ENDBRANCH   2   3
ENDBRANCH   1   2
BRANCH   1  27
ATOM     27  C   UNL A   1      31.757  31.685  26.576  1.00  0.00     0.023 C 
BRANCH  27  28
ATOM     28  C   UNL A   1      32.877  32.395  27.328  1.00  0.00     0.116 C 
BRANCH  28  29
ATOM     29  N   UNL A   1      32.557  33.776  27.664  1.00  0.00    -0.352 N 
ATOM     30  C   UNL A   1      33.108  34.587  28.630  1.00  0.00     0.251 C 
ATOM     31  H   UNL A   1      31.846  34.188  27.122  1.00  0.00     0.163 HD
ATOM     32  O   UNL A   1      32.618  35.689  28.859  1.00  0.00    -0.269 OA
BRANCH  30  33
ATOM     33  C   UNL A   1      34.267  34.111  29.416  1.00  0.00     0.039 A 
ATOM     34  C   UNL A   1      34.040  33.396  30.595  1.00  0.00     0.014 A 
ATOM     35  C   UNL A   1      35.573  34.338  28.973  1.00  0.00     0.014 A 
ATOM     36  C   UNL A   1      35.120  32.838  31.284  1.00  0.00     0.010 A 
ATOM     37  C   UNL A   1      36.638  33.709  29.613  1.00  0.00     0.010 A 
ATOM     38  C   UNL A   1      36.423  32.949  30.773  1.00  0.00    -0.014 A 
BRANCH  38  39
ATOM     39  C   UNL A   1      37.570  32.255  31.418  1.00  0.00     0.031 A 
ATOM     40  C   UNL A   1      38.133  32.762  32.718  1.00  0.00     0.074 A 
ATOM     41  C   UNL A   1      38.164  31.222  30.786  1.00  0.00     0.049 A 
ATOM     42  N   UNL A   1      39.168  32.331  33.392  1.00  0.00    -0.248 NA
ATOM     43  C   UNL A   1      37.462  33.921  33.330  1.00  0.00     0.031 C 
ATOM     44  C   UNL A   1      37.762  30.679  29.487  1.00  0.00     0.029 A 
ATOM     45  N   UNL A   1      39.251  30.460  31.139  1.00  0.00    -0.354 N 
ATOM     46  C   UNL A   1      39.292  33.181  34.484  1.00  0.00     0.074 A 
ATOM     47  C   UNL A   1      38.249  34.176  34.365  1.00  0.00     0.031 C 
ATOM     48  C   UNL A   1      38.583  29.669  29.156  1.00  0.00     0.029 A 
ATOM     49  C   UNL A   1      39.594  29.517  30.197  1.00  0.00     0.049 A 
ATOM     50  H   UNL A   1      39.739  30.576  31.986  1.00  0.00     0.167 HD
ATOM     51  C   UNL A   1      40.177  33.125  35.509  1.00  0.00     0.034 A 
ATOM     52  C   UNL A   1      40.616  28.638  30.164  1.00  0.00     0.034 A 
ATOM     53  C   UNL A   1      41.194  32.117  35.641  1.00  0.00     0.049 A 
ATOM     54  C   UNL A   1      41.577  28.590  31.321  1.00  0.00     0.074 A 
ATOM     55  C   UNL A   1      42.085  31.929  36.683  1.00  0.00     0.029 A 
ATOM     56  N   UNL A   1      41.469  31.138  34.699  1.00  0.00    -0.354 N 
ATOM     57  N   UNL A   1      41.585  29.307  32.419  1.00  0.00    -0.248 NA
ATOM     58  C   UNL A   1      42.652  27.590  31.251  1.00  0.00     0.031 C 
ATOM     59  C   UNL A   1      42.924  30.858  36.354  1.00  0.00     0.029 A 
ATOM     60  C   UNL A   1      42.525  30.352  35.127  1.00  0.00     0.049 A 
ATOM     61  H   UNL A   1      40.984  31.019  33.851  1.00  0.00     0.167 HD
ATOM     62  C   UNL A   1      42.638  28.820  33.185  1.00  0.00     0.074 A 
ATOM     63  C   UNL A   1      43.232  27.733  32.435  1.00  0.00     0.031 C 
ATOM     64  C   UNL A   1      43.078  29.242  34.396  1.00  0.00     0.034 A 
BRANCH  51  65
ATOM     65  C   UNL A   1      40.058  34.162  36.596  1.00  0.00     0.023 A 
ATOM     66  C   UNL A   1      40.396  35.504  36.322  1.00  0.00     0.012 A 
ATOM     67  C   UNL A   1      39.553  33.825  37.867  1.00  0.00     0.148 A 
ATOM     68  C   UNL A   1      40.269  36.485  37.304  1.00  0.00     0.002 A 
ATOM     69  C   UNL A   1      39.383  34.816  38.826  1.00  0.00     0.091 A 
ATOM     70  F   UNL A   1      39.252  32.541  38.115  1.00  0.00    -0.205 F 
ATOM     71  C   UNL A   1      39.753  36.143  38.551  1.00  0.00     0.022 A 
BRANCH  69  72
ATOM     72  S   UNL A   1      38.648  34.498  40.433  1.00  0.00     0.127 S 
ATOM     73  O   UNL A   1      39.733  33.796  41.119  1.00  0.00    -0.237 OA
ATOM     74  O   UNL A   1      38.389  35.850  40.926  1.00  0.00    -0.237 OA
ATOM     75  O   UNL A   1      37.454  33.703  40.181  1.00  0.00    -0.744 OA
ENDBRANCH  69  72
ENDBRANCH  51  65
BRANCH  52  76
ATOM     76  C   UNL A   1      40.756  27.694  29.018  1.00  0.00     0.023 A 
ATOM     77  C   UNL A   1      39.964  26.530  28.980  1.00  0.00     0.012 A 
ATOM     78  C   UNL A   1      41.656  27.948  27.966  1.00  0.00     0.148 A 
ATOM     79  C   UNL A   1      40.092  25.617  27.933  1.00  0.00     0.002 A 
ATOM     80  C   UNL A   1      41.737  27.063  26.896  1.00  0.00     0.091 A 
ATOM     81  F   UNL A   1      42.407  29.057  28.026  1.00  0.00    -0.205 F 
ATOM     82  C   UNL A   1      40.971  25.887  26.887  1.00  0.00     0.022 A 
BRANCH  80  83
ATOM     83  S   UNL A   1      42.744  27.391  25.446  1.00  0.00     0.127 S 
ATOM     84  O   UNL A   1      44.064  27.595  26.038  1.00  0.00    -0.237 OA
ATOM     85  O   UNL A   1      42.594  26.149  24.689  1.00  0.00    -0.237 OA
ATOM     86  O   UNL A   1      42.151  28.559  24.809  1.00  0.00    -0.744 OA
ENDBRANCH  80  83
ENDBRANCH  52  76
BRANCH  64  87
ATOM     87  C   UNL A   1      44.233  28.501  35.020  1.00  0.00     0.023 A 
ATOM     88  C   UNL A   1      45.557  28.828  34.667  1.00  0.00     0.012 A 
ATOM     89  C   UNL A   1      44.004  27.532  36.017  1.00  0.00     0.148 A 
ATOM     90  C   UNL A   1      46.633  28.178  35.270  1.00  0.00     0.002 A 
ATOM     91  C   UNL A   1      45.081  26.927  36.653  1.00  0.00     0.091 A 
ATOM     92  F   UNL A   1      42.736  27.223  36.328  1.00  0.00    -0.205 F 
ATOM     93  C   UNL A   1      46.396  27.239  36.271  1.00  0.00     0.022 A 
BRANCH  91  94
ATOM     94  S   UNL A   1      44.876  25.780  38.020  1.00  0.00     0.127 S 
ATOM     95  O   UNL A   1      44.151  26.600  38.989  1.00  0.00    -0.237 OA
ATOM     96  O   UNL A   1      44.084  24.712  37.410  1.00  0.00    -0.237 OA
ATOM     97  O   UNL A   1      46.219  25.385  38.422  1.00  0.00    -0.744 OA
ENDBRANCH  91  94
ENDBRANCH  64  87
ENDBRANCH  38  39
ENDBRANCH  30  33
ENDBRANCH  28  29
ENDBRANCH  27  28
ENDBRANCH   1  27
TORSDOF 17
ENDMDL
MODEL 3
REMARK VINA RESULT:     -12.7      2.188      7.718
REMARK SMILES O=C(NCCCCNC(=O)c1ccc(-c2c3nc(c(-c4cccc(S(=O)(=O)[O-])c4F)c4ccc([nH]4)c(-c4cccc(S(=O)(=O)[O-])c4F)c4nc(c(-c5cccc(S(=O)(=O)[O-])c5F)c5ccc2[nH]5)C=C4)C=C3)cc1)c1ccc(C[C@H]2SC(=O)N(c3ccccc3)C2=O)cc1
REMARK SMILES IDX 5 1 4 2 3 3 1 4 2 5 74 7 75 8 93 9 76 10 92 11 77 12 78 13
REMARK SMILES IDX 79 14 80 15 90 16 81 17 83 18 91 19 82 20 84 21 85 22 89 23
REMARK SMILES IDX 86 24 88 25 87 26 6 27 7 28 8 29 9 30 10 32 11 33 12 34
REMARK SMILES IDX 73 35 13 36 72 37 14 38 15 39 16 40 66 41 17 42 71 43 65 44
REMARK SMILES IDX 67 45 18 46 70 47 64 48 63 49 19 51 51 52 31 53 50 54 32 55
REMARK SMILES IDX 35 56 49 57 68 58 33 59 34 60 48 62 69 63 36 64 20 65 21 66
REMARK SMILES IDX 29 67 22 68 24 69 30 70 23 71 25 72 26 73 27 74 28 75 52 76
REMARK SMILES IDX 53 77 61 78 54 79 56 80 62 81 55 82 57 83 58 84 59 85 60 86
REMARK SMILES IDX 37 87 38 88 46 89 39 90 41 91 47 92 40 93 42 94 43 95 44 96
REMARK SMILES IDX 45 97
REMARK H PARENT 3 6 8 31 67 50 35 61
REMARK Flexibility Score: inf
ROOT
ATOM      1  C   UNL A   1      31.777  30.365  26.717  1.00  0.00     0.023 C 
ENDROOT
BRANCH   1   2
ATOM      2  C   UNL A   1      31.767  29.558  25.423  1.00  0.00     0.116 C 
BRANCH   2   3
ATOM      3  N   UNL A   1      30.816  30.067  24.445  1.00  0.00    -0.352 N 
ATOM      4  O   UNL A   1      29.447  29.954  22.639  1.00  0.00    -0.269 OA
ATOM      5  C   UNL A   1      30.131  29.376  23.473  1.00  0.00     0.251 C 
ATOM      6  H   UNL A   1      30.640  31.034  24.484  1.00  0.00     0.163 HD
BRANCH   5   7
ATOM      7  C   UNL A   1      30.255  27.907  23.427  1.00  0.00     0.039 A 
ATOM      8  C   UNL A   1      29.619  27.118  24.386  1.00  0.00     0.014 A 
ATOM      9  C   UNL A   1      31.056  27.323  22.445  1.00  0.00     0.014 A 
ATOM     10  C   UNL A   1      29.876  25.750  24.429  1.00  0.00     0.004 A 
ATOM     11  C   UNL A   1      31.321  25.952  22.498  1.00  0.00     0.004 A 
ATOM     12  C   UNL A   1      30.769  25.161  23.518  1.00  0.00    -0.046 A 
BRANCH  12  13
ATOM     13  C   UNL A   1      31.158  23.707  23.666  1.00  0.00     0.060 C 
BRANCH  13  14
ATOM     14  C   UNL A   1      32.668  23.471  23.870  1.00  0.00     0.151 C 
ATOM     15  S   UNL A   1      33.203  23.646  25.594  1.00  0.00    -0.050 SA
ATOM     16  C   UNL A   1      33.003  22.034  23.513  1.00  0.00     0.248 C 
ATOM     17  C   UNL A   1      33.264  21.918  25.849  1.00  0.00     0.293 C 
ATOM     18  N   UNL A   1      33.228  21.258  24.641  1.00  0.00    -0.240 N 
ATOM     19  O   UNL A   1      32.964  21.641  22.348  1.00  0.00    -0.273 OA
ATOM     20  O   UNL A   1      33.375  21.460  26.971  1.00  0.00    -0.261 OA
BRANCH  18  21
ATOM     21  C   UNL A   1      33.430  19.850  24.566  1.00  0.00     0.053 A 
ATOM     22  C   UNL A   1      34.720  19.305  24.626  1.00  0.00     0.027 A 
ATOM     23  C   UNL A   1      32.340  18.973  24.451  1.00  0.00     0.027 A 
ATOM     24  C   UNL A   1      34.914  17.922  24.592  1.00  0.00     0.002 A 
ATOM     25  C   UNL A   1      32.536  17.592  24.380  1.00  0.00     0.002 A 
ATOM     26  C   UNL A   1      33.823  17.066  24.460  1.00  0.00     0.000 A 
ENDBRANCH  18  21
ENDBRANCH  13  14
ENDBRANCH  12  13
ENDBRANCH   5   7
ENDBRANCH   2   3
ENDBRANCH   1   2
BRANCH   1  27
ATOM     27  C   UNL A   1      31.828  31.880  26.537  1.00  0.00     0.023 C 
BRANCH  27  28
ATOM     28  C   UNL A   1      32.878  32.602  27.374  1.00  0.00     0.116 C 
BRANCH  28  29
ATOM     29  N   UNL A   1      32.531  33.989  27.656  1.00  0.00    -0.352 N 
ATOM     30  C   UNL A   1      33.067  34.847  28.589  1.00  0.00     0.251 C 
ATOM     31  H   UNL A   1      31.813  34.366  27.099  1.00  0.00     0.163 HD
ATOM     32  O   UNL A   1      32.557  35.948  28.775  1.00  0.00    -0.269 OA
BRANCH  30  33
ATOM     33  C   UNL A   1      34.237  34.425  29.390  1.00  0.00     0.039 A 
ATOM     34  C   UNL A   1      34.024  33.805  30.624  1.00  0.00     0.014 A 
ATOM     35  C   UNL A   1      35.536  34.608  28.911  1.00  0.00     0.014 A 
ATOM     36  C   UNL A   1      35.111  33.293  31.337  1.00  0.00     0.010 A 
ATOM     37  C   UNL A   1      36.608  34.022  29.581  1.00  0.00     0.010 A 
ATOM     38  C   UNL A   1      36.407  33.355  30.799  1.00  0.00    -0.014 A 
BRANCH  38  39
ATOM     39  C   UNL A   1      37.559  32.704  31.478  1.00  0.00     0.031 A 
ATOM     40  C   UNL A   1      38.269  31.545  30.831  1.00  0.00     0.074 A 
ATOM     41  C   UNL A   1      37.910  33.097  32.720  1.00  0.00     0.049 A 
ATOM     42  N   UNL A   1      39.245  30.810  31.299  1.00  0.00    -0.248 NA
ATOM     43  C   UNL A   1      37.805  31.141  29.493  1.00  0.00     0.031 C 
ATOM     44  C   UNL A   1      37.256  34.159  33.488  1.00  0.00     0.029 A 
ATOM     45  N   UNL A   1      38.885  32.630  33.567  1.00  0.00    -0.354 N 
ATOM     46  C   UNL A   1      39.489  29.842  30.333  1.00  0.00     0.074 A 
ATOM     47  C   UNL A   1      38.535  30.059  29.268  1.00  0.00     0.031 C 
ATOM     48  C   UNL A   1      37.853  34.269  34.686  1.00  0.00     0.029 A 
ATOM     49  C   UNL A   1      38.902  33.261  34.790  1.00  0.00     0.049 A 
ATOM     50  H   UNL A   1      39.513  31.913  33.322  1.00  0.00     0.167 HD
ATOM     51  C   UNL A   1      40.438  28.875  30.320  1.00  0.00     0.034 A 
ATOM     52  C   UNL A   1      39.665  33.044  35.880  1.00  0.00     0.034 A 
ATOM     53  C   UNL A   1      41.405  28.680  31.367  1.00  0.00     0.049 A 
ATOM     54  C   UNL A   1      40.719  31.970  35.834  1.00  0.00     0.074 A 
ATOM     55  C   UNL A   1      42.456  27.781  31.408  1.00  0.00     0.029 A 
ATOM     56  N   UNL A   1      41.433  29.382  32.562  1.00  0.00    -0.354 N 
ATOM     57  N   UNL A   1      41.034  31.163  34.850  1.00  0.00    -0.248 NA
ATOM     58  C   UNL A   1      41.547  31.799  37.036  1.00  0.00     0.031 C 
ATOM     59  C   UNL A   1      43.097  27.913  32.645  1.00  0.00     0.029 A 
ATOM     60  C   UNL A   1      42.473  28.926  33.355  1.00  0.00     0.049 A 
ATOM     61  H   UNL A   1      40.806  30.099  32.810  1.00  0.00     0.167 HD
ATOM     62  C   UNL A   1      42.117  30.417  35.299  1.00  0.00     0.074 A 
ATOM     63  C   UNL A   1      42.418  30.883  36.637  1.00  0.00     0.031 C 
ATOM     64  C   UNL A   1      42.794  29.429  34.665  1.00  0.00     0.034 A 
BRANCH  51  65
ATOM     65  C   UNL A   1      40.507  27.975  29.113  1.00  0.00     0.023 A 
ATOM     66  C   UNL A   1      39.608  26.895  28.995  1.00  0.00     0.012 A 
ATOM     67  C   UNL A   1      41.415  28.234  28.067  1.00  0.00     0.148 A 
ATOM     68  C   UNL A   1      39.636  26.065  27.875  1.00  0.00     0.002 A 
ATOM     69  C   UNL A   1      41.403  27.434  26.932  1.00  0.00     0.091 A 
ATOM     70  F   UNL A   1      42.273  29.256  28.203  1.00  0.00    -0.205 F 
ATOM     71  C   UNL A   1      40.525  26.341  26.840  1.00  0.00     0.022 A 
BRANCH  69  72
ATOM     72  S   UNL A   1      42.449  27.753  25.506  1.00  0.00     0.127 S 
ATOM     73  O   UNL A   1      41.887  29.006  25.003  1.00  0.00    -0.237 OA
ATOM     74  O   UNL A   1      43.771  27.879  26.118  1.00  0.00    -0.237 OA
ATOM     75  O   UNL A   1      42.292  26.603  24.627  1.00  0.00    -0.744 OA
ENDBRANCH  69  72
ENDBRANCH  51  65
BRANCH  52  76
ATOM     76  C   UNL A   1      39.497  33.893  37.094  1.00  0.00     0.023 A 
ATOM     77  C   UNL A   1      39.928  35.234  37.067  1.00  0.00     0.012 A 
ATOM     78  C   UNL A   1      38.903  33.387  38.266  1.00  0.00     0.148 A 
ATOM     79  C   UNL A   1      39.806  36.045  38.195  1.00  0.00     0.002 A 
ATOM     80  C   UNL A   1      38.731  34.217  39.368  1.00  0.00     0.091 A 
ATOM     81  F   UNL A   1      38.507  32.106  38.275  1.00  0.00    -0.205 F 
ATOM     82  C   UNL A   1      39.200  35.540  39.343  1.00  0.00     0.022 A 
BRANCH  80  83
ATOM     83  S   UNL A   1      37.847  33.694  40.842  1.00  0.00     0.127 S 
ATOM     84  O   UNL A   1      37.912  34.894  41.672  1.00  0.00    -0.237 OA
ATOM     85  O   UNL A   1      36.522  33.387  40.304  1.00  0.00    -0.237 OA
ATOM     86  O   UNL A   1      38.573  32.536  41.348  1.00  0.00    -0.744 OA
ENDBRANCH  80  83
ENDBRANCH  52  76
BRANCH  64  87
ATOM     87  C   UNL A   1      43.965  28.807  35.383  1.00  0.00     0.023 A 
ATOM     88  C   UNL A   1      45.262  29.323  35.200  1.00  0.00     0.012 A 
ATOM     89  C   UNL A   1      43.762  27.756  36.300  1.00  0.00     0.148 A 
ATOM     90  C   UNL A   1      46.345  28.782  35.893  1.00  0.00     0.002 A 
ATOM     91  C   UNL A   1      44.836  27.258  37.027  1.00  0.00     0.091 A 
ATOM     92  F   UNL A   1      42.522  27.268  36.447  1.00  0.00    -0.205 F 
ATOM     93  C   UNL A   1      46.130  27.759  36.814  1.00  0.00     0.022 A 
BRANCH  91  94
ATOM     94  S   UNL A   1      44.641  26.011  38.305  1.00  0.00     0.127 S 
ATOM     95  O   UNL A   1      44.063  24.900  37.552  1.00  0.00    -0.237 OA
ATOM     96  O   UNL A   1      46.021  25.799  38.742  1.00  0.00    -0.237 OA
ATOM     97  O   UNL A   1      43.769  26.599  39.314  1.00  0.00    -0.744 OA
ENDBRANCH  91  94
ENDBRANCH  64  87
ENDBRANCH  38  39
ENDBRANCH  30  33
ENDBRANCH  28  29
ENDBRANCH  27  28
ENDBRANCH   1  27
TORSDOF 17
ENDMDL
