MODEL 1
REMARK VINA RESULT:     -12.2      0.000      0.000
REMARK SMILES O=C(C[NH+]1CCN(c2cc(-c3ccccc3)nc(-c3ccccc3F)n2)CC1)NCCCCNC(=O)c1ccc(-c2c3nc(c(-c4cccc(S(=O)(=O)[O-])c4F)c4ccc([nH]4)c(-c4cccc(S(=O)(=O)[O-])c4F)c4nc(c(-c5cccc(S(=O)(=O)[O-])c5F)c5ccc2[nH]5)C=C4)C=C3)cc1
REMARK SMILES IDX 31 1 30 2 29 3 1 4 2 5 3 7 4 8 5 9 28 10 6 12 27 13 7 14
REMARK SMILES IDX 8 15 9 16 26 17 10 18 18 19 17 20 11 21 12 22 16 23 13 24
REMARK SMILES IDX 15 25 14 26 19 27 20 28 24 29 21 30 23 31 25 32 22 33 32 34
REMARK SMILES IDX 33 35 34 36 35 37 36 39 37 40 38 41 99 42 39 43 98 44 40 45
REMARK SMILES IDX 41 46 42 47 92 48 43 49 97 50 91 51 93 52 44 53 96 54 90 55
REMARK SMILES IDX 89 56 45 58 77 59 57 60 76 61 58 62 61 63 75 64 94 65 59 66
REMARK SMILES IDX 60 67 74 69 95 70 62 71 46 72 47 73 55 74 48 75 50 76 56 77
REMARK SMILES IDX 49 78 51 79 52 80 53 81 54 82 78 83 79 84 87 85 80 86 82 87
REMARK SMILES IDX 88 88 81 89 83 90 84 91 85 92 86 93 63 94 64 95 72 96 65 97
REMARK SMILES IDX 67 98 73 99 66 100 68 101 69 102 70 103 71 104
REMARK H PARENT 29 6 4 11 34 38 93 57 61 68
REMARK Flexibility Score: inf
ROOT
ATOM      1  C   UNL A   1      36.102  29.931  28.028  1.00  0.00     0.023 C 
ENDROOT
BRANCH   1   2
ATOM      2  C   UNL A   1      34.666  30.342  27.700  1.00  0.00     0.116 C 
BRANCH   2   3
ATOM      3  N   UNL A   1      33.714  29.257  27.825  1.00  0.00    -0.351 N 
ATOM      4  O   UNL A   1      31.962  30.421  26.891  1.00  0.00    -0.269 OA
ATOM      5  C   UNL A   1      32.429  29.367  27.316  1.00  0.00     0.275 C 
ATOM      6  H   UNL A   1      33.985  28.426  28.279  1.00  0.00     0.163 HD
BRANCH   5   7
ATOM      7  C   UNL A   1      31.678  28.034  27.255  1.00  0.00     0.363 C 
BRANCH   7   8
ATOM      8  N   UNL A   1      31.349  27.576  25.886  1.00  0.00    -0.324 N 
ATOM      9  C   UNL A   1      32.469  27.534  24.911  1.00  0.00     0.284 C 
ATOM     10  C   UNL A   1      30.707  26.235  25.929  1.00  0.00     0.284 C 
ATOM     11  H   UNL A   1      30.717  28.296  25.539  1.00  0.00     0.348 HD
ATOM     12  C   UNL A   1      33.474  26.371  25.063  1.00  0.00     0.179 C 
ATOM     13  C   UNL A   1      31.690  25.077  26.207  1.00  0.00     0.179 C 
ATOM     14  N   UNL A   1      32.745  25.116  25.202  1.00  0.00    -0.345 N 
BRANCH  14  15
ATOM     15  C   UNL A   1      33.521  23.971  25.157  1.00  0.00     0.133 A 
ATOM     16  C   UNL A   1      34.834  24.093  25.528  1.00  0.00     0.076 A 
ATOM     17  N   UNL A   1      32.988  22.818  24.756  1.00  0.00    -0.211 NA
ATOM     18  C   UNL A   1      35.626  22.968  25.480  1.00  0.00     0.076 A 
ATOM     19  C   UNL A   1      33.818  21.754  24.743  1.00  0.00     0.165 A 
ATOM     20  N   UNL A   1      35.123  21.779  25.088  1.00  0.00    -0.228 NA
BRANCH  18  21
ATOM     21  C   UNL A   1      37.058  23.072  25.820  1.00  0.00     0.000 A 
ATOM     22  C   UNL A   1      37.596  24.238  26.380  1.00  0.00     0.010 A 
ATOM     23  C   UNL A   1      37.920  21.960  25.681  1.00  0.00     0.010 A 
ATOM     24  C   UNL A   1      38.917  24.270  26.842  1.00  0.00     0.001 A 
ATOM     25  C   UNL A   1      39.236  21.987  26.147  1.00  0.00     0.001 A 
ATOM     26  C   UNL A   1      39.730  23.141  26.741  1.00  0.00     0.000 A 
ENDBRANCH  18  21
BRANCH  19  27
ATOM     27  C   UNL A   1      33.122  20.478  24.630  1.00  0.00     0.055 A 
ATOM     28  C   UNL A   1      33.161  19.485  25.625  1.00  0.00     0.015 A 
ATOM     29  C   UNL A   1      32.585  20.127  23.402  1.00  0.00     0.134 A 
ATOM     30  C   UNL A   1      32.715  18.178  25.371  1.00  0.00     0.001 A 
ATOM     31  C   UNL A   1      32.201  18.817  23.135  1.00  0.00     0.040 A 
ATOM     32  F   UNL A   1      32.548  21.030  22.415  1.00  0.00    -0.206 F 
ATOM     33  C   UNL A   1      32.256  17.835  24.109  1.00  0.00     0.003 A 
ENDBRANCH  19  27
ENDBRANCH  14  15
ENDBRANCH   7   8
ENDBRANCH   5   7
ENDBRANCH   2   3
ENDBRANCH   1   2
BRANCH   1  34
ATOM     34  C   UNL A   1      36.400  29.619  29.506  1.00  0.00     0.023 C 
BRANCH  34  35
ATOM     35  C   UNL A   1      37.787  29.040  29.832  1.00  0.00     0.116 C 
BRANCH  35  36
ATOM     36  N   UNL A   1      37.790  28.136  30.982  1.00  0.00    -0.352 N 
ATOM     37  C   UNL A   1      38.257  28.261  32.274  1.00  0.00     0.251 C 
ATOM     38  H   UNL A   1      37.376  27.262  30.795  1.00  0.00     0.163 HD
ATOM     39  O   UNL A   1      38.196  27.273  33.008  1.00  0.00    -0.269 OA
BRANCH  37  40
ATOM     40  C   UNL A   1      38.867  29.511  32.810  1.00  0.00     0.039 A 
ATOM     41  C   UNL A   1      40.241  29.530  33.114  1.00  0.00     0.014 A 
ATOM     42  C   UNL A   1      38.129  30.667  33.028  1.00  0.00     0.014 A 
ATOM     43  C   UNL A   1      40.898  30.732  33.467  1.00  0.00     0.010 A 
ATOM     44  C   UNL A   1      38.792  31.865  33.341  1.00  0.00     0.010 A 
ATOM     45  C   UNL A   1      40.195  31.944  33.496  1.00  0.00    -0.014 A 
BRANCH  45  46
ATOM     46  C   UNL A   1      40.861  33.302  33.562  1.00  0.00     0.031 A 
ATOM     47  C   UNL A   1      41.571  33.855  32.347  1.00  0.00     0.074 A 
ATOM     48  C   UNL A   1      41.026  33.975  34.732  1.00  0.00     0.049 A 
ATOM     49  N   UNL A   1      42.267  34.962  32.231  1.00  0.00    -0.248 NA
ATOM     50  C   UNL A   1      41.496  33.067  31.107  1.00  0.00     0.031 C 
ATOM     51  C   UNL A   1      40.459  33.618  36.031  1.00  0.00     0.029 A 
ATOM     52  N   UNL A   1      41.805  35.080  35.033  1.00  0.00    -0.354 N 
ATOM     53  C   UNL A   1      42.703  35.000  30.915  1.00  0.00     0.074 A 
ATOM     54  C   UNL A   1      42.289  33.757  30.300  1.00  0.00     0.031 C 
ATOM     55  C   UNL A   1      41.015  34.372  36.996  1.00  0.00     0.029 A 
ATOM     56  C   UNL A   1      41.916  35.340  36.385  1.00  0.00     0.049 A 
ATOM     57  H   UNL A   1      42.241  35.631  34.343  1.00  0.00     0.167 HD
ATOM     58  C   UNL A   1      43.317  36.001  30.240  1.00  0.00     0.034 A 
ATOM     59  C   UNL A   1      42.626  36.265  37.071  1.00  0.00     0.034 A 
ATOM     60  C   UNL A   1      43.723  37.251  30.817  1.00  0.00     0.049 A 
ATOM     61  C   UNL A   1      43.352  37.352  36.316  1.00  0.00     0.074 A 
ATOM     62  C   UNL A   1      44.217  38.375  30.180  1.00  0.00     0.029 A 
ATOM     63  N   UNL A   1      43.719  37.531  32.173  1.00  0.00    -0.354 N 
ATOM     64  N   UNL A   1      43.482  37.515  35.025  1.00  0.00    -0.248 NA
ATOM     65  C   UNL A   1      43.938  38.445  37.114  1.00  0.00     0.031 C 
ATOM     66  C   UNL A   1      44.550  39.321  31.154  1.00  0.00     0.029 A 
ATOM     67  C   UNL A   1      44.226  38.799  32.395  1.00  0.00     0.049 A 
ATOM     68  H   UNL A   1      43.401  36.917  32.874  1.00  0.00     0.167 HD
ATOM     69  C   UNL A   1      44.073  38.765  34.853  1.00  0.00     0.074 A 
ATOM     70  C   UNL A   1      44.293  39.311  36.173  1.00  0.00     0.031 C 
ATOM     71  C   UNL A   1      44.383  39.397  33.696  1.00  0.00     0.034 A 
BRANCH  58  72
ATOM     72  C   UNL A   1      43.491  35.808  28.757  1.00  0.00     0.023 A 
ATOM     73  C   UNL A   1      42.478  36.268  27.887  1.00  0.00     0.012 A 
ATOM     74  C   UNL A   1      44.639  35.196  28.222  1.00  0.00     0.148 A 
ATOM     75  C   UNL A   1      42.572  36.063  26.514  1.00  0.00     0.002 A 
ATOM     76  C   UNL A   1      44.748  35.039  26.847  1.00  0.00     0.091 A 
ATOM     77  F   UNL A   1      45.588  34.764  29.065  1.00  0.00    -0.205 F 
ATOM     78  C   UNL A   1      43.709  35.454  25.994  1.00  0.00     0.022 A 
BRANCH  76  79
ATOM     79  S   UNL A   1      46.198  34.334  26.060  1.00  0.00     0.127 S 
ATOM     80  O   UNL A   1      45.935  34.613  24.650  1.00  0.00    -0.237 OA
ATOM     81  O   UNL A   1      47.279  35.122  26.647  1.00  0.00    -0.237 OA
ATOM     82  O   UNL A   1      46.207  32.920  26.421  1.00  0.00    -0.744 OA
ENDBRANCH  76  79
ENDBRANCH  58  72
BRANCH  59  83
ATOM     83  C   UNL A   1      42.561  36.338  38.564  1.00  0.00     0.023 A 
ATOM     84  C   UNL A   1      43.590  35.733  39.315  1.00  0.00     0.012 A 
ATOM     85  C   UNL A   1      41.473  36.924  39.243  1.00  0.00     0.148 A 
ATOM     86  C   UNL A   1      43.511  35.655  40.707  1.00  0.00     0.002 A 
ATOM     87  C   UNL A   1      41.420  36.877  40.636  1.00  0.00     0.091 A 
ATOM     88  F   UNL A   1      40.501  37.493  38.516  1.00  0.00    -0.205 F 
ATOM     89  C   UNL A   1      42.427  36.225  41.365  1.00  0.00     0.022 A 
BRANCH  87  90
ATOM     90  S   UNL A   1      40.108  37.637  41.602  1.00  0.00     0.127 S 
ATOM     91  O   UNL A   1      38.914  37.023  41.028  1.00  0.00    -0.237 OA
ATOM     92  O   UNL A   1      40.437  37.194  42.956  1.00  0.00    -0.237 OA
ATOM     93  O   UNL A   1      40.236  39.076  41.389  1.00  0.00    -0.744 OA
ENDBRANCH  87  90
ENDBRANCH  59  83
BRANCH  71  94
ATOM     94  C   UNL A   1      44.928  40.802  33.761  1.00  0.00     0.023 A 
ATOM     95  C   UNL A   1      46.317  41.031  33.759  1.00  0.00     0.012 A 
ATOM     96  C   UNL A   1      44.049  41.905  33.717  1.00  0.00     0.148 A 
ATOM     97  C   UNL A   1      46.822  42.332  33.734  1.00  0.00     0.002 A 
ATOM     98  C   UNL A   1      44.559  43.196  33.636  1.00  0.00     0.091 A 
ATOM     99  F   UNL A   1      42.728  41.672  33.743  1.00  0.00    -0.205 F 
ATOM    100  C   UNL A   1      45.946  43.412  33.657  1.00  0.00     0.022 A 
BRANCH  98 101
ATOM    101  S   UNL A   1      43.508  44.638  33.420  1.00  0.00     0.127 S 
ATOM    102  O   UNL A   1      43.181  44.558  31.998  1.00  0.00    -0.237 OA
ATOM    103  O   UNL A   1      42.392  44.346  34.321  1.00  0.00    -0.237 OA
ATOM    104  O   UNL A   1      44.314  45.787  33.809  1.00  0.00    -0.744 OA
ENDBRANCH  98 101
ENDBRANCH  71  94
ENDBRANCH  45  46
ENDBRANCH  37  40
ENDBRANCH  35  36
ENDBRANCH  34  35
ENDBRANCH   1  34
TORSDOF 18
ENDMDL
MODEL 2
REMARK VINA RESULT:     -11.6      5.100      8.543
REMARK SMILES O=C(C[NH+]1CCN(c2cc(-c3ccccc3)nc(-c3ccccc3F)n2)CC1)NCCCCNC(=O)c1ccc(-c2c3nc(c(-c4cccc(S(=O)(=O)[O-])c4F)c4ccc([nH]4)c(-c4cccc(S(=O)(=O)[O-])c4F)c4nc(c(-c5cccc(S(=O)(=O)[O-])c5F)c5ccc2[nH]5)C=C4)C=C3)cc1
REMARK SMILES IDX 31 1 30 2 29 3 1 4 2 5 3 7 4 8 5 9 28 10 6 12 27 13 7 14
REMARK SMILES IDX 8 15 9 16 26 17 10 18 18 19 17 20 11 21 12 22 16 23 13 24
REMARK SMILES IDX 15 25 14 26 19 27 20 28 24 29 21 30 23 31 25 32 22 33 32 34
REMARK SMILES IDX 33 35 34 36 35 37 36 39 37 40 38 41 99 42 39 43 98 44 40 45
REMARK SMILES IDX 41 46 42 47 92 48 43 49 97 50 91 51 93 52 44 53 96 54 90 55
REMARK SMILES IDX 89 56 45 58 77 59 57 60 76 61 58 62 61 63 75 64 94 65 59 66
REMARK SMILES IDX 60 67 74 69 95 70 62 71 46 72 47 73 55 74 48 75 50 76 56 77
REMARK SMILES IDX 49 78 51 79 52 80 53 81 54 82 78 83 79 84 87 85 80 86 82 87
REMARK SMILES IDX 88 88 81 89 83 90 84 91 85 92 86 93 63 94 64 95 72 96 65 97
REMARK SMILES IDX 67 98 73 99 66 100 68 101 69 102 70 103 71 104
REMARK H PARENT 29 6 4 11 34 38 93 57 61 68
REMARK Flexibility Score: inf
ROOT
ATOM      1  C   UNL A   1      36.735  21.458  24.745  1.00  0.00     0.023 C 
ENDROOT
BRANCH   1   2
ATOM      2  C   UNL A   1      35.689  21.074  25.793  1.00  0.00     0.116 C 
BRANCH   2   3
ATOM      3  N   UNL A   1      34.351  20.951  25.251  1.00  0.00    -0.351 N 
ATOM      4  O   UNL A   1      33.329  22.055  26.994  1.00  0.00    -0.269 OA
ATOM      5  C   UNL A   1      33.265  21.545  25.877  1.00  0.00     0.275 C 
ATOM      6  H   UNL A   1      34.209  20.438  24.423  1.00  0.00     0.163 HD
BRANCH   5   7
ATOM      7  C   UNL A   1      32.003  21.582  25.011  1.00  0.00     0.363 C 
BRANCH   7   8
ATOM      8  N   UNL A   1      32.205  22.135  23.652  1.00  0.00    -0.324 N 
ATOM      9  C   UNL A   1      31.033  22.793  23.020  1.00  0.00     0.284 C 
ATOM     10  C   UNL A   1      33.346  23.089  23.647  1.00  0.00     0.284 C 
ATOM     11  H   UNL A   1      32.389  21.310  23.084  1.00  0.00     0.348 HD
ATOM     12  C   UNL A   1      30.666  24.201  23.543  1.00  0.00     0.179 C 
ATOM     13  C   UNL A   1      33.023  24.458  24.284  1.00  0.00     0.179 C 
ATOM     14  N   UNL A   1      31.868  25.024  23.598  1.00  0.00    -0.345 N 
BRANCH  14  15
ATOM     15  C   UNL A   1      31.656  26.365  23.869  1.00  0.00     0.133 A 
ATOM     16  C   UNL A   1      32.538  26.977  24.720  1.00  0.00     0.076 A 
ATOM     17  N   UNL A   1      30.623  27.002  23.319  1.00  0.00    -0.211 NA
ATOM     18  C   UNL A   1      32.339  28.307  25.010  1.00  0.00     0.076 A 
ATOM     19  C   UNL A   1      30.493  28.306  23.639  1.00  0.00     0.165 A 
ATOM     20  N   UNL A   1      31.310  28.992  24.468  1.00  0.00    -0.228 NA
BRANCH  18  21
ATOM     21  C   UNL A   1      33.236  28.986  25.965  1.00  0.00     0.000 A 
ATOM     22  C   UNL A   1      32.790  30.050  26.760  1.00  0.00     0.010 A 
ATOM     23  C   UNL A   1      34.553  28.521  26.182  1.00  0.00     0.010 A 
ATOM     24  C   UNL A   1      33.600  30.581  27.771  1.00  0.00     0.001 A 
ATOM     25  C   UNL A   1      35.360  29.043  27.194  1.00  0.00     0.001 A 
ATOM     26  C   UNL A   1      34.876  30.067  27.998  1.00  0.00     0.000 A 
ENDBRANCH  18  21
BRANCH  19  27
ATOM     27  C   UNL A   1      29.574  29.028  22.766  1.00  0.00     0.055 A 
ATOM     28  C   UNL A   1      29.974  30.083  21.927  1.00  0.00     0.015 A 
ATOM     29  C   UNL A   1      28.214  28.826  22.931  1.00  0.00     0.134 A 
ATOM     30  C   UNL A   1      29.032  30.926  21.314  1.00  0.00     0.001 A 
ATOM     31  C   UNL A   1      27.287  29.700  22.373  1.00  0.00     0.040 A 
ATOM     32  F   UNL A   1      27.784  27.851  23.739  1.00  0.00    -0.206 F 
ATOM     33  C   UNL A   1      27.680  30.749  21.560  1.00  0.00     0.003 A 
ENDBRANCH  19  27
ENDBRANCH  14  15
ENDBRANCH   7   8
ENDBRANCH   5   7
ENDBRANCH   2   3
ENDBRANCH   1   2
BRANCH   1  34
ATOM     34  C   UNL A   1      38.184  21.034  25.044  1.00  0.00     0.023 C 
BRANCH  34  35
ATOM     35  C   UNL A   1      38.943  21.842  26.111  1.00  0.00     0.116 C 
BRANCH  35  36
ATOM     36  N   UNL A   1      40.396  21.702  26.030  1.00  0.00    -0.352 N 
ATOM     37  C   UNL A   1      41.437  22.587  26.220  1.00  0.00     0.251 C 
ATOM     38  H   UNL A   1      40.690  20.792  25.793  1.00  0.00     0.163 HD
ATOM     39  O   UNL A   1      42.581  22.191  25.989  1.00  0.00    -0.269 OA
BRANCH  37  40
ATOM     40  C   UNL A   1      41.245  24.003  26.644  1.00  0.00     0.039 A 
ATOM     41  C   UNL A   1      41.155  24.303  28.017  1.00  0.00     0.014 A 
ATOM     42  C   UNL A   1      41.146  25.047  25.734  1.00  0.00     0.014 A 
ATOM     43  C   UNL A   1      41.138  25.641  28.475  1.00  0.00     0.010 A 
ATOM     44  C   UNL A   1      41.168  26.374  26.196  1.00  0.00     0.010 A 
ATOM     45  C   UNL A   1      41.237  26.705  27.568  1.00  0.00    -0.014 A 
BRANCH  45  46
ATOM     46  C   UNL A   1      41.530  28.133  27.975  1.00  0.00     0.031 A 
ATOM     47  C   UNL A   1      42.954  28.568  28.240  1.00  0.00     0.074 A 
ATOM     48  C   UNL A   1      40.546  29.010  28.312  1.00  0.00     0.049 A 
ATOM     49  N   UNL A   1      43.396  29.724  28.673  1.00  0.00    -0.248 NA
ATOM     50  C   UNL A   1      44.016  27.580  27.991  1.00  0.00     0.031 C 
ATOM     51  C   UNL A   1      39.106  28.801  28.171  1.00  0.00     0.029 A 
ATOM     52  N   UNL A   1      40.615  30.246  28.931  1.00  0.00    -0.354 N 
ATOM     53  C   UNL A   1      44.777  29.601  28.743  1.00  0.00     0.074 A 
ATOM     54  C   UNL A   1      45.091  28.227  28.414  1.00  0.00     0.031 C 
ATOM     55  C   UNL A   1      38.437  29.775  28.812  1.00  0.00     0.029 A 
ATOM     56  C   UNL A   1      39.391  30.743  29.337  1.00  0.00     0.049 A 
ATOM     57  H   UNL A   1      41.462  30.728  29.070  1.00  0.00     0.167 HD
ATOM     58  C   UNL A   1      45.715  30.550  28.974  1.00  0.00     0.034 A 
ATOM     59  C   UNL A   1      39.052  31.858  30.023  1.00  0.00     0.034 A 
ATOM     60  C   UNL A   1      45.434  31.923  29.285  1.00  0.00     0.049 A 
ATOM     61  C   UNL A   1      40.109  32.893  30.325  1.00  0.00     0.074 A 
ATOM     62  C   UNL A   1      46.319  32.981  29.390  1.00  0.00     0.029 A 
ATOM     63  N   UNL A   1      44.178  32.423  29.578  1.00  0.00    -0.354 N 
ATOM     64  N   UNL A   1      41.394  32.853  30.087  1.00  0.00    -0.248 NA
ATOM     65  C   UNL A   1      39.649  34.175  30.891  1.00  0.00     0.031 C 
ATOM     66  C   UNL A   1      45.603  34.114  29.787  1.00  0.00     0.029 A 
ATOM     67  C   UNL A   1      44.266  33.768  29.891  1.00  0.00     0.049 A 
ATOM     68  H   UNL A   1      43.345  31.898  29.566  1.00  0.00     0.167 HD
ATOM     69  C   UNL A   1      41.878  34.126  30.382  1.00  0.00     0.074 A 
ATOM     70  C   UNL A   1      40.752  34.911  30.832  1.00  0.00     0.031 C 
ATOM     71  C   UNL A   1      43.146  34.592  30.266  1.00  0.00     0.034 A 
BRANCH  58  72
ATOM     72  C   UNL A   1      47.152  30.136  28.793  1.00  0.00     0.023 A 
ATOM     73  C   UNL A   1      47.773  30.361  27.545  1.00  0.00     0.012 A 
ATOM     74  C   UNL A   1      47.887  29.548  29.837  1.00  0.00     0.148 A 
ATOM     75  C   UNL A   1      49.081  29.947  27.317  1.00  0.00     0.002 A 
ATOM     76  C   UNL A   1      49.208  29.182  29.618  1.00  0.00     0.091 A 
ATOM     77  F   UNL A   1      47.278  29.341  31.014  1.00  0.00    -0.205 F 
ATOM     78  C   UNL A   1      49.800  29.362  28.355  1.00  0.00     0.022 A 
BRANCH  76  79
ATOM     79  S   UNL A   1      50.253  28.486  30.900  1.00  0.00     0.127 S 
ATOM     80  O   UNL A   1      51.459  28.150  30.149  1.00  0.00    -0.237 OA
ATOM     81  O   UNL A   1      50.400  29.612  31.819  1.00  0.00    -0.237 OA
ATOM     82  O   UNL A   1      49.522  27.346  31.444  1.00  0.00    -0.744 OA
ENDBRANCH  76  79
ENDBRANCH  58  72
BRANCH  59  83
ATOM     83  C   UNL A   1      37.621  32.171  30.331  1.00  0.00     0.023 A 
ATOM     84  C   UNL A   1      37.027  31.570  31.460  1.00  0.00     0.012 A 
ATOM     85  C   UNL A   1      36.830  32.984  29.493  1.00  0.00     0.148 A 
ATOM     86  C   UNL A   1      35.663  31.721  31.718  1.00  0.00     0.002 A 
ATOM     87  C   UNL A   1      35.477  33.162  29.779  1.00  0.00     0.091 A 
ATOM     88  F   UNL A   1      37.408  33.546  28.422  1.00  0.00    -0.205 F 
ATOM     89  C   UNL A   1      34.890  32.514  30.878  1.00  0.00     0.022 A 
BRANCH  87  90
ATOM     90  S   UNL A   1      34.392  34.218  28.809  1.00  0.00     0.127 S 
ATOM     91  O   UNL A   1      33.118  34.066  29.505  1.00  0.00    -0.237 OA
ATOM     92  O   UNL A   1      35.027  35.526  28.967  1.00  0.00    -0.237 OA
ATOM     93  O   UNL A   1      34.430  33.689  27.449  1.00  0.00    -0.744 OA
ENDBRANCH  87  90
ENDBRANCH  59  83
BRANCH  71  94
ATOM     94  C   UNL A   1      43.411  36.049  30.550  1.00  0.00     0.023 A 
ATOM     95  C   UNL A   1      43.783  36.471  31.841  1.00  0.00     0.012 A 
ATOM     96  C   UNL A   1      43.391  36.990  29.498  1.00  0.00     0.148 A 
ATOM     97  C   UNL A   1      44.110  37.806  32.085  1.00  0.00     0.002 A 
ATOM     98  C   UNL A   1      43.772  38.305  29.737  1.00  0.00     0.091 A 
ATOM     99  F   UNL A   1      43.012  36.579  28.279  1.00  0.00    -0.205 F 
ATOM    100  C   UNL A   1      44.120  38.718  31.033  1.00  0.00     0.022 A 
BRANCH  98 101
ATOM    101  S   UNL A   1      43.923  39.522  28.422  1.00  0.00     0.127 S 
ATOM    102  O   UNL A   1      44.781  38.824  27.467  1.00  0.00    -0.237 OA
ATOM    103  O   UNL A   1      42.534  39.684  27.990  1.00  0.00    -0.237 OA
ATOM    104  O   UNL A   1      44.508  40.708  29.034  1.00  0.00    -0.744 OA
ENDBRANCH  98 101
ENDBRANCH  71  94
ENDBRANCH  45  46
ENDBRANCH  37  40
ENDBRANCH  35  36
ENDBRANCH  34  35
ENDBRANCH   1  34
TORSDOF 18
ENDMDL
MODEL 3
REMARK VINA RESULT:     -11.6      4.442      8.505
REMARK SMILES O=C(C[NH+]1CCN(c2cc(-c3ccccc3)nc(-c3ccccc3F)n2)CC1)NCCCCNC(=O)c1ccc(-c2c3nc(c(-c4cccc(S(=O)(=O)[O-])c4F)c4ccc([nH]4)c(-c4cccc(S(=O)(=O)[O-])c4F)c4nc(c(-c5cccc(S(=O)(=O)[O-])c5F)c5ccc2[nH]5)C=C4)C=C3)cc1
REMARK SMILES IDX 31 1 30 2 29 3 1 4 2 5 3 7 4 8 5 9 28 10 6 12 27 13 7 14
REMARK SMILES IDX 8 15 9 16 26 17 10 18 18 19 17 20 11 21 12 22 16 23 13 24
REMARK SMILES IDX 15 25 14 26 19 27 20 28 24 29 21 30 23 31 25 32 22 33 32 34
REMARK SMILES IDX 33 35 34 36 35 37 36 39 37 40 38 41 99 42 39 43 98 44 40 45
REMARK SMILES IDX 41 46 42 47 92 48 43 49 97 50 91 51 93 52 44 53 96 54 90 55
REMARK SMILES IDX 89 56 45 58 77 59 57 60 76 61 58 62 61 63 75 64 94 65 59 66
REMARK SMILES IDX 60 67 74 69 95 70 62 71 46 72 47 73 55 74 48 75 50 76 56 77
REMARK SMILES IDX 49 78 51 79 52 80 53 81 54 82 78 83 79 84 87 85 80 86 82 87
REMARK SMILES IDX 88 88 81 89 83 90 84 91 85 92 86 93 63 94 64 95 72 96 65 97
REMARK SMILES IDX 67 98 73 99 66 100 68 101 69 102 70 103 71 104
REMARK H PARENT 29 6 4 11 34 38 93 57 61 68
REMARK Flexibility Score: inf
ROOT
ATOM      1  C   UNL A   1      36.846  21.452  24.832  1.00  0.00     0.023 C 
ENDROOT
BRANCH   1   2
ATOM      2  C   UNL A   1      35.782  21.026  25.844  1.00  0.00     0.116 C 
BRANCH   2   3
ATOM      3  N   UNL A   1      34.464  20.875  25.264  1.00  0.00    -0.351 N 
ATOM      4  O   UNL A   1      33.364  21.926  26.991  1.00  0.00    -0.269 OA
ATOM      5  C   UNL A   1      33.345  21.430  25.867  1.00  0.00     0.275 C 
ATOM      6  H   UNL A   1      34.359  20.369  24.425  1.00  0.00     0.163 HD
BRANCH   5   7
ATOM      7  C   UNL A   1      32.107  21.445  24.966  1.00  0.00     0.363 C 
BRANCH   7   8
ATOM      8  N   UNL A   1      32.329  22.032  23.624  1.00  0.00    -0.324 N 
ATOM      9  C   UNL A   1      31.158  22.677  22.977  1.00  0.00     0.284 C 
ATOM     10  C   UNL A   1      33.447  23.011  23.667  1.00  0.00     0.284 C 
ATOM     11  H   UNL A   1      32.546  21.223  23.043  1.00  0.00     0.348 HD
ATOM     12  C   UNL A   1      30.745  24.064  23.520  1.00  0.00     0.179 C 
ATOM     13  C   UNL A   1      33.076  24.359  24.325  1.00  0.00     0.179 C 
ATOM     14  N   UNL A   1      31.926  24.913  23.623  1.00  0.00    -0.345 N 
BRANCH  14  15
ATOM     15  C   UNL A   1      31.675  26.243  23.916  1.00  0.00     0.133 A 
ATOM     16  C   UNL A   1      32.505  26.848  24.823  1.00  0.00     0.076 A 
ATOM     17  N   UNL A   1      30.658  26.875  23.334  1.00  0.00    -0.211 NA
ATOM     18  C   UNL A   1      32.267  28.166  25.136  1.00  0.00     0.076 A 
ATOM     19  C   UNL A   1      30.488  28.168  23.679  1.00  0.00     0.165 A 
ATOM     20  N   UNL A   1      31.252  28.846  24.563  1.00  0.00    -0.228 NA
BRANCH  18  21
ATOM     21  C   UNL A   1      33.105  28.837  26.149  1.00  0.00     0.000 A 
ATOM     22  C   UNL A   1      34.368  28.341  26.500  1.00  0.00     0.010 A 
ATOM     23  C   UNL A   1      32.703  30.060  26.731  1.00  0.00     0.010 A 
ATOM     24  C   UNL A   1      35.217  29.068  27.342  1.00  0.00     0.001 A 
ATOM     25  C   UNL A   1      33.550  30.791  27.566  1.00  0.00     0.001 A 
ATOM     26  C   UNL A   1      34.815  30.299  27.860  1.00  0.00     0.000 A 
ENDBRANCH  18  21
BRANCH  19  27
ATOM     27  C   UNL A   1      29.598  28.895  22.782  1.00  0.00     0.055 A 
ATOM     28  C   UNL A   1      30.031  29.931  21.935  1.00  0.00     0.015 A 
ATOM     29  C   UNL A   1      28.231  28.722  22.927  1.00  0.00     0.134 A 
ATOM     30  C   UNL A   1      29.117  30.783  21.296  1.00  0.00     0.001 A 
ATOM     31  C   UNL A   1      27.331  29.606  22.343  1.00  0.00     0.040 A 
ATOM     32  F   UNL A   1      27.769  27.767  23.742  1.00  0.00    -0.206 F 
ATOM     33  C   UNL A   1      27.758  30.636  21.522  1.00  0.00     0.003 A 
ENDBRANCH  19  27
ENDBRANCH  14  15
ENDBRANCH   7   8
ENDBRANCH   5   7
ENDBRANCH   2   3
ENDBRANCH   1   2
BRANCH   1  34
ATOM     34  C   UNL A   1      38.279  20.958  25.102  1.00  0.00     0.023 C 
BRANCH  34  35
ATOM     35  C   UNL A   1      39.074  21.686  26.199  1.00  0.00     0.116 C 
BRANCH  35  36
ATOM     36  N   UNL A   1      40.523  21.543  26.067  1.00  0.00    -0.352 N 
ATOM     37  C   UNL A   1      41.573  22.424  26.229  1.00  0.00     0.251 C 
ATOM     38  H   UNL A   1      40.806  20.635  25.811  1.00  0.00     0.163 HD
ATOM     39  O   UNL A   1      42.707  22.028  25.956  1.00  0.00    -0.269 OA
BRANCH  37  40
ATOM     40  C   UNL A   1      41.399  23.836  26.674  1.00  0.00     0.039 A 
ATOM     41  C   UNL A   1      41.268  24.113  28.048  1.00  0.00     0.014 A 
ATOM     42  C   UNL A   1      41.358  24.899  25.782  1.00  0.00     0.014 A 
ATOM     43  C   UNL A   1      41.266  25.442  28.532  1.00  0.00     0.010 A 
ATOM     44  C   UNL A   1      41.395  26.217  26.269  1.00  0.00     0.010 A 
ATOM     45  C   UNL A   1      41.423  26.520  27.650  1.00  0.00    -0.014 A 
BRANCH  45  46
ATOM     46  C   UNL A   1      41.735  27.933  28.094  1.00  0.00     0.031 A 
ATOM     47  C   UNL A   1      43.157  28.324  28.428  1.00  0.00     0.074 A 
ATOM     48  C   UNL A   1      40.760  28.830  28.404  1.00  0.00     0.049 A 
ATOM     49  N   UNL A   1      43.610  29.461  28.900  1.00  0.00    -0.248 NA
ATOM     50  C   UNL A   1      44.202  27.313  28.207  1.00  0.00     0.031 C 
ATOM     51  C   UNL A   1      39.323  28.662  28.197  1.00  0.00     0.029 A 
ATOM     52  N   UNL A   1      40.835  30.053  29.048  1.00  0.00    -0.354 N 
ATOM     53  C   UNL A   1      44.982  29.299  29.028  1.00  0.00     0.074 A 
ATOM     54  C   UNL A   1      45.275  27.924  28.688  1.00  0.00     0.031 C 
ATOM     55  C   UNL A   1      38.652  29.643  28.826  1.00  0.00     0.029 A 
ATOM     56  C   UNL A   1      39.608  30.576  29.410  1.00  0.00     0.049 A 
ATOM     57  H   UNL A   1      41.687  30.510  29.232  1.00  0.00     0.167 HD
ATOM     58  C   UNL A   1      45.934  30.219  29.316  1.00  0.00     0.034 A 
ATOM     59  C   UNL A   1      39.269  31.688  30.100  1.00  0.00     0.034 A 
ATOM     60  C   UNL A   1      45.676  31.594  29.638  1.00  0.00     0.049 A 
ATOM     61  C   UNL A   1      40.337  32.689  30.465  1.00  0.00     0.074 A 
ATOM     62  C   UNL A   1      46.583  32.626  29.801  1.00  0.00     0.029 A 
ATOM     63  N   UNL A   1      44.421  32.122  29.887  1.00  0.00    -0.354 N 
ATOM     64  N   UNL A   1      41.631  32.619  30.283  1.00  0.00    -0.248 NA
ATOM     65  C   UNL A   1      39.887  33.973  31.034  1.00  0.00     0.031 C 
ATOM     66  C   UNL A   1      45.880  33.771  30.187  1.00  0.00     0.029 A 
ATOM     67  C   UNL A   1      44.531  33.459  30.226  1.00  0.00     0.049 A 
ATOM     68  H   UNL A   1      43.576  31.620  29.830  1.00  0.00     0.167 HD
ATOM     69  C   UNL A   1      42.135  33.873  30.620  1.00  0.00     0.074 A 
ATOM     70  C   UNL A   1      41.011  34.681  31.036  1.00  0.00     0.031 C 
ATOM     71  C   UNL A   1      43.417  34.306  30.568  1.00  0.00     0.034 A 
BRANCH  58  72
ATOM     72  C   UNL A   1      47.366  29.769  29.190  1.00  0.00     0.023 A 
ATOM     73  C   UNL A   1      48.068  29.396  30.356  1.00  0.00     0.012 A 
ATOM     74  C   UNL A   1      48.009  29.700  27.941  1.00  0.00     0.148 A 
ATOM     75  C   UNL A   1      49.408  29.025  30.292  1.00  0.00     0.002 A 
ATOM     76  C   UNL A   1      49.331  29.281  27.879  1.00  0.00     0.091 A 
ATOM     77  F   UNL A   1      47.325  30.061  26.846  1.00  0.00    -0.205 F 
ATOM     78  C   UNL A   1      50.037  28.963  29.053  1.00  0.00     0.022 A 
BRANCH  76  79
ATOM     79  S   UNL A   1      50.222  29.094  26.332  1.00  0.00     0.127 S 
ATOM     80  O   UNL A   1      50.663  30.464  26.077  1.00  0.00    -0.237 OA
ATOM     81  O   UNL A   1      51.289  28.168  26.704  1.00  0.00    -0.237 OA
ATOM     82  O   UNL A   1      49.260  28.563  25.373  1.00  0.00    -0.744 OA
ENDBRANCH  76  79
ENDBRANCH  58  72
BRANCH  59  83
ATOM     83  C   UNL A   1      37.834  32.034  30.351  1.00  0.00     0.023 A 
ATOM     84  C   UNL A   1      37.176  31.431  31.443  1.00  0.00     0.012 A 
ATOM     85  C   UNL A   1      37.102  32.883  29.495  1.00  0.00     0.148 A 
ATOM     86  C   UNL A   1      35.806  31.614  31.644  1.00  0.00     0.002 A 
ATOM     87  C   UNL A   1      35.743  33.092  29.725  1.00  0.00     0.091 A 
ATOM     88  F   UNL A   1      37.740  33.447  28.460  1.00  0.00    -0.205 F 
ATOM     89  C   UNL A   1      35.091  32.442  30.786  1.00  0.00     0.022 A 
BRANCH  87  90
ATOM     90  S   UNL A   1      34.729  34.193  28.728  1.00  0.00     0.127 S 
ATOM     91  O   UNL A   1      33.387  33.901  29.223  1.00  0.00    -0.237 OA
ATOM     92  O   UNL A   1      35.251  35.506  29.106  1.00  0.00    -0.237 OA
ATOM     93  O   UNL A   1      34.980  33.820  27.339  1.00  0.00    -0.744 OA
ENDBRANCH  87  90
ENDBRANCH  59  83
BRANCH  71  94
ATOM     94  C   UNL A   1      43.708  35.751  30.889  1.00  0.00     0.023 A 
ATOM     95  C   UNL A   1      43.817  36.704  29.858  1.00  0.00     0.012 A 
ATOM     96  C   UNL A   1      43.769  36.180  32.232  1.00  0.00     0.148 A 
ATOM     97  C   UNL A   1      44.002  38.056  30.157  1.00  0.00     0.002 A 
ATOM     98  C   UNL A   1      43.898  37.533  32.522  1.00  0.00     0.091 A 
ATOM     99  F   UNL A   1      43.689  35.258  33.202  1.00  0.00    -0.205 F 
ATOM    100  C   UNL A   1      44.027  38.472  31.486  1.00  0.00     0.022 A 
BRANCH  98 101
ATOM    101  S   UNL A   1      43.827  38.172  34.201  1.00  0.00     0.127 S 
ATOM    102  O   UNL A   1      43.505  36.969  34.965  1.00  0.00    -0.237 OA
ATOM    103  O   UNL A   1      45.187  38.675  34.399  1.00  0.00    -0.237 OA
ATOM    104  O   UNL A   1      42.797  39.202  34.198  1.00  0.00    -0.744 OA
ENDBRANCH  98 101
ENDBRANCH  71  94
ENDBRANCH  45  46
ENDBRANCH  37  40
ENDBRANCH  35  36
ENDBRANCH  34  35
ENDBRANCH   1  34
TORSDOF 18
ENDMDL
