MODEL 1
REMARK VINA RESULT:     -11.7      0.000      0.000
REMARK SMILES O=C(NCCCCNC(=O)C1CC2(CCCC2)C1)c1ccc(-c2c3nc(c(-c4cccc(S(=O)(=O)[O-])c4F)c4ccc([nH]4)c(-c4cccc(S(=O)(=O)[O-])c4F)c4nc(c(-c5cccc(S(=O)(=O)[O-])c5F)c5ccc2[nH]5)C=C4)C=C3)cc1
REMARK SMILES IDX 4 1 3 2 1 3 2 4 19 6 20 7 81 8 21 9 80 10 22 11 23 12 24 13
REMARK SMILES IDX 74 14 25 15 79 16 73 17 75 18 26 19 78 20 72 21 71 22 27 24
REMARK SMILES IDX 59 25 39 26 58 27 40 28 43 29 57 30 76 31 41 32 42 33 56 35
REMARK SMILES IDX 77 36 44 37 28 38 29 39 37 40 30 41 32 42 38 43 31 44 33 45
REMARK SMILES IDX 34 46 35 47 36 48 60 49 61 50 69 51 62 52 64 53 70 54 63 55
REMARK SMILES IDX 65 56 66 57 67 58 68 59 45 60 46 61 54 62 47 63 49 64 55 65
REMARK SMILES IDX 48 66 50 67 51 68 52 69 53 70 5 71 6 72 7 73 8 74 9 75 10 77
REMARK SMILES IDX 11 78 12 79 18 80 13 81 14 82 17 83 15 84 16 85
REMARK H PARENT 3 5 75 23 43 34 8 76
REMARK Flexibility Score: inf
ROOT
ATOM      1  C   UNL A   1      32.728  29.733  25.806  1.00  0.00     0.116 C 
ENDROOT
BRANCH   1   2
ATOM      2  N   UNL A   1      32.361  31.037  26.337  1.00  0.00    -0.352 N 
ATOM      3  O   UNL A   1      32.615  32.878  27.629  1.00  0.00    -0.269 OA
ATOM      4  C   UNL A   1      33.086  31.841  27.202  1.00  0.00     0.251 C 
ATOM      5  H   UNL A   1      31.490  31.392  26.046  1.00  0.00     0.163 HD
BRANCH   4   6
ATOM      6  C   UNL A   1      34.427  31.378  27.639  1.00  0.00     0.039 A 
ATOM      7  C   UNL A   1      34.630  30.042  27.983  1.00  0.00     0.014 A 
ATOM      8  C   UNL A   1      35.455  32.311  27.801  1.00  0.00     0.014 A 
ATOM      9  C   UNL A   1      35.784  29.679  28.671  1.00  0.00     0.010 A 
ATOM     10  C   UNL A   1      36.653  31.920  28.411  1.00  0.00     0.010 A 
ATOM     11  C   UNL A   1      36.804  30.616  28.909  1.00  0.00    -0.014 A 
BRANCH  11  12
ATOM     12  C   UNL A   1      38.011  30.202  29.675  1.00  0.00     0.031 A 
ATOM     13  C   UNL A   1      38.228  30.641  31.101  1.00  0.00     0.074 A 
ATOM     14  C   UNL A   1      38.909  29.387  29.085  1.00  0.00     0.049 A 
ATOM     15  N   UNL A   1      39.195  30.319  31.924  1.00  0.00    -0.248 NA
ATOM     16  C   UNL A   1      37.243  31.568  31.682  1.00  0.00     0.031 C 
ATOM     17  C   UNL A   1      38.835  28.922  27.697  1.00  0.00     0.029 A 
ATOM     18  N   UNL A   1      40.047  28.797  29.571  1.00  0.00    -0.354 N 
ATOM     19  C   UNL A   1      38.968  31.038  33.092  1.00  0.00     0.074 A 
ATOM     20  C   UNL A   1      37.768  31.818  32.874  1.00  0.00     0.031 C 
ATOM     21  C   UNL A   1      39.857  28.089  27.456  1.00  0.00     0.029 A 
ATOM     22  C   UNL A   1      40.687  27.999  28.652  1.00  0.00     0.049 A 
ATOM     23  H   UNL A   1      40.375  28.932  30.489  1.00  0.00     0.167 HD
ATOM     24  C   UNL A   1      39.682  31.039  34.245  1.00  0.00     0.034 A 
ATOM     25  C   UNL A   1      41.819  27.276  28.754  1.00  0.00     0.034 A 
ATOM     26  C   UNL A   1      40.841  30.220  34.480  1.00  0.00     0.049 A 
ATOM     27  C   UNL A   1      42.558  27.256  30.060  1.00  0.00     0.074 A 
ATOM     28  C   UNL A   1      41.587  30.097  35.641  1.00  0.00     0.029 A 
ATOM     29  N   UNL A   1      41.427  29.385  33.541  1.00  0.00    -0.354 N 
ATOM     30  N   UNL A   1      42.250  27.844  31.190  1.00  0.00    -0.248 NA
ATOM     31  C   UNL A   1      43.784  26.448  30.115  1.00  0.00     0.031 C 
ATOM     32  C   UNL A   1      42.634  29.200  35.398  1.00  0.00     0.029 A 
ATOM     33  C   UNL A   1      42.527  28.748  34.093  1.00  0.00     0.049 A 
ATOM     34  H   UNL A   1      41.109  29.264  32.618  1.00  0.00     0.167 HD
ATOM     35  C   UNL A   1      43.225  27.452  32.100  1.00  0.00     0.074 A 
ATOM     36  C   UNL A   1      44.118  26.557  31.394  1.00  0.00     0.031 C 
ATOM     37  C   UNL A   1      43.375  27.814  33.397  1.00  0.00     0.034 A 
BRANCH  24  38
ATOM     38  C   UNL A   1      39.210  31.929  35.368  1.00  0.00     0.023 A 
ATOM     39  C   UNL A   1      38.301  31.429  36.323  1.00  0.00     0.012 A 
ATOM     40  C   UNL A   1      39.725  33.233  35.524  1.00  0.00     0.148 A 
ATOM     41  C   UNL A   1      37.890  32.220  37.396  1.00  0.00     0.002 A 
ATOM     42  C   UNL A   1      39.341  34.001  36.618  1.00  0.00     0.091 A 
ATOM     43  F   UNL A   1      40.573  33.701  34.597  1.00  0.00    -0.205 F 
ATOM     44  C   UNL A   1      38.417  33.500  37.550  1.00  0.00     0.022 A 
BRANCH  42  45
ATOM     45  S   UNL A   1      40.027  35.630  36.942  1.00  0.00     0.127 S 
ATOM     46  O   UNL A   1      39.384  35.975  38.209  1.00  0.00    -0.237 OA
ATOM     47  O   UNL A   1      41.460  35.350  37.044  1.00  0.00    -0.237 OA
ATOM     48  O   UNL A   1      39.653  36.453  35.802  1.00  0.00    -0.744 OA
ENDBRANCH  42  45
ENDBRANCH  24  38
BRANCH  25  49
ATOM     49  C   UNL A   1      42.278  26.459  27.595  1.00  0.00     0.023 A 
ATOM     50  C   UNL A   1      43.174  27.022  26.666  1.00  0.00     0.012 A 
ATOM     51  C   UNL A   1      41.876  25.120  27.439  1.00  0.00     0.148 A 
ATOM     52  C   UNL A   1      43.642  26.270  25.587  1.00  0.00     0.002 A 
ATOM     53  C   UNL A   1      42.393  24.359  26.397  1.00  0.00     0.091 A 
ATOM     54  F   UNL A   1      41.009  24.608  28.325  1.00  0.00    -0.205 F 
ATOM     55  C   UNL A   1      43.263  24.936  25.460  1.00  0.00     0.022 A 
BRANCH  53  56
ATOM     56  S   UNL A   1      42.071  22.598  26.249  1.00  0.00     0.127 S 
ATOM     57  O   UNL A   1      40.613  22.566  26.173  1.00  0.00    -0.237 OA
ATOM     58  O   UNL A   1      42.761  22.266  25.001  1.00  0.00    -0.237 OA
ATOM     59  O   UNL A   1      42.661  21.994  27.436  1.00  0.00    -0.744 OA
ENDBRANCH  53  56
ENDBRANCH  25  49
BRANCH  37  60
ATOM     60  C   UNL A   1      44.528  27.212  34.156  1.00  0.00     0.023 A 
ATOM     61  C   UNL A   1      45.787  27.843  34.135  1.00  0.00     0.012 A 
ATOM     62  C   UNL A   1      44.349  26.051  34.933  1.00  0.00     0.148 A 
ATOM     63  C   UNL A   1      46.860  27.308  34.847  1.00  0.00     0.002 A 
ATOM     64  C   UNL A   1      45.411  25.549  35.677  1.00  0.00     0.091 A 
ATOM     65  F   UNL A   1      43.150  25.449  34.922  1.00  0.00    -0.205 F 
ATOM     66  C   UNL A   1      46.670  26.169  35.625  1.00  0.00     0.022 A 
BRANCH  64  67
ATOM     67  S   UNL A   1      45.220  24.142  36.778  1.00  0.00     0.127 S 
ATOM     68  O   UNL A   1      44.239  24.645  37.737  1.00  0.00    -0.237 OA
ATOM     69  O   UNL A   1      44.716  23.104  35.877  1.00  0.00    -0.237 OA
ATOM     70  O   UNL A   1      46.549  23.877  37.313  1.00  0.00    -0.744 OA
ENDBRANCH  64  67
ENDBRANCH  37  60
ENDBRANCH  11  12
ENDBRANCH   4   6
ENDBRANCH   1   2
BRANCH   1  71
ATOM     71  C   UNL A   1      31.591  29.017  25.085  1.00  0.00     0.023 C 
BRANCH  71  72
ATOM     72  C   UNL A   1      31.719  28.989  23.558  1.00  0.00     0.023 C 
BRANCH  72  73
ATOM     73  C   UNL A   1      33.099  28.502  23.094  1.00  0.00     0.116 C 
BRANCH  73  74
ATOM     74  N   UNL A   1      33.012  27.482  22.052  1.00  0.00    -0.356 N 
ATOM     75  C   UNL A   1      33.287  26.130  21.979  1.00  0.00     0.223 C 
ATOM     76  H   UNL A   1      32.679  27.844  21.199  1.00  0.00     0.163 HD
ATOM     77  O   UNL A   1      33.082  25.610  20.872  1.00  0.00    -0.275 OA
BRANCH  75  78
ATOM     78  C   UNL A   1      33.784  25.288  23.196  1.00  0.00     0.079 C 
ATOM     79  C   UNL A   1      32.935  24.021  23.669  1.00  0.00     0.020 C 
ATOM     80  C   UNL A   1      33.473  25.755  24.606  1.00  0.00     0.020 C 
ATOM     81  C   UNL A   1      32.013  25.088  24.420  1.00  0.00    -0.028 C 
ATOM     82  C   UNL A   1      31.417  25.413  25.799  1.00  0.00     0.007 C 
ATOM     83  C   UNL A   1      30.790  25.092  23.477  1.00  0.00     0.007 C 
ATOM     84  C   UNL A   1      29.910  25.599  25.598  1.00  0.00     0.001 C 
ATOM     85  C   UNL A   1      29.747  25.957  24.135  1.00  0.00     0.001 C 
ENDBRANCH  75  78
ENDBRANCH  73  74
ENDBRANCH  72  73
ENDBRANCH  71  72
ENDBRANCH   1  71
TORSDOF 14
ENDMDL
MODEL 2
REMARK VINA RESULT:     -11.6      5.456     10.450
REMARK SMILES O=C(NCCCCNC(=O)C1CC2(CCCC2)C1)c1ccc(-c2c3nc(c(-c4cccc(S(=O)(=O)[O-])c4F)c4ccc([nH]4)c(-c4cccc(S(=O)(=O)[O-])c4F)c4nc(c(-c5cccc(S(=O)(=O)[O-])c5F)c5ccc2[nH]5)C=C4)C=C3)cc1
REMARK SMILES IDX 4 1 3 2 1 3 2 4 19 6 20 7 81 8 21 9 80 10 22 11 23 12 24 13
REMARK SMILES IDX 74 14 25 15 79 16 73 17 75 18 26 19 78 20 72 21 71 22 27 24
REMARK SMILES IDX 59 25 39 26 58 27 40 28 43 29 57 30 76 31 41 32 42 33 56 35
REMARK SMILES IDX 77 36 44 37 28 38 29 39 37 40 30 41 32 42 38 43 31 44 33 45
REMARK SMILES IDX 34 46 35 47 36 48 60 49 61 50 69 51 62 52 64 53 70 54 63 55
REMARK SMILES IDX 65 56 66 57 67 58 68 59 45 60 46 61 54 62 47 63 49 64 55 65
REMARK SMILES IDX 48 66 50 67 51 68 52 69 53 70 5 71 6 72 7 73 8 74 9 75 10 77
REMARK SMILES IDX 11 78 12 79 18 80 13 81 14 82 17 83 15 84 16 85
REMARK H PARENT 3 5 75 23 43 34 8 76
REMARK Flexibility Score: inf
ROOT
ATOM      1  C   UNL A   1      36.609  21.873  25.547  1.00  0.00     0.116 C 
ENDROOT
BRANCH   1   2
ATOM      2  N   UNL A   1      37.647  20.854  25.498  1.00  0.00    -0.352 N 
ATOM      3  O   UNL A   1      39.744  20.040  25.745  1.00  0.00    -0.269 OA
ATOM      4  C   UNL A   1      38.961  20.955  25.924  1.00  0.00     0.251 C 
ATOM      5  H   UNL A   1      37.382  19.987  25.115  1.00  0.00     0.163 HD
BRANCH   4   6
ATOM      6  C   UNL A   1      39.405  22.224  26.552  1.00  0.00     0.039 A 
ATOM      7  C   UNL A   1      38.904  23.444  26.098  1.00  0.00     0.014 A 
ATOM      8  C   UNL A   1      40.403  22.193  27.529  1.00  0.00     0.014 A 
ATOM      9  C   UNL A   1      39.537  24.626  26.470  1.00  0.00     0.010 A 
ATOM     10  C   UNL A   1      40.974  23.392  27.972  1.00  0.00     0.010 A 
ATOM     11  C   UNL A   1      40.591  24.615  27.400  1.00  0.00    -0.014 A 
BRANCH  11  12
ATOM     12  C   UNL A   1      41.265  25.895  27.753  1.00  0.00     0.031 A 
ATOM     13  C   UNL A   1      42.650  26.219  27.255  1.00  0.00     0.074 A 
ATOM     14  C   UNL A   1      40.600  26.793  28.508  1.00  0.00     0.049 A 
ATOM     15  N   UNL A   1      43.351  27.313  27.423  1.00  0.00    -0.248 NA
ATOM     16  C   UNL A   1      43.349  25.184  26.475  1.00  0.00     0.031 C 
ATOM     17  C   UNL A   1      39.270  26.585  29.086  1.00  0.00     0.029 A 
ATOM     18  N   UNL A   1      40.941  28.059  28.911  1.00  0.00    -0.354 N 
ATOM     19  C   UNL A   1      44.583  27.081  26.822  1.00  0.00     0.074 A 
ATOM     20  C   UNL A   1      44.539  25.739  26.282  1.00  0.00     0.031 C 
ATOM     21  C   UNL A   1      38.891  27.696  29.732  1.00  0.00     0.029 A 
ATOM     22  C   UNL A   1      39.968  28.677  29.661  1.00  0.00     0.049 A 
ATOM     23  H   UNL A   1      41.800  28.485  28.686  1.00  0.00     0.167 HD
ATOM     24  C   UNL A   1      45.649  27.913  26.715  1.00  0.00     0.034 A 
ATOM     25  C   UNL A   1      39.942  29.896  30.233  1.00  0.00     0.034 A 
ATOM     26  C   UNL A   1      45.672  29.267  27.202  1.00  0.00     0.049 A 
ATOM     27  C   UNL A   1      41.116  30.814  30.051  1.00  0.00     0.074 A 
ATOM     28  C   UNL A   1      46.678  30.211  27.075  1.00  0.00     0.029 A 
ATOM     29  N   UNL A   1      44.645  29.874  27.910  1.00  0.00    -0.354 N 
ATOM     30  N   UNL A   1      42.216  30.618  29.368  1.00  0.00    -0.248 NA
ATOM     31  C   UNL A   1      41.031  32.133  30.695  1.00  0.00     0.031 C 
ATOM     32  C   UNL A   1      46.265  31.382  27.721  1.00  0.00     0.029 A 
ATOM     33  C   UNL A   1      44.994  31.175  28.231  1.00  0.00     0.049 A 
ATOM     34  H   UNL A   1      43.794  29.442  28.150  1.00  0.00     0.167 HD
ATOM     35  C   UNL A   1      42.942  31.799  29.471  1.00  0.00     0.074 A 
ATOM     36  C   UNL A   1      42.142  32.712  30.262  1.00  0.00     0.031 C 
ATOM     37  C   UNL A   1      44.166  32.094  28.969  1.00  0.00     0.034 A 
BRANCH  24  38
ATOM     38  C   UNL A   1      46.879  27.400  26.008  1.00  0.00     0.023 A 
ATOM     39  C   UNL A   1      47.754  26.519  26.676  1.00  0.00     0.012 A 
ATOM     40  C   UNL A   1      47.128  27.726  24.659  1.00  0.00     0.148 A 
ATOM     41  C   UNL A   1      48.870  25.995  26.024  1.00  0.00     0.002 A 
ATOM     42  C   UNL A   1      48.220  27.168  24.003  1.00  0.00     0.091 A 
ATOM     43  F   UNL A   1      46.298  28.581  24.044  1.00  0.00    -0.205 F 
ATOM     44  C   UNL A   1      49.098  26.310  24.687  1.00  0.00     0.022 A 
BRANCH  42  45
ATOM     45  S   UNL A   1      48.549  27.454  22.260  1.00  0.00     0.127 S 
ATOM     46  O   UNL A   1      49.816  28.183  22.314  1.00  0.00    -0.237 OA
ATOM     47  O   UNL A   1      48.653  26.091  21.736  1.00  0.00    -0.237 OA
ATOM     48  O   UNL A   1      47.410  28.207  21.758  1.00  0.00    -0.744 OA
ENDBRANCH  42  45
ENDBRANCH  24  38
BRANCH  25  49
ATOM     49  C   UNL A   1      38.726  30.336  30.974  1.00  0.00     0.023 A 
ATOM     50  C   UNL A   1      38.641  30.105  32.360  1.00  0.00     0.012 A 
ATOM     51  C   UNL A   1      37.683  31.025  30.327  1.00  0.00     0.148 A 
ATOM     52  C   UNL A   1      37.527  30.531  33.084  1.00  0.00     0.002 A 
ATOM     53  C   UNL A   1      36.605  31.500  31.063  1.00  0.00     0.091 A 
ATOM     54  F   UNL A   1      37.776  31.221  29.003  1.00  0.00    -0.205 F 
ATOM     55  C   UNL A   1      36.516  31.240  32.440  1.00  0.00     0.022 A 
BRANCH  53  56
ATOM     56  S   UNL A   1      35.338  32.546  30.337  1.00  0.00     0.127 S 
ATOM     57  O   UNL A   1      34.855  31.713  29.241  1.00  0.00    -0.237 OA
ATOM     58  O   UNL A   1      34.400  32.707  31.451  1.00  0.00    -0.237 OA
ATOM     59  O   UNL A   1      36.022  33.774  29.952  1.00  0.00    -0.744 OA
ENDBRANCH  53  56
ENDBRANCH  25  49
BRANCH  37  60
ATOM     60  C   UNL A   1      44.705  33.476  29.225  1.00  0.00     0.023 A 
ATOM     61  C   UNL A   1      45.378  33.754  30.431  1.00  0.00     0.012 A 
ATOM     62  C   UNL A   1      44.592  34.484  28.248  1.00  0.00     0.148 A 
ATOM     63  C   UNL A   1      45.899  35.024  30.676  1.00  0.00     0.002 A 
ATOM     64  C   UNL A   1      45.155  35.735  28.480  1.00  0.00     0.091 A 
ATOM     65  F   UNL A   1      43.927  34.210  27.115  1.00  0.00    -0.205 F 
ATOM     66  C   UNL A   1      45.797  36.010  29.697  1.00  0.00     0.022 A 
BRANCH  64  67
ATOM     67  S   UNL A   1      45.148  37.027  27.231  1.00  0.00     0.127 S 
ATOM     68  O   UNL A   1      46.000  36.445  26.195  1.00  0.00    -0.237 OA
ATOM     69  O   UNL A   1      43.731  37.114  26.876  1.00  0.00    -0.237 OA
ATOM     70  O   UNL A   1      45.675  38.215  27.889  1.00  0.00    -0.744 OA
ENDBRANCH  64  67
ENDBRANCH  37  60
ENDBRANCH  11  12
ENDBRANCH   4   6
ENDBRANCH   1   2
BRANCH   1  71
ATOM     71  C   UNL A   1      35.323  21.481  24.827  1.00  0.00     0.023 C 
BRANCH  71  72
ATOM     72  C   UNL A   1      34.204  20.976  25.745  1.00  0.00     0.023 C 
BRANCH  72  73
ATOM     73  C   UNL A   1      33.987  21.888  26.961  1.00  0.00     0.116 C 
BRANCH  73  74
ATOM     74  N   UNL A   1      32.586  22.259  27.141  1.00  0.00    -0.356 N 
ATOM     75  C   UNL A   1      31.851  23.417  26.974  1.00  0.00     0.223 C 
ATOM     76  H   UNL A   1      32.035  21.506  27.455  1.00  0.00     0.163 HD
ATOM     77  O   UNL A   1      30.645  23.319  27.251  1.00  0.00    -0.275 OA
BRANCH  75  78
ATOM     78  C   UNL A   1      32.459  24.751  26.439  1.00  0.00     0.079 C 
ATOM     79  C   UNL A   1      31.831  25.431  25.138  1.00  0.00     0.020 C 
ATOM     80  C   UNL A   1      33.696  24.711  25.561  1.00  0.00     0.020 C 
ATOM     81  C   UNL A   1      32.711  24.373  24.326  1.00  0.00    -0.028 C 
ATOM     82  C   UNL A   1      33.753  24.278  23.199  1.00  0.00     0.007 C 
ATOM     83  C   UNL A   1      31.605  23.386  23.892  1.00  0.00     0.007 C 
ATOM     84  C   UNL A   1      33.223  23.254  22.190  1.00  0.00     0.001 C 
ATOM     85  C   UNL A   1      32.261  22.387  22.975  1.00  0.00     0.001 C 
ENDBRANCH  75  78
ENDBRANCH  73  74
ENDBRANCH  72  73
ENDBRANCH  71  72
ENDBRANCH   1  71
TORSDOF 14
ENDMDL
MODEL 3
REMARK VINA RESULT:     -11.5      5.148     10.284
REMARK SMILES O=C(NCCCCNC(=O)C1CC2(CCCC2)C1)c1ccc(-c2c3nc(c(-c4cccc(S(=O)(=O)[O-])c4F)c4ccc([nH]4)c(-c4cccc(S(=O)(=O)[O-])c4F)c4nc(c(-c5cccc(S(=O)(=O)[O-])c5F)c5ccc2[nH]5)C=C4)C=C3)cc1
REMARK SMILES IDX 4 1 3 2 1 3 2 4 19 6 20 7 81 8 21 9 80 10 22 11 23 12 24 13
REMARK SMILES IDX 74 14 25 15 79 16 73 17 75 18 26 19 78 20 72 21 71 22 27 24
REMARK SMILES IDX 59 25 39 26 58 27 40 28 43 29 57 30 76 31 41 32 42 33 56 35
REMARK SMILES IDX 77 36 44 37 28 38 29 39 37 40 30 41 32 42 38 43 31 44 33 45
REMARK SMILES IDX 34 46 35 47 36 48 60 49 61 50 69 51 62 52 64 53 70 54 63 55
REMARK SMILES IDX 65 56 66 57 67 58 68 59 45 60 46 61 54 62 47 63 49 64 55 65
REMARK SMILES IDX 48 66 50 67 51 68 52 69 53 70 5 71 6 72 7 73 8 74 9 75 10 77
REMARK SMILES IDX 11 78 12 79 18 80 13 81 14 82 17 83 15 84 16 85
REMARK H PARENT 3 5 75 23 43 34 8 76
REMARK Flexibility Score: inf
ROOT
ATOM      1  C   UNL A   1      36.555  21.929  25.534  1.00  0.00     0.116 C 
ENDROOT
BRANCH   1   2
ATOM      2  N   UNL A   1      37.574  20.891  25.471  1.00  0.00    -0.352 N 
ATOM      3  O   UNL A   1      39.656  20.036  25.708  1.00  0.00    -0.269 OA
ATOM      4  C   UNL A   1      38.890  20.962  25.899  1.00  0.00     0.251 C 
ATOM      5  H   UNL A   1      37.294  20.035  25.077  1.00  0.00     0.163 HD
BRANCH   4   6
ATOM      6  C   UNL A   1      39.356  22.215  26.544  1.00  0.00     0.039 A 
ATOM      7  C   UNL A   1      38.840  23.446  26.142  1.00  0.00     0.014 A 
ATOM      8  C   UNL A   1      40.390  22.158  27.484  1.00  0.00     0.014 A 
ATOM      9  C   UNL A   1      39.486  24.617  26.523  1.00  0.00     0.010 A 
ATOM     10  C   UNL A   1      40.977  23.345  27.937  1.00  0.00     0.010 A 
ATOM     11  C   UNL A   1      40.573  24.582  27.413  1.00  0.00    -0.014 A 
BRANCH  11  12
ATOM     12  C   UNL A   1      41.260  25.853  27.776  1.00  0.00     0.031 A 
ATOM     13  C   UNL A   1      42.657  26.157  27.297  1.00  0.00     0.074 A 
ATOM     14  C   UNL A   1      40.598  26.761  28.521  1.00  0.00     0.049 A 
ATOM     15  N   UNL A   1      43.370  27.241  27.475  1.00  0.00    -0.248 NA
ATOM     16  C   UNL A   1      43.352  25.112  26.527  1.00  0.00     0.031 C 
ATOM     17  C   UNL A   1      39.257  26.571  29.079  1.00  0.00     0.029 A 
ATOM     18  N   UNL A   1      40.950  28.022  28.928  1.00  0.00    -0.354 N 
ATOM     19  C   UNL A   1      44.608  26.992  26.892  1.00  0.00     0.074 A 
ATOM     20  C   UNL A   1      44.552  25.651  26.352  1.00  0.00     0.031 C 
ATOM     21  C   UNL A   1      38.884  27.688  29.720  1.00  0.00     0.029 A 
ATOM     22  C   UNL A   1      39.975  28.653  29.664  1.00  0.00     0.049 A 
ATOM     23  H   UNL A   1      41.819  28.435  28.715  1.00  0.00     0.167 HD
ATOM     24  C   UNL A   1      45.687  27.809  26.800  1.00  0.00     0.034 A 
ATOM     25  C   UNL A   1      39.958  29.873  30.235  1.00  0.00     0.034 A 
ATOM     26  C   UNL A   1      45.721  29.163  27.286  1.00  0.00     0.049 A 
ATOM     27  C   UNL A   1      41.147  30.774  30.070  1.00  0.00     0.074 A 
ATOM     28  C   UNL A   1      46.742  30.092  27.174  1.00  0.00     0.029 A 
ATOM     29  N   UNL A   1      44.694  29.784  27.979  1.00  0.00    -0.354 N 
ATOM     30  N   UNL A   1      42.255  30.563  29.402  1.00  0.00    -0.248 NA
ATOM     31  C   UNL A   1      41.072  32.094  30.712  1.00  0.00     0.031 C 
ATOM     32  C   UNL A   1      46.337  31.269  27.814  1.00  0.00     0.029 A 
ATOM     33  C   UNL A   1      45.056  31.081  28.306  1.00  0.00     0.049 A 
ATOM     34  H   UNL A   1      43.833  29.364  28.208  1.00  0.00     0.167 HD
ATOM     35  C   UNL A   1      42.996  31.733  29.515  1.00  0.00     0.074 A 
ATOM     36  C   UNL A   1      42.197  32.658  30.295  1.00  0.00     0.031 C 
ATOM     37  C   UNL A   1      44.230  32.011  29.031  1.00  0.00     0.034 A 
BRANCH  24  38
ATOM     38  C   UNL A   1      46.919  27.278  26.110  1.00  0.00     0.023 A 
ATOM     39  C   UNL A   1      47.087  27.477  24.725  1.00  0.00     0.012 A 
ATOM     40  C   UNL A   1      47.947  26.651  26.845  1.00  0.00     0.148 A 
ATOM     41  C   UNL A   1      48.241  27.037  24.077  1.00  0.00     0.002 A 
ATOM     42  C   UNL A   1      49.112  26.251  26.200  1.00  0.00     0.091 A 
ATOM     43  F   UNL A   1      47.763  26.451  28.158  1.00  0.00    -0.205 F 
ATOM     44  C   UNL A   1      49.257  26.434  24.815  1.00  0.00     0.022 A 
BRANCH  42  45
ATOM     45  S   UNL A   1      50.507  25.537  27.080  1.00  0.00     0.127 S 
ATOM     46  O   UNL A   1      49.897  24.358  27.693  1.00  0.00    -0.237 OA
ATOM     47  O   UNL A   1      51.443  25.244  25.994  1.00  0.00    -0.237 OA
ATOM     48  O   UNL A   1      50.961  26.565  28.006  1.00  0.00    -0.744 OA
ENDBRANCH  42  45
ENDBRANCH  24  38
BRANCH  25  49
ATOM     49  C   UNL A   1      38.738  30.331  30.959  1.00  0.00     0.023 A 
ATOM     50  C   UNL A   1      38.644  30.130  32.349  1.00  0.00     0.012 A 
ATOM     51  C   UNL A   1      37.700  31.006  30.290  1.00  0.00     0.148 A 
ATOM     52  C   UNL A   1      37.526  30.572  33.056  1.00  0.00     0.002 A 
ATOM     53  C   UNL A   1      36.619  31.498  31.009  1.00  0.00     0.091 A 
ATOM     54  F   UNL A   1      37.801  31.173  28.963  1.00  0.00    -0.205 F 
ATOM     55  C   UNL A   1      36.520  31.268  32.390  1.00  0.00     0.022 A 
BRANCH  53  56
ATOM     56  S   UNL A   1      35.357  32.530  30.252  1.00  0.00     0.127 S 
ATOM     57  O   UNL A   1      36.132  33.697  29.843  1.00  0.00    -0.237 OA
ATOM     58  O   UNL A   1      34.889  31.682  29.154  1.00  0.00    -0.237 OA
ATOM     59  O   UNL A   1      34.365  32.757  31.295  1.00  0.00    -0.744 OA
ENDBRANCH  53  56
ENDBRANCH  25  49
BRANCH  37  60
ATOM     60  C   UNL A   1      44.785  33.386  29.295  1.00  0.00     0.023 A 
ATOM     61  C   UNL A   1      45.464  33.649  30.501  1.00  0.00     0.012 A 
ATOM     62  C   UNL A   1      44.681  34.401  28.325  1.00  0.00     0.148 A 
ATOM     63  C   UNL A   1      46.000  34.911  30.753  1.00  0.00     0.002 A 
ATOM     64  C   UNL A   1      45.258  35.644  28.563  1.00  0.00     0.091 A 
ATOM     65  F   UNL A   1      44.010  34.141  27.192  1.00  0.00    -0.205 F 
ATOM     66  C   UNL A   1      45.906  35.904  29.780  1.00  0.00     0.022 A 
BRANCH  64  67
ATOM     67  S   UNL A   1      45.262  36.944  27.323  1.00  0.00     0.127 S 
ATOM     68  O   UNL A   1      46.055  36.336  26.255  1.00  0.00    -0.237 OA
ATOM     69  O   UNL A   1      43.838  37.091  27.016  1.00  0.00    -0.237 OA
ATOM     70  O   UNL A   1      45.858  38.105  27.969  1.00  0.00    -0.744 OA
ENDBRANCH  64  67
ENDBRANCH  37  60
ENDBRANCH  11  12
ENDBRANCH   4   6
ENDBRANCH   1   2
BRANCH   1  71
ATOM     71  C   UNL A   1      35.191  21.487  25.012  1.00  0.00     0.023 C 
BRANCH  71  72
ATOM     72  C   UNL A   1      34.230  20.975  26.091  1.00  0.00     0.023 C 
BRANCH  72  73
ATOM     73  C   UNL A   1      33.943  22.029  27.170  1.00  0.00     0.116 C 
BRANCH  73  74
ATOM     74  N   UNL A   1      32.523  22.355  27.272  1.00  0.00    -0.356 N 
ATOM     75  C   UNL A   1      31.752  23.471  27.005  1.00  0.00     0.223 C 
ATOM     76  H   UNL A   1      31.988  21.601  27.612  1.00  0.00     0.163 HD
ATOM     77  O   UNL A   1      30.541  23.342  27.243  1.00  0.00    -0.275 OA
BRANCH  75  78
ATOM     78  C   UNL A   1      32.332  24.793  26.413  1.00  0.00     0.079 C 
ATOM     79  C   UNL A   1      31.684  25.406  25.088  1.00  0.00     0.020 C 
ATOM     80  C   UNL A   1      33.564  24.740  25.530  1.00  0.00     0.020 C 
ATOM     81  C   UNL A   1      32.579  24.333  24.315  1.00  0.00    -0.028 C 
ATOM     82  C   UNL A   1      33.618  24.211  23.187  1.00  0.00     0.007 C 
ATOM     83  C   UNL A   1      31.491  23.308  23.929  1.00  0.00     0.007 C 
ATOM     84  C   UNL A   1      33.103  23.137  22.225  1.00  0.00     0.001 C 
ATOM     85  C   UNL A   1      32.162  22.284  23.051  1.00  0.00     0.001 C 
ENDBRANCH  75  78
ENDBRANCH  73  74
ENDBRANCH  72  73
ENDBRANCH  71  72
ENDBRANCH   1  71
TORSDOF 14
ENDMDL
