MODEL 1
REMARK VINA RESULT:     -11.7      0.000      0.000
REMARK SMILES COc1ccc(C(=O)C2=C(NCCCCNC(=O)c3ccc(-c4c5nc(c(-c6cccc(S(=O)(=O)[O-])c6F)c6ccc([nH]6)c(-c6cccc(S(=O)(=O)[O-])c6F)c6nc(c(-c7cccc(S(=O)(=O)[O-])c7F)c7ccc4[nH]7)C=C6)C=C5)cc3)C(=O)N(CCC(=O)[O-])[C@H]2c2ccccc2F)cc1
REMARK SMILES IDX 13 1 12 2 11 3 10 5 9 6 90 7 82 8 84 9 83 10 7 11 8 12 6 13
REMARK SMILES IDX 3 14 4 15 99 16 5 17 98 18 2 19 1 20 91 21 92 22 96 23 93 24
REMARK SMILES IDX 95 25 97 26 94 27 85 28 86 29 87 30 88 31 89 32 14 33 15 34
REMARK SMILES IDX 16 35 17 36 18 38 19 39 20 40 81 41 21 42 80 43 22 44 23 45
REMARK SMILES IDX 24 46 74 47 25 48 79 49 73 50 75 51 26 52 78 53 72 54 71 55
REMARK SMILES IDX 27 57 59 58 39 59 58 60 40 61 43 62 57 63 76 64 41 65 42 66
REMARK SMILES IDX 56 68 77 69 44 70 28 71 29 72 37 73 30 74 32 75 38 76 31 77
REMARK SMILES IDX 33 78 34 79 35 80 36 81 60 82 61 83 69 84 62 85 64 86 70 87
REMARK SMILES IDX 63 88 65 89 66 90 67 91 68 92 45 93 46 94 54 95 47 96 49 97
REMARK SMILES IDX 55 98 48 99 50 100 51 101 52 102 53 103
REMARK H PARENT 11 4 16 37 75 56 43 67
REMARK Flexibility Score: inf
ROOT
ATOM      1  C   UNL A   1      33.917  29.715  27.100  1.00  0.00     0.023 C 
ENDROOT
BRANCH   1   2
ATOM      2  C   UNL A   1      33.241  28.424  27.548  1.00  0.00     0.113 C 
BRANCH   2   3
ATOM      3  N   UNL A   1      31.886  28.379  27.050  1.00  0.00    -0.380 N 
ATOM      4  H   UNL A   1      31.217  28.844  27.601  1.00  0.00     0.160 HD
BRANCH   3   5
ATOM      5  C   UNL A   1      31.403  27.780  25.918  1.00  0.00     0.110 C 
ATOM      6  C   UNL A   1      31.182  26.525  25.517  1.00  0.00     0.056 C 
ATOM      7  C   UNL A   1      30.575  26.389  24.153  1.00  0.00     0.155 C 
ATOM      8  C   UNL A   1      30.971  28.625  24.755  1.00  0.00     0.271 C 
ATOM      9  N   UNL A   1      30.472  27.784  23.778  1.00  0.00    -0.326 N 
ATOM     10  O   UNL A   1      31.042  29.836  24.729  1.00  0.00    -0.267 OA
BRANCH   6  11
ATOM     11  C   UNL A   1      31.471  25.339  26.335  1.00  0.00     0.193 C 
ATOM     12  O   UNL A   1      30.590  24.844  27.030  1.00  0.00    -0.289 OA
BRANCH  11  13
ATOM     13  C   UNL A   1      32.832  24.722  26.252  1.00  0.00     0.023 A 
ATOM     14  C   UNL A   1      35.263  23.351  25.864  1.00  0.00     0.118 A 
ATOM     15  C   UNL A   1      34.215  22.754  26.569  1.00  0.00     0.047 A 
ATOM     16  C   UNL A   1      35.121  24.665  25.424  1.00  0.00     0.047 A 
ATOM     17  C   UNL A   1      33.004  23.429  26.756  1.00  0.00     0.016 A 
ATOM     18  C   UNL A   1      33.922  25.355  25.640  1.00  0.00     0.016 A 
BRANCH  14  19
ATOM     19  O   UNL A   1      36.358  22.555  25.672  1.00  0.00    -0.497 OA
ATOM     20  C   UNL A   1      36.326  21.690  24.542  1.00  0.00     0.278 C 
ENDBRANCH  14  19
ENDBRANCH  11  13
ENDBRANCH   6  11
BRANCH   7  21
ATOM     21  C   UNL A   1      31.441  25.567  23.219  1.00  0.00     0.015 A 
ATOM     22  C   UNL A   1      32.498  26.122  22.474  1.00  0.00     0.009 A 
ATOM     23  C   UNL A   1      31.295  24.175  23.214  1.00  0.00     0.128 A 
ATOM     24  C   UNL A   1      33.399  25.296  21.794  1.00  0.00     0.001 A 
ATOM     25  C   UNL A   1      32.190  23.349  22.542  1.00  0.00     0.039 A 
ATOM     26  F   UNL A   1      30.303  23.610  23.916  1.00  0.00    -0.207 F 
ATOM     27  C   UNL A   1      33.254  23.910  21.841  1.00  0.00     0.003 A 
ENDBRANCH   7  21
BRANCH   9  28
ATOM     28  C   UNL A   1      29.772  28.258  22.591  1.00  0.00     0.127 C 
BRANCH  28  29
ATOM     29  C   UNL A   1      28.295  28.543  22.841  1.00  0.00     0.074 C 
BRANCH  29  30
ATOM     30  C   UNL A   1      27.893  29.841  22.206  1.00  0.00     0.043 C 
ATOM     31  O   UNL A   1      28.086  30.149  21.041  1.00  0.00    -0.550 OA
ATOM     32  O   UNL A   1      27.318  30.690  23.078  1.00  0.00    -0.550 OA
ENDBRANCH  29  30
ENDBRANCH  28  29
ENDBRANCH   9  28
ENDBRANCH   3   5
ENDBRANCH   2   3
ENDBRANCH   1   2
BRANCH   1  33
ATOM     33  C   UNL A   1      33.104  30.980  27.374  1.00  0.00     0.023 C 
BRANCH  33  34
ATOM     34  C   UNL A   1      33.898  32.281  27.301  1.00  0.00     0.116 C 
BRANCH  34  35
ATOM     35  N   UNL A   1      33.177  33.416  27.868  1.00  0.00    -0.352 N 
ATOM     36  C   UNL A   1      33.397  34.084  29.048  1.00  0.00     0.251 C 
ATOM     37  H   UNL A   1      32.424  33.749  27.328  1.00  0.00     0.163 HD
ATOM     38  O   UNL A   1      32.593  34.920  29.449  1.00  0.00    -0.269 OA
BRANCH  36  39
ATOM     39  C   UNL A   1      34.599  33.765  29.845  1.00  0.00     0.039 A 
ATOM     40  C   UNL A   1      34.479  32.897  30.933  1.00  0.00     0.014 A 
ATOM     41  C   UNL A   1      35.847  34.274  29.478  1.00  0.00     0.014 A 
ATOM     42  C   UNL A   1      35.628  32.461  31.594  1.00  0.00     0.010 A 
ATOM     43  C   UNL A   1      36.995  33.782  30.089  1.00  0.00     0.010 A 
ATOM     44  C   UNL A   1      36.898  32.857  31.140  1.00  0.00    -0.014 A 
BRANCH  44  45
ATOM     45  C   UNL A   1      38.139  32.256  31.693  1.00  0.00     0.031 A 
ATOM     46  C   UNL A   1      38.811  31.111  30.992  1.00  0.00     0.074 A 
ATOM     47  C   UNL A   1      38.580  32.656  32.903  1.00  0.00     0.049 A 
ATOM     48  N   UNL A   1      39.838  30.399  31.376  1.00  0.00    -0.248 NA
ATOM     49  C   UNL A   1      38.238  30.693  29.703  1.00  0.00     0.031 C 
ATOM     50  C   UNL A   1      37.955  33.693  33.726  1.00  0.00     0.029 A 
ATOM     51  N   UNL A   1      39.626  32.207  33.671  1.00  0.00    -0.354 N 
ATOM     52  C   UNL A   1      40.011  29.425  30.400  1.00  0.00     0.074 A 
ATOM     53  C   UNL A   1      38.967  29.624  29.418  1.00  0.00     0.031 C 
ATOM     54  C   UNL A   1      38.617  33.789  34.889  1.00  0.00     0.029 A 
ATOM     55  C   UNL A   1      39.686  32.796  34.912  1.00  0.00     0.049 A 
ATOM     56  H   UNL A   1      40.270  31.529  33.362  1.00  0.00     0.167 HD
ATOM     57  C   UNL A   1      40.964  28.466  30.321  1.00  0.00     0.034 A 
ATOM     58  C   UNL A   1      40.488  32.548  35.966  1.00  0.00     0.034 A 
ATOM     59  C   UNL A   1      42.015  28.292  31.287  1.00  0.00     0.049 A 
ATOM     60  C   UNL A   1      41.556  31.497  35.845  1.00  0.00     0.074 A 
ATOM     61  C   UNL A   1      43.097  27.431  31.234  1.00  0.00     0.029 A 
ATOM     62  N   UNL A   1      42.101  28.967  32.497  1.00  0.00    -0.354 N 
ATOM     63  N   UNL A   1      41.830  30.716  34.827  1.00  0.00    -0.248 NA
ATOM     64  C   UNL A   1      42.444  31.311  37.001  1.00  0.00     0.031 C 
ATOM     65  C   UNL A   1      43.815  27.556  32.430  1.00  0.00     0.029 A 
ATOM     66  C   UNL A   1      43.198  28.519  33.214  1.00  0.00     0.049 A 
ATOM     67  H   UNL A   1      41.474  29.662  32.800  1.00  0.00     0.167 HD
ATOM     68  C   UNL A   1      42.928  29.958  35.213  1.00  0.00     0.074 A 
ATOM     69  C   UNL A   1      43.288  30.394  36.547  1.00  0.00     0.031 C 
ATOM     70  C   UNL A   1      43.569  28.977  34.529  1.00  0.00     0.034 A 
BRANCH  57  71
ATOM     71  C   UNL A   1      40.930  27.548  29.127  1.00  0.00     0.023 A 
ATOM     72  C   UNL A   1      39.992  26.497  29.078  1.00  0.00     0.012 A 
ATOM     73  C   UNL A   1      41.799  27.749  28.036  1.00  0.00     0.148 A 
ATOM     74  C   UNL A   1      39.948  25.635  27.983  1.00  0.00     0.002 A 
ATOM     75  C   UNL A   1      41.716  26.914  26.928  1.00  0.00     0.091 A 
ATOM     76  F   UNL A   1      42.700  28.740  28.108  1.00  0.00    -0.205 F 
ATOM     77  C   UNL A   1      40.802  25.848  26.906  1.00  0.00     0.022 A 
BRANCH  75  78
ATOM     78  S   UNL A   1      42.719  27.160  25.458  1.00  0.00     0.127 S 
ATOM     79  O   UNL A   1      44.056  27.302  26.033  1.00  0.00    -0.237 OA
ATOM     80  O   UNL A   1      42.502  25.913  24.724  1.00  0.00    -0.237 OA
ATOM     81  O   UNL A   1      42.186  28.347  24.805  1.00  0.00    -0.744 OA
ENDBRANCH  75  78
ENDBRANCH  57  71
BRANCH  58  82
ATOM     82  C   UNL A   1      40.317  33.338  37.217  1.00  0.00     0.023 A 
ATOM     83  C   UNL A   1      41.018  34.548  37.379  1.00  0.00     0.012 A 
ATOM     84  C   UNL A   1      39.410  32.930  38.215  1.00  0.00     0.148 A 
ATOM     85  C   UNL A   1      40.834  35.327  38.522  1.00  0.00     0.002 A 
ATOM     86  C   UNL A   1      39.186  33.739  39.321  1.00  0.00     0.091 A 
ATOM     87  F   UNL A   1      38.759  31.770  38.043  1.00  0.00    -0.205 F 
ATOM     88  C   UNL A   1      39.910  34.931  39.485  1.00  0.00     0.022 A 
BRANCH  86  89
ATOM     89  S   UNL A   1      37.912  33.384  40.538  1.00  0.00     0.127 S 
ATOM     90  O   UNL A   1      37.860  34.634  41.290  1.00  0.00    -0.237 OA
ATOM     91  O   UNL A   1      36.750  33.126  39.687  1.00  0.00    -0.237 OA
ATOM     92  O   UNL A   1      38.386  32.222  41.277  1.00  0.00    -0.744 OA
ENDBRANCH  86  89
ENDBRANCH  58  82
BRANCH  70  93
ATOM     93  C   UNL A   1      44.734  28.299  35.203  1.00  0.00     0.023 A 
ATOM     94  C   UNL A   1      46.011  28.891  35.147  1.00  0.00     0.012 A 
ATOM     95  C   UNL A   1      44.547  27.126  35.961  1.00  0.00     0.148 A 
ATOM     96  C   UNL A   1      47.090  28.313  35.816  1.00  0.00     0.002 A 
ATOM     97  C   UNL A   1      45.615  26.583  36.665  1.00  0.00     0.091 A 
ATOM     98  F   UNL A   1      43.326  26.571  35.988  1.00  0.00    -0.205 F 
ATOM     99  C   UNL A   1      46.890  27.168  36.584  1.00  0.00     0.022 A 
BRANCH  97 100
ATOM    100  S   UNL A   1      45.438  25.165  37.754  1.00  0.00     0.127 S 
ATOM    101  O   UNL A   1      46.803  24.995  38.247  1.00  0.00    -0.237 OA
ATOM    102  O   UNL A   1      44.486  25.658  38.749  1.00  0.00    -0.237 OA
ATOM    103  O   UNL A   1      44.939  24.077  36.923  1.00  0.00    -0.744 OA
ENDBRANCH  97 100
ENDBRANCH  70  93
ENDBRANCH  44  45
ENDBRANCH  36  39
ENDBRANCH  34  35
ENDBRANCH  33  34
ENDBRANCH   1  33
TORSDOF 21
ENDMDL
MODEL 2
REMARK VINA RESULT:     -11.2      2.336      7.668
REMARK SMILES COc1ccc(C(=O)C2=C(NCCCCNC(=O)c3ccc(-c4c5nc(c(-c6cccc(S(=O)(=O)[O-])c6F)c6ccc([nH]6)c(-c6cccc(S(=O)(=O)[O-])c6F)c6nc(c(-c7cccc(S(=O)(=O)[O-])c7F)c7ccc4[nH]7)C=C6)C=C5)cc3)C(=O)N(CCC(=O)[O-])[C@H]2c2ccccc2F)cc1
REMARK SMILES IDX 13 1 12 2 11 3 10 5 9 6 90 7 82 8 84 9 83 10 7 11 8 12 6 13
REMARK SMILES IDX 3 14 4 15 99 16 5 17 98 18 2 19 1 20 91 21 92 22 96 23 93 24
REMARK SMILES IDX 95 25 97 26 94 27 85 28 86 29 87 30 88 31 89 32 14 33 15 34
REMARK SMILES IDX 16 35 17 36 18 38 19 39 20 40 81 41 21 42 80 43 22 44 23 45
REMARK SMILES IDX 24 46 74 47 25 48 79 49 73 50 75 51 26 52 78 53 72 54 71 55
REMARK SMILES IDX 27 57 59 58 39 59 58 60 40 61 43 62 57 63 76 64 41 65 42 66
REMARK SMILES IDX 56 68 77 69 44 70 28 71 29 72 37 73 30 74 32 75 38 76 31 77
REMARK SMILES IDX 33 78 34 79 35 80 36 81 60 82 61 83 69 84 62 85 64 86 70 87
REMARK SMILES IDX 63 88 65 89 66 90 67 91 68 92 45 93 46 94 54 95 47 96 49 97
REMARK SMILES IDX 55 98 48 99 50 100 51 101 52 102 53 103
REMARK H PARENT 11 4 16 37 75 56 43 67
REMARK Flexibility Score: inf
ROOT
ATOM      1  C   UNL A   1      34.314  29.655  27.127  1.00  0.00     0.023 C 
ENDROOT
BRANCH   1   2
ATOM      2  C   UNL A   1      33.704  28.273  27.340  1.00  0.00     0.113 C 
BRANCH   2   3
ATOM      3  N   UNL A   1      32.320  28.277  26.927  1.00  0.00    -0.380 N 
ATOM      4  H   UNL A   1      31.713  28.814  27.485  1.00  0.00     0.160 HD
BRANCH   3   5
ATOM      5  C   UNL A   1      31.734  27.638  25.868  1.00  0.00     0.110 C 
ATOM      6  C   UNL A   1      31.497  26.369  25.526  1.00  0.00     0.056 C 
ATOM      7  C   UNL A   1      30.755  26.184  24.236  1.00  0.00     0.155 C 
ATOM      8  C   UNL A   1      31.167  28.443  24.734  1.00  0.00     0.271 C 
ATOM      9  N   UNL A   1      30.586  27.566  23.837  1.00  0.00    -0.326 N 
ATOM     10  O   UNL A   1      31.212  29.653  24.668  1.00  0.00    -0.267 OA
BRANCH   6  11
ATOM     11  C   UNL A   1      31.893  25.212  26.340  1.00  0.00     0.193 C 
ATOM     12  O   UNL A   1      31.174  24.834  27.259  1.00  0.00    -0.289 OA
BRANCH  11  13
ATOM     13  C   UNL A   1      33.148  24.477  25.985  1.00  0.00     0.023 A 
ATOM     14  C   UNL A   1      35.341  22.979  25.045  1.00  0.00     0.118 A 
ATOM     15  C   UNL A   1      34.243  22.342  25.628  1.00  0.00     0.047 A 
ATOM     16  C   UNL A   1      35.374  24.371  25.007  1.00  0.00     0.047 A 
ATOM     17  C   UNL A   1      33.149  23.083  26.088  1.00  0.00     0.016 A 
ATOM     18  C   UNL A   1      34.295  25.116  25.498  1.00  0.00     0.016 A 
BRANCH  14  19
ATOM     19  O   UNL A   1      36.303  22.140  24.555  1.00  0.00    -0.497 OA
ATOM     20  C   UNL A   1      36.688  21.055  25.393  1.00  0.00     0.278 C 
ENDBRANCH  14  19
ENDBRANCH  11  13
ENDBRANCH   6  11
BRANCH   7  21
ATOM     21  C   UNL A   1      31.536  25.351  23.239  1.00  0.00     0.015 A 
ATOM     22  C   UNL A   1      32.572  25.881  22.447  1.00  0.00     0.009 A 
ATOM     23  C   UNL A   1      31.335  23.966  23.214  1.00  0.00     0.128 A 
ATOM     24  C   UNL A   1      33.401  25.036  21.703  1.00  0.00     0.001 A 
ATOM     25  C   UNL A   1      32.159  23.121  22.477  1.00  0.00     0.039 A 
ATOM     26  F   UNL A   1      30.362  23.423  23.959  1.00  0.00    -0.207 F 
ATOM     27  C   UNL A   1      33.204  23.656  21.730  1.00  0.00     0.003 A 
ENDBRANCH   7  21
BRANCH   9  28
ATOM     28  C   UNL A   1      29.758  27.994  22.717  1.00  0.00     0.127 C 
BRANCH  28  29
ATOM     29  C   UNL A   1      28.332  28.344  23.127  1.00  0.00     0.074 C 
BRANCH  29  30
ATOM     30  C   UNL A   1      27.891  29.617  22.468  1.00  0.00     0.043 C 
ATOM     31  O   UNL A   1      28.127  29.936  21.314  1.00  0.00    -0.550 OA
ATOM     32  O   UNL A   1      27.221  30.431  23.305  1.00  0.00    -0.550 OA
ENDBRANCH  29  30
ENDBRANCH  28  29
ENDBRANCH   9  28
ENDBRANCH   3   5
ENDBRANCH   2   3
ENDBRANCH   1   2
BRANCH   1  33
ATOM     33  C   UNL A   1      33.476  30.806  27.681  1.00  0.00     0.023 C 
BRANCH  33  34
ATOM     34  C   UNL A   1      34.178  32.160  27.697  1.00  0.00     0.116 C 
BRANCH  34  35
ATOM     35  N   UNL A   1      33.972  32.889  28.945  1.00  0.00    -0.352 N 
ATOM     36  C   UNL A   1      34.670  32.805  30.126  1.00  0.00     0.251 C 
ATOM     37  H   UNL A   1      33.227  33.531  28.940  1.00  0.00     0.163 HD
ATOM     38  O   UNL A   1      34.262  33.377  31.131  1.00  0.00    -0.269 OA
BRANCH  36  39
ATOM     39  C   UNL A   1      35.902  31.992  30.180  1.00  0.00     0.039 A 
ATOM     40  C   UNL A   1      37.085  32.521  29.659  1.00  0.00     0.014 A 
ATOM     41  C   UNL A   1      35.895  30.739  30.797  1.00  0.00     0.014 A 
ATOM     42  C   UNL A   1      38.286  31.834  29.848  1.00  0.00     0.010 A 
ATOM     43  C   UNL A   1      37.101  30.093  31.048  1.00  0.00     0.010 A 
ATOM     44  C   UNL A   1      38.309  30.642  30.592  1.00  0.00    -0.014 A 
BRANCH  44  45
ATOM     45  C   UNL A   1      39.590  29.997  30.978  1.00  0.00     0.031 A 
ATOM     46  C   UNL A   1      40.402  30.534  32.122  1.00  0.00     0.074 A 
ATOM     47  C   UNL A   1      40.086  29.008  30.207  1.00  0.00     0.049 A 
ATOM     48  N   UNL A   1      41.586  30.164  32.536  1.00  0.00    -0.248 NA
ATOM     49  C   UNL A   1      39.821  31.651  32.882  1.00  0.00     0.031 C 
ATOM     50  C   UNL A   1      39.436  28.465  29.013  1.00  0.00     0.029 A 
ATOM     51  N   UNL A   1      41.271  28.319  30.283  1.00  0.00    -0.354 N 
ATOM     52  C   UNL A   1      41.910  31.025  33.576  1.00  0.00     0.074 A 
ATOM     53  C   UNL A   1      40.808  31.952  33.714  1.00  0.00     0.031 C 
ATOM     54  C   UNL A   1      40.234  27.541  28.459  1.00  0.00     0.029 A 
ATOM     55  C   UNL A   1      41.470  27.454  29.232  1.00  0.00     0.049 A 
ATOM     56  H   UNL A   1      41.916  28.433  31.018  1.00  0.00     0.167 HD
ATOM     57  C   UNL A   1      43.017  31.032  34.357  1.00  0.00     0.034 A 
ATOM     58  C   UNL A   1      42.535  26.696  28.904  1.00  0.00     0.034 A 
ATOM     59  C   UNL A   1      44.097  30.090  34.232  1.00  0.00     0.049 A 
ATOM     60  C   UNL A   1      43.741  26.699  29.801  1.00  0.00     0.074 A 
ATOM     61  C   UNL A   1      45.202  29.935  35.051  1.00  0.00     0.029 A 
ATOM     62  N   UNL A   1      44.227  29.163  33.207  1.00  0.00    -0.354 N 
ATOM     63  N   UNL A   1      43.946  27.383  30.901  1.00  0.00    -0.248 NA
ATOM     64  C   UNL A   1      44.850  25.808  29.431  1.00  0.00     0.031 C 
ATOM     65  C   UNL A   1      46.020  28.944  34.498  1.00  0.00     0.029 A 
ATOM     66  C   UNL A   1      45.410  28.457  33.353  1.00  0.00     0.049 A 
ATOM     67  H   UNL A   1      43.575  29.028  32.483  1.00  0.00     0.167 HD
ATOM     68  C   UNL A   1      45.198  26.994  31.364  1.00  0.00     0.074 A 
ATOM     69  C   UNL A   1      45.692  25.993  30.440  1.00  0.00     0.031 C 
ATOM     70  C   UNL A   1      45.882  27.441  32.447  1.00  0.00     0.034 A 
BRANCH  57  71
ATOM     71  C   UNL A   1      43.098  32.074  35.442  1.00  0.00     0.023 A 
ATOM     72  C   UNL A   1      43.764  33.292  35.194  1.00  0.00     0.012 A 
ATOM     73  C   UNL A   1      42.483  31.866  36.692  1.00  0.00     0.148 A 
ATOM     74  C   UNL A   1      43.853  34.268  36.185  1.00  0.00     0.002 A 
ATOM     75  C   UNL A   1      42.536  32.863  37.659  1.00  0.00     0.091 A 
ATOM     76  F   UNL A   1      41.874  30.693  36.919  1.00  0.00    -0.205 F 
ATOM     77  C   UNL A   1      43.233  34.058  37.413  1.00  0.00     0.022 A 
BRANCH  75  78
ATOM     78  S   UNL A   1      41.698  32.719  39.241  1.00  0.00     0.127 S 
ATOM     79  O   UNL A   1      41.900  34.053  39.804  1.00  0.00    -0.237 OA
ATOM     80  O   UNL A   1      40.322  32.430  38.837  1.00  0.00    -0.237 OA
ATOM     81  O   UNL A   1      42.362  31.632  39.947  1.00  0.00    -0.744 OA
ENDBRANCH  75  78
ENDBRANCH  57  71
BRANCH  58  82
ATOM     82  C   UNL A   1      42.483  25.854  27.677  1.00  0.00     0.023 A 
ATOM     83  C   UNL A   1      43.000  26.352  26.467  1.00  0.00     0.012 A 
ATOM     84  C   UNL A   1      41.988  24.535  27.723  1.00  0.00     0.148 A 
ATOM     85  C   UNL A   1      43.007  25.560  25.318  1.00  0.00     0.002 A 
ATOM     86  C   UNL A   1      42.052  23.732  26.592  1.00  0.00     0.091 A 
ATOM     87  F   UNL A   1      41.492  24.084  28.884  1.00  0.00    -0.205 F 
ATOM     88  C   UNL A   1      42.545  24.248  25.383  1.00  0.00     0.022 A 
BRANCH  86  89
ATOM     89  S   UNL A   1      41.617  21.989  26.618  1.00  0.00     0.127 S 
ATOM     90  O   UNL A   1      40.161  22.045  26.720  1.00  0.00    -0.237 OA
ATOM     91  O   UNL A   1      42.128  21.534  25.324  1.00  0.00    -0.237 OA
ATOM     92  O   UNL A   1      42.309  21.426  27.770  1.00  0.00    -0.744 OA
ENDBRANCH  86  89
ENDBRANCH  58  82
BRANCH  70  93
ATOM     93  C   UNL A   1      47.246  26.853  32.705  1.00  0.00     0.023 A 
ATOM     94  C   UNL A   1      48.381  27.440  32.114  1.00  0.00     0.012 A 
ATOM     95  C   UNL A   1      47.410  25.777  33.600  1.00  0.00     0.148 A 
ATOM     96  C   UNL A   1      49.658  26.950  32.389  1.00  0.00     0.002 A 
ATOM     97  C   UNL A   1      48.688  25.325  33.908  1.00  0.00     0.091 A 
ATOM     98  F   UNL A   1      46.315  25.223  34.141  1.00  0.00    -0.205 F 
ATOM     99  C   UNL A   1      49.812  25.903  33.294  1.00  0.00     0.022 A 
BRANCH  97 100
ATOM    100  S   UNL A   1      48.995  24.044  35.130  1.00  0.00     0.127 S 
ATOM    101  O   UNL A   1      48.108  24.452  36.218  1.00  0.00    -0.237 OA
ATOM    102  O   UNL A   1      48.577  22.835  34.421  1.00  0.00    -0.237 OA
ATOM    103  O   UNL A   1      50.419  24.108  35.433  1.00  0.00    -0.744 OA
ENDBRANCH  97 100
ENDBRANCH  70  93
ENDBRANCH  44  45
ENDBRANCH  36  39
ENDBRANCH  34  35
ENDBRANCH  33  34
ENDBRANCH   1  33
TORSDOF 21
ENDMDL
MODEL 3
REMARK VINA RESULT:     -10.9      3.323      7.893
REMARK SMILES COc1ccc(C(=O)C2=C(NCCCCNC(=O)c3ccc(-c4c5nc(c(-c6cccc(S(=O)(=O)[O-])c6F)c6ccc([nH]6)c(-c6cccc(S(=O)(=O)[O-])c6F)c6nc(c(-c7cccc(S(=O)(=O)[O-])c7F)c7ccc4[nH]7)C=C6)C=C5)cc3)C(=O)N(CCC(=O)[O-])[C@H]2c2ccccc2F)cc1
REMARK SMILES IDX 13 1 12 2 11 3 10 5 9 6 90 7 82 8 84 9 83 10 7 11 8 12 6 13
REMARK SMILES IDX 3 14 4 15 99 16 5 17 98 18 2 19 1 20 91 21 92 22 96 23 93 24
REMARK SMILES IDX 95 25 97 26 94 27 85 28 86 29 87 30 88 31 89 32 14 33 15 34
REMARK SMILES IDX 16 35 17 36 18 38 19 39 20 40 81 41 21 42 80 43 22 44 23 45
REMARK SMILES IDX 24 46 74 47 25 48 79 49 73 50 75 51 26 52 78 53 72 54 71 55
REMARK SMILES IDX 27 57 59 58 39 59 58 60 40 61 43 62 57 63 76 64 41 65 42 66
REMARK SMILES IDX 56 68 77 69 44 70 28 71 29 72 37 73 30 74 32 75 38 76 31 77
REMARK SMILES IDX 33 78 34 79 35 80 36 81 60 82 61 83 69 84 62 85 64 86 70 87
REMARK SMILES IDX 63 88 65 89 66 90 67 91 68 92 45 93 46 94 54 95 47 96 49 97
REMARK SMILES IDX 55 98 48 99 50 100 51 101 52 102 53 103
REMARK H PARENT 11 4 16 37 75 56 43 67
REMARK Flexibility Score: inf
ROOT
ATOM      1  C   UNL A   1      34.998  29.543  27.018  1.00  0.00     0.023 C 
ENDROOT
BRANCH   1   2
ATOM      2  C   UNL A   1      34.439  28.134  26.851  1.00  0.00     0.113 C 
BRANCH   2   3
ATOM      3  N   UNL A   1      33.023  28.197  26.571  1.00  0.00    -0.380 N 
ATOM      4  H   UNL A   1      32.507  28.814  27.137  1.00  0.00     0.160 HD
BRANCH   3   5
ATOM      5  C   UNL A   1      32.299  27.519  25.629  1.00  0.00     0.110 C 
ATOM      6  C   UNL A   1      31.903  26.256  25.451  1.00  0.00     0.056 C 
ATOM      7  C   UNL A   1      31.058  26.018  24.235  1.00  0.00     0.155 C 
ATOM      8  C   UNL A   1      31.747  28.254  24.442  1.00  0.00     0.271 C 
ATOM      9  N   UNL A   1      31.013  27.358  23.687  1.00  0.00    -0.326 N 
ATOM     10  O   UNL A   1      31.919  29.436  24.233  1.00  0.00    -0.267 OA
BRANCH   6  11
ATOM     11  C   UNL A   1      32.225  25.156  26.371  1.00  0.00     0.193 C 
ATOM     12  O   UNL A   1      31.518  24.952  27.352  1.00  0.00    -0.289 OA
BRANCH  11  13
ATOM     13  C   UNL A   1      33.385  24.267  26.051  1.00  0.00     0.023 A 
ATOM     14  C   UNL A   1      35.379  22.468  25.197  1.00  0.00     0.118 A 
ATOM     15  C   UNL A   1      34.250  22.007  25.879  1.00  0.00     0.047 A 
ATOM     16  C   UNL A   1      35.546  23.838  25.015  1.00  0.00     0.047 A 
ATOM     17  C   UNL A   1      33.255  22.896  26.297  1.00  0.00     0.016 A 
ATOM     18  C   UNL A   1      34.567  24.734  25.463  1.00  0.00     0.016 A 
BRANCH  14  19
ATOM     19  O   UNL A   1      36.232  21.492  24.764  1.00  0.00    -0.497 OA
ATOM     20  C   UNL A   1      37.624  21.753  24.908  1.00  0.00     0.278 C 
ENDBRANCH  14  19
ENDBRANCH  11  13
ENDBRANCH   6  11
BRANCH   7  21
ATOM     21  C   UNL A   1      31.672  24.995  23.300  1.00  0.00     0.015 A 
ATOM     22  C   UNL A   1      32.712  25.308  22.404  1.00  0.00     0.009 A 
ATOM     23  C   UNL A   1      31.309  23.650  23.439  1.00  0.00     0.128 A 
ATOM     24  C   UNL A   1      33.389  24.294  21.719  1.00  0.00     0.001 A 
ATOM     25  C   UNL A   1      31.981  22.638  22.761  1.00  0.00     0.039 A 
ATOM     26  F   UNL A   1      30.327  23.313  24.286  1.00  0.00    -0.207 F 
ATOM     27  C   UNL A   1      33.034  22.959  21.909  1.00  0.00     0.003 A 
ENDBRANCH   7  21
BRANCH   9  28
ATOM     28  C   UNL A   1      30.161  27.754  22.573  1.00  0.00     0.127 C 
BRANCH  28  29
ATOM     29  C   UNL A   1      28.894  28.475  23.017  1.00  0.00     0.074 C 
BRANCH  29  30
ATOM     30  C   UNL A   1      28.662  29.697  22.177  1.00  0.00     0.043 C 
ATOM     31  O   UNL A   1      27.639  30.362  22.163  1.00  0.00    -0.550 OA
ATOM     32  O   UNL A   1      29.704  29.983  21.376  1.00  0.00    -0.550 OA
ENDBRANCH  29  30
ENDBRANCH  28  29
ENDBRANCH   9  28
ENDBRANCH   3   5
ENDBRANCH   2   3
ENDBRANCH   1   2
BRANCH   1  33
ATOM     33  C   UNL A   1      34.002  30.554  27.584  1.00  0.00     0.023 C 
BRANCH  33  34
ATOM     34  C   UNL A   1      34.534  31.978  27.708  1.00  0.00     0.116 C 
BRANCH  34  35
ATOM     35  N   UNL A   1      34.248  32.577  29.008  1.00  0.00    -0.352 N 
ATOM     36  C   UNL A   1      34.868  32.369  30.216  1.00  0.00     0.251 C 
ATOM     37  H   UNL A   1      33.504  33.222  29.021  1.00  0.00     0.163 HD
ATOM     38  O   UNL A   1      34.396  32.839  31.247  1.00  0.00    -0.269 OA
BRANCH  36  39
ATOM     39  C   UNL A   1      36.095  31.547  30.266  1.00  0.00     0.039 A 
ATOM     40  C   UNL A   1      37.291  32.087  29.787  1.00  0.00     0.014 A 
ATOM     41  C   UNL A   1      36.070  30.274  30.840  1.00  0.00     0.014 A 
ATOM     42  C   UNL A   1      38.484  31.386  29.975  1.00  0.00     0.010 A 
ATOM     43  C   UNL A   1      37.267  29.612  31.091  1.00  0.00     0.010 A 
ATOM     44  C   UNL A   1      38.486  30.170  30.678  1.00  0.00    -0.014 A 
BRANCH  44  45
ATOM     45  C   UNL A   1      39.756  29.504  31.066  1.00  0.00     0.031 A 
ATOM     46  C   UNL A   1      40.534  29.978  32.260  1.00  0.00     0.074 A 
ATOM     47  C   UNL A   1      40.275  28.558  30.258  1.00  0.00     0.049 A 
ATOM     48  N   UNL A   1      41.706  29.586  32.688  1.00  0.00    -0.248 NA
ATOM     49  C   UNL A   1      39.930  31.053  33.062  1.00  0.00     0.031 C 
ATOM     50  C   UNL A   1      39.660  28.079  29.018  1.00  0.00     0.029 A 
ATOM     51  N   UNL A   1      41.458  27.864  30.331  1.00  0.00    -0.354 N 
ATOM     52  C   UNL A   1      41.998  30.390  33.782  1.00  0.00     0.074 A 
ATOM     53  C   UNL A   1      40.891  31.308  33.937  1.00  0.00     0.031 C 
ATOM     54  C   UNL A   1      40.475  27.186  28.438  1.00  0.00     0.029 A 
ATOM     55  C   UNL A   1      41.688  27.056  29.242  1.00  0.00     0.049 A 
ATOM     56  H   UNL A   1      42.081  27.938  31.090  1.00  0.00     0.167 HD
ATOM     57  C   UNL A   1      43.082  30.353  34.594  1.00  0.00     0.034 A 
ATOM     58  C   UNL A   1      42.763  26.317  28.905  1.00  0.00     0.034 A 
ATOM     59  C   UNL A   1      44.166  29.418  34.450  1.00  0.00     0.049 A 
ATOM     60  C   UNL A   1      43.942  26.271  29.835  1.00  0.00     0.074 A 
ATOM     61  C   UNL A   1      45.246  29.220  35.292  1.00  0.00     0.029 A 
ATOM     62  N   UNL A   1      44.327  28.549  33.381  1.00  0.00    -0.354 N 
ATOM     63  N   UNL A   1      44.115  26.894  30.976  1.00  0.00    -0.248 NA
ATOM     64  C   UNL A   1      45.062  25.400  29.451  1.00  0.00     0.031 C 
ATOM     65  C   UNL A   1      46.082  28.258  34.711  1.00  0.00     0.029 A 
ATOM     66  C   UNL A   1      45.505  27.835  33.523  1.00  0.00     0.049 A 
ATOM     67  H   UNL A   1      43.696  28.453  32.632  1.00  0.00     0.167 HD
ATOM     68  C   UNL A   1      45.353  26.481  31.453  1.00  0.00     0.074 A 
ATOM     69  C   UNL A   1      45.874  25.530  30.492  1.00  0.00     0.031 C 
ATOM     70  C   UNL A   1      46.005  26.868  32.578  1.00  0.00     0.034 A 
BRANCH  57  71
ATOM     71  C   UNL A   1      43.131  31.336  35.735  1.00  0.00     0.023 A 
ATOM     72  C   UNL A   1      42.603  30.977  36.992  1.00  0.00     0.012 A 
ATOM     73  C   UNL A   1      43.734  32.599  35.575  1.00  0.00     0.148 A 
ATOM     74  C   UNL A   1      42.636  31.873  38.059  1.00  0.00     0.002 A 
ATOM     75  C   UNL A   1      43.804  33.469  36.657  1.00  0.00     0.091 A 
ATOM     76  F   UNL A   1      44.211  32.934  34.367  1.00  0.00    -0.205 F 
ATOM     77  C   UNL A   1      43.243  33.115  37.895  1.00  0.00     0.022 A 
BRANCH  75  78
ATOM     78  S   UNL A   1      44.640  35.057  36.565  1.00  0.00     0.127 S 
ATOM     79  O   UNL A   1      43.960  35.682  35.432  1.00  0.00    -0.237 OA
ATOM     80  O   UNL A   1      44.323  35.648  37.866  1.00  0.00    -0.237 OA
ATOM     81  O   UNL A   1      46.049  34.756  36.364  1.00  0.00    -0.744 OA
ENDBRANCH  75  78
ENDBRANCH  57  71
BRANCH  58  82
ATOM     82  C   UNL A   1      42.748  25.542  27.633  1.00  0.00     0.023 A 
ATOM     83  C   UNL A   1      43.225  26.134  26.449  1.00  0.00     0.012 A 
ATOM     84  C   UNL A   1      42.328  24.197  27.608  1.00  0.00     0.148 A 
ATOM     85  C   UNL A   1      43.265  25.408  25.259  1.00  0.00     0.002 A 
ATOM     86  C   UNL A   1      42.427  23.461  26.435  1.00  0.00     0.091 A 
ATOM     87  F   UNL A   1      41.869  23.655  28.746  1.00  0.00    -0.205 F 
ATOM     88  C   UNL A   1      42.879  24.070  25.253  1.00  0.00     0.022 A 
BRANCH  86  89
ATOM     89  S   UNL A   1      42.091  21.698  26.367  1.00  0.00     0.127 S 
ATOM     90  O   UNL A   1      40.655  21.676  26.104  1.00  0.00    -0.237 OA
ATOM     91  O   UNL A   1      42.930  21.277  25.244  1.00  0.00    -0.237 OA
ATOM     92  O   UNL A   1      42.504  21.167  27.659  1.00  0.00    -0.744 OA
ENDBRANCH  86  89
ENDBRANCH  58  82
BRANCH  70  93
ATOM     93  C   UNL A   1      47.360  26.266  32.845  1.00  0.00     0.023 A 
ATOM     94  C   UNL A   1      47.465  25.113  33.648  1.00  0.00     0.012 A 
ATOM     95  C   UNL A   1      48.516  26.788  32.230  1.00  0.00     0.148 A 
ATOM     96  C   UNL A   1      48.702  24.504  33.856  1.00  0.00     0.002 A 
ATOM     97  C   UNL A   1      49.737  26.148  32.403  1.00  0.00     0.091 A 
ATOM     98  F   UNL A   1      48.397  27.895  31.482  1.00  0.00    -0.205 F 
ATOM     99  C   UNL A   1      49.834  25.012  33.225  1.00  0.00     0.022 A 
BRANCH  97 100
ATOM    100  S   UNL A   1      51.234  26.671  31.558  1.00  0.00     0.127 S 
ATOM    101  O   UNL A   1      51.461  27.991  32.144  1.00  0.00    -0.237 OA
ATOM    102  O   UNL A   1      52.194  25.648  31.969  1.00  0.00    -0.237 OA
ATOM    103  O   UNL A   1      50.917  26.671  30.136  1.00  0.00    -0.744 OA
ENDBRANCH  97 100
ENDBRANCH  70  93
ENDBRANCH  44  45
ENDBRANCH  36  39
ENDBRANCH  34  35
ENDBRANCH  33  34
ENDBRANCH   1  33
TORSDOF 21
ENDMDL
