MODEL 1
REMARK VINA RESULT:     -13.3      0.000      0.000
REMARK SMILES Cc1ccccc1C(=O)Nc1ccc(OCC(=O)NCCCCNC(=O)c2ccc(-c3c4nc(c(-c5cccc(S(=O)(=O)[O-])c5F)c5ccc([nH]5)c(-c5cccc(S(=O)(=O)[O-])c5F)c5nc(c(-c6cccc(S(=O)(=O)[O-])c6F)c6ccc3[nH]6)C=C5)C=C4)cc2)c(-c2nc3ccccc3s2)c1
REMARK SMILES IDX 21 1 20 2 19 3 17 4 18 5 16 7 15 8 14 9 11 10 12 11 100 12
REMARK SMILES IDX 13 13 90 14 10 15 8 16 9 17 7 19 1 20 2 21 3 22 4 23 6 24
REMARK SMILES IDX 5 25 91 26 92 27 99 28 93 29 98 30 94 31 97 32 95 33 96 34
REMARK SMILES IDX 22 35 23 36 24 37 25 38 26 40 27 41 28 42 89 43 29 44 88 45
REMARK SMILES IDX 30 46 31 47 32 48 82 49 33 50 87 51 81 52 83 53 34 54 86 55
REMARK SMILES IDX 80 56 79 57 35 59 67 60 47 61 66 62 48 63 51 64 65 65 84 66
REMARK SMILES IDX 49 67 50 68 64 70 85 71 52 72 36 73 37 74 45 75 38 76 40 77
REMARK SMILES IDX 46 78 39 79 41 80 42 81 43 82 44 83 68 84 69 85 77 86 70 87
REMARK SMILES IDX 72 88 78 89 71 90 73 91 74 92 75 93 76 94 53 95 54 96 62 97
REMARK SMILES IDX 55 98 57 99 63 100 56 101 58 102 59 103 60 104 61 105
REMARK H PARENT 19 6 10 18 24 39 83 58 51 69
REMARK Flexibility Score: inf
ROOT
ATOM      1  C   UNL A   1      35.256  32.721  28.355  1.00  0.00     0.023 C 
ENDROOT
BRANCH   1   2
ATOM      2  C   UNL A   1      35.234  31.350  27.678  1.00  0.00     0.116 C 
BRANCH   2   3
ATOM      3  N   UNL A   1      33.990  30.660  27.940  1.00  0.00    -0.353 N 
ATOM      4  C   UNL A   1      33.091  30.155  27.047  1.00  0.00     0.257 C 
ATOM      5  O   UNL A   1      31.946  29.971  27.461  1.00  0.00    -0.271 OA
ATOM      6  H   UNL A   1      33.762  30.539  28.890  1.00  0.00     0.163 HD
BRANCH   4   7
ATOM      7  C   UNL A   1      33.559  29.752  25.621  1.00  0.00     0.329 C 
BRANCH   7   8
ATOM      8  O   UNL A   1      33.751  28.452  25.078  1.00  0.00    -0.483 OA
BRANCH   8   9
ATOM      9  C   UNL A   1      32.827  27.491  25.368  1.00  0.00     0.130 A 
ATOM     10  C   UNL A   1      31.100  25.425  26.161  1.00  0.00     0.042 A 
ATOM     11  C   UNL A   1      32.351  25.544  26.761  1.00  0.00     0.030 A 
ATOM     12  C   UNL A   1      30.662  26.430  25.299  1.00  0.00     0.041 A 
ATOM     13  C   UNL A   1      33.226  26.545  26.329  1.00  0.00     0.049 A 
ATOM     14  C   UNL A   1      31.492  27.516  24.922  1.00  0.00     0.055 A 
BRANCH  10  15
ATOM     15  N   UNL A   1      30.371  24.249  26.392  1.00  0.00    -0.322 N 
ATOM     16  C   UNL A   1      30.714  22.920  26.204  1.00  0.00     0.255 C 
ATOM     17  O   UNL A   1      29.823  22.076  26.326  1.00  0.00    -0.269 OA
ATOM     18  H   UNL A   1      29.463  24.392  26.746  1.00  0.00     0.170 HD
BRANCH  16  19
ATOM     19  C   UNL A   1      32.114  22.443  25.950  1.00  0.00     0.043 A 
ATOM     20  C   UNL A   1      32.232  23.060  23.463  1.00  0.00     0.045 C 
ATOM     21  C   UNL A   1      32.755  22.405  24.700  1.00  0.00    -0.038 A 
ATOM     22  C   UNL A   1      34.048  21.852  24.591  1.00  0.00     0.004 A 
ATOM     23  C   UNL A   1      34.775  21.514  25.724  1.00  0.00     0.000 A 
ATOM     24  C   UNL A   1      32.885  22.141  27.088  1.00  0.00     0.014 A 
ATOM     25  C   UNL A   1      34.210  21.707  26.978  1.00  0.00     0.001 A 
ENDBRANCH  16  19
ENDBRANCH  10  15
BRANCH  14  26
ATOM     26  C   UNL A   1      30.856  28.541  24.062  1.00  0.00     0.128 A 
ATOM     27  N   UNL A   1      30.616  29.779  24.467  1.00  0.00    -0.236 NA
ATOM     28  S   UNL A   1      30.371  28.285  22.432  1.00  0.00    -0.114 S 
ATOM     29  C   UNL A   1      29.672  30.367  23.644  1.00  0.00     0.082 A 
ATOM     30  C   UNL A   1      29.274  29.589  22.562  1.00  0.00     0.055 A 
ATOM     31  C   UNL A   1      29.065  31.620  23.832  1.00  0.00     0.030 A 
ATOM     32  C   UNL A   1      28.179  29.925  21.756  1.00  0.00     0.021 A 
ATOM     33  C   UNL A   1      28.005  31.999  23.002  1.00  0.00     0.002 A 
ATOM     34  C   UNL A   1      27.539  31.141  22.008  1.00  0.00     0.002 A 
ENDBRANCH  14  26
ENDBRANCH   8   9
ENDBRANCH   7   8
ENDBRANCH   4   7
ENDBRANCH   2   3
ENDBRANCH   1   2
BRANCH   1  35
ATOM     35  C   UNL A   1      33.989  33.122  29.125  1.00  0.00     0.023 C 
BRANCH  35  36
ATOM     36  C   UNL A   1      33.874  34.551  29.607  1.00  0.00     0.116 C 
BRANCH  36  37
ATOM     37  N   UNL A   1      33.503  34.641  31.013  1.00  0.00    -0.352 N 
ATOM     38  C   UNL A   1      34.059  34.003  32.115  1.00  0.00     0.251 C 
ATOM     39  H   UNL A   1      32.748  35.240  31.211  1.00  0.00     0.163 HD
ATOM     40  O   UNL A   1      33.307  33.704  33.033  1.00  0.00    -0.269 OA
BRANCH  38  41
ATOM     41  C   UNL A   1      35.512  33.714  32.144  1.00  0.00     0.039 A 
ATOM     42  C   UNL A   1      36.511  34.563  31.676  1.00  0.00     0.014 A 
ATOM     43  C   UNL A   1      35.883  32.457  32.579  1.00  0.00     0.014 A 
ATOM     44  C   UNL A   1      37.813  34.057  31.578  1.00  0.00     0.010 A 
ATOM     45  C   UNL A   1      37.153  32.166  32.931  1.00  0.00     0.010 A 
ATOM     46  C   UNL A   1      38.093  32.827  32.181  1.00  0.00    -0.014 A 
BRANCH  46  47
ATOM     47  C   UNL A   1      39.272  32.007  32.002  1.00  0.00     0.031 A 
ATOM     48  C   UNL A   1      39.142  30.790  31.223  1.00  0.00     0.074 A 
ATOM     49  C   UNL A   1      40.449  32.503  32.460  1.00  0.00     0.049 A 
ATOM     50  N   UNL A   1      39.825  29.731  31.442  1.00  0.00    -0.248 NA
ATOM     51  C   UNL A   1      38.167  30.672  30.144  1.00  0.00     0.031 C 
ATOM     52  C   UNL A   1      41.817  32.073  32.213  1.00  0.00     0.029 A 
ATOM     53  N   UNL A   1      40.596  33.524  33.417  1.00  0.00    -0.354 N 
ATOM     54  C   UNL A   1      39.593  28.900  30.372  1.00  0.00     0.074 A 
ATOM     55  C   UNL A   1      38.458  29.456  29.674  1.00  0.00     0.031 C 
ATOM     56  C   UNL A   1      42.605  32.566  33.192  1.00  0.00     0.029 A 
ATOM     57  C   UNL A   1      41.729  33.199  34.170  1.00  0.00     0.049 A 
ATOM     58  H   UNL A   1      40.016  34.311  33.534  1.00  0.00     0.167 HD
ATOM     59  C   UNL A   1      40.530  27.969  30.056  1.00  0.00     0.034 A 
ATOM     60  C   UNL A   1      41.563  32.808  35.471  1.00  0.00     0.034 A 
ATOM     61  C   UNL A   1      41.683  28.095  30.956  1.00  0.00     0.049 A 
ATOM     62  C   UNL A   1      41.999  31.376  35.690  1.00  0.00     0.074 A 
ATOM     63  C   UNL A   1      42.854  28.831  30.848  1.00  0.00     0.029 A 
ATOM     64  N   UNL A   1      41.544  27.774  32.301  1.00  0.00    -0.354 N 
ATOM     65  N   UNL A   1      42.104  30.489  34.739  1.00  0.00    -0.248 NA
ATOM     66  C   UNL A   1      42.405  30.851  36.988  1.00  0.00     0.031 C 
ATOM     67  C   UNL A   1      43.386  29.005  32.153  1.00  0.00     0.029 A 
ATOM     68  C   UNL A   1      42.552  28.363  33.051  1.00  0.00     0.049 A 
ATOM     69  H   UNL A   1      40.830  27.205  32.669  1.00  0.00     0.167 HD
ATOM     70  C   UNL A   1      42.517  29.291  35.260  1.00  0.00     0.074 A 
ATOM     71  C   UNL A   1      42.740  29.589  36.666  1.00  0.00     0.031 C 
ATOM     72  C   UNL A   1      42.614  28.160  34.493  1.00  0.00     0.034 A 
BRANCH  59  73
ATOM     73  C   UNL A   1      40.569  27.282  28.713  1.00  0.00     0.023 A 
ATOM     74  C   UNL A   1      39.628  26.257  28.486  1.00  0.00     0.012 A 
ATOM     75  C   UNL A   1      41.492  27.542  27.673  1.00  0.00     0.148 A 
ATOM     76  C   UNL A   1      39.639  25.473  27.332  1.00  0.00     0.002 A 
ATOM     77  C   UNL A   1      41.538  26.723  26.540  1.00  0.00     0.091 A 
ATOM     78  F   UNL A   1      42.298  28.609  27.759  1.00  0.00    -0.205 F 
ATOM     79  C   UNL A   1      40.612  25.688  26.370  1.00  0.00     0.022 A 
BRANCH  77  80
ATOM     80  S   UNL A   1      42.817  26.866  25.279  1.00  0.00     0.127 S 
ATOM     81  O   UNL A   1      44.035  26.993  26.085  1.00  0.00    -0.237 OA
ATOM     82  O   UNL A   1      42.695  25.599  24.563  1.00  0.00    -0.237 OA
ATOM     83  O   UNL A   1      42.490  28.063  24.514  1.00  0.00    -0.744 OA
ENDBRANCH  77  80
ENDBRANCH  59  73
BRANCH  60  84
ATOM     84  C   UNL A   1      40.395  33.484  36.138  1.00  0.00     0.023 A 
ATOM     85  C   UNL A   1      39.139  32.822  36.073  1.00  0.00     0.012 A 
ATOM     86  C   UNL A   1      40.555  34.513  37.083  1.00  0.00     0.148 A 
ATOM     87  C   UNL A   1      38.144  33.057  37.026  1.00  0.00     0.002 A 
ATOM     88  C   UNL A   1      39.538  34.771  38.006  1.00  0.00     0.091 A 
ATOM     89  F   UNL A   1      41.702  35.205  37.093  1.00  0.00    -0.205 F 
ATOM     90  C   UNL A   1      38.360  34.007  38.017  1.00  0.00     0.022 A 
BRANCH  88  91
ATOM     91  S   UNL A   1      39.694  36.078  39.234  1.00  0.00     0.127 S 
ATOM     92  O   UNL A   1      39.565  37.270  38.401  1.00  0.00    -0.237 OA
ATOM     93  O   UNL A   1      38.561  35.838  40.121  1.00  0.00    -0.237 OA
ATOM     94  O   UNL A   1      40.997  35.861  39.854  1.00  0.00    -0.744 OA
ENDBRANCH  88  91
ENDBRANCH  60  84
BRANCH  72  95
ATOM     95  C   UNL A   1      42.794  26.742  35.011  1.00  0.00     0.023 A 
ATOM     96  C   UNL A   1      41.709  25.927  35.378  1.00  0.00     0.012 A 
ATOM     97  C   UNL A   1      44.073  26.118  34.993  1.00  0.00     0.148 A 
ATOM     98  C   UNL A   1      41.878  24.592  35.759  1.00  0.00     0.002 A 
ATOM     99  C   UNL A   1      44.214  24.756  35.234  1.00  0.00     0.091 A 
ATOM    100  F   UNL A   1      45.176  26.844  34.768  1.00  0.00    -0.205 F 
ATOM    101  C   UNL A   1      43.126  23.996  35.655  1.00  0.00     0.022 A 
BRANCH  99 102
ATOM    102  S   UNL A   1      45.747  23.898  34.846  1.00  0.00     0.127 S 
ATOM    103  O   UNL A   1      45.384  22.506  35.096  1.00  0.00    -0.237 OA
ATOM    104  O   UNL A   1      45.940  24.234  33.433  1.00  0.00    -0.237 OA
ATOM    105  O   UNL A   1      46.747  24.471  35.736  1.00  0.00    -0.744 OA
ENDBRANCH  99 102
ENDBRANCH  72  95
ENDBRANCH  46  47
ENDBRANCH  38  41
ENDBRANCH  36  37
ENDBRANCH  35  36
ENDBRANCH   1  35
TORSDOF 19
ENDMDL
MODEL 2
REMARK VINA RESULT:     -13.0      4.556     10.100
REMARK SMILES Cc1ccccc1C(=O)Nc1ccc(OCC(=O)NCCCCNC(=O)c2ccc(-c3c4nc(c(-c5cccc(S(=O)(=O)[O-])c5F)c5ccc([nH]5)c(-c5cccc(S(=O)(=O)[O-])c5F)c5nc(c(-c6cccc(S(=O)(=O)[O-])c6F)c6ccc3[nH]6)C=C5)C=C4)cc2)c(-c2nc3ccccc3s2)c1
REMARK SMILES IDX 21 1 20 2 19 3 17 4 18 5 16 7 15 8 14 9 11 10 12 11 100 12
REMARK SMILES IDX 13 13 90 14 10 15 8 16 9 17 7 19 1 20 2 21 3 22 4 23 6 24
REMARK SMILES IDX 5 25 91 26 92 27 99 28 93 29 98 30 94 31 97 32 95 33 96 34
REMARK SMILES IDX 22 35 23 36 24 37 25 38 26 40 27 41 28 42 89 43 29 44 88 45
REMARK SMILES IDX 30 46 31 47 32 48 82 49 33 50 87 51 81 52 83 53 34 54 86 55
REMARK SMILES IDX 80 56 79 57 35 59 67 60 47 61 66 62 48 63 51 64 65 65 84 66
REMARK SMILES IDX 49 67 50 68 64 70 85 71 52 72 36 73 37 74 45 75 38 76 40 77
REMARK SMILES IDX 46 78 39 79 41 80 42 81 43 82 44 83 68 84 69 85 77 86 70 87
REMARK SMILES IDX 72 88 78 89 71 90 73 91 74 92 75 93 76 94 53 95 54 96 62 97
REMARK SMILES IDX 55 98 57 99 63 100 56 101 58 102 59 103 60 104 61 105
REMARK H PARENT 19 6 10 18 24 39 83 58 51 69
REMARK Flexibility Score: inf
ROOT
ATOM      1  C   UNL A   1      39.153  23.967  26.962  1.00  0.00     0.023 C 
ENDROOT
BRANCH   1   2
ATOM      2  C   UNL A   1      37.779  23.932  26.294  1.00  0.00     0.116 C 
BRANCH   2   3
ATOM      3  N   UNL A   1      37.336  22.571  26.083  1.00  0.00    -0.353 N 
ATOM      4  C   UNL A   1      36.230  22.128  25.419  1.00  0.00     0.257 C 
ATOM      5  O   UNL A   1      35.839  20.992  25.693  1.00  0.00    -0.271 OA
ATOM      6  H   UNL A   1      37.909  21.871  26.472  1.00  0.00     0.163 HD
BRANCH   4   7
ATOM      7  C   UNL A   1      35.591  23.006  24.307  1.00  0.00     0.329 C 
BRANCH   7   8
ATOM      8  O   UNL A   1      34.717  22.618  23.253  1.00  0.00    -0.483 OA
BRANCH   8   9
ATOM      9  C   UNL A   1      33.447  23.117  23.254  1.00  0.00     0.130 A 
ATOM     10  C   UNL A   1      30.941  24.376  23.154  1.00  0.00     0.042 A 
ATOM     11  C   UNL A   1      32.083  25.085  22.788  1.00  0.00     0.030 A 
ATOM     12  C   UNL A   1      31.042  23.009  23.404  1.00  0.00     0.041 A 
ATOM     13  C   UNL A   1      33.334  24.469  22.885  1.00  0.00     0.049 A 
ATOM     14  C   UNL A   1      32.289  22.332  23.408  1.00  0.00     0.055 A 
BRANCH  10  15
ATOM     15  N   UNL A   1      29.752  25.097  23.336  1.00  0.00    -0.322 N 
ATOM     16  C   UNL A   1      29.465  26.181  24.150  1.00  0.00     0.255 C 
ATOM     17  O   UNL A   1      28.285  26.525  24.251  1.00  0.00    -0.269 OA
ATOM     18  H   UNL A   1      28.993  24.780  22.794  1.00  0.00     0.170 HD
BRANCH  16  19
ATOM     19  C   UNL A   1      30.508  27.009  24.843  1.00  0.00     0.043 A 
ATOM     20  C   UNL A   1      30.445  29.022  23.255  1.00  0.00     0.045 C 
ATOM     21  C   UNL A   1      31.025  28.232  24.382  1.00  0.00    -0.038 A 
ATOM     22  C   UNL A   1      32.066  28.865  25.092  1.00  0.00     0.004 A 
ATOM     23  C   UNL A   1      32.464  28.400  26.338  1.00  0.00     0.000 A 
ATOM     24  C   UNL A   1      30.891  26.581  26.128  1.00  0.00     0.014 A 
ATOM     25  C   UNL A   1      31.838  27.284  26.879  1.00  0.00     0.001 A 
ENDBRANCH  16  19
ENDBRANCH  10  15
BRANCH  14  26
ATOM     26  C   UNL A   1      32.223  20.866  23.613  1.00  0.00     0.128 A 
ATOM     27  N   UNL A   1      32.188  20.304  24.811  1.00  0.00    -0.236 NA
ATOM     28  S   UNL A   1      32.156  19.704  22.347  1.00  0.00    -0.114 S 
ATOM     29  C   UNL A   1      32.545  18.971  24.714  1.00  0.00     0.082 A 
ATOM     30  C   UNL A   1      32.759  18.516  23.417  1.00  0.00     0.055 A 
ATOM     31  C   UNL A   1      32.752  18.082  25.783  1.00  0.00     0.030 A 
ATOM     32  C   UNL A   1      33.334  17.268  23.142  1.00  0.00     0.021 A 
ATOM     33  C   UNL A   1      33.275  16.811  25.524  1.00  0.00     0.002 A 
ATOM     34  C   UNL A   1      33.604  16.429  24.225  1.00  0.00     0.002 A 
ENDBRANCH  14  26
ENDBRANCH   8   9
ENDBRANCH   7   8
ENDBRANCH   4   7
ENDBRANCH   2   3
ENDBRANCH   1   2
BRANCH   1  35
ATOM     35  C   UNL A   1      39.908  22.631  27.038  1.00  0.00     0.023 C 
BRANCH  35  36
ATOM     36  C   UNL A   1      40.911  22.320  25.950  1.00  0.00     0.116 C 
BRANCH  36  37
ATOM     37  N   UNL A   1      42.280  22.275  26.445  1.00  0.00    -0.352 N 
ATOM     38  C   UNL A   1      43.167  23.318  26.682  1.00  0.00     0.251 C 
ATOM     39  H   UNL A   1      42.628  21.375  26.639  1.00  0.00     0.163 HD
ATOM     40  O   UNL A   1      44.356  23.103  26.489  1.00  0.00    -0.269 OA
BRANCH  38  41
ATOM     41  C   UNL A   1      42.657  24.628  27.152  1.00  0.00     0.039 A 
ATOM     42  C   UNL A   1      42.619  25.795  26.394  1.00  0.00     0.014 A 
ATOM     43  C   UNL A   1      42.288  24.707  28.480  1.00  0.00     0.014 A 
ATOM     44  C   UNL A   1      42.308  26.994  27.047  1.00  0.00     0.010 A 
ATOM     45  C   UNL A   1      41.545  25.727  28.958  1.00  0.00     0.010 A 
ATOM     46  C   UNL A   1      41.813  26.929  28.352  1.00  0.00    -0.014 A 
BRANCH  46  47
ATOM     47  C   UNL A   1      41.663  28.019  29.293  1.00  0.00     0.031 A 
ATOM     48  C   UNL A   1      40.556  28.936  29.097  1.00  0.00     0.074 A 
ATOM     49  C   UNL A   1      42.487  28.029  30.370  1.00  0.00     0.049 A 
ATOM     50  N   UNL A   1      40.600  30.177  29.404  1.00  0.00    -0.248 NA
ATOM     51  C   UNL A   1      39.305  28.507  28.479  1.00  0.00     0.031 C 
ATOM     52  C   UNL A   1      42.426  28.803  31.601  1.00  0.00     0.029 A 
ATOM     53  N   UNL A   1      43.707  27.337  30.481  1.00  0.00    -0.354 N 
ATOM     54  C   UNL A   1      39.311  30.643  29.295  1.00  0.00     0.074 A 
ATOM     55  C   UNL A   1      38.577  29.622  28.584  1.00  0.00     0.031 C 
ATOM     56  C   UNL A   1      43.651  28.805  32.167  1.00  0.00     0.029 A 
ATOM     57  C   UNL A   1      44.558  28.155  31.230  1.00  0.00     0.049 A 
ATOM     58  H   UNL A   1      43.919  26.452  30.104  1.00  0.00     0.167 HD
ATOM     59  C   UNL A   1      38.947  31.730  30.023  1.00  0.00     0.034 A 
ATOM     60  C   UNL A   1      45.622  28.744  30.604  1.00  0.00     0.034 A 
ATOM     61  C   UNL A   1      40.071  32.169  30.860  1.00  0.00     0.049 A 
ATOM     62  C   UNL A   1      45.506  30.253  30.590  1.00  0.00     0.074 A 
ATOM     63  C   UNL A   1      40.435  31.833  32.155  1.00  0.00     0.029 A 
ATOM     64  N   UNL A   1      41.202  32.712  30.262  1.00  0.00    -0.354 N 
ATOM     65  N   UNL A   1      44.384  30.901  30.743  1.00  0.00    -0.248 NA
ATOM     66  C   UNL A   1      46.651  31.145  30.459  1.00  0.00     0.031 C 
ATOM     67  C   UNL A   1      41.817  32.120  32.312  1.00  0.00     0.029 A 
ATOM     68  C   UNL A   1      42.289  32.645  31.122  1.00  0.00     0.049 A 
ATOM     69  H   UNL A   1      41.227  33.092  29.355  1.00  0.00     0.167 HD
ATOM     70  C   UNL A   1      44.611  32.250  30.679  1.00  0.00     0.074 A 
ATOM     71  C   UNL A   1      46.056  32.348  30.551  1.00  0.00     0.031 C 
ATOM     72  C   UNL A   1      43.589  33.163  30.712  1.00  0.00     0.034 A 
BRANCH  59  73
ATOM     73  C   UNL A   1      37.504  32.088  30.279  1.00  0.00     0.023 A 
ATOM     74  C   UNL A   1      36.958  31.715  31.525  1.00  0.00     0.012 A 
ATOM     75  C   UNL A   1      36.632  32.728  29.367  1.00  0.00     0.148 A 
ATOM     76  C   UNL A   1      35.609  31.887  31.832  1.00  0.00     0.002 A 
ATOM     77  C   UNL A   1      35.269  32.853  29.653  1.00  0.00     0.091 A 
ATOM     78  F   UNL A   1      37.130  33.255  28.240  1.00  0.00    -0.205 F 
ATOM     79  C   UNL A   1      34.757  32.432  30.885  1.00  0.00     0.022 A 
BRANCH  77  80
ATOM     80  S   UNL A   1      34.069  33.466  28.456  1.00  0.00     0.127 S 
ATOM     81  O   UNL A   1      34.887  34.351  27.623  1.00  0.00    -0.237 OA
ATOM     82  O   UNL A   1      33.635  32.241  27.791  1.00  0.00    -0.237 OA
ATOM     83  O   UNL A   1      33.052  34.163  29.234  1.00  0.00    -0.744 OA
ENDBRANCH  77  80
ENDBRANCH  59  73
BRANCH  60  84
ATOM     84  C   UNL A   1      46.189  27.896  29.496  1.00  0.00     0.023 A 
ATOM     85  C   UNL A   1      46.517  26.550  29.813  1.00  0.00     0.012 A 
ATOM     86  C   UNL A   1      46.080  28.251  28.140  1.00  0.00     0.148 A 
ATOM     87  C   UNL A   1      46.562  25.562  28.826  1.00  0.00     0.002 A 
ATOM     88  C   UNL A   1      46.169  27.264  27.155  1.00  0.00     0.091 A 
ATOM     89  F   UNL A   1      45.861  29.535  27.827  1.00  0.00    -0.205 F 
ATOM     90  C   UNL A   1      46.350  25.914  27.498  1.00  0.00     0.022 A 
BRANCH  88  91
ATOM     91  S   UNL A   1      46.038  27.668  25.406  1.00  0.00     0.127 S 
ATOM     92  O   UNL A   1      47.234  28.480  25.209  1.00  0.00    -0.237 OA
ATOM     93  O   UNL A   1      46.084  26.361  24.758  1.00  0.00    -0.237 OA
ATOM     94  O   UNL A   1      44.758  28.358  25.272  1.00  0.00    -0.744 OA
ENDBRANCH  88  91
ENDBRANCH  60  84
BRANCH  72  95
ATOM     95  C   UNL A   1      43.699  34.642  30.378  1.00  0.00     0.023 A 
ATOM     96  C   UNL A   1      44.134  35.598  31.312  1.00  0.00     0.012 A 
ATOM     97  C   UNL A   1      43.515  35.102  29.044  1.00  0.00     0.148 A 
ATOM     98  C   UNL A   1      44.326  36.940  30.967  1.00  0.00     0.002 A 
ATOM     99  C   UNL A   1      43.843  36.402  28.678  1.00  0.00     0.091 A 
ATOM    100  F   UNL A   1      42.993  34.290  28.115  1.00  0.00    -0.205 F 
ATOM    101  C   UNL A   1      44.213  37.336  29.643  1.00  0.00     0.022 A 
BRANCH  99 102
ATOM    102  S   UNL A   1      43.975  36.875  26.947  1.00  0.00     0.127 S 
ATOM    103  O   UNL A   1      44.563  38.208  27.043  1.00  0.00    -0.237 OA
ATOM    104  O   UNL A   1      44.874  35.848  26.414  1.00  0.00    -0.237 OA
ATOM    105  O   UNL A   1      42.617  36.807  26.424  1.00  0.00    -0.744 OA
ENDBRANCH  99 102
ENDBRANCH  72  95
ENDBRANCH  46  47
ENDBRANCH  38  41
ENDBRANCH  36  37
ENDBRANCH  35  36
ENDBRANCH   1  35
TORSDOF 19
ENDMDL
MODEL 3
REMARK VINA RESULT:     -12.9      2.130      2.592
REMARK SMILES Cc1ccccc1C(=O)Nc1ccc(OCC(=O)NCCCCNC(=O)c2ccc(-c3c4nc(c(-c5cccc(S(=O)(=O)[O-])c5F)c5ccc([nH]5)c(-c5cccc(S(=O)(=O)[O-])c5F)c5nc(c(-c6cccc(S(=O)(=O)[O-])c6F)c6ccc3[nH]6)C=C5)C=C4)cc2)c(-c2nc3ccccc3s2)c1
REMARK SMILES IDX 21 1 20 2 19 3 17 4 18 5 16 7 15 8 14 9 11 10 12 11 100 12
REMARK SMILES IDX 13 13 90 14 10 15 8 16 9 17 7 19 1 20 2 21 3 22 4 23 6 24
REMARK SMILES IDX 5 25 91 26 92 27 99 28 93 29 98 30 94 31 97 32 95 33 96 34
REMARK SMILES IDX 22 35 23 36 24 37 25 38 26 40 27 41 28 42 89 43 29 44 88 45
REMARK SMILES IDX 30 46 31 47 32 48 82 49 33 50 87 51 81 52 83 53 34 54 86 55
REMARK SMILES IDX 80 56 79 57 35 59 67 60 47 61 66 62 48 63 51 64 65 65 84 66
REMARK SMILES IDX 49 67 50 68 64 70 85 71 52 72 36 73 37 74 45 75 38 76 40 77
REMARK SMILES IDX 46 78 39 79 41 80 42 81 43 82 44 83 68 84 69 85 77 86 70 87
REMARK SMILES IDX 72 88 78 89 71 90 73 91 74 92 75 93 76 94 53 95 54 96 62 97
REMARK SMILES IDX 55 98 57 99 63 100 56 101 58 102 59 103 60 104 61 105
REMARK H PARENT 19 6 10 18 24 39 83 58 51 69
REMARK Flexibility Score: inf
ROOT
ATOM      1  C   UNL A   1      35.618  30.963  28.188  1.00  0.00     0.023 C 
ENDROOT
BRANCH   1   2
ATOM      2  C   UNL A   1      35.214  29.629  27.560  1.00  0.00     0.116 C 
BRANCH   2   3
ATOM      3  N   UNL A   1      34.374  29.832  26.400  1.00  0.00    -0.353 N 
ATOM      4  C   UNL A   1      33.590  28.927  25.748  1.00  0.00     0.257 C 
ATOM      5  O   UNL A   1      33.282  29.199  24.586  1.00  0.00    -0.271 OA
ATOM      6  H   UNL A   1      34.368  30.745  26.032  1.00  0.00     0.163 HD
BRANCH   4   7
ATOM      7  C   UNL A   1      33.051  27.680  26.505  1.00  0.00     0.329 C 
BRANCH   7   8
ATOM      8  O   UNL A   1      31.744  27.118  26.483  1.00  0.00    -0.483 OA
BRANCH   8   9
ATOM      9  C   UNL A   1      31.598  25.851  25.999  1.00  0.00     0.130 A 
ATOM     10  C   UNL A   1      31.392  23.155  25.245  1.00  0.00     0.042 A 
ATOM     11  C   UNL A   1      31.925  23.483  26.489  1.00  0.00     0.030 A 
ATOM     12  C   UNL A   1      30.818  24.159  24.466  1.00  0.00     0.041 A 
ATOM     13  C   UNL A   1      32.069  24.829  26.841  1.00  0.00     0.049 A 
ATOM     14  C   UNL A   1      30.858  25.525  24.847  1.00  0.00     0.055 A 
BRANCH  10  15
ATOM     15  N   UNL A   1      31.535  21.833  24.798  1.00  0.00    -0.322 N 
ATOM     16  C   UNL A   1      32.615  21.185  24.221  1.00  0.00     0.255 C 
ATOM     17  O   UNL A   1      32.425  20.057  23.759  1.00  0.00    -0.269 OA
ATOM     18  H   UNL A   1      30.734  21.272  24.913  1.00  0.00     0.170 HD
BRANCH  16  19
ATOM     19  C   UNL A   1      34.012  21.734  24.202  1.00  0.00     0.043 A 
ATOM     20  C   UNL A   1      33.656  23.490  22.367  1.00  0.00     0.045 C 
ATOM     21  C   UNL A   1      34.507  22.690  23.299  1.00  0.00    -0.038 A 
ATOM     22  C   UNL A   1      35.868  23.057  23.342  1.00  0.00     0.004 A 
ATOM     23  C   UNL A   1      36.688  22.631  24.378  1.00  0.00     0.000 A 
ATOM     24  C   UNL A   1      34.844  21.353  25.271  1.00  0.00     0.014 A 
ATOM     25  C   UNL A   1      36.159  21.819  25.373  1.00  0.00     0.001 A 
ENDBRANCH  16  19
ENDBRANCH  10  15
BRANCH  14  26
ATOM     26  C   UNL A   1      30.137  26.461  23.953  1.00  0.00     0.128 A 
ATOM     27  N   UNL A   1      30.753  27.336  23.173  1.00  0.00    -0.236 NA
ATOM     28  S   UNL A   1      28.427  26.528  23.782  1.00  0.00    -0.114 S 
ATOM     29  C   UNL A   1      29.866  28.325  22.786  1.00  0.00     0.082 A 
ATOM     30  C   UNL A   1      28.555  28.133  23.210  1.00  0.00     0.055 A 
ATOM     31  C   UNL A   1      30.178  29.493  22.070  1.00  0.00     0.030 A 
ATOM     32  C   UNL A   1      27.575  29.129  23.102  1.00  0.00     0.021 A 
ATOM     33  C   UNL A   1      29.198  30.477  21.904  1.00  0.00     0.002 A 
ATOM     34  C   UNL A   1      27.928  30.315  22.454  1.00  0.00     0.002 A 
ENDBRANCH  14  26
ENDBRANCH   8   9
ENDBRANCH   7   8
ENDBRANCH   4   7
ENDBRANCH   2   3
ENDBRANCH   1   2
BRANCH   1  35
ATOM     35  C   UNL A   1      34.650  32.137  27.975  1.00  0.00     0.023 C 
BRANCH  35  36
ATOM     36  C   UNL A   1      35.226  33.535  27.953  1.00  0.00     0.116 C 
BRANCH  36  37
ATOM     37  N   UNL A   1      34.966  34.269  29.183  1.00  0.00    -0.352 N 
ATOM     38  C   UNL A   1      35.546  34.123  30.437  1.00  0.00     0.251 C 
ATOM     39  H   UNL A   1      34.279  34.971  29.117  1.00  0.00     0.163 HD
ATOM     40  O   UNL A   1      34.840  34.336  31.414  1.00  0.00    -0.269 OA
BRANCH  38  41
ATOM     41  C   UNL A   1      36.968  33.723  30.551  1.00  0.00     0.039 A 
ATOM     42  C   UNL A   1      38.025  34.305  29.855  1.00  0.00     0.014 A 
ATOM     43  C   UNL A   1      37.239  32.619  31.333  1.00  0.00     0.014 A 
ATOM     44  C   UNL A   1      39.274  33.677  29.910  1.00  0.00     0.010 A 
ATOM     45  C   UNL A   1      38.488  32.329  31.756  1.00  0.00     0.010 A 
ATOM     46  C   UNL A   1      39.462  32.655  30.846  1.00  0.00    -0.014 A 
BRANCH  46  47
ATOM     47  C   UNL A   1      40.560  31.715  30.915  1.00  0.00     0.031 A 
ATOM     48  C   UNL A   1      40.422  30.456  30.207  1.00  0.00     0.074 A 
ATOM     49  C   UNL A   1      41.699  32.133  31.524  1.00  0.00     0.049 A 
ATOM     50  N   UNL A   1      40.946  29.358  30.604  1.00  0.00    -0.248 NA
ATOM     51  C   UNL A   1      39.618  30.342  28.995  1.00  0.00     0.031 C 
ATOM     52  C   UNL A   1      43.034  31.556  31.530  1.00  0.00     0.029 A 
ATOM     53  N   UNL A   1      41.804  33.210  32.422  1.00  0.00    -0.354 N 
ATOM     54  C   UNL A   1      40.795  28.467  29.568  1.00  0.00     0.074 A 
ATOM     55  C   UNL A   1      39.847  29.069  28.660  1.00  0.00     0.031 C 
ATOM     56  C   UNL A   1      43.710  32.051  32.589  1.00  0.00     0.029 A 
ATOM     57  C   UNL A   1      42.766  32.842  33.368  1.00  0.00     0.049 A 
ATOM     58  H   UNL A   1      41.300  34.055  32.391  1.00  0.00     0.167 HD
ATOM     59  C   UNL A   1      41.664  27.429  29.469  1.00  0.00     0.034 A 
ATOM     60  C   UNL A   1      42.361  32.577  34.648  1.00  0.00     0.034 A 
ATOM     61  C   UNL A   1      42.672  27.519  30.534  1.00  0.00     0.049 A 
ATOM     62  C   UNL A   1      42.603  31.133  35.029  1.00  0.00     0.074 A 
ATOM     63  C   UNL A   1      43.917  28.129  30.568  1.00  0.00     0.029 A 
ATOM     64  N   UNL A   1      42.294  27.323  31.856  1.00  0.00    -0.354 N 
ATOM     65  N   UNL A   1      42.758  30.165  34.168  1.00  0.00    -0.248 NA
ATOM     66  C   UNL A   1      42.745  30.681  36.407  1.00  0.00     0.031 C 
ATOM     67  C   UNL A   1      44.257  28.358  31.927  1.00  0.00     0.029 A 
ATOM     68  C   UNL A   1      43.230  27.874  32.719  1.00  0.00     0.049 A 
ATOM     69  H   UNL A   1      41.474  26.858  32.141  1.00  0.00     0.167 HD
ATOM     70  C   UNL A   1      42.955  28.980  34.827  1.00  0.00     0.074 A 
ATOM     71  C   UNL A   1      42.989  29.370  36.228  1.00  0.00     0.031 C 
ATOM     72  C   UNL A   1      43.048  27.785  34.163  1.00  0.00     0.034 A 
BRANCH  59  73
ATOM     73  C   UNL A   1      41.836  26.634  28.199  1.00  0.00     0.023 A 
ATOM     74  C   UNL A   1      41.512  27.277  26.987  1.00  0.00     0.012 A 
ATOM     75  C   UNL A   1      42.254  25.284  28.112  1.00  0.00     0.148 A 
ATOM     76  C   UNL A   1      41.519  26.611  25.761  1.00  0.00     0.002 A 
ATOM     77  C   UNL A   1      42.210  24.602  26.893  1.00  0.00     0.091 A 
ATOM     78  F   UNL A   1      42.734  24.673  29.204  1.00  0.00    -0.205 F 
ATOM     79  C   UNL A   1      41.842  25.265  25.717  1.00  0.00     0.022 A 
BRANCH  77  80
ATOM     80  S   UNL A   1      42.526  22.834  26.748  1.00  0.00     0.127 S 
ATOM     81  O   UNL A   1      41.518  22.264  27.647  1.00  0.00    -0.237 OA
ATOM     82  O   UNL A   1      42.280  22.586  25.329  1.00  0.00    -0.237 OA
ATOM     83  O   UNL A   1      43.897  22.636  27.199  1.00  0.00    -0.744 OA
ENDBRANCH  77  80
ENDBRANCH  59  73
BRANCH  60  84
ATOM     84  C   UNL A   1      41.183  33.414  35.071  1.00  0.00     0.023 A 
ATOM     85  C   UNL A   1      41.291  34.820  34.902  1.00  0.00     0.012 A 
ATOM     86  C   UNL A   1      39.905  32.866  35.282  1.00  0.00     0.148 A 
ATOM     87  C   UNL A   1      40.156  35.626  34.774  1.00  0.00     0.002 A 
ATOM     88  C   UNL A   1      38.776  33.687  35.195  1.00  0.00     0.091 A 
ATOM     89  F   UNL A   1      39.799  31.554  35.532  1.00  0.00    -0.205 F 
ATOM     90  C   UNL A   1      38.896  35.051  34.883  1.00  0.00     0.022 A 
BRANCH  88  91
ATOM     91  S   UNL A   1      37.119  33.035  35.459  1.00  0.00     0.127 S 
ATOM     92  O   UNL A   1      36.298  34.123  34.936  1.00  0.00    -0.237 OA
ATOM     93  O   UNL A   1      37.105  31.824  34.644  1.00  0.00    -0.237 OA
ATOM     94  O   UNL A   1      37.033  32.792  36.895  1.00  0.00    -0.744 OA
ENDBRANCH  88  91
ENDBRANCH  60  84
BRANCH  72  95
ATOM     95  C   UNL A   1      42.993  26.404  34.795  1.00  0.00     0.023 A 
ATOM     96  C   UNL A   1      41.784  25.789  35.166  1.00  0.00     0.012 A 
ATOM     97  C   UNL A   1      44.164  25.602  34.892  1.00  0.00     0.148 A 
ATOM     98  C   UNL A   1      41.737  24.479  35.655  1.00  0.00     0.002 A 
ATOM     99  C   UNL A   1      44.092  24.259  35.244  1.00  0.00     0.091 A 
ATOM    100  F   UNL A   1      45.372  26.139  34.671  1.00  0.00    -0.205 F 
ATOM    101  C   UNL A   1      42.886  23.702  35.663  1.00  0.00     0.022 A 
BRANCH  99 102
ATOM    102  S   UNL A   1      45.494  23.158  35.003  1.00  0.00     0.127 S 
ATOM    103  O   UNL A   1      46.462  23.689  35.959  1.00  0.00    -0.237 OA
ATOM    104  O   UNL A   1      44.930  21.855  35.365  1.00  0.00    -0.237 OA
ATOM    105  O   UNL A   1      45.846  23.284  33.595  1.00  0.00    -0.744 OA
ENDBRANCH  99 102
ENDBRANCH  72  95
ENDBRANCH  46  47
ENDBRANCH  38  41
ENDBRANCH  36  37
ENDBRANCH  35  36
ENDBRANCH   1  35
TORSDOF 19
ENDMDL
