MODEL 1
REMARK VINA RESULT:     -10.7      0.000      0.000
REMARK SMILES C=CC[N@@H+](CC(=O)NCCCCNC(=O)c1ccc(-c2c3nc(c(-c4cccc(S(=O)(=O)[O-])c4F)c4ccc([nH]4)c(-c4cccc(S(=O)(=O)[O-])c4F)c4nc(c(-c5cccc(S(=O)(=O)[O-])c5F)c5ccc2[nH]5)C=C4)C=C3)cc1)C1CCSCC1
REMARK SMILES IDX 10 1 9 2 8 3 6 4 7 5 5 7 4 8 3 10 2 11 1 12 79 13 80 14
REMARK SMILES IDX 84 15 81 16 83 17 82 18 11 19 12 20 13 21 14 22 15 24 16 25
REMARK SMILES IDX 17 26 78 27 18 28 77 29 19 30 20 31 21 32 71 33 22 34 76 35
REMARK SMILES IDX 70 36 72 37 23 38 75 39 69 40 68 41 24 43 56 44 36 45 55 46
REMARK SMILES IDX 37 47 40 48 54 49 73 50 38 51 39 52 53 54 74 55 41 56 25 57
REMARK SMILES IDX 26 58 34 59 27 60 29 61 35 62 28 63 30 64 31 65 32 66 33 67
REMARK SMILES IDX 57 68 58 69 66 70 59 71 61 72 67 73 60 74 62 75 63 76 64 77
REMARK SMILES IDX 65 78 42 79 43 80 51 81 44 82 46 83 52 84 45 85 47 86 48 87
REMARK SMILES IDX 49 88 50 89
REMARK H PARENT 8 6 4 9 13 23 72 42 40 53
REMARK Flexibility Score: inf
ROOT
ATOM      1  C   UNL A   1      32.253  29.258  23.782  1.00  0.00     0.023 C 
ENDROOT
BRANCH   1   2
ATOM      2  C   UNL A   1      31.395  28.285  22.973  1.00  0.00     0.116 C 
BRANCH   2   3
ATOM      3  N   UNL A   1      32.189  27.465  22.084  1.00  0.00    -0.351 N 
ATOM      4  C   UNL A   1      33.209  26.602  22.357  1.00  0.00     0.275 C 
ATOM      5  O   UNL A   1      33.671  25.953  21.412  1.00  0.00    -0.269 OA
ATOM      6  H   UNL A   1      31.955  27.543  21.130  1.00  0.00     0.163 HD
BRANCH   4   7
ATOM      7  C   UNL A   1      33.744  26.394  23.777  1.00  0.00     0.364 C 
BRANCH   7   8
ATOM      8  N   UNL A   1      33.813  25.003  24.270  1.00  0.00    -0.321 N 
ATOM      9  H   UNL A   1      33.544  24.468  23.444  1.00  0.00     0.349 HD
BRANCH   8  10
ATOM     10  C   UNL A   1      32.774  24.669  25.233  1.00  0.00     0.291 C 
BRANCH  10  11
ATOM     11  C   UNL A   1      32.174  25.805  26.008  1.00  0.00     0.025 C 
ATOM     12  C   UNL A   1      30.858  26.057  26.068  1.00  0.00     0.010 C 
ENDBRANCH  10  11
ENDBRANCH   8  10
BRANCH   8  13
ATOM     13  C   UNL A   1      35.109  24.307  24.330  1.00  0.00     0.186 C 
ATOM     14  C   UNL A   1      35.265  23.067  23.431  1.00  0.00     0.076 C 
ATOM     15  C   UNL A   1      35.507  24.010  25.788  1.00  0.00     0.076 C 
ATOM     16  C   UNL A   1      36.694  22.531  23.386  1.00  0.00     0.075 C 
ATOM     17  C   UNL A   1      36.969  23.600  25.912  1.00  0.00     0.075 C 
ATOM     18  S   UNL A   1      37.327  22.065  25.023  1.00  0.00    -0.162 SA
ENDBRANCH   8  13
ENDBRANCH   7   8
ENDBRANCH   4   7
ENDBRANCH   2   3
ENDBRANCH   1   2
BRANCH   1  19
ATOM     19  C   UNL A   1      31.741  29.604  25.170  1.00  0.00     0.023 C 
BRANCH  19  20
ATOM     20  C   UNL A   1      32.807  30.084  26.138  1.00  0.00     0.116 C 
BRANCH  20  21
ATOM     21  N   UNL A   1      32.600  31.449  26.616  1.00  0.00    -0.352 N 
ATOM     22  C   UNL A   1      33.434  32.196  27.418  1.00  0.00     0.251 C 
ATOM     23  H   UNL A   1      31.767  31.887  26.330  1.00  0.00     0.163 HD
ATOM     24  O   UNL A   1      33.106  33.312  27.806  1.00  0.00    -0.269 OA
BRANCH  22  25
ATOM     25  C   UNL A   1      34.715  31.594  27.836  1.00  0.00     0.039 A 
ATOM     26  C   UNL A   1      35.816  32.420  28.066  1.00  0.00     0.014 A 
ATOM     27  C   UNL A   1      34.764  30.232  28.136  1.00  0.00     0.014 A 
ATOM     28  C   UNL A   1      36.947  31.892  28.692  1.00  0.00     0.010 A 
ATOM     29  C   UNL A   1      35.848  29.735  28.844  1.00  0.00     0.010 A 
ATOM     30  C   UNL A   1      36.950  30.558  29.130  1.00  0.00    -0.014 A 
BRANCH  30  31
ATOM     31  C   UNL A   1      38.087  29.963  29.875  1.00  0.00     0.031 A 
ATOM     32  C   UNL A   1      38.349  30.421  31.284  1.00  0.00     0.074 A 
ATOM     33  C   UNL A   1      38.954  29.137  29.253  1.00  0.00     0.049 A 
ATOM     34  N   UNL A   1      39.399  30.229  32.035  1.00  0.00    -0.248 NA
ATOM     35  C   UNL A   1      37.308  31.259  31.908  1.00  0.00     0.031 C 
ATOM     36  C   UNL A   1      38.847  28.672  27.869  1.00  0.00     0.029 A 
ATOM     37  N   UNL A   1      40.120  28.568  29.702  1.00  0.00    -0.354 N 
ATOM     38  C   UNL A   1      39.177  30.975  33.186  1.00  0.00     0.074 A 
ATOM     39  C   UNL A   1      37.908  31.649  33.021  1.00  0.00     0.031 C 
ATOM     40  C   UNL A   1      39.898  27.885  27.584  1.00  0.00     0.029 A 
ATOM     41  C   UNL A   1      40.773  27.817  28.750  1.00  0.00     0.049 A 
ATOM     42  H   UNL A   1      40.458  28.687  30.619  1.00  0.00     0.167 HD
ATOM     43  C   UNL A   1      39.945  31.067  34.297  1.00  0.00     0.034 A 
ATOM     44  C   UNL A   1      41.945  27.156  28.816  1.00  0.00     0.034 A 
ATOM     45  C   UNL A   1      41.152  30.316  34.493  1.00  0.00     0.049 A 
ATOM     46  C   UNL A   1      42.727  27.190  30.103  1.00  0.00     0.074 A 
ATOM     47  C   UNL A   1      41.971  30.276  35.606  1.00  0.00     0.029 A 
ATOM     48  N   UNL A   1      41.696  29.447  33.560  1.00  0.00    -0.354 N 
ATOM     49  N   UNL A   1      42.449  27.819  31.220  1.00  0.00    -0.248 NA
ATOM     50  C   UNL A   1      43.965  26.397  30.154  1.00  0.00     0.031 C 
ATOM     51  C   UNL A   1      43.001  29.364  35.354  1.00  0.00     0.029 A 
ATOM     52  C   UNL A   1      42.822  28.840  34.083  1.00  0.00     0.049 A 
ATOM     53  H   UNL A   1      41.335  29.285  32.659  1.00  0.00     0.167 HD
ATOM     54  C   UNL A   1      43.448  27.462  32.117  1.00  0.00     0.074 A 
ATOM     55  C   UNL A   1      44.333  26.553  31.419  1.00  0.00     0.031 C 
ATOM     56  C   UNL A   1      43.629  27.864  33.399  1.00  0.00     0.034 A 
BRANCH  43  57
ATOM     57  C   UNL A   1      39.450  31.943  35.414  1.00  0.00     0.023 A 
ATOM     58  C   UNL A   1      38.543  31.412  36.354  1.00  0.00     0.012 A 
ATOM     59  C   UNL A   1      39.899  33.269  35.559  1.00  0.00     0.148 A 
ATOM     60  C   UNL A   1      38.061  32.197  37.399  1.00  0.00     0.002 A 
ATOM     61  C   UNL A   1      39.447  34.034  36.629  1.00  0.00     0.091 A 
ATOM     62  F   UNL A   1      40.741  33.766  34.641  1.00  0.00    -0.205 F 
ATOM     63  C   UNL A   1      38.520  33.503  37.542  1.00  0.00     0.022 A 
BRANCH  61  64
ATOM     64  S   UNL A   1      40.034  35.702  36.941  1.00  0.00     0.127 S 
ATOM     65  O   UNL A   1      39.402  36.004  38.224  1.00  0.00    -0.237 OA
ATOM     66  O   UNL A   1      41.484  35.513  37.004  1.00  0.00    -0.237 OA
ATOM     67  O   UNL A   1      39.579  36.501  35.812  1.00  0.00    -0.744 OA
ENDBRANCH  61  64
ENDBRANCH  43  57
BRANCH  44  68
ATOM     68  C   UNL A   1      42.404  26.323  27.668  1.00  0.00     0.023 A 
ATOM     69  C   UNL A   1      43.252  26.905  26.703  1.00  0.00     0.012 A 
ATOM     70  C   UNL A   1      42.035  24.973  27.527  1.00  0.00     0.148 A 
ATOM     71  C   UNL A   1      43.695  26.169  25.604  1.00  0.00     0.002 A 
ATOM     72  C   UNL A   1      42.519  24.230  26.453  1.00  0.00     0.091 A 
ATOM     73  F   UNL A   1      41.214  24.436  28.442  1.00  0.00    -0.205 F 
ATOM     74  C   UNL A   1      43.336  24.831  25.483  1.00  0.00     0.022 A 
BRANCH  72  75
ATOM     75  S   UNL A   1      42.203  22.468  26.299  1.00  0.00     0.127 S 
ATOM     76  O   UNL A   1      42.762  21.952  27.544  1.00  0.00    -0.237 OA
ATOM     77  O   UNL A   1      40.742  22.420  26.212  1.00  0.00    -0.237 OA
ATOM     78  O   UNL A   1      42.882  22.068  25.073  1.00  0.00    -0.744 OA
ENDBRANCH  72  75
ENDBRANCH  44  68
BRANCH  56  79
ATOM     79  C   UNL A   1      44.784  27.280  34.163  1.00  0.00     0.023 A 
ATOM     80  C   UNL A   1      45.981  28.012  34.284  1.00  0.00     0.012 A 
ATOM     81  C   UNL A   1      44.638  26.063  34.857  1.00  0.00     0.148 A 
ATOM     82  C   UNL A   1      47.023  27.531  35.074  1.00  0.00     0.002 A 
ATOM     83  C   UNL A   1      45.665  25.610  35.673  1.00  0.00     0.091 A 
ATOM     84  F   UNL A   1      43.495  25.375  34.709  1.00  0.00    -0.205 F 
ATOM     85  C   UNL A   1      46.861  26.340  35.778  1.00  0.00     0.022 A 
BRANCH  83  86
ATOM     86  S   UNL A   1      45.505  24.136  36.686  1.00  0.00     0.127 S 
ATOM     87  O   UNL A   1      46.892  23.688  36.784  1.00  0.00    -0.237 OA
ATOM     88  O   UNL A   1      44.948  24.669  37.930  1.00  0.00    -0.237 OA
ATOM     89  O   UNL A   1      44.607  23.247  35.959  1.00  0.00    -0.744 OA
ENDBRANCH  83  86
ENDBRANCH  56  79
ENDBRANCH  30  31
ENDBRANCH  22  25
ENDBRANCH  20  21
ENDBRANCH  19  20
ENDBRANCH   1  19
TORSDOF 18
ENDMDL
MODEL 2
REMARK VINA RESULT:     -10.7      1.358      1.954
REMARK SMILES C=CC[N@@H+](CC(=O)NCCCCNC(=O)c1ccc(-c2c3nc(c(-c4cccc(S(=O)(=O)[O-])c4F)c4ccc([nH]4)c(-c4cccc(S(=O)(=O)[O-])c4F)c4nc(c(-c5cccc(S(=O)(=O)[O-])c5F)c5ccc2[nH]5)C=C4)C=C3)cc1)C1CCSCC1
REMARK SMILES IDX 10 1 9 2 8 3 6 4 7 5 5 7 4 8 3 10 2 11 1 12 79 13 80 14
REMARK SMILES IDX 84 15 81 16 83 17 82 18 11 19 12 20 13 21 14 22 15 24 16 25
REMARK SMILES IDX 17 26 78 27 18 28 77 29 19 30 20 31 21 32 71 33 22 34 76 35
REMARK SMILES IDX 70 36 72 37 23 38 75 39 69 40 68 41 24 43 56 44 36 45 55 46
REMARK SMILES IDX 37 47 40 48 54 49 73 50 38 51 39 52 53 54 74 55 41 56 25 57
REMARK SMILES IDX 26 58 34 59 27 60 29 61 35 62 28 63 30 64 31 65 32 66 33 67
REMARK SMILES IDX 57 68 58 69 66 70 59 71 61 72 67 73 60 74 62 75 63 76 64 77
REMARK SMILES IDX 65 78 42 79 43 80 51 81 44 82 46 83 52 84 45 85 47 86 48 87
REMARK SMILES IDX 49 88 50 89
REMARK H PARENT 8 6 4 9 13 23 72 42 40 53
REMARK Flexibility Score: inf
ROOT
ATOM      1  C   UNL A   1      31.644  27.631  26.578  1.00  0.00     0.023 C 
ENDROOT
BRANCH   1   2
ATOM      2  C   UNL A   1      31.095  26.360  25.929  1.00  0.00     0.116 C 
BRANCH   2   3
ATOM      3  N   UNL A   1      31.110  25.234  26.837  1.00  0.00    -0.351 N 
ATOM      4  C   UNL A   1      31.222  23.898  26.582  1.00  0.00     0.275 C 
ATOM      5  O   UNL A   1      31.292  23.140  27.555  1.00  0.00    -0.269 OA
ATOM      6  H   UNL A   1      31.024  25.468  27.789  1.00  0.00     0.163 HD
BRANCH   4   7
ATOM      7  C   UNL A   1      31.310  23.344  25.156  1.00  0.00     0.364 C 
BRANCH   7   8
ATOM      8  N   UNL A   1      32.422  22.415  24.866  1.00  0.00    -0.321 N 
ATOM      9  H   UNL A   1      32.393  22.355  23.848  1.00  0.00     0.349 HD
BRANCH   8  10
ATOM     10  C   UNL A   1      32.166  21.045  25.284  1.00  0.00     0.291 C 
BRANCH  10  11
ATOM     11  C   UNL A   1      32.528  19.958  24.315  1.00  0.00     0.025 C 
ATOM     12  C   UNL A   1      33.514  19.072  24.520  1.00  0.00     0.010 C 
ENDBRANCH  10  11
ENDBRANCH   8  10
BRANCH   8  13
ATOM     13  C   UNL A   1      33.806  22.915  24.822  1.00  0.00     0.186 C 
ATOM     14  C   UNL A   1      34.615  22.589  23.553  1.00  0.00     0.076 C 
ATOM     15  C   UNL A   1      34.571  22.529  26.102  1.00  0.00     0.076 C 
ATOM     16  C   UNL A   1      35.956  23.316  23.489  1.00  0.00     0.075 C 
ATOM     17  C   UNL A   1      35.878  23.299  26.244  1.00  0.00     0.075 C 
ATOM     18  S   UNL A   1      37.034  22.938  24.899  1.00  0.00    -0.162 SA
ENDBRANCH   8  13
ENDBRANCH   7   8
ENDBRANCH   4   7
ENDBRANCH   2   3
ENDBRANCH   1   2
BRANCH   1  19
ATOM     19  C   UNL A   1      31.695  28.864  25.691  1.00  0.00     0.023 C 
BRANCH  19  20
ATOM     20  C   UNL A   1      32.929  29.729  25.876  1.00  0.00     0.116 C 
BRANCH  20  21
ATOM     21  N   UNL A   1      32.643  31.065  26.394  1.00  0.00    -0.352 N 
ATOM     22  C   UNL A   1      33.410  31.816  27.255  1.00  0.00     0.251 C 
ATOM     23  H   UNL A   1      31.802  31.476  26.090  1.00  0.00     0.163 HD
ATOM     24  O   UNL A   1      33.018  32.902  27.669  1.00  0.00    -0.269 OA
BRANCH  22  25
ATOM     25  C   UNL A   1      34.700  31.256  27.702  1.00  0.00     0.039 A 
ATOM     26  C   UNL A   1      35.755  32.121  28.000  1.00  0.00     0.014 A 
ATOM     27  C   UNL A   1      34.799  29.888  27.960  1.00  0.00     0.014 A 
ATOM     28  C   UNL A   1      36.884  31.620  28.652  1.00  0.00     0.010 A 
ATOM     29  C   UNL A   1      35.876  29.415  28.693  1.00  0.00     0.010 A 
ATOM     30  C   UNL A   1      36.929  30.274  29.047  1.00  0.00    -0.014 A 
BRANCH  30  31
ATOM     31  C   UNL A   1      38.064  29.703  29.814  1.00  0.00     0.031 A 
ATOM     32  C   UNL A   1      38.297  30.180  31.222  1.00  0.00     0.074 A 
ATOM     33  C   UNL A   1      38.952  28.883  29.215  1.00  0.00     0.049 A 
ATOM     34  N   UNL A   1      39.338  30.010  31.992  1.00  0.00    -0.248 NA
ATOM     35  C   UNL A   1      37.235  31.008  31.822  1.00  0.00     0.031 C 
ATOM     36  C   UNL A   1      38.874  28.403  27.834  1.00  0.00     0.029 A 
ATOM     37  N   UNL A   1      40.119  28.337  29.687  1.00  0.00    -0.354 N 
ATOM     38  C   UNL A   1      39.088  30.765  33.131  1.00  0.00     0.074 A 
ATOM     39  C   UNL A   1      37.812  31.418  32.940  1.00  0.00     0.031 C 
ATOM     40  C   UNL A   1      39.940  27.629  27.574  1.00  0.00     0.029 A 
ATOM     41  C   UNL A   1      40.797  27.586  28.753  1.00  0.00     0.049 A 
ATOM     42  H   UNL A   1      40.441  28.470  30.608  1.00  0.00     0.167 HD
ATOM     43  C   UNL A   1      39.837  30.879  34.252  1.00  0.00     0.034 A 
ATOM     44  C   UNL A   1      41.978  26.943  28.843  1.00  0.00     0.034 A 
ATOM     45  C   UNL A   1      41.052  30.148  34.474  1.00  0.00     0.049 A 
ATOM     46  C   UNL A   1      42.740  27.002  30.142  1.00  0.00     0.074 A 
ATOM     47  C   UNL A   1      41.855  30.132  35.601  1.00  0.00     0.029 A 
ATOM     48  N   UNL A   1      41.623  29.278  33.559  1.00  0.00    -0.354 N 
ATOM     49  N   UNL A   1      42.435  27.638  31.248  1.00  0.00    -0.248 NA
ATOM     50  C   UNL A   1      43.988  26.228  30.220  1.00  0.00     0.031 C 
ATOM     51  C   UNL A   1      42.902  29.233  35.374  1.00  0.00     0.029 A 
ATOM     52  C   UNL A   1      42.749  28.693  34.106  1.00  0.00     0.049 A 
ATOM     53  H   UNL A   1      41.278  29.102  32.655  1.00  0.00     0.167 HD
ATOM     54  C   UNL A   1      43.426  27.304  32.164  1.00  0.00     0.074 A 
ATOM     55  C   UNL A   1      44.334  26.402  31.489  1.00  0.00     0.031 C 
ATOM     56  C   UNL A   1      43.581  27.722  33.444  1.00  0.00     0.034 A 
BRANCH  43  57
ATOM     57  C   UNL A   1      39.312  31.760  35.353  1.00  0.00     0.023 A 
ATOM     58  C   UNL A   1      38.329  31.254  36.228  1.00  0.00     0.012 A 
ATOM     59  C   UNL A   1      39.806  33.063  35.547  1.00  0.00     0.148 A 
ATOM     60  C   UNL A   1      37.818  32.043  37.256  1.00  0.00     0.002 A 
ATOM     61  C   UNL A   1      39.322  33.831  36.601  1.00  0.00     0.091 A 
ATOM     62  F   UNL A   1      40.722  33.537  34.689  1.00  0.00    -0.205 F 
ATOM     63  C   UNL A   1      38.321  33.327  37.448  1.00  0.00     0.022 A 
BRANCH  61  64
ATOM     64  S   UNL A   1      39.959  35.468  36.975  1.00  0.00     0.127 S 
ATOM     65  O   UNL A   1      41.390  35.205  37.112  1.00  0.00    -0.237 OA
ATOM     66  O   UNL A   1      39.588  36.226  35.779  1.00  0.00    -0.237 OA
ATOM     67  O   UNL A   1      39.278  35.890  38.192  1.00  0.00    -0.744 OA
ENDBRANCH  61  64
ENDBRANCH  43  57
BRANCH  44  68
ATOM     68  C   UNL A   1      42.467  26.105  27.712  1.00  0.00     0.023 A 
ATOM     69  C   UNL A   1      43.401  26.658  26.812  1.00  0.00     0.012 A 
ATOM     70  C   UNL A   1      42.042  24.777  27.524  1.00  0.00     0.148 A 
ATOM     71  C   UNL A   1      43.875  25.917  25.729  1.00  0.00     0.002 A 
ATOM     72  C   UNL A   1      42.555  24.027  26.469  1.00  0.00     0.091 A 
ATOM     73  F   UNL A   1      41.140  24.268  28.377  1.00  0.00    -0.205 F 
ATOM     74  C   UNL A   1      43.459  24.600  25.562  1.00  0.00     0.022 A 
BRANCH  72  75
ATOM     75  S   UNL A   1      42.164  22.286  26.264  1.00  0.00     0.127 S 
ATOM     76  O   UNL A   1      42.938  21.941  25.076  1.00  0.00    -0.237 OA
ATOM     77  O   UNL A   1      42.659  21.706  27.514  1.00  0.00    -0.237 OA
ATOM     78  O   UNL A   1      40.714  22.238  26.124  1.00  0.00    -0.744 OA
ENDBRANCH  72  75
ENDBRANCH  44  68
BRANCH  56  79
ATOM     79  C   UNL A   1      44.732  27.163  34.232  1.00  0.00     0.023 A 
ATOM     80  C   UNL A   1      45.970  27.835  34.230  1.00  0.00     0.012 A 
ATOM     81  C   UNL A   1      44.550  26.041  35.063  1.00  0.00     0.148 A 
ATOM     82  C   UNL A   1      47.015  27.388  35.036  1.00  0.00     0.002 A 
ATOM     83  C   UNL A   1      45.583  25.625  35.892  1.00  0.00     0.091 A 
ATOM     84  F   UNL A   1      43.368  25.406  35.031  1.00  0.00    -0.205 F 
ATOM     85  C   UNL A   1      46.819  26.294  35.875  1.00  0.00     0.022 A 
BRANCH  83  86
ATOM     86  S   UNL A   1      45.385  24.284  37.071  1.00  0.00     0.127 S 
ATOM     87  O   UNL A   1      46.731  24.177  37.630  1.00  0.00    -0.237 OA
ATOM     88  O   UNL A   1      44.383  24.822  37.992  1.00  0.00    -0.237 OA
ATOM     89  O   UNL A   1      44.933  23.135  36.296  1.00  0.00    -0.744 OA
ENDBRANCH  83  86
ENDBRANCH  56  79
ENDBRANCH  30  31
ENDBRANCH  22  25
ENDBRANCH  20  21
ENDBRANCH  19  20
ENDBRANCH   1  19
TORSDOF 18
ENDMDL
MODEL 3
REMARK VINA RESULT:     -10.6      1.724      8.292
REMARK SMILES C=CC[N@@H+](CC(=O)NCCCCNC(=O)c1ccc(-c2c3nc(c(-c4cccc(S(=O)(=O)[O-])c4F)c4ccc([nH]4)c(-c4cccc(S(=O)(=O)[O-])c4F)c4nc(c(-c5cccc(S(=O)(=O)[O-])c5F)c5ccc2[nH]5)C=C4)C=C3)cc1)C1CCSCC1
REMARK SMILES IDX 10 1 9 2 8 3 6 4 7 5 5 7 4 8 3 10 2 11 1 12 79 13 80 14
REMARK SMILES IDX 84 15 81 16 83 17 82 18 11 19 12 20 13 21 14 22 15 24 16 25
REMARK SMILES IDX 17 26 78 27 18 28 77 29 19 30 20 31 21 32 71 33 22 34 76 35
REMARK SMILES IDX 70 36 72 37 23 38 75 39 69 40 68 41 24 43 56 44 36 45 55 46
REMARK SMILES IDX 37 47 40 48 54 49 73 50 38 51 39 52 53 54 74 55 41 56 25 57
REMARK SMILES IDX 26 58 34 59 27 60 29 61 35 62 28 63 30 64 31 65 32 66 33 67
REMARK SMILES IDX 57 68 58 69 66 70 59 71 61 72 67 73 60 74 62 75 63 76 64 77
REMARK SMILES IDX 65 78 42 79 43 80 51 81 44 82 46 83 52 84 45 85 47 86 48 87
REMARK SMILES IDX 49 88 50 89
REMARK H PARENT 8 6 4 9 13 23 72 42 40 53
REMARK Flexibility Score: inf
ROOT
ATOM      1  C   UNL A   1      32.087  27.368  25.864  1.00  0.00     0.023 C 
ENDROOT
BRANCH   1   2
ATOM      2  C   UNL A   1      30.866  26.464  25.691  1.00  0.00     0.116 C 
BRANCH   2   3
ATOM      3  N   UNL A   1      30.840  25.389  26.659  1.00  0.00    -0.351 N 
ATOM      4  C   UNL A   1      30.889  24.038  26.476  1.00  0.00     0.275 C 
ATOM      5  O   UNL A   1      30.936  23.331  27.489  1.00  0.00    -0.269 OA
ATOM      6  H   UNL A   1      30.777  25.679  27.598  1.00  0.00     0.163 HD
BRANCH   4   7
ATOM      7  C   UNL A   1      30.935  23.404  25.083  1.00  0.00     0.364 C 
BRANCH   7   8
ATOM      8  N   UNL A   1      32.176  22.694  24.710  1.00  0.00    -0.321 N 
ATOM      9  H   UNL A   1      32.685  22.671  25.594  1.00  0.00     0.349 HD
BRANCH   8  10
ATOM     10  C   UNL A   1      33.054  23.464  23.842  1.00  0.00     0.291 C 
BRANCH  10  11
ATOM     11  C   UNL A   1      34.346  23.944  24.435  1.00  0.00     0.025 C 
ATOM     12  C   UNL A   1      34.440  24.562  25.621  1.00  0.00     0.010 C 
ENDBRANCH  10  11
ENDBRANCH   8  10
BRANCH   8  13
ATOM     13  C   UNL A   1      32.188  21.223  24.636  1.00  0.00     0.186 C 
ATOM     14  C   UNL A   1      33.106  20.492  25.634  1.00  0.00     0.076 C 
ATOM     15  C   UNL A   1      32.422  20.747  23.189  1.00  0.00     0.076 C 
ATOM     16  C   UNL A   1      32.904  18.979  25.641  1.00  0.00     0.075 C 
ATOM     17  C   UNL A   1      32.112  19.265  23.016  1.00  0.00     0.075 C 
ATOM     18  S   UNL A   1      33.196  18.219  24.019  1.00  0.00    -0.162 SA
ENDBRANCH   8  13
ENDBRANCH   7   8
ENDBRANCH   4   7
ENDBRANCH   2   3
ENDBRANCH   1   2
BRANCH   1  19
ATOM     19  C   UNL A   1      31.830  28.723  26.504  1.00  0.00     0.023 C 
BRANCH  19  20
ATOM     20  C   UNL A   1      32.827  29.802  26.126  1.00  0.00     0.116 C 
BRANCH  20  21
ATOM     21  N   UNL A   1      32.424  31.147  26.531  1.00  0.00    -0.352 N 
ATOM     22  C   UNL A   1      33.140  32.048  27.287  1.00  0.00     0.251 C 
ATOM     23  H   UNL A   1      31.537  31.444  26.227  1.00  0.00     0.163 HD
ATOM     24  O   UNL A   1      32.653  33.125  27.617  1.00  0.00    -0.269 OA
BRANCH  22  25
ATOM     25  C   UNL A   1      34.494  31.662  27.729  1.00  0.00     0.039 A 
ATOM     26  C   UNL A   1      35.496  32.632  27.790  1.00  0.00     0.014 A 
ATOM     27  C   UNL A   1      34.711  30.372  28.216  1.00  0.00     0.014 A 
ATOM     28  C   UNL A   1      36.698  32.331  28.434  1.00  0.00     0.010 A 
ATOM     29  C   UNL A   1      35.865  30.110  28.938  1.00  0.00     0.010 A 
ATOM     30  C   UNL A   1      36.870  31.084  29.056  1.00  0.00    -0.014 A 
BRANCH  30  31
ATOM     31  C   UNL A   1      38.090  30.735  29.825  1.00  0.00     0.031 A 
ATOM     32  C   UNL A   1      39.071  29.766  29.224  1.00  0.00     0.074 A 
ATOM     33  C   UNL A   1      38.244  31.164  31.095  1.00  0.00     0.049 A 
ATOM     34  N   UNL A   1      40.066  29.138  29.790  1.00  0.00    -0.248 NA
ATOM     35  C   UNL A   1      38.866  29.414  27.807  1.00  0.00     0.031 C 
ATOM     36  C   UNL A   1      37.328  32.051  31.814  1.00  0.00     0.029 A 
ATOM     37  N   UNL A   1      39.218  30.878  32.020  1.00  0.00    -0.354 N 
ATOM     38  C   UNL A   1      40.559  28.270  28.823  1.00  0.00     0.074 A 
ATOM     39  C   UNL A   1      39.735  28.429  27.645  1.00  0.00     0.031 C 
ATOM     40  C   UNL A   1      37.786  32.243  33.062  1.00  0.00     0.029 A 
ATOM     41  C   UNL A   1      39.006  31.466  33.247  1.00  0.00     0.049 A 
ATOM     42  H   UNL A   1      39.994  30.306  31.823  1.00  0.00     0.167 HD
ATOM     43  C   UNL A   1      41.624  27.438  28.895  1.00  0.00     0.034 A 
ATOM     44  C   UNL A   1      39.717  31.379  34.388  1.00  0.00     0.034 A 
ATOM     45  C   UNL A   1      42.497  27.361  30.032  1.00  0.00     0.049 A 
ATOM     46  C   UNL A   1      40.959  30.526  34.407  1.00  0.00     0.074 A 
ATOM     47  C   UNL A   1      43.645  26.607  30.188  1.00  0.00     0.029 A 
ATOM     48  N   UNL A   1      42.332  28.091  31.199  1.00  0.00    -0.354 N 
ATOM     49  N   UNL A   1      41.469  29.791  33.447  1.00  0.00    -0.248 NA
ATOM     50  C   UNL A   1      41.744  30.516  35.651  1.00  0.00     0.031 C 
ATOM     51  C   UNL A   1      44.189  26.898  31.443  1.00  0.00     0.029 A 
ATOM     52  C   UNL A   1      43.375  27.831  32.067  1.00  0.00     0.049 A 
ATOM     53  H   UNL A   1      41.584  28.704  31.382  1.00  0.00     0.167 HD
ATOM     54  C   UNL A   1      42.654  29.271  33.954  1.00  0.00     0.074 A 
ATOM     55  C   UNL A   1      42.793  29.783  35.302  1.00  0.00     0.031 C 
ATOM     56  C   UNL A   1      43.539  28.430  33.366  1.00  0.00     0.034 A 
BRANCH  43  57
ATOM     57  C   UNL A   1      41.948  26.615  27.679  1.00  0.00     0.023 A 
ATOM     58  C   UNL A   1      42.563  27.237  26.573  1.00  0.00     0.012 A 
ATOM     59  C   UNL A   1      41.681  25.234  27.636  1.00  0.00     0.148 A 
ATOM     60  C   UNL A   1      42.874  26.506  25.428  1.00  0.00     0.002 A 
ATOM     61  C   UNL A   1      42.033  24.502  26.507  1.00  0.00     0.091 A 
ATOM     62  F   UNL A   1      41.072  24.665  28.686  1.00  0.00    -0.205 F 
ATOM     63  C   UNL A   1      42.617  25.138  25.399  1.00  0.00     0.022 A 
BRANCH  61  64
ATOM     64  S   UNL A   1      41.810  22.723  26.401  1.00  0.00     0.127 S 
ATOM     65  O   UNL A   1      40.353  22.607  26.389  1.00  0.00    -0.237 OA
ATOM     66  O   UNL A   1      42.459  22.404  25.129  1.00  0.00    -0.237 OA
ATOM     67  O   UNL A   1      42.475  22.169  27.573  1.00  0.00    -0.744 OA
ENDBRANCH  61  64
ENDBRANCH  43  57
BRANCH  44  68
ATOM     68  C   UNL A   1      39.336  32.195  35.576  1.00  0.00     0.023 A 
ATOM     69  C   UNL A   1      38.529  31.609  36.572  1.00  0.00     0.012 A 
ATOM     70  C   UNL A   1      39.771  33.522  35.744  1.00  0.00     0.148 A 
ATOM     71  C   UNL A   1      38.134  32.339  37.693  1.00  0.00     0.002 A 
ATOM     72  C   UNL A   1      39.413  34.230  36.889  1.00  0.00     0.091 A 
ATOM     73  F   UNL A   1      40.525  34.074  34.781  1.00  0.00    -0.205 F 
ATOM     74  C   UNL A   1      38.583  33.645  37.856  1.00  0.00     0.022 A 
BRANCH  72  75
ATOM     75  S   UNL A   1      40.057  35.873  37.229  1.00  0.00     0.127 S 
ATOM     76  O   UNL A   1      39.377  36.210  38.474  1.00  0.00    -0.237 OA
ATOM     77  O   UNL A   1      41.494  35.624  37.358  1.00  0.00    -0.237 OA
ATOM     78  O   UNL A   1      39.697  36.668  36.062  1.00  0.00    -0.744 OA
ENDBRANCH  72  75
ENDBRANCH  44  68
BRANCH  56  79
ATOM     79  C   UNL A   1      44.774  28.057  34.136  1.00  0.00     0.023 A 
ATOM     80  C   UNL A   1      45.907  28.893  34.084  1.00  0.00     0.012 A 
ATOM     81  C   UNL A   1      44.767  26.945  35.000  1.00  0.00     0.148 A 
ATOM     82  C   UNL A   1      47.022  28.616  34.873  1.00  0.00     0.002 A 
ATOM     83  C   UNL A   1      45.867  26.698  35.811  1.00  0.00     0.091 A 
ATOM     84  F   UNL A   1      43.685  26.152  35.015  1.00  0.00    -0.205 F 
ATOM     85  C   UNL A   1      46.998  27.530  35.744  1.00  0.00     0.022 A 
BRANCH  83  86
ATOM     86  S   UNL A   1      45.884  25.376  37.027  1.00  0.00     0.127 S 
ATOM     87  O   UNL A   1      45.805  24.189  36.179  1.00  0.00    -0.237 OA
ATOM     88  O   UNL A   1      47.176  25.572  37.685  1.00  0.00    -0.237 OA
ATOM     89  O   UNL A   1      44.731  25.612  37.887  1.00  0.00    -0.744 OA
ENDBRANCH  83  86
ENDBRANCH  56  79
ENDBRANCH  30  31
ENDBRANCH  22  25
ENDBRANCH  20  21
ENDBRANCH  19  20
ENDBRANCH   1  19
TORSDOF 18
ENDMDL
