MODEL 1
REMARK VINA RESULT:     -11.5      0.000      0.000
REMARK SMILES COc1cc(C(=O)NCCCCNC(=O)c2ccc(-c3c4nc(c(-c5cccc(S(=O)(=O)[O-])c5F)c5ccc([nH]5)c(-c5cccc(S(=O)(=O)[O-])c5F)c5nc(c(-c6cccc(S(=O)(=O)[O-])c6F)c6ccc3[nH]6)C=C5)C=C4)cc2)c([N+](=O)[O-])cc1O[C@H](C)[C@@H](C)O
REMARK SMILES IDX 10 1 9 2 8 3 6 4 7 5 5 7 3 8 4 9 84 10 83 11 79 12 2 13 1 14
REMARK SMILES IDX 85 15 86 16 87 17 88 18 89 19 90 20 80 22 81 23 82 24 11 25
REMARK SMILES IDX 12 26 13 27 14 28 15 30 16 31 17 32 78 33 18 34 77 35 19 36
REMARK SMILES IDX 20 37 21 38 71 39 22 40 76 41 70 42 72 43 23 44 75 45 69 46
REMARK SMILES IDX 68 47 24 49 56 50 36 51 55 52 37 53 40 54 54 55 73 56 38 57
REMARK SMILES IDX 39 58 53 60 74 61 41 62 25 63 26 64 34 65 27 66 29 67 35 68
REMARK SMILES IDX 28 69 30 70 31 71 32 72 33 73 57 74 58 75 66 76 59 77 61 78
REMARK SMILES IDX 67 79 60 80 62 81 63 82 64 83 65 84 42 85 43 86 51 87 44 88
REMARK SMILES IDX 46 89 52 90 45 91 47 92 48 93 49 94 50 95
REMARK H PARENT 8 6 90 21 13 29 72 48 40 59
REMARK Flexibility Score: inf
ROOT
ATOM      1  C   UNL A   1      33.693  28.205  26.002  1.00  0.00     0.023 C 
ENDROOT
BRANCH   1   2
ATOM      2  C   UNL A   1      32.665  27.127  26.310  1.00  0.00     0.116 C 
BRANCH   2   3
ATOM      3  N   UNL A   1      32.709  25.939  25.471  1.00  0.00    -0.352 N 
ATOM      4  C   UNL A   1      32.237  25.751  24.189  1.00  0.00     0.258 C 
ATOM      5  O   UNL A   1      32.374  24.669  23.626  1.00  0.00    -0.269 OA
ATOM      6  H   UNL A   1      33.140  25.153  25.879  1.00  0.00     0.163 HD
BRANCH   4   7
ATOM      7  C   UNL A   1      31.468  26.818  23.506  1.00  0.00     0.121 A 
ATOM      8  C   UNL A   1      29.315  27.898  23.139  1.00  0.00     0.162 A 
ATOM      9  C   UNL A   1      30.078  26.837  23.660  1.00  0.00     0.071 A 
ATOM     10  C   UNL A   1      29.940  29.027  22.564  1.00  0.00     0.168 A 
ATOM     11  C   UNL A   1      31.312  28.967  22.370  1.00  0.00     0.136 A 
ATOM     12  C   UNL A   1      32.041  27.829  22.751  1.00  0.00     0.286 A 
BRANCH   8  13
ATOM     13  O   UNL A   1      27.958  27.743  23.289  1.00  0.00    -0.493 OA
ATOM     14  C   UNL A   1      27.577  26.599  24.054  1.00  0.00     0.278 C 
ENDBRANCH   8  13
BRANCH  10  15
ATOM     15  O   UNL A   1      29.140  30.043  22.142  1.00  0.00    -0.484 OA
BRANCH  15  16
ATOM     16  C   UNL A   1      28.795  31.237  22.873  1.00  0.00     0.198 C 
ATOM     17  C   UNL A   1      27.580  31.152  23.793  1.00  0.00     0.056 C 
BRANCH  16  18
ATOM     18  C   UNL A   1      28.854  32.500  21.975  1.00  0.00     0.151 C 
ATOM     19  C   UNL A   1      28.004  32.400  20.710  1.00  0.00     0.042 C 
BRANCH  18  20
ATOM     20  O   UNL A   1      28.385  33.641  22.710  1.00  0.00    -0.390 OA
ATOM     21  H   UNL A   1      28.920  34.416  22.479  1.00  0.00     0.211 HD
ENDBRANCH  18  20
ENDBRANCH  16  18
ENDBRANCH  15  16
ENDBRANCH  10  15
BRANCH  12  22
ATOM     22  N   UNL A   1      33.379  27.695  22.200  1.00  0.00     0.063 N 
ATOM     23  O   UNL A   1      34.254  28.458  22.624  1.00  0.00    -0.258 OA
ATOM     24  O   UNL A   1      33.557  26.784  21.378  1.00  0.00    -0.258 OA
ENDBRANCH  12  22
ENDBRANCH   4   7
ENDBRANCH   2   3
ENDBRANCH   1   2
BRANCH   1  25
ATOM     25  C   UNL A   1      33.156  29.628  25.878  1.00  0.00     0.023 C 
BRANCH  25  26
ATOM     26  C   UNL A   1      32.528  30.233  27.130  1.00  0.00     0.116 C 
BRANCH  26  27
ATOM     27  N   UNL A   1      32.723  31.673  27.261  1.00  0.00    -0.352 N 
ATOM     28  C   UNL A   1      33.816  32.381  27.710  1.00  0.00     0.251 C 
ATOM     29  H   UNL A   1      31.956  32.224  26.984  1.00  0.00     0.163 HD
ATOM     30  O   UNL A   1      33.754  33.603  27.821  1.00  0.00    -0.269 OA
BRANCH  28  31
ATOM     31  C   UNL A   1      35.051  31.667  28.105  1.00  0.00     0.039 A 
ATOM     32  C   UNL A   1      36.277  32.333  28.017  1.00  0.00     0.014 A 
ATOM     33  C   UNL A   1      34.999  30.365  28.601  1.00  0.00     0.014 A 
ATOM     34  C   UNL A   1      37.429  31.736  28.539  1.00  0.00     0.010 A 
ATOM     35  C   UNL A   1      36.125  29.811  29.202  1.00  0.00     0.010 A 
ATOM     36  C   UNL A   1      37.351  30.495  29.190  1.00  0.00    -0.014 A 
BRANCH  36  37
ATOM     37  C   UNL A   1      38.519  29.902  29.897  1.00  0.00     0.031 A 
ATOM     38  C   UNL A   1      38.894  30.387  31.272  1.00  0.00     0.074 A 
ATOM     39  C   UNL A   1      39.314  29.021  29.255  1.00  0.00     0.049 A 
ATOM     40  N   UNL A   1      39.946  30.095  31.992  1.00  0.00    -0.248 NA
ATOM     41  C   UNL A   1      37.983  31.354  31.908  1.00  0.00     0.031 C 
ATOM     42  C   UNL A   1      39.111  28.533  27.889  1.00  0.00     0.029 A 
ATOM     43  N   UNL A   1      40.476  28.406  29.654  1.00  0.00    -0.354 N 
ATOM     44  C   UNL A   1      39.845  30.868  33.143  1.00  0.00     0.074 A 
ATOM     45  C   UNL A   1      38.649  31.672  33.009  1.00  0.00     0.031 C 
ATOM     46  C   UNL A   1      40.113  27.699  27.564  1.00  0.00     0.029 A 
ATOM     47  C   UNL A   1      41.046  27.617  28.681  1.00  0.00     0.049 A 
ATOM     48  H   UNL A   1      40.863  28.519  30.552  1.00  0.00     0.167 HD
ATOM     49  C   UNL A   1      40.652  30.884  34.230  1.00  0.00     0.034 A 
ATOM     50  C   UNL A   1      42.198  26.916  28.683  1.00  0.00     0.034 A 
ATOM     51  C   UNL A   1      41.810  30.047  34.387  1.00  0.00     0.049 A 
ATOM     52  C   UNL A   1      43.052  26.913  29.924  1.00  0.00     0.074 A 
ATOM     53  C   UNL A   1      42.648  29.934  35.482  1.00  0.00     0.029 A 
ATOM     54  N   UNL A   1      42.289  29.174  33.424  1.00  0.00    -0.354 N 
ATOM     55  N   UNL A   1      42.857  27.538  31.059  1.00  0.00    -0.248 NA
ATOM     56  C   UNL A   1      44.265  26.082  29.896  1.00  0.00     0.031 C 
ATOM     57  C   UNL A   1      43.640  28.997  35.178  1.00  0.00     0.029 A 
ATOM     58  C   UNL A   1      43.410  28.514  33.899  1.00  0.00     0.049 A 
ATOM     59  H   UNL A   1      41.892  29.042  32.532  1.00  0.00     0.167 HD
ATOM     60  C   UNL A   1      43.898  27.147  31.893  1.00  0.00     0.074 A 
ATOM     61  C   UNL A   1      44.711  26.216  31.138  1.00  0.00     0.031 C 
ATOM     62  C   UNL A   1      44.168  27.537  33.163  1.00  0.00     0.034 A 
BRANCH  49  63
ATOM     63  C   UNL A   1      40.265  31.788  35.373  1.00  0.00     0.023 A 
ATOM     64  C   UNL A   1      40.897  33.041  35.502  1.00  0.00     0.012 A 
ATOM     65  C   UNL A   1      39.249  31.430  36.279  1.00  0.00     0.148 A 
ATOM     66  C   UNL A   1      40.550  33.910  36.534  1.00  0.00     0.002 A 
ATOM     67  C   UNL A   1      38.876  32.321  37.280  1.00  0.00     0.091 A 
ATOM     68  F   UNL A   1      38.672  30.227  36.152  1.00  0.00    -0.205 F 
ATOM     69  C   UNL A   1      39.535  33.554  37.416  1.00  0.00     0.022 A 
BRANCH  67  70
ATOM     70  S   UNL A   1      37.526  31.992  38.419  1.00  0.00     0.127 S 
ATOM     71  O   UNL A   1      36.552  33.007  38.023  1.00  0.00    -0.237 OA
ATOM     72  O   UNL A   1      37.155  30.620  38.069  1.00  0.00    -0.237 OA
ATOM     73  O   UNL A   1      38.085  32.146  39.756  1.00  0.00    -0.744 OA
ENDBRANCH  67  70
ENDBRANCH  49  63
BRANCH  50  74
ATOM     74  C   UNL A   1      42.579  26.100  27.494  1.00  0.00     0.023 A 
ATOM     75  C   UNL A   1      43.359  26.687  26.477  1.00  0.00     0.012 A 
ATOM     76  C   UNL A   1      42.192  24.752  27.368  1.00  0.00     0.148 A 
ATOM     77  C   UNL A   1      43.717  25.958  25.342  1.00  0.00     0.002 A 
ATOM     78  C   UNL A   1      42.599  24.015  26.260  1.00  0.00     0.091 A 
ATOM     79  F   UNL A   1      41.438  24.213  28.336  1.00  0.00    -0.205 F 
ATOM     80  C   UNL A   1      43.345  24.621  25.238  1.00  0.00     0.022 A 
BRANCH  78  81
ATOM     81  S   UNL A   1      42.277  22.253  26.113  1.00  0.00     0.127 S 
ATOM     82  O   UNL A   1      40.825  22.226  25.952  1.00  0.00    -0.237 OA
ATOM     83  O   UNL A   1      43.038  21.901  24.913  1.00  0.00    -0.237 OA
ATOM     84  O   UNL A   1      42.795  21.663  27.341  1.00  0.00    -0.744 OA
ENDBRANCH  78  81
ENDBRANCH  50  74
BRANCH  62  85
ATOM     85  C   UNL A   1      45.366  26.931  33.844  1.00  0.00     0.023 A 
ATOM     86  C   UNL A   1      46.618  27.571  33.756  1.00  0.00     0.012 A 
ATOM     87  C   UNL A   1      45.231  25.779  34.643  1.00  0.00     0.148 A 
ATOM     88  C   UNL A   1      47.724  27.059  34.433  1.00  0.00     0.002 A 
ATOM     89  C   UNL A   1      46.327  25.301  35.352  1.00  0.00     0.091 A 
ATOM     90  F   UNL A   1      44.035  25.175  34.699  1.00  0.00    -0.205 F 
ATOM     91  C   UNL A   1      47.575  25.933  35.239  1.00  0.00     0.022 A 
BRANCH  89  92
ATOM     92  S   UNL A   1      46.208  23.913  36.487  1.00  0.00     0.127 S 
ATOM     93  O   UNL A   1      45.242  23.053  35.805  1.00  0.00    -0.237 OA
ATOM     94  O   UNL A   1      47.580  23.402  36.498  1.00  0.00    -0.237 OA
ATOM     95  O   UNL A   1      45.762  24.471  37.757  1.00  0.00    -0.744 OA
ENDBRANCH  89  92
ENDBRANCH  62  85
ENDBRANCH  36  37
ENDBRANCH  28  31
ENDBRANCH  26  27
ENDBRANCH  25  26
ENDBRANCH   1  25
TORSDOF 20
ENDMDL
MODEL 2
REMARK VINA RESULT:     -11.2      1.490      7.680
REMARK SMILES COc1cc(C(=O)NCCCCNC(=O)c2ccc(-c3c4nc(c(-c5cccc(S(=O)(=O)[O-])c5F)c5ccc([nH]5)c(-c5cccc(S(=O)(=O)[O-])c5F)c5nc(c(-c6cccc(S(=O)(=O)[O-])c6F)c6ccc3[nH]6)C=C5)C=C4)cc2)c([N+](=O)[O-])cc1O[C@H](C)[C@@H](C)O
REMARK SMILES IDX 10 1 9 2 8 3 6 4 7 5 5 7 3 8 4 9 84 10 83 11 79 12 2 13 1 14
REMARK SMILES IDX 85 15 86 16 87 17 88 18 89 19 90 20 80 22 81 23 82 24 11 25
REMARK SMILES IDX 12 26 13 27 14 28 15 30 16 31 17 32 78 33 18 34 77 35 19 36
REMARK SMILES IDX 20 37 21 38 71 39 22 40 76 41 70 42 72 43 23 44 75 45 69 46
REMARK SMILES IDX 68 47 24 49 56 50 36 51 55 52 37 53 40 54 54 55 73 56 38 57
REMARK SMILES IDX 39 58 53 60 74 61 41 62 25 63 26 64 34 65 27 66 29 67 35 68
REMARK SMILES IDX 28 69 30 70 31 71 32 72 33 73 57 74 58 75 66 76 59 77 61 78
REMARK SMILES IDX 67 79 60 80 62 81 63 82 64 83 65 84 42 85 43 86 51 87 44 88
REMARK SMILES IDX 46 89 52 90 45 91 47 92 48 93 49 94 50 95
REMARK H PARENT 8 6 90 21 13 29 72 48 40 59
REMARK Flexibility Score: inf
ROOT
ATOM      1  C   UNL A   1      33.661  28.158  25.592  1.00  0.00     0.023 C 
ENDROOT
BRANCH   1   2
ATOM      2  C   UNL A   1      32.955  27.039  26.342  1.00  0.00     0.116 C 
BRANCH   2   3
ATOM      3  N   UNL A   1      32.979  25.728  25.711  1.00  0.00    -0.352 N 
ATOM      4  C   UNL A   1      32.497  25.338  24.479  1.00  0.00     0.258 C 
ATOM      5  O   UNL A   1      32.617  24.176  24.103  1.00  0.00    -0.269 OA
ATOM      6  H   UNL A   1      33.402  25.015  26.242  1.00  0.00     0.163 HD
BRANCH   4   7
ATOM      7  C   UNL A   1      31.738  26.287  23.632  1.00  0.00     0.121 A 
ATOM      8  C   UNL A   1      29.629  27.422  23.185  1.00  0.00     0.162 A 
ATOM      9  C   UNL A   1      30.369  26.444  23.874  1.00  0.00     0.071 A 
ATOM     10  C   UNL A   1      30.269  28.350  22.333  1.00  0.00     0.168 A 
ATOM     11  C   UNL A   1      31.614  28.146  22.063  1.00  0.00     0.136 A 
ATOM     12  C   UNL A   1      32.304  27.065  22.634  1.00  0.00     0.286 A 
BRANCH   8  13
ATOM     13  O   UNL A   1      28.282  27.406  23.458  1.00  0.00    -0.493 OA
ATOM     14  C   UNL A   1      27.851  26.281  24.224  1.00  0.00     0.278 C 
ENDBRANCH   8  13
BRANCH  10  15
ATOM     15  O   UNL A   1      29.498  29.309  21.753  1.00  0.00    -0.484 OA
BRANCH  15  16
ATOM     16  C   UNL A   1      29.207  30.621  22.274  1.00  0.00     0.198 C 
ATOM     17  C   UNL A   1      29.339  30.806  23.784  1.00  0.00     0.056 C 
BRANCH  16  18
ATOM     18  C   UNL A   1      27.919  31.217  21.648  1.00  0.00     0.151 C 
ATOM     19  C   UNL A   1      28.051  32.682  21.237  1.00  0.00     0.042 C 
BRANCH  18  20
ATOM     20  O   UNL A   1      27.566  30.478  20.468  1.00  0.00    -0.390 OA
ATOM     21  H   UNL A   1      26.844  29.864  20.676  1.00  0.00     0.211 HD
ENDBRANCH  18  20
ENDBRANCH  16  18
ENDBRANCH  15  16
ENDBRANCH  10  15
BRANCH  12  22
ATOM     22  N   UNL A   1      33.581  26.714  22.036  1.00  0.00     0.063 N 
ATOM     23  O   UNL A   1      33.682  25.601  21.508  1.00  0.00    -0.258 OA
ATOM     24  O   UNL A   1      34.466  27.582  22.055  1.00  0.00    -0.258 OA
ENDBRANCH  12  22
ENDBRANCH   4   7
ENDBRANCH   2   3
ENDBRANCH   1   2
BRANCH   1  25
ATOM     25  C   UNL A   1      32.903  29.478  25.488  1.00  0.00     0.023 C 
BRANCH  25  26
ATOM     26  C   UNL A   1      32.195  29.963  26.751  1.00  0.00     0.116 C 
BRANCH  26  27
ATOM     27  N   UNL A   1      32.119  31.414  26.873  1.00  0.00    -0.352 N 
ATOM     28  C   UNL A   1      33.049  32.313  27.348  1.00  0.00     0.251 C 
ATOM     29  H   UNL A   1      31.272  31.814  26.568  1.00  0.00     0.163 HD
ATOM     30  O   UNL A   1      32.759  33.503  27.445  1.00  0.00    -0.269 OA
BRANCH  28  31
ATOM     31  C   UNL A   1      34.380  31.840  27.786  1.00  0.00     0.039 A 
ATOM     32  C   UNL A   1      35.437  32.754  27.851  1.00  0.00     0.014 A 
ATOM     33  C   UNL A   1      34.579  30.516  28.176  1.00  0.00     0.014 A 
ATOM     34  C   UNL A   1      36.655  32.366  28.417  1.00  0.00     0.010 A 
ATOM     35  C   UNL A   1      35.757  30.158  28.822  1.00  0.00     0.010 A 
ATOM     36  C   UNL A   1      36.805  31.080  28.963  1.00  0.00    -0.014 A 
BRANCH  36  37
ATOM     37  C   UNL A   1      38.026  30.683  29.716  1.00  0.00     0.031 A 
ATOM     38  C   UNL A   1      38.985  29.683  29.125  1.00  0.00     0.074 A 
ATOM     39  C   UNL A   1      38.209  31.126  30.977  1.00  0.00     0.049 A 
ATOM     40  N   UNL A   1      40.025  29.113  29.675  1.00  0.00    -0.248 NA
ATOM     41  C   UNL A   1      38.718  29.239  27.747  1.00  0.00     0.031 C 
ATOM     42  C   UNL A   1      37.311  32.031  31.697  1.00  0.00     0.029 A 
ATOM     43  N   UNL A   1      39.194  30.844  31.892  1.00  0.00    -0.354 N 
ATOM     44  C   UNL A   1      40.512  28.218  28.729  1.00  0.00     0.074 A 
ATOM     45  C   UNL A   1      39.630  28.292  27.585  1.00  0.00     0.031 C 
ATOM     46  C   UNL A   1      37.784  32.228  32.939  1.00  0.00     0.029 A 
ATOM     47  C   UNL A   1      38.998  31.439  33.117  1.00  0.00     0.049 A 
ATOM     48  H   UNL A   1      39.969  30.271  31.690  1.00  0.00     0.167 HD
ATOM     49  C   UNL A   1      41.613  27.431  28.790  1.00  0.00     0.034 A 
ATOM     50  C   UNL A   1      39.707  31.350  34.261  1.00  0.00     0.034 A 
ATOM     51  C   UNL A   1      42.519  27.398  29.906  1.00  0.00     0.049 A 
ATOM     52  C   UNL A   1      40.954  30.505  34.285  1.00  0.00     0.074 A 
ATOM     53  C   UNL A   1      43.702  26.692  30.032  1.00  0.00     0.029 A 
ATOM     54  N   UNL A   1      42.347  28.105  31.085  1.00  0.00    -0.354 N 
ATOM     55  N   UNL A   1      41.478  29.782  33.326  1.00  0.00    -0.248 NA
ATOM     56  C   UNL A   1      41.725  30.493  35.536  1.00  0.00     0.031 C 
ATOM     57  C   UNL A   1      44.243  26.968  31.291  1.00  0.00     0.029 A 
ATOM     58  C   UNL A   1      43.404  27.857  31.944  1.00  0.00     0.049 A 
ATOM     59  H   UNL A   1      41.585  28.697  31.283  1.00  0.00     0.167 HD
ATOM     60  C   UNL A   1      42.658  29.261  33.843  1.00  0.00     0.074 A 
ATOM     61  C   UNL A   1      42.782  29.766  35.194  1.00  0.00     0.031 C 
ATOM     62  C   UNL A   1      43.550  28.424  33.259  1.00  0.00     0.034 A 
BRANCH  49  63
ATOM     63  C   UNL A   1      41.940  26.596  27.580  1.00  0.00     0.023 A 
ATOM     64  C   UNL A   1      42.546  27.210  26.465  1.00  0.00     0.012 A 
ATOM     65  C   UNL A   1      41.704  25.208  27.561  1.00  0.00     0.148 A 
ATOM     66  C   UNL A   1      42.880  26.464  25.336  1.00  0.00     0.002 A 
ATOM     67  C   UNL A   1      42.081  24.462  26.449  1.00  0.00     0.091 A 
ATOM     68  F   UNL A   1      41.110  24.644  28.622  1.00  0.00    -0.205 F 
ATOM     69  C   UNL A   1      42.657  25.091  25.332  1.00  0.00     0.022 A 
BRANCH  67  70
ATOM     70  S   UNL A   1      41.908  22.675  26.374  1.00  0.00     0.127 S 
ATOM     71  O   UNL A   1      40.455  22.519  26.393  1.00  0.00    -0.237 OA
ATOM     72  O   UNL A   1      42.539  22.358  25.092  1.00  0.00    -0.237 OA
ATOM     73  O   UNL A   1      42.611  22.157  27.540  1.00  0.00    -0.744 OA
ENDBRANCH  67  70
ENDBRANCH  49  63
BRANCH  50  74
ATOM     74  C   UNL A   1      39.295  32.135  35.460  1.00  0.00     0.023 A 
ATOM     75  C   UNL A   1      38.445  31.540  36.414  1.00  0.00     0.012 A 
ATOM     76  C   UNL A   1      39.746  33.452  35.671  1.00  0.00     0.148 A 
ATOM     77  C   UNL A   1      38.025  32.254  37.538  1.00  0.00     0.002 A 
ATOM     78  C   UNL A   1      39.367  34.138  36.821  1.00  0.00     0.091 A 
ATOM     79  F   UNL A   1      40.541  34.009  34.746  1.00  0.00    -0.205 F 
ATOM     80  C   UNL A   1      38.493  33.547  37.746  1.00  0.00     0.022 A 
BRANCH  78  81
ATOM     81  S   UNL A   1      40.032  35.757  37.231  1.00  0.00     0.127 S 
ATOM     82  O   UNL A   1      39.625  36.550  36.074  1.00  0.00    -0.237 OA
ATOM     83  O   UNL A   1      39.326  36.072  38.474  1.00  0.00    -0.237 OA
ATOM     84  O   UNL A   1      41.465  35.554  37.395  1.00  0.00    -0.744 OA
ENDBRANCH  78  81
ENDBRANCH  50  74
BRANCH  62  85
ATOM     85  C   UNL A   1      44.767  28.029  34.052  1.00  0.00     0.023 A 
ATOM     86  C   UNL A   1      45.887  28.882  34.085  1.00  0.00     0.012 A 
ATOM     87  C   UNL A   1      44.765  26.857  34.835  1.00  0.00     0.148 A 
ATOM     88  C   UNL A   1      46.998  28.562  34.866  1.00  0.00     0.002 A 
ATOM     89  C   UNL A   1      45.856  26.569  35.645  1.00  0.00     0.091 A 
ATOM     90  F   UNL A   1      43.695  26.050  34.774  1.00  0.00    -0.205 F 
ATOM     91  C   UNL A   1      46.976  27.414  35.654  1.00  0.00     0.022 A 
BRANCH  89  92
ATOM     92  S   UNL A   1      45.879  25.163  36.764  1.00  0.00     0.127 S 
ATOM     93  O   UNL A   1      46.110  24.052  35.842  1.00  0.00    -0.237 OA
ATOM     94  O   UNL A   1      47.012  25.478  37.636  1.00  0.00    -0.237 OA
ATOM     95  O   UNL A   1      44.585  25.161  37.433  1.00  0.00    -0.744 OA
ENDBRANCH  89  92
ENDBRANCH  62  85
ENDBRANCH  36  37
ENDBRANCH  28  31
ENDBRANCH  26  27
ENDBRANCH  25  26
ENDBRANCH   1  25
TORSDOF 20
ENDMDL
MODEL 3
REMARK VINA RESULT:     -10.9      5.186      7.561
REMARK SMILES COc1cc(C(=O)NCCCCNC(=O)c2ccc(-c3c4nc(c(-c5cccc(S(=O)(=O)[O-])c5F)c5ccc([nH]5)c(-c5cccc(S(=O)(=O)[O-])c5F)c5nc(c(-c6cccc(S(=O)(=O)[O-])c6F)c6ccc3[nH]6)C=C5)C=C4)cc2)c([N+](=O)[O-])cc1O[C@H](C)[C@@H](C)O
REMARK SMILES IDX 10 1 9 2 8 3 6 4 7 5 5 7 3 8 4 9 84 10 83 11 79 12 2 13 1 14
REMARK SMILES IDX 85 15 86 16 87 17 88 18 89 19 90 20 80 22 81 23 82 24 11 25
REMARK SMILES IDX 12 26 13 27 14 28 15 30 16 31 17 32 78 33 18 34 77 35 19 36
REMARK SMILES IDX 20 37 21 38 71 39 22 40 76 41 70 42 72 43 23 44 75 45 69 46
REMARK SMILES IDX 68 47 24 49 56 50 36 51 55 52 37 53 40 54 54 55 73 56 38 57
REMARK SMILES IDX 39 58 53 60 74 61 41 62 25 63 26 64 34 65 27 66 29 67 35 68
REMARK SMILES IDX 28 69 30 70 31 71 32 72 33 73 57 74 58 75 66 76 59 77 61 78
REMARK SMILES IDX 67 79 60 80 62 81 63 82 64 83 65 84 42 85 43 86 51 87 44 88
REMARK SMILES IDX 46 89 52 90 45 91 47 92 48 93 49 94 50 95
REMARK H PARENT 8 6 90 21 13 29 72 48 40 59
REMARK Flexibility Score: inf
ROOT
ATOM      1  C   UNL A   1      35.022  22.940  25.699  1.00  0.00     0.023 C 
ENDROOT
BRANCH   1   2
ATOM      2  C   UNL A   1      34.210  23.991  24.957  1.00  0.00     0.116 C 
BRANCH   2   3
ATOM      3  N   UNL A   1      34.030  23.774  23.530  1.00  0.00    -0.352 N 
ATOM      4  C   UNL A   1      33.311  24.512  22.614  1.00  0.00     0.258 C 
ATOM      5  O   UNL A   1      33.281  24.181  21.432  1.00  0.00    -0.269 OA
ATOM      6  H   UNL A   1      34.491  22.984  23.165  1.00  0.00     0.163 HD
BRANCH   4   7
ATOM      7  C   UNL A   1      32.482  25.658  23.055  1.00  0.00     0.121 A 
ATOM      8  C   UNL A   1      32.238  28.074  23.252  1.00  0.00     0.162 A 
ATOM      9  C   UNL A   1      33.025  26.944  22.966  1.00  0.00     0.071 A 
ATOM     10  C   UNL A   1      30.854  27.949  23.508  1.00  0.00     0.168 A 
ATOM     11  C   UNL A   1      30.345  26.666  23.647  1.00  0.00     0.136 A 
ATOM     12  C   UNL A   1      31.180  25.544  23.517  1.00  0.00     0.286 A 
BRANCH   8  13
ATOM     13  O   UNL A   1      32.923  29.264  23.207  1.00  0.00    -0.493 OA
ATOM     14  C   UNL A   1      34.320  29.129  22.943  1.00  0.00     0.278 C 
ENDBRANCH   8  13
BRANCH  10  15
ATOM     15  O   UNL A   1      30.144  29.091  23.710  1.00  0.00    -0.484 OA
BRANCH  15  16
ATOM     16  C   UNL A   1      28.942  29.497  23.027  1.00  0.00     0.198 C 
ATOM     17  C   UNL A   1      27.802  28.483  22.979  1.00  0.00     0.056 C 
BRANCH  16  18
ATOM     18  C   UNL A   1      29.254  30.201  21.680  1.00  0.00     0.151 C 
ATOM     19  C   UNL A   1      28.738  31.636  21.597  1.00  0.00     0.042 C 
BRANCH  18  20
ATOM     20  O   UNL A   1      30.675  30.251  21.477  1.00  0.00    -0.390 OA
ATOM     21  H   UNL A   1      30.960  29.458  20.995  1.00  0.00     0.211 HD
ENDBRANCH  18  20
ENDBRANCH  16  18
ENDBRANCH  15  16
ENDBRANCH  10  15
BRANCH  12  22
ATOM     22  N   UNL A   1      30.664  24.283  24.021  1.00  0.00     0.063 N 
ATOM     23  O   UNL A   1      30.522  24.167  25.242  1.00  0.00    -0.258 OA
ATOM     24  O   UNL A   1      30.356  23.428  23.177  1.00  0.00    -0.258 OA
ENDBRANCH  12  22
ENDBRANCH   4   7
ENDBRANCH   2   3
ENDBRANCH   1   2
BRANCH   1  25
ATOM     25  C   UNL A   1      35.714  21.892  24.832  1.00  0.00     0.023 C 
BRANCH  25  26
ATOM     26  C   UNL A   1      37.211  22.077  24.599  1.00  0.00     0.116 C 
BRANCH  26  27
ATOM     27  N   UNL A   1      38.033  20.976  25.089  1.00  0.00    -0.352 N 
ATOM     28  C   UNL A   1      39.123  20.991  25.931  1.00  0.00     0.251 C 
ATOM     29  H   UNL A   1      37.766  20.083  24.771  1.00  0.00     0.163 HD
ATOM     30  O   UNL A   1      39.735  19.951  26.163  1.00  0.00    -0.269 OA
BRANCH  28  31
ATOM     31  C   UNL A   1      39.589  22.266  26.519  1.00  0.00     0.039 A 
ATOM     32  C   UNL A   1      40.592  22.239  27.493  1.00  0.00     0.014 A 
ATOM     33  C   UNL A   1      39.075  23.487  26.082  1.00  0.00     0.014 A 
ATOM     34  C   UNL A   1      41.159  23.436  27.938  1.00  0.00     0.010 A 
ATOM     35  C   UNL A   1      39.702  24.671  26.456  1.00  0.00     0.010 A 
ATOM     36  C   UNL A   1      40.759  24.661  27.378  1.00  0.00    -0.014 A 
BRANCH  36  37
ATOM     37  C   UNL A   1      41.449  25.938  27.708  1.00  0.00     0.031 A 
ATOM     38  C   UNL A   1      40.730  27.002  28.495  1.00  0.00     0.074 A 
ATOM     39  C   UNL A   1      42.671  26.191  27.196  1.00  0.00     0.049 A 
ATOM     40  N   UNL A   1      41.108  28.224  28.766  1.00  0.00    -0.248 NA
ATOM     41  C   UNL A   1      39.397  26.657  29.016  1.00  0.00     0.031 C 
ATOM     42  C   UNL A   1      43.441  25.279  26.346  1.00  0.00     0.029 A 
ATOM     43  N   UNL A   1      43.466  27.308  27.284  1.00  0.00    -0.354 N 
ATOM     44  C   UNL A   1      40.048  28.806  29.453  1.00  0.00     0.074 A 
ATOM     45  C   UNL A   1      38.996  27.815  29.523  1.00  0.00     0.031 C 
ATOM     46  C   UNL A   1      44.593  25.872  25.991  1.00  0.00     0.029 A 
ATOM     47  C   UNL A   1      44.631  27.216  26.556  1.00  0.00     0.049 A 
ATOM     48  H   UNL A   1      43.226  28.099  27.818  1.00  0.00     0.167 HD
ATOM     49  C   UNL A   1      39.967  30.039  30.006  1.00  0.00     0.034 A 
ATOM     50  C   UNL A   1      45.614  28.117  26.354  1.00  0.00     0.034 A 
ATOM     51  C   UNL A   1      41.032  31.004  29.983  1.00  0.00     0.049 A 
ATOM     52  C   UNL A   1      45.521  29.464  27.023  1.00  0.00     0.074 A 
ATOM     53  C   UNL A   1      41.076  32.251  30.581  1.00  0.00     0.029 A 
ATOM     54  N   UNL A   1      42.244  30.828  29.334  1.00  0.00    -0.354 N 
ATOM     55  N   UNL A   1      44.572  29.938  27.793  1.00  0.00    -0.248 NA
ATOM     56  C   UNL A   1      46.648  30.386  26.823  1.00  0.00     0.031 C 
ATOM     57  C   UNL A   1      42.313  32.832  30.288  1.00  0.00     0.029 A 
ATOM     58  C   UNL A   1      43.046  31.941  29.519  1.00  0.00     0.049 A 
ATOM     59  H   UNL A   1      42.497  30.029  28.817  1.00  0.00     0.167 HD
ATOM     60  C   UNL A   1      45.005  31.194  28.202  1.00  0.00     0.074 A 
ATOM     61  C   UNL A   1      46.309  31.400  27.608  1.00  0.00     0.031 C 
ATOM     62  C   UNL A   1      44.371  32.103  28.982  1.00  0.00     0.034 A 
BRANCH  49  63
ATOM     63  C   UNL A   1      38.705  30.386  30.753  1.00  0.00     0.023 A 
ATOM     64  C   UNL A   1      38.579  30.001  32.103  1.00  0.00     0.012 A 
ATOM     65  C   UNL A   1      37.677  31.133  30.148  1.00  0.00     0.148 A 
ATOM     66  C   UNL A   1      37.434  30.323  32.831  1.00  0.00     0.002 A 
ATOM     67  C   UNL A   1      36.557  31.489  30.893  1.00  0.00     0.091 A 
ATOM     68  F   UNL A   1      37.805  31.474  28.858  1.00  0.00    -0.205 F 
ATOM     69  C   UNL A   1      36.429  31.074  32.229  1.00  0.00     0.022 A 
BRANCH  67  70
ATOM     70  S   UNL A   1      35.241  32.521  30.235  1.00  0.00     0.127 S 
ATOM     71  O   UNL A   1      34.799  31.736  29.084  1.00  0.00    -0.237 OA
ATOM     72  O   UNL A   1      34.293  32.558  31.349  1.00  0.00    -0.237 OA
ATOM     73  O   UNL A   1      35.858  33.803  29.921  1.00  0.00    -0.744 OA
ENDBRANCH  67  70
ENDBRANCH  49  63
BRANCH  50  74
ATOM     74  C   UNL A   1      46.807  27.753  25.538  1.00  0.00     0.023 A 
ATOM     75  C   UNL A   1      46.767  27.933  24.141  1.00  0.00     0.012 A 
ATOM     76  C   UNL A   1      47.980  27.246  26.129  1.00  0.00     0.148 A 
ATOM     77  C   UNL A   1      47.859  27.584  23.344  1.00  0.00     0.002 A 
ATOM     78  C   UNL A   1      49.085  26.952  25.336  1.00  0.00     0.091 A 
ATOM     79  F   UNL A   1      47.997  27.066  27.457  1.00  0.00    -0.205 F 
ATOM     80  C   UNL A   1      49.020  27.103  23.942  1.00  0.00     0.022 A 
BRANCH  78  81
ATOM     81  S   UNL A   1      50.662  26.455  26.039  1.00  0.00     0.127 S 
ATOM     82  O   UNL A   1      50.985  27.598  26.888  1.00  0.00    -0.237 OA
ATOM     83  O   UNL A   1      50.305  25.232  26.759  1.00  0.00    -0.237 OA
ATOM     84  O   UNL A   1      51.542  26.238  24.897  1.00  0.00    -0.744 OA
ENDBRANCH  78  81
ENDBRANCH  50  74
BRANCH  62  85
ATOM     85  C   UNL A   1      45.089  33.392  29.283  1.00  0.00     0.023 A 
ATOM     86  C   UNL A   1      45.832  33.516  30.474  1.00  0.00     0.012 A 
ATOM     87  C   UNL A   1      45.098  34.445  28.347  1.00  0.00     0.148 A 
ATOM     88  C   UNL A   1      46.554  34.679  30.739  1.00  0.00     0.002 A 
ATOM     89  C   UNL A   1      45.857  35.581  28.598  1.00  0.00     0.091 A 
ATOM     90  F   UNL A   1      44.369  34.313  27.229  1.00  0.00    -0.205 F 
ATOM     91  C   UNL A   1      46.577  35.704  29.797  1.00  0.00     0.022 A 
BRANCH  89  92
ATOM     92  S   UNL A   1      46.021  36.912  27.401  1.00  0.00     0.127 S 
ATOM     93  O   UNL A   1      46.582  36.208  26.249  1.00  0.00    -0.237 OA
ATOM     94  O   UNL A   1      44.634  37.350  27.233  1.00  0.00    -0.237 OA
ATOM     95  O   UNL A   1      46.896  37.901  28.017  1.00  0.00    -0.744 OA
ENDBRANCH  89  92
ENDBRANCH  62  85
ENDBRANCH  36  37
ENDBRANCH  28  31
ENDBRANCH  26  27
ENDBRANCH  25  26
ENDBRANCH   1  25
TORSDOF 20
ENDMDL
