MODEL 1
REMARK VINA RESULT:     -11.8      0.000      0.000
REMARK SMILES Cc1ccsc1/C=C/C(=O)NC[C@H](CC(C)C)C(=O)NCCCCNC(=O)c1ccc(-c2c3nc(c(-c4cccc(S(=O)(=O)[O-])c4F)c4ccc([nH]4)c(-c4cccc(S(=O)(=O)[O-])c4F)c4nc(c(-c5cccc(S(=O)(=O)[O-])c5F)c5ccc2[nH]5)C=C4)C=C3)cc1
REMARK SMILES IDX 22 1 21 2 20 3 18 4 19 5 13 7 12 8 11 9 9 10 10 11 8 13 7 14
REMARK SMILES IDX 6 15 1 16 2 17 3 18 4 19 5 20 14 21 15 22 16 23 17 24 23 25
REMARK SMILES IDX 24 26 25 27 26 28 27 30 28 31 29 32 90 33 30 34 89 35 31 36
REMARK SMILES IDX 32 37 33 38 83 39 34 40 88 41 82 42 84 43 35 44 87 45 81 46
REMARK SMILES IDX 80 47 36 49 68 50 48 51 67 52 49 53 52 54 66 55 85 56 50 57
REMARK SMILES IDX 51 58 65 60 86 61 53 62 37 63 38 64 46 65 39 66 41 67 47 68
REMARK SMILES IDX 40 69 42 70 43 71 44 72 45 73 69 74 70 75 78 76 71 77 73 78
REMARK SMILES IDX 79 79 72 80 74 81 75 82 76 83 77 84 54 85 55 86 63 87 56 88
REMARK SMILES IDX 58 89 64 90 57 91 59 92 60 93 61 94 62 95
REMARK H PARENT 20 6 11 12 25 29 84 48 52 59
REMARK Flexibility Score: inf
ROOT
ATOM      1  C   UNL A   1      34.291  21.561  25.920  1.00  0.00     0.023 C 
ENDROOT
BRANCH   1   2
ATOM      2  C   UNL A   1      34.163  22.813  26.787  1.00  0.00     0.116 C 
BRANCH   2   3
ATOM      3  N   UNL A   1      32.786  23.126  27.108  1.00  0.00    -0.356 N 
ATOM      4  C   UNL A   1      31.852  23.905  26.509  1.00  0.00     0.224 C 
ATOM      5  O   UNL A   1      30.727  23.903  27.023  1.00  0.00    -0.275 OA
ATOM      6  H   UNL A   1      32.462  22.682  27.925  1.00  0.00     0.163 HD
BRANCH   4   7
ATOM      7  C   UNL A   1      32.099  24.792  25.285  1.00  0.00     0.098 C 
BRANCH   7   8
ATOM      8  C   UNL A   1      32.155  24.078  23.937  1.00  0.00     0.129 C 
BRANCH   8   9
ATOM      9  N   UNL A   1      32.995  24.696  22.933  1.00  0.00    -0.352 N 
ATOM     10  C   UNL A   1      32.744  25.782  22.149  1.00  0.00     0.244 C 
ATOM     11  O   UNL A   1      33.595  26.130  21.331  1.00  0.00    -0.270 OA
ATOM     12  H   UNL A   1      33.873  24.272  22.798  1.00  0.00     0.163 HD
BRANCH  10  13
ATOM     13  C   UNL A   1      31.453  26.534  22.179  1.00  0.00     0.072 C 
ATOM     14  C   UNL A   1      31.135  27.676  22.811  1.00  0.00     0.025 C 
BRANCH  14  15
ATOM     15  C   UNL A   1      29.852  28.318  22.721  1.00  0.00     0.030 A 
ATOM     16  C   UNL A   1      28.392  26.584  23.947  1.00  0.00     0.046 C 
ATOM     17  C   UNL A   1      28.630  27.877  23.238  1.00  0.00    -0.033 A 
ATOM     18  C   UNL A   1      27.574  28.820  23.009  1.00  0.00     0.016 A 
ATOM     19  C   UNL A   1      28.000  29.937  22.336  1.00  0.00     0.066 A 
ATOM     20  S   UNL A   1      29.658  29.863  21.972  1.00  0.00    -0.144 S 
ENDBRANCH  14  15
ENDBRANCH  10  13
ENDBRANCH   8   9
ENDBRANCH   7   8
BRANCH   7  21
ATOM     21  C   UNL A   1      33.189  25.873  25.509  1.00  0.00     0.018 C 
BRANCH  21  22
ATOM     22  C   UNL A   1      32.988  27.036  26.501  1.00  0.00    -0.017 C 
ATOM     23  C   UNL A   1      33.878  28.250  26.282  1.00  0.00     0.007 C 
ATOM     24  C   UNL A   1      31.529  27.504  26.473  1.00  0.00     0.007 C 
ENDBRANCH  21  22
ENDBRANCH   7  21
ENDBRANCH   4   7
ENDBRANCH   2   3
ENDBRANCH   1   2
BRANCH   1  25
ATOM     25  C   UNL A   1      35.407  21.570  24.889  1.00  0.00     0.023 C 
BRANCH  25  26
ATOM     26  C   UNL A   1      36.758  22.052  25.388  1.00  0.00     0.116 C 
BRANCH  26  27
ATOM     27  N   UNL A   1      37.792  21.023  25.436  1.00  0.00    -0.352 N 
ATOM     28  C   UNL A   1      39.060  21.123  25.978  1.00  0.00     0.251 C 
ATOM     29  H   UNL A   1      37.559  20.156  25.033  1.00  0.00     0.163 HD
ATOM     30  O   UNL A   1      39.848  20.198  25.906  1.00  0.00    -0.269 OA
BRANCH  28  31
ATOM     31  C   UNL A   1      39.445  22.409  26.603  1.00  0.00     0.039 A 
ATOM     32  C   UNL A   1      40.488  22.425  27.532  1.00  0.00     0.014 A 
ATOM     33  C   UNL A   1      38.871  23.599  26.155  1.00  0.00     0.014 A 
ATOM     34  C   UNL A   1      41.021  23.649  27.938  1.00  0.00     0.010 A 
ATOM     35  C   UNL A   1      39.470  24.808  26.482  1.00  0.00     0.010 A 
ATOM     36  C   UNL A   1      40.553  24.847  27.375  1.00  0.00    -0.014 A 
BRANCH  36  37
ATOM     37  C   UNL A   1      41.177  26.157  27.691  1.00  0.00     0.031 A 
ATOM     38  C   UNL A   1      42.593  26.433  27.261  1.00  0.00     0.074 A 
ATOM     39  C   UNL A   1      40.517  27.050  28.456  1.00  0.00     0.049 A 
ATOM     40  N   UNL A   1      43.345  27.471  27.515  1.00  0.00    -0.248 NA
ATOM     41  C   UNL A   1      43.267  25.383  26.478  1.00  0.00     0.031 C 
ATOM     42  C   UNL A   1      39.177  26.863  29.018  1.00  0.00     0.029 A 
ATOM     43  N   UNL A   1      40.895  28.288  28.915  1.00  0.00    -0.354 N 
ATOM     44  C   UNL A   1      44.587  27.182  26.964  1.00  0.00     0.074 A 
ATOM     45  C   UNL A   1      44.503  25.851  26.406  1.00  0.00     0.031 C 
ATOM     46  C   UNL A   1      38.841  27.951  29.730  1.00  0.00     0.029 A 
ATOM     47  C   UNL A   1      39.946  28.903  29.699  1.00  0.00     0.049 A 
ATOM     48  H   UNL A   1      41.765  28.698  28.704  1.00  0.00     0.167 HD
ATOM     49  C   UNL A   1      45.687  27.967  26.890  1.00  0.00     0.034 A 
ATOM     50  C   UNL A   1      39.964  30.101  30.316  1.00  0.00     0.034 A 
ATOM     51  C   UNL A   1      45.744  29.314  27.380  1.00  0.00     0.049 A 
ATOM     52  C   UNL A   1      41.172  30.984  30.157  1.00  0.00     0.074 A 
ATOM     53  C   UNL A   1      46.774  30.230  27.266  1.00  0.00     0.029 A 
ATOM     54  N   UNL A   1      44.722  29.944  28.074  1.00  0.00    -0.354 N 
ATOM     55  N   UNL A   1      42.278  30.757  29.489  1.00  0.00    -0.248 NA
ATOM     56  C   UNL A   1      41.122  32.304  30.804  1.00  0.00     0.031 C 
ATOM     57  C   UNL A   1      46.375  31.414  27.896  1.00  0.00     0.029 A 
ATOM     58  C   UNL A   1      45.094  31.237  28.393  1.00  0.00     0.049 A 
ATOM     59  H   UNL A   1      43.858  29.531  28.306  1.00  0.00     0.167 HD
ATOM     60  C   UNL A   1      43.038  31.916  29.604  1.00  0.00     0.074 A 
ATOM     61  C   UNL A   1      42.258  32.851  30.390  1.00  0.00     0.031 C 
ATOM     62  C   UNL A   1      44.278  32.175  29.120  1.00  0.00     0.034 A 
BRANCH  49  63
ATOM     63  C   UNL A   1      46.890  27.406  26.178  1.00  0.00     0.023 A 
ATOM     64  C   UNL A   1      46.996  27.559  24.779  1.00  0.00     0.012 A 
ATOM     65  C   UNL A   1      47.923  26.761  26.883  1.00  0.00     0.148 A 
ATOM     66  C   UNL A   1      48.090  27.042  24.089  1.00  0.00     0.002 A 
ATOM     67  C   UNL A   1      49.033  26.287  26.192  1.00  0.00     0.091 A 
ATOM     68  F   UNL A   1      47.793  26.601  28.208  1.00  0.00    -0.205 F 
ATOM     69  C   UNL A   1      49.113  26.416  24.795  1.00  0.00     0.022 A 
BRANCH  67  70
ATOM     70  S   UNL A   1      50.437  25.534  27.023  1.00  0.00     0.127 S 
ATOM     71  O   UNL A   1      49.815  24.372  27.656  1.00  0.00    -0.237 OA
ATOM     72  O   UNL A   1      51.325  25.216  25.904  1.00  0.00    -0.237 OA
ATOM     73  O   UNL A   1      50.950  26.547  27.933  1.00  0.00    -0.744 OA
ENDBRANCH  67  70
ENDBRANCH  49  63
BRANCH  50  74
ATOM     74  C   UNL A   1      38.760  30.579  31.057  1.00  0.00     0.023 A 
ATOM     75  C   UNL A   1      38.711  30.416  32.456  1.00  0.00     0.012 A 
ATOM     76  C   UNL A   1      37.688  31.212  30.402  1.00  0.00     0.148 A 
ATOM     77  C   UNL A   1      37.603  30.849  33.185  1.00  0.00     0.002 A 
ATOM     78  C   UNL A   1      36.609  31.688  31.141  1.00  0.00     0.091 A 
ATOM     79  F   UNL A   1      37.746  31.346  29.070  1.00  0.00    -0.205 F 
ATOM     80  C   UNL A   1      36.558  31.493  32.531  1.00  0.00     0.022 A 
BRANCH  78  81
ATOM     81  S   UNL A   1      35.280  32.642  30.399  1.00  0.00     0.127 S 
ATOM     82  O   UNL A   1      34.899  31.797  29.270  1.00  0.00    -0.237 OA
ATOM     83  O   UNL A   1      34.301  32.698  31.485  1.00  0.00    -0.237 OA
ATOM     84  O   UNL A   1      35.869  33.930  30.061  1.00  0.00    -0.744 OA
ENDBRANCH  78  81
ENDBRANCH  50  74
BRANCH  62  85
ATOM     85  C   UNL A   1      44.863  33.535  29.393  1.00  0.00     0.023 A 
ATOM     86  C   UNL A   1      45.589  33.754  30.580  1.00  0.00     0.012 A 
ATOM     87  C   UNL A   1      44.769  34.565  28.437  1.00  0.00     0.148 A 
ATOM     88  C   UNL A   1      46.191  34.988  30.822  1.00  0.00     0.002 A 
ATOM     89  C   UNL A   1      45.409  35.777  28.665  1.00  0.00     0.091 A 
ATOM     90  F   UNL A   1      44.055  34.341  27.323  1.00  0.00    -0.205 F 
ATOM     91  C   UNL A   1      46.113  35.994  29.861  1.00  0.00     0.022 A 
BRANCH  89  92
ATOM     92  S   UNL A   1      45.438  37.090  27.440  1.00  0.00     0.127 S 
ATOM     93  O   UNL A   1      46.253  38.103  28.108  1.00  0.00    -0.237 OA
ATOM     94  O   UNL A   1      46.087  36.441  26.299  1.00  0.00    -0.237 OA
ATOM     95  O   UNL A   1      44.046  37.453  27.213  1.00  0.00    -0.744 OA
ENDBRANCH  89  92
ENDBRANCH  62  85
ENDBRANCH  36  37
ENDBRANCH  28  31
ENDBRANCH  26  27
ENDBRANCH  25  26
ENDBRANCH   1  25
TORSDOF 20
ENDMDL
MODEL 2
REMARK VINA RESULT:     -11.6      1.793      2.098
REMARK SMILES Cc1ccsc1/C=C/C(=O)NC[C@H](CC(C)C)C(=O)NCCCCNC(=O)c1ccc(-c2c3nc(c(-c4cccc(S(=O)(=O)[O-])c4F)c4ccc([nH]4)c(-c4cccc(S(=O)(=O)[O-])c4F)c4nc(c(-c5cccc(S(=O)(=O)[O-])c5F)c5ccc2[nH]5)C=C4)C=C3)cc1
REMARK SMILES IDX 22 1 21 2 20 3 18 4 19 5 13 7 12 8 11 9 9 10 10 11 8 13 7 14
REMARK SMILES IDX 6 15 1 16 2 17 3 18 4 19 5 20 14 21 15 22 16 23 17 24 23 25
REMARK SMILES IDX 24 26 25 27 26 28 27 30 28 31 29 32 90 33 30 34 89 35 31 36
REMARK SMILES IDX 32 37 33 38 83 39 34 40 88 41 82 42 84 43 35 44 87 45 81 46
REMARK SMILES IDX 80 47 36 49 68 50 48 51 67 52 49 53 52 54 66 55 85 56 50 57
REMARK SMILES IDX 51 58 65 60 86 61 53 62 37 63 38 64 46 65 39 66 41 67 47 68
REMARK SMILES IDX 40 69 42 70 43 71 44 72 45 73 69 74 70 75 78 76 71 77 73 78
REMARK SMILES IDX 79 79 72 80 74 81 75 82 76 83 77 84 54 85 55 86 63 87 56 88
REMARK SMILES IDX 58 89 64 90 57 91 59 92 60 93 61 94 62 95
REMARK H PARENT 20 6 11 12 25 29 84 48 52 59
REMARK Flexibility Score: inf
ROOT
ATOM      1  C   UNL A   1      34.525  21.700  25.507  1.00  0.00     0.023 C 
ENDROOT
BRANCH   1   2
ATOM      2  C   UNL A   1      34.482  22.795  26.571  1.00  0.00     0.116 C 
BRANCH   2   3
ATOM      3  N   UNL A   1      33.144  23.022  27.079  1.00  0.00    -0.356 N 
ATOM      4  C   UNL A   1      32.139  23.847  26.696  1.00  0.00     0.224 C 
ATOM      5  O   UNL A   1      31.078  23.743  27.323  1.00  0.00    -0.275 OA
ATOM      6  H   UNL A   1      32.919  22.464  27.858  1.00  0.00     0.163 HD
BRANCH   4   7
ATOM      7  C   UNL A   1      32.236  24.897  25.584  1.00  0.00     0.098 C 
BRANCH   7   8
ATOM      8  C   UNL A   1      32.203  24.366  24.154  1.00  0.00     0.129 C 
BRANCH   8   9
ATOM      9  N   UNL A   1      33.110  25.007  23.225  1.00  0.00    -0.352 N 
ATOM     10  C   UNL A   1      32.894  26.075  22.408  1.00  0.00     0.244 C 
ATOM     11  O   UNL A   1      33.804  26.449  21.669  1.00  0.00    -0.270 OA
ATOM     12  H   UNL A   1      34.013  24.616  23.178  1.00  0.00     0.163 HD
BRANCH  10  13
ATOM     13  C   UNL A   1      31.579  26.778  22.308  1.00  0.00     0.072 C 
ATOM     14  C   UNL A   1      31.099  27.815  23.014  1.00  0.00     0.025 C 
BRANCH  14  15
ATOM     15  C   UNL A   1      29.817  28.424  22.784  1.00  0.00     0.030 A 
ATOM     16  C   UNL A   1      28.285  26.706  23.942  1.00  0.00     0.046 C 
ATOM     17  C   UNL A   1      28.562  27.976  23.206  1.00  0.00    -0.033 A 
ATOM     18  C   UNL A   1      27.513  28.886  22.846  1.00  0.00     0.016 A 
ATOM     19  C   UNL A   1      27.978  29.986  22.170  1.00  0.00     0.066 A 
ATOM     20  S   UNL A   1      29.663  29.935  21.959  1.00  0.00    -0.144 S 
ENDBRANCH  14  15
ENDBRANCH  10  13
ENDBRANCH   8   9
ENDBRANCH   7   8
BRANCH   7  21
ATOM     21  C   UNL A   1      33.292  25.999  25.859  1.00  0.00     0.018 C 
BRANCH  21  22
ATOM     22  C   UNL A   1      32.889  27.466  26.112  1.00  0.00    -0.017 C 
ATOM     23  C   UNL A   1      31.765  27.676  27.115  1.00  0.00     0.007 C 
ATOM     24  C   UNL A   1      34.105  28.272  26.582  1.00  0.00     0.007 C 
ENDBRANCH  21  22
ENDBRANCH   7  21
ENDBRANCH   4   7
ENDBRANCH   2   3
ENDBRANCH   1   2
BRANCH   1  25
ATOM     25  C   UNL A   1      35.839  21.543  24.760  1.00  0.00     0.023 C 
BRANCH  25  26
ATOM     26  C   UNL A   1      37.072  22.050  25.488  1.00  0.00     0.116 C 
BRANCH  26  27
ATOM     27  N   UNL A   1      38.164  21.086  25.581  1.00  0.00    -0.352 N 
ATOM     28  C   UNL A   1      39.409  21.271  26.153  1.00  0.00     0.251 C 
ATOM     29  H   UNL A   1      37.993  20.199  25.191  1.00  0.00     0.163 HD
ATOM     30  O   UNL A   1      40.253  20.393  26.118  1.00  0.00    -0.269 OA
BRANCH  28  31
ATOM     31  C   UNL A   1      39.702  22.589  26.761  1.00  0.00     0.039 A 
ATOM     32  C   UNL A   1      40.648  22.667  27.784  1.00  0.00     0.014 A 
ATOM     33  C   UNL A   1      39.146  23.746  26.213  1.00  0.00     0.014 A 
ATOM     34  C   UNL A   1      41.110  23.919  28.192  1.00  0.00     0.010 A 
ATOM     35  C   UNL A   1      39.682  24.982  26.548  1.00  0.00     0.010 A 
ATOM     36  C   UNL A   1      40.671  25.083  27.539  1.00  0.00    -0.014 A 
BRANCH  36  37
ATOM     37  C   UNL A   1      41.231  26.420  27.863  1.00  0.00     0.031 A 
ATOM     38  C   UNL A   1      42.652  26.746  27.487  1.00  0.00     0.074 A 
ATOM     39  C   UNL A   1      40.506  27.296  28.589  1.00  0.00     0.049 A 
ATOM     40  N   UNL A   1      43.352  27.816  27.756  1.00  0.00    -0.248 NA
ATOM     41  C   UNL A   1      43.397  25.714  26.746  1.00  0.00     0.031 C 
ATOM     42  C   UNL A   1      39.153  27.062  29.099  1.00  0.00     0.029 A 
ATOM     43  N   UNL A   1      40.817  28.552  29.045  1.00  0.00    -0.354 N 
ATOM     44  C   UNL A   1      44.625  27.569  27.260  1.00  0.00     0.074 A 
ATOM     45  C   UNL A   1      44.617  26.229  26.717  1.00  0.00     0.031 C 
ATOM     46  C   UNL A   1      38.746  28.145  29.781  1.00  0.00     0.029 A 
ATOM     47  C   UNL A   1      39.813  29.139  29.782  1.00  0.00     0.049 A 
ATOM     48  H   UNL A   1      41.679  28.993  28.864  1.00  0.00     0.167 HD
ATOM     49  C   UNL A   1      45.697  28.395  27.219  1.00  0.00     0.034 A 
ATOM     50  C   UNL A   1      39.760  30.344  30.383  1.00  0.00     0.034 A 
ATOM     51  C   UNL A   1      45.681  29.750  27.693  1.00  0.00     0.049 A 
ATOM     52  C   UNL A   1      40.939  31.272  30.261  1.00  0.00     0.074 A 
ATOM     53  C   UNL A   1      46.679  30.704  27.608  1.00  0.00     0.029 A 
ATOM     54  N   UNL A   1      44.608  30.347  28.337  1.00  0.00    -0.354 N 
ATOM     55  N   UNL A   1      42.079  31.081  29.641  1.00  0.00    -0.248 NA
ATOM     56  C   UNL A   1      40.812  32.597  30.887  1.00  0.00     0.031 C 
ATOM     57  C   UNL A   1      46.209  31.879  28.205  1.00  0.00     0.029 A 
ATOM     58  C   UNL A   1      44.916  31.658  28.653  1.00  0.00     0.049 A 
ATOM     59  H   UNL A   1      43.752  29.904  28.539  1.00  0.00     0.167 HD
ATOM     60  C   UNL A   1      42.789  32.269  29.771  1.00  0.00     0.074 A 
ATOM     61  C   UNL A   1      41.942  33.182  30.511  1.00  0.00     0.031 C 
ATOM     62  C   UNL A   1      44.036  32.571  29.334  1.00  0.00     0.034 A 
BRANCH  49  63
ATOM     63  C   UNL A   1      46.948  27.874  26.565  1.00  0.00     0.023 A 
ATOM     64  C   UNL A   1      47.936  27.255  27.360  1.00  0.00     0.012 A 
ATOM     65  C   UNL A   1      47.139  27.963  25.173  1.00  0.00     0.148 A 
ATOM     66  C   UNL A   1      49.110  26.772  26.788  1.00  0.00     0.002 A 
ATOM     67  C   UNL A   1      48.294  27.439  24.603  1.00  0.00     0.091 A 
ATOM     68  F   UNL A   1      46.203  28.578  24.435  1.00  0.00    -0.205 F 
ATOM     69  C   UNL A   1      49.286  26.854  25.410  1.00  0.00     0.022 A 
BRANCH  67  70
ATOM     70  S   UNL A   1      48.576  27.429  22.829  1.00  0.00     0.127 S 
ATOM     71  O   UNL A   1      48.488  26.002  22.525  1.00  0.00    -0.237 OA
ATOM     72  O   UNL A   1      47.455  28.228  22.334  1.00  0.00    -0.237 OA
ATOM     73  O   UNL A   1      49.884  28.035  22.632  1.00  0.00    -0.744 OA
ENDBRANCH  67  70
ENDBRANCH  49  63
BRANCH  50  74
ATOM     74  C   UNL A   1      38.509  30.783  31.068  1.00  0.00     0.023 A 
ATOM     75  C   UNL A   1      38.370  30.547  32.450  1.00  0.00     0.012 A 
ATOM     76  C   UNL A   1      37.480  31.452  30.379  1.00  0.00     0.148 A 
ATOM     77  C   UNL A   1      37.216  30.942  33.128  1.00  0.00     0.002 A 
ATOM     78  C   UNL A   1      36.354  31.888  31.071  1.00  0.00     0.091 A 
ATOM     79  F   UNL A   1      37.624  31.656  29.062  1.00  0.00    -0.205 F 
ATOM     80  C   UNL A   1      36.214  31.620  32.442  1.00  0.00     0.022 A 
BRANCH  78  81
ATOM     81  S   UNL A   1      35.074  32.881  30.295  1.00  0.00     0.127 S 
ATOM     82  O   UNL A   1      34.553  31.963  29.286  1.00  0.00    -0.237 OA
ATOM     83  O   UNL A   1      34.170  33.143  31.415  1.00  0.00    -0.237 OA
ATOM     84  O   UNL A   1      35.754  34.065  29.789  1.00  0.00    -0.744 OA
ENDBRANCH  78  81
ENDBRANCH  50  74
BRANCH  62  85
ATOM     85  C   UNL A   1      44.556  33.956  29.611  1.00  0.00     0.023 A 
ATOM     86  C   UNL A   1      44.349  34.980  28.665  1.00  0.00     0.012 A 
ATOM     87  C   UNL A   1      45.170  34.263  30.842  1.00  0.00     0.148 A 
ATOM     88  C   UNL A   1      44.769  36.282  28.930  1.00  0.00     0.002 A 
ATOM     89  C   UNL A   1      45.544  35.572  31.116  1.00  0.00     0.091 A 
ATOM     90  F   UNL A   1      45.375  33.270  31.719  1.00  0.00    -0.205 F 
ATOM     91  C   UNL A   1      45.354  36.582  30.158  1.00  0.00     0.022 A 
BRANCH  89  92
ATOM     92  S   UNL A   1      46.217  36.061  32.708  1.00  0.00     0.127 S 
ATOM     93  O   UNL A   1      46.570  37.459  32.466  1.00  0.00    -0.237 OA
ATOM     94  O   UNL A   1      45.076  35.867  33.604  1.00  0.00    -0.237 OA
ATOM     95  O   UNL A   1      47.337  35.165  32.959  1.00  0.00    -0.744 OA
ENDBRANCH  89  92
ENDBRANCH  62  85
ENDBRANCH  36  37
ENDBRANCH  28  31
ENDBRANCH  26  27
ENDBRANCH  25  26
ENDBRANCH   1  25
TORSDOF 20
ENDMDL
MODEL 3
REMARK VINA RESULT:     -11.1      5.425      8.550
REMARK SMILES Cc1ccsc1/C=C/C(=O)NC[C@H](CC(C)C)C(=O)NCCCCNC(=O)c1ccc(-c2c3nc(c(-c4cccc(S(=O)(=O)[O-])c4F)c4ccc([nH]4)c(-c4cccc(S(=O)(=O)[O-])c4F)c4nc(c(-c5cccc(S(=O)(=O)[O-])c5F)c5ccc2[nH]5)C=C4)C=C3)cc1
REMARK SMILES IDX 22 1 21 2 20 3 18 4 19 5 13 7 12 8 11 9 9 10 10 11 8 13 7 14
REMARK SMILES IDX 6 15 1 16 2 17 3 18 4 19 5 20 14 21 15 22 16 23 17 24 23 25
REMARK SMILES IDX 24 26 25 27 26 28 27 30 28 31 29 32 90 33 30 34 89 35 31 36
REMARK SMILES IDX 32 37 33 38 83 39 34 40 88 41 82 42 84 43 35 44 87 45 81 46
REMARK SMILES IDX 80 47 36 49 68 50 48 51 67 52 49 53 52 54 66 55 85 56 50 57
REMARK SMILES IDX 51 58 65 60 86 61 53 62 37 63 38 64 46 65 39 66 41 67 47 68
REMARK SMILES IDX 40 69 42 70 43 71 44 72 45 73 69 74 70 75 78 76 71 77 73 78
REMARK SMILES IDX 79 79 72 80 74 81 75 82 76 83 77 84 54 85 55 86 63 87 56 88
REMARK SMILES IDX 58 89 64 90 57 91 59 92 60 93 61 94 62 95
REMARK H PARENT 20 6 11 12 25 29 84 48 52 59
REMARK Flexibility Score: inf
ROOT
ATOM      1  C   UNL A   1      30.941  30.714  25.591  1.00  0.00     0.023 C 
ENDROOT
BRANCH   1   2
ATOM      2  C   UNL A   1      32.175  29.836  25.793  1.00  0.00     0.116 C 
BRANCH   2   3
ATOM      3  N   UNL A   1      32.873  29.569  24.553  1.00  0.00    -0.356 N 
ATOM      4  C   UNL A   1      32.464  29.118  23.341  1.00  0.00     0.224 C 
ATOM      5  O   UNL A   1      33.329  29.061  22.459  1.00  0.00    -0.275 OA
ATOM      6  H   UNL A   1      33.839  29.752  24.598  1.00  0.00     0.163 HD
BRANCH   4   7
ATOM      7  C   UNL A   1      31.042  28.657  23.007  1.00  0.00     0.098 C 
BRANCH   7   8
ATOM      8  C   UNL A   1      30.876  27.177  22.675  1.00  0.00     0.129 C 
BRANCH   8   9
ATOM      9  N   UNL A   1      31.736  26.667  21.628  1.00  0.00    -0.352 N 
ATOM     10  C   UNL A   1      32.617  25.629  21.665  1.00  0.00     0.244 C 
ATOM     11  O   UNL A   1      33.276  25.375  20.657  1.00  0.00    -0.270 OA
ATOM     12  H   UNL A   1      31.675  27.137  20.765  1.00  0.00     0.163 HD
BRANCH  10  13
ATOM     13  C   UNL A   1      32.880  24.821  22.894  1.00  0.00     0.072 C 
ATOM     14  C   UNL A   1      32.866  25.186  24.187  1.00  0.00     0.025 C 
BRANCH  14  15
ATOM     15  C   UNL A   1      33.102  24.286  25.283  1.00  0.00     0.030 A 
ATOM     16  C   UNL A   1      35.672  24.125  25.190  1.00  0.00     0.046 C 
ATOM     17  C   UNL A   1      34.328  23.823  25.769  1.00  0.00    -0.033 A 
ATOM     18  C   UNL A   1      34.171  22.989  26.925  1.00  0.00     0.016 A 
ATOM     19  C   UNL A   1      32.858  22.833  27.290  1.00  0.00     0.066 A 
ATOM     20  S   UNL A   1      31.808  23.678  26.254  1.00  0.00    -0.144 S 
ENDBRANCH  14  15
ENDBRANCH  10  13
ENDBRANCH   8   9
ENDBRANCH   7   8
BRANCH   7  21
ATOM     21  C   UNL A   1      30.272  29.636  22.081  1.00  0.00     0.018 C 
BRANCH  21  22
ATOM     22  C   UNL A   1      28.768  29.919  22.271  1.00  0.00    -0.017 C 
ATOM     23  C   UNL A   1      28.001  28.889  23.085  1.00  0.00     0.007 C 
ATOM     24  C   UNL A   1      28.571  31.289  22.929  1.00  0.00     0.007 C 
ENDBRANCH  21  22
ENDBRANCH   7  21
ENDBRANCH   4   7
ENDBRANCH   2   3
ENDBRANCH   1   2
BRANCH   1  25
ATOM     25  C   UNL A   1      31.074  32.167  26.017  1.00  0.00     0.023 C 
BRANCH  25  26
ATOM     26  C   UNL A   1      32.284  32.491  26.876  1.00  0.00     0.116 C 
BRANCH  26  27
ATOM     27  N   UNL A   1      32.303  33.846  27.415  1.00  0.00    -0.352 N 
ATOM     28  C   UNL A   1      33.254  34.413  28.243  1.00  0.00     0.251 C 
ATOM     29  H   UNL A   1      31.550  34.425  27.158  1.00  0.00     0.163 HD
ATOM     30  O   UNL A   1      33.123  35.548  28.665  1.00  0.00    -0.269 OA
BRANCH  28  31
ATOM     31  C   UNL A   1      34.409  33.578  28.644  1.00  0.00     0.039 A 
ATOM     32  C   UNL A   1      35.696  33.989  28.290  1.00  0.00     0.014 A 
ATOM     33  C   UNL A   1      34.216  32.482  29.485  1.00  0.00     0.014 A 
ATOM     34  C   UNL A   1      36.797  33.352  28.866  1.00  0.00     0.010 A 
ATOM     35  C   UNL A   1      35.308  31.921  30.132  1.00  0.00     0.010 A 
ATOM     36  C   UNL A   1      36.610  32.351  29.832  1.00  0.00    -0.014 A 
BRANCH  36  37
ATOM     37  C   UNL A   1      37.754  31.737  30.554  1.00  0.00     0.031 A 
ATOM     38  C   UNL A   1      38.581  30.676  29.878  1.00  0.00     0.074 A 
ATOM     39  C   UNL A   1      37.981  32.048  31.846  1.00  0.00     0.049 A 
ATOM     40  N   UNL A   1      39.559  29.958  30.363  1.00  0.00    -0.248 NA
ATOM     41  C   UNL A   1      38.234  30.349  28.484  1.00  0.00     0.031 C 
ATOM     42  C   UNL A   1      37.190  32.989  32.645  1.00  0.00     0.029 A 
ATOM     43  N   UNL A   1      38.930  31.588  32.725  1.00  0.00    -0.354 N 
ATOM     44  C   UNL A   1      39.912  29.069  29.356  1.00  0.00     0.074 A 
ATOM     45  C   UNL A   1      39.012  29.304  28.249  1.00  0.00     0.031 C 
ATOM     46  C   UNL A   1      37.698  33.047  33.887  1.00  0.00     0.029 A 
ATOM     47  C   UNL A   1      38.830  32.133  33.985  1.00  0.00     0.049 A 
ATOM     48  H   UNL A   1      39.617  30.928  32.477  1.00  0.00     0.167 HD
ATOM     49  C   UNL A   1      40.921  28.167  29.333  1.00  0.00     0.034 A 
ATOM     50  C   UNL A   1      39.573  31.922  35.090  1.00  0.00     0.034 A 
ATOM     51  C   UNL A   1      41.858  27.988  30.406  1.00  0.00     0.049 A 
ATOM     52  C   UNL A   1      40.734  30.967  35.016  1.00  0.00     0.074 A 
ATOM     53  C   UNL A   1      42.976  27.175  30.445  1.00  0.00     0.029 A 
ATOM     54  N   UNL A   1      41.792  28.638  31.628  1.00  0.00    -0.354 N 
ATOM     55  N   UNL A   1      41.154  30.256  33.997  1.00  0.00    -0.248 NA
ATOM     56  C   UNL A   1      41.547  30.812  36.231  1.00  0.00     0.031 C 
ATOM     57  C   UNL A   1      43.584  27.331  31.696  1.00  0.00     0.029 A 
ATOM     58  C   UNL A   1      42.849  28.248  32.429  1.00  0.00     0.049 A 
ATOM     59  H   UNL A   1      41.093  29.283  31.887  1.00  0.00     0.167 HD
ATOM     60  C   UNL A   1      42.298  29.599  34.435  1.00  0.00     0.074 A 
ATOM     61  C   UNL A   1      42.517  30.012  35.807  1.00  0.00     0.031 C 
ATOM     62  C   UNL A   1      43.086  28.719  33.770  1.00  0.00     0.034 A 
BRANCH  49  63
ATOM     63  C   UNL A   1      41.105  27.367  28.071  1.00  0.00     0.023 A 
ATOM     64  C   UNL A   1      41.648  27.996  26.930  1.00  0.00     0.012 A 
ATOM     65  C   UNL A   1      40.777  26.000  28.016  1.00  0.00     0.148 A 
ATOM     66  C   UNL A   1      41.821  27.287  25.743  1.00  0.00     0.002 A 
ATOM     67  C   UNL A   1      40.994  25.289  26.841  1.00  0.00     0.091 A 
ATOM     68  F   UNL A   1      40.237  25.425  29.101  1.00  0.00    -0.205 F 
ATOM     69  C   UNL A   1      41.504  25.933  25.700  1.00  0.00     0.022 A 
BRANCH  67  70
ATOM     70  S   UNL A   1      40.688  23.523  26.712  1.00  0.00     0.127 S 
ATOM     71  O   UNL A   1      41.604  23.143  25.637  1.00  0.00    -0.237 OA
ATOM     72  O   UNL A   1      41.074  23.044  28.040  1.00  0.00    -0.237 OA
ATOM     73  O   UNL A   1      39.271  23.386  26.408  1.00  0.00    -0.744 OA
ENDBRANCH  67  70
ENDBRANCH  49  63
BRANCH  50  74
ATOM     74  C   UNL A   1      39.305  32.705  36.331  1.00  0.00     0.023 A 
ATOM     75  C   UNL A   1      39.887  33.981  36.471  1.00  0.00     0.012 A 
ATOM     76  C   UNL A   1      38.464  32.219  37.349  1.00  0.00     0.148 A 
ATOM     77  C   UNL A   1      39.661  34.745  37.616  1.00  0.00     0.002 A 
ATOM     78  C   UNL A   1      38.202  33.008  38.466  1.00  0.00     0.091 A 
ATOM     79  F   UNL A   1      37.930  30.998  37.205  1.00  0.00    -0.205 F 
ATOM     80  C   UNL A   1      38.812  34.264  38.608  1.00  0.00     0.022 A 
BRANCH  78  81
ATOM     81  S   UNL A   1      37.021  32.523  39.730  1.00  0.00     0.127 S 
ATOM     82  O   UNL A   1      37.119  33.633  40.673  1.00  0.00    -0.237 OA
ATOM     83  O   UNL A   1      35.770  32.465  38.973  1.00  0.00    -0.237 OA
ATOM     84  O   UNL A   1      37.483  31.230  40.217  1.00  0.00    -0.744 OA
ENDBRANCH  78  81
ENDBRANCH  50  74
BRANCH  62  85
ATOM     85  C   UNL A   1      44.280  28.163  34.497  1.00  0.00     0.023 A 
ATOM     86  C   UNL A   1      45.560  28.695  34.242  1.00  0.00     0.012 A 
ATOM     87  C   UNL A   1      44.124  27.179  35.493  1.00  0.00     0.148 A 
ATOM     88  C   UNL A   1      46.670  28.236  34.948  1.00  0.00     0.002 A 
ATOM     89  C   UNL A   1      45.228  26.759  36.225  1.00  0.00     0.091 A 
ATOM     90  F   UNL A   1      42.901  26.672  35.706  1.00  0.00    -0.205 F 
ATOM     91  C   UNL A   1      46.503  27.280  35.948  1.00  0.00     0.022 A 
BRANCH  89  92
ATOM     92  S   UNL A   1      45.088  25.602  37.591  1.00  0.00     0.127 S 
ATOM     93  O   UNL A   1      44.596  24.402  36.917  1.00  0.00    -0.237 OA
ATOM     94  O   UNL A   1      46.469  25.511  38.068  1.00  0.00    -0.237 OA
ATOM     95  O   UNL A   1      44.165  26.214  38.537  1.00  0.00    -0.744 OA
ENDBRANCH  89  92
ENDBRANCH  62  85
ENDBRANCH  36  37
ENDBRANCH  28  31
ENDBRANCH  26  27
ENDBRANCH  25  26
ENDBRANCH   1  25
TORSDOF 20
ENDMDL
