MODEL 1
REMARK VINA RESULT:     -12.6      0.000      0.000
REMARK SMILES O=C(NCCCCNC(=O)c1ccc(-c2c3nc(c(-c4cccc(S(=O)(=O)[O-])c4F)c4ccc([nH]4)c(-c4cccc(S(=O)(=O)[O-])c4F)c4nc(c(-c5cccc(S(=O)(=O)[O-])c5F)c5ccc2[nH]5)C=C4)C=C3)cc1)C1=Cc2c(Cl)cc(Cl)cc2O[C@@H]1C(F)(F)F
REMARK SMILES IDX 6 1 5 2 4 3 3 4 1 5 2 6 74 8 75 9 85 10 76 11 84 12 77 13
REMARK SMILES IDX 83 14 78 15 79 16 82 17 80 18 81 19 86 20 87 21 88 22 89 23
REMARK SMILES IDX 7 24 8 25 9 26 10 28 11 29 12 30 73 31 13 32 72 33 14 34
REMARK SMILES IDX 15 35 16 36 66 37 17 38 71 39 65 40 67 41 18 42 70 43 64 44
REMARK SMILES IDX 63 45 19 47 51 48 31 49 50 50 32 51 35 52 49 53 68 54 33 55
REMARK SMILES IDX 34 56 48 58 69 59 36 60 20 61 21 62 29 63 22 64 24 65 30 66
REMARK SMILES IDX 23 67 25 68 26 69 27 70 28 71 52 72 53 73 61 74 54 75 56 76
REMARK SMILES IDX 62 77 55 78 57 79 58 80 59 81 60 82 37 83 38 84 46 85 39 86
REMARK SMILES IDX 41 87 47 88 40 89 42 90 43 91 44 92 45 93
REMARK H PARENT 3 7 8 27 67 46 35 57
REMARK Flexibility Score: inf
ROOT
ATOM      1  C   UNL A   1      31.815  28.714  26.383  1.00  0.00     0.023 C 
ENDROOT
BRANCH   1   2
ATOM      2  C   UNL A   1      32.262  27.272  26.145  1.00  0.00     0.023 C 
BRANCH   2   3
ATOM      3  C   UNL A   1      31.125  26.255  26.043  1.00  0.00     0.116 C 
BRANCH   3   4
ATOM      4  N   UNL A   1      31.237  25.138  26.981  1.00  0.00    -0.352 N 
ATOM      5  O   UNL A   1      32.076  23.199  27.812  1.00  0.00    -0.270 OA
ATOM      6  C   UNL A   1      31.876  23.925  26.845  1.00  0.00     0.251 C 
ATOM      7  H   UNL A   1      30.785  25.274  27.845  1.00  0.00     0.163 HD
BRANCH   6   8
ATOM      8  C   UNL A   1      32.448  23.584  25.525  1.00  0.00     0.067 C 
ATOM      9  C   UNL A   1      33.769  23.621  25.298  1.00  0.00     0.027 C 
ATOM     10  C   UNL A   1      31.533  22.919  24.546  1.00  0.00     0.314 C 
ATOM     11  C   UNL A   1      34.267  22.310  24.806  1.00  0.00     0.036 A 
ATOM     12  O   UNL A   1      31.980  21.578  24.244  1.00  0.00    -0.475 OA
ATOM     13  C   UNL A   1      35.578  21.878  25.099  1.00  0.00     0.053 A 
ATOM     14  C   UNL A   1      33.323  21.333  24.409  1.00  0.00     0.130 A 
ATOM     15  Cl  UNL A   1      36.795  22.954  25.704  1.00  0.00    -0.083 Cl
ATOM     16  C   UNL A   1      35.911  20.521  25.048  1.00  0.00     0.042 A 
ATOM     17  C   UNL A   1      33.668  19.982  24.334  1.00  0.00     0.067 A 
ATOM     18  C   UNL A   1      34.953  19.581  24.679  1.00  0.00     0.046 A 
ATOM     19  Cl  UNL A   1      35.339  17.907  24.714  1.00  0.00    -0.084 Cl
BRANCH  10  20
ATOM     20  C   UNL A   1      31.398  23.756  23.259  1.00  0.00     0.429 C 
ATOM     21  F   UNL A   1      31.916  24.997  23.423  1.00  0.00    -0.167 F 
ATOM     22  F   UNL A   1      32.050  23.193  22.214  1.00  0.00    -0.167 F 
ATOM     23  F   UNL A   1      30.106  23.915  22.880  1.00  0.00    -0.167 F 
ENDBRANCH  10  20
ENDBRANCH   6   8
ENDBRANCH   3   4
ENDBRANCH   2   3
ENDBRANCH   1   2
BRANCH   1  24
ATOM     24  C   UNL A   1      32.773  29.808  25.914  1.00  0.00     0.116 C 
BRANCH  24  25
ATOM     25  N   UNL A   1      32.472  31.138  26.426  1.00  0.00    -0.352 N 
ATOM     26  C   UNL A   1      33.224  31.913  27.285  1.00  0.00     0.251 C 
ATOM     27  H   UNL A   1      31.626  31.536  26.119  1.00  0.00     0.163 HD
ATOM     28  O   UNL A   1      32.792  32.995  27.678  1.00  0.00    -0.269 OA
BRANCH  26  29
ATOM     29  C   UNL A   1      34.528  31.408  27.772  1.00  0.00     0.039 A 
ATOM     30  C   UNL A   1      35.584  32.307  27.942  1.00  0.00     0.014 A 
ATOM     31  C   UNL A   1      34.685  30.067  28.125  1.00  0.00     0.014 A 
ATOM     32  C   UNL A   1      36.768  31.876  28.547  1.00  0.00     0.010 A 
ATOM     33  C   UNL A   1      35.829  29.662  28.807  1.00  0.00     0.010 A 
ATOM     34  C   UNL A   1      36.885  30.560  29.024  1.00  0.00    -0.014 A 
BRANCH  34  35
ATOM     35  C   UNL A   1      38.104  30.102  29.743  1.00  0.00     0.031 A 
ATOM     36  C   UNL A   1      38.400  30.620  31.127  1.00  0.00     0.074 A 
ATOM     37  C   UNL A   1      38.983  29.287  29.126  1.00  0.00     0.049 A 
ATOM     38  N   UNL A   1      39.434  30.384  31.892  1.00  0.00    -0.248 NA
ATOM     39  C   UNL A   1      37.422  31.550  31.715  1.00  0.00     0.031 C 
ATOM     40  C   UNL A   1      38.865  28.795  27.750  1.00  0.00     0.029 A 
ATOM     41  N   UNL A   1      40.167  28.746  29.566  1.00  0.00    -0.354 N 
ATOM     42  C   UNL A   1      39.246  31.155  33.034  1.00  0.00     0.074 A 
ATOM     43  C   UNL A   1      38.027  31.908  32.839  1.00  0.00     0.031 C 
ATOM     44  C   UNL A   1      39.927  28.021  27.464  1.00  0.00     0.029 A 
ATOM     45  C   UNL A   1      40.809  27.973  28.625  1.00  0.00     0.049 A 
ATOM     46  H   UNL A   1      40.522  28.896  30.472  1.00  0.00     0.167 HD
ATOM     47  C   UNL A   1      39.992  31.202  34.163  1.00  0.00     0.034 A 
ATOM     48  C   UNL A   1      41.974  27.298  28.695  1.00  0.00     0.034 A 
ATOM     49  C   UNL A   1      41.173  30.413  34.378  1.00  0.00     0.049 A 
ATOM     50  C   UNL A   1      42.736  27.296  29.995  1.00  0.00     0.074 A 
ATOM     51  C   UNL A   1      41.977  30.351  35.502  1.00  0.00     0.029 A 
ATOM     52  N   UNL A   1      41.710  29.533  33.452  1.00  0.00    -0.354 N 
ATOM     53  N   UNL A   1      42.462  27.926  31.113  1.00  0.00    -0.248 NA
ATOM     54  C   UNL A   1      43.935  26.450  30.063  1.00  0.00     0.031 C 
ATOM     55  C   UNL A   1      42.998  29.425  35.258  1.00  0.00     0.029 A 
ATOM     56  C   UNL A   1      42.820  28.902  33.988  1.00  0.00     0.049 A 
ATOM     57  H   UNL A   1      41.355  29.378  32.547  1.00  0.00     0.167 HD
ATOM     58  C   UNL A   1      43.426  27.515  32.027  1.00  0.00     0.074 A 
ATOM     59  C   UNL A   1      44.277  26.566  31.339  1.00  0.00     0.031 C 
ATOM     60  C   UNL A   1      43.604  27.902  33.313  1.00  0.00     0.034 A 
BRANCH  47  61
ATOM     61  C   UNL A   1      39.497  32.074  35.288  1.00  0.00     0.023 A 
ATOM     62  C   UNL A   1      38.585  31.537  36.220  1.00  0.00     0.012 A 
ATOM     63  C   UNL A   1      39.963  33.391  35.458  1.00  0.00     0.148 A 
ATOM     64  C   UNL A   1      38.116  32.306  37.284  1.00  0.00     0.002 A 
ATOM     65  C   UNL A   1      39.524  34.139  36.547  1.00  0.00     0.091 A 
ATOM     66  F   UNL A   1      40.816  33.890  34.553  1.00  0.00    -0.205 F 
ATOM     67  C   UNL A   1      38.594  33.602  37.452  1.00  0.00     0.022 A 
BRANCH  65  68
ATOM     68  S   UNL A   1      40.131  35.792  36.901  1.00  0.00     0.127 S 
ATOM     69  O   UNL A   1      39.667  36.533  35.727  1.00  0.00    -0.237 OA
ATOM     70  O   UNL A   1      39.430  36.117  38.143  1.00  0.00    -0.237 OA
ATOM     71  O   UNL A   1      41.577  35.673  37.029  1.00  0.00    -0.744 OA
ENDBRANCH  65  68
ENDBRANCH  47  61
BRANCH  48  72
ATOM     72  C   UNL A   1      42.448  26.489  27.534  1.00  0.00     0.023 A 
ATOM     73  C   UNL A   1      43.239  27.101  26.541  1.00  0.00     0.012 A 
ATOM     74  C   UNL A   1      42.123  25.125  27.405  1.00  0.00     0.148 A 
ATOM     75  C   UNL A   1      43.658  26.383  25.419  1.00  0.00     0.002 A 
ATOM     76  C   UNL A   1      42.590  24.401  26.313  1.00  0.00     0.091 A 
ATOM     77  F   UNL A   1      41.359  24.560  28.351  1.00  0.00    -0.205 F 
ATOM     78  C   UNL A   1      43.340  25.033  25.309  1.00  0.00     0.022 A 
BRANCH  76  79
ATOM     79  S   UNL A   1      42.336  22.628  26.170  1.00  0.00     0.127 S 
ATOM     80  O   UNL A   1      43.018  22.130  27.361  1.00  0.00    -0.237 OA
ATOM     81  O   UNL A   1      40.877  22.521  26.205  1.00  0.00    -0.237 OA
ATOM     82  O   UNL A   1      42.927  22.261  24.891  1.00  0.00    -0.744 OA
ENDBRANCH  76  79
ENDBRANCH  48  72
BRANCH  60  83
ATOM     83  C   UNL A   1      44.722  27.255  34.087  1.00  0.00     0.023 A 
ATOM     84  C   UNL A   1      46.010  27.825  34.072  1.00  0.00     0.012 A 
ATOM     85  C   UNL A   1      44.477  26.117  34.880  1.00  0.00     0.148 A 
ATOM     86  C   UNL A   1      47.047  27.249  34.804  1.00  0.00     0.002 A 
ATOM     87  C   UNL A   1      45.505  25.576  35.644  1.00  0.00     0.091 A 
ATOM     88  F   UNL A   1      43.251  25.575  34.865  1.00  0.00    -0.205 F 
ATOM     89  C   UNL A   1      46.793  26.133  35.598  1.00  0.00     0.022 A 
BRANCH  87  90
ATOM     90  S   UNL A   1      45.232  24.199  36.764  1.00  0.00     0.127 S 
ATOM     91  O   UNL A   1      46.585  23.939  37.252  1.00  0.00    -0.237 OA
ATOM     92  O   UNL A   1      44.326  24.775  37.758  1.00  0.00    -0.237 OA
ATOM     93  O   UNL A   1      44.639  23.143  35.954  1.00  0.00    -0.744 OA
ENDBRANCH  87  90
ENDBRANCH  60  83
ENDBRANCH  34  35
ENDBRANCH  26  29
ENDBRANCH  24  25
ENDBRANCH   1  24
TORSDOF 15
ENDMDL
MODEL 2
REMARK VINA RESULT:     -12.5      5.198      9.990
REMARK SMILES O=C(NCCCCNC(=O)c1ccc(-c2c3nc(c(-c4cccc(S(=O)(=O)[O-])c4F)c4ccc([nH]4)c(-c4cccc(S(=O)(=O)[O-])c4F)c4nc(c(-c5cccc(S(=O)(=O)[O-])c5F)c5ccc2[nH]5)C=C4)C=C3)cc1)C1=Cc2c(Cl)cc(Cl)cc2O[C@@H]1C(F)(F)F
REMARK SMILES IDX 6 1 5 2 4 3 3 4 1 5 2 6 74 8 75 9 85 10 76 11 84 12 77 13
REMARK SMILES IDX 83 14 78 15 79 16 82 17 80 18 81 19 86 20 87 21 88 22 89 23
REMARK SMILES IDX 7 24 8 25 9 26 10 28 11 29 12 30 73 31 13 32 72 33 14 34
REMARK SMILES IDX 15 35 16 36 66 37 17 38 71 39 65 40 67 41 18 42 70 43 64 44
REMARK SMILES IDX 63 45 19 47 51 48 31 49 50 50 32 51 35 52 49 53 68 54 33 55
REMARK SMILES IDX 34 56 48 58 69 59 36 60 20 61 21 62 29 63 22 64 24 65 30 66
REMARK SMILES IDX 23 67 25 68 26 69 27 70 28 71 52 72 53 73 61 74 54 75 56 76
REMARK SMILES IDX 62 77 55 78 57 79 58 80 59 81 60 82 37 83 38 84 46 85 39 86
REMARK SMILES IDX 41 87 47 88 40 89 42 90 43 91 44 92 45 93
REMARK H PARENT 3 7 8 27 67 46 35 57
REMARK Flexibility Score: inf
ROOT
ATOM      1  C   UNL A   1      35.542  21.629  26.127  1.00  0.00     0.023 C 
ENDROOT
BRANCH   1   2
ATOM      2  C   UNL A   1      35.023  22.595  27.192  1.00  0.00     0.023 C 
BRANCH   2   3
ATOM      3  C   UNL A   1      33.500  22.660  27.312  1.00  0.00     0.116 C 
BRANCH   3   4
ATOM      4  N   UNL A   1      32.803  21.529  26.699  1.00  0.00    -0.352 N 
ATOM      5  O   UNL A   1      31.869  20.333  25.012  1.00  0.00    -0.270 OA
ATOM      6  C   UNL A   1      32.199  21.422  25.466  1.00  0.00     0.251 C 
ATOM      7  H   UNL A   1      32.761  20.717  27.254  1.00  0.00     0.163 HD
BRANCH   6   8
ATOM      8  C   UNL A   1      32.087  22.641  24.636  1.00  0.00     0.067 C 
ATOM      9  C   UNL A   1      31.082  23.513  24.797  1.00  0.00     0.027 C 
ATOM     10  C   UNL A   1      33.284  23.012  23.820  1.00  0.00     0.314 C 
ATOM     11  C   UNL A   1      31.595  24.880  25.072  1.00  0.00     0.036 A 
ATOM     12  O   UNL A   1      33.841  24.272  24.255  1.00  0.00    -0.475 OA
ATOM     13  C   UNL A   1      30.864  25.779  25.876  1.00  0.00     0.053 A 
ATOM     14  C   UNL A   1      32.974  25.137  24.880  1.00  0.00     0.130 A 
ATOM     15  Cl  UNL A   1      29.199  25.517  26.282  1.00  0.00    -0.083 Cl
ATOM     16  C   UNL A   1      31.499  26.857  26.503  1.00  0.00     0.042 A 
ATOM     17  C   UNL A   1      33.598  26.229  25.487  1.00  0.00     0.067 A 
ATOM     18  C   UNL A   1      32.862  27.067  26.315  1.00  0.00     0.046 A 
ATOM     19  Cl  UNL A   1      33.657  28.331  27.166  1.00  0.00    -0.084 Cl
BRANCH  10  20
ATOM     20  C   UNL A   1      32.937  23.054  22.319  1.00  0.00     0.429 C 
ATOM     21  F   UNL A   1      32.302  24.206  21.993  1.00  0.00    -0.167 F 
ATOM     22  F   UNL A   1      34.041  22.980  21.538  1.00  0.00    -0.167 F 
ATOM     23  F   UNL A   1      32.122  22.037  21.948  1.00  0.00    -0.167 F 
ENDBRANCH  10  20
ENDBRANCH   6   8
ENDBRANCH   3   4
ENDBRANCH   2   3
ENDBRANCH   1   2
BRANCH   1  24
ATOM     24  C   UNL A   1      36.856  22.010  25.448  1.00  0.00     0.116 C 
BRANCH  24  25
ATOM     25  N   UNL A   1      37.905  21.004  25.546  1.00  0.00    -0.352 N 
ATOM     26  C   UNL A   1      39.181  21.147  26.050  1.00  0.00     0.251 C 
ATOM     27  H   UNL A   1      37.674  20.108  25.212  1.00  0.00     0.163 HD
ATOM     28  O   UNL A   1      39.974  20.209  25.997  1.00  0.00    -0.269 OA
BRANCH  26  29
ATOM     29  C   UNL A   1      39.604  22.453  26.605  1.00  0.00     0.039 A 
ATOM     30  C   UNL A   1      40.592  22.483  27.593  1.00  0.00     0.014 A 
ATOM     31  C   UNL A   1      39.078  23.645  26.103  1.00  0.00     0.014 A 
ATOM     32  C   UNL A   1      41.113  23.711  28.013  1.00  0.00     0.010 A 
ATOM     33  C   UNL A   1      39.659  24.859  26.457  1.00  0.00     0.010 A 
ATOM     34  C   UNL A   1      40.681  24.907  27.418  1.00  0.00    -0.014 A 
BRANCH  34  35
ATOM     35  C   UNL A   1      41.278  26.218  27.790  1.00  0.00     0.031 A 
ATOM     36  C   UNL A   1      42.704  26.530  27.412  1.00  0.00     0.074 A 
ATOM     37  C   UNL A   1      40.571  27.093  28.534  1.00  0.00     0.049 A 
ATOM     38  N   UNL A   1      43.418  27.589  27.692  1.00  0.00    -0.248 NA
ATOM     39  C   UNL A   1      43.432  25.503  26.648  1.00  0.00     0.031 C 
ATOM     40  C   UNL A   1      39.218  26.870  29.050  1.00  0.00     0.029 A 
ATOM     41  N   UNL A   1      40.901  28.340  29.008  1.00  0.00    -0.354 N 
ATOM     42  C   UNL A   1      44.682  27.345  27.166  1.00  0.00     0.074 A 
ATOM     43  C   UNL A   1      44.653  26.016  26.598  1.00  0.00     0.031 C 
ATOM     44  C   UNL A   1      38.833  27.944  29.761  1.00  0.00     0.029 A 
ATOM     45  C   UNL A   1      39.913  28.925  29.767  1.00  0.00     0.049 A 
ATOM     46  H   UNL A   1      41.765  28.775  28.821  1.00  0.00     0.167 HD
ATOM     47  C   UNL A   1      45.758  28.165  27.117  1.00  0.00     0.034 A 
ATOM     48  C   UNL A   1      39.881  30.120  30.389  1.00  0.00     0.034 A 
ATOM     49  C   UNL A   1      45.769  29.506  27.634  1.00  0.00     0.049 A 
ATOM     50  C   UNL A   1      41.059  31.048  30.241  1.00  0.00     0.074 A 
ATOM     51  C   UNL A   1      46.791  30.438  27.595  1.00  0.00     0.029 A 
ATOM     52  N   UNL A   1      44.697  30.113  28.268  1.00  0.00    -0.354 N 
ATOM     53  N   UNL A   1      42.194  30.848  29.616  1.00  0.00    -0.248 NA
ATOM     54  C   UNL A   1      40.930  32.387  30.835  1.00  0.00     0.031 C 
ATOM     55  C   UNL A   1      46.333  31.613  28.201  1.00  0.00     0.029 A 
ATOM     56  C   UNL A   1      45.022  31.416  28.604  1.00  0.00     0.049 A 
ATOM     57  H   UNL A   1      43.832  29.682  28.453  1.00  0.00     0.167 HD
ATOM     58  C   UNL A   1      42.893  32.046  29.702  1.00  0.00     0.074 A 
ATOM     59  C   UNL A   1      42.044  32.975  30.419  1.00  0.00     0.031 C 
ATOM     60  C   UNL A   1      44.133  32.348  29.245  1.00  0.00     0.034 A 
BRANCH  47  61
ATOM     61  C   UNL A   1      46.985  27.663  26.401  1.00  0.00     0.023 A 
ATOM     62  C   UNL A   1      47.941  26.916  27.122  1.00  0.00     0.012 A 
ATOM     63  C   UNL A   1      47.172  27.876  25.023  1.00  0.00     0.148 A 
ATOM     64  C   UNL A   1      49.080  26.420  26.492  1.00  0.00     0.002 A 
ATOM     65  C   UNL A   1      48.291  27.341  24.391  1.00  0.00     0.091 A 
ATOM     66  F   UNL A   1      46.263  28.603  24.358  1.00  0.00    -0.205 F 
ATOM     67  C   UNL A   1      49.249  26.624  25.125  1.00  0.00     0.022 A 
BRANCH  65  68
ATOM     68  S   UNL A   1      48.570  27.481  22.622  1.00  0.00     0.127 S 
ATOM     69  O   UNL A   1      49.858  28.174  22.581  1.00  0.00    -0.237 OA
ATOM     70  O   UNL A   1      48.620  26.078  22.207  1.00  0.00    -0.237 OA
ATOM     71  O   UNL A   1      47.441  28.233  22.093  1.00  0.00    -0.744 OA
ENDBRANCH  65  68
ENDBRANCH  47  61
BRANCH  48  72
ATOM     72  C   UNL A   1      38.661  30.552  31.131  1.00  0.00     0.023 A 
ATOM     73  C   UNL A   1      38.556  30.282  32.511  1.00  0.00     0.012 A 
ATOM     74  C   UNL A   1      37.606  31.225  30.486  1.00  0.00     0.148 A 
ATOM     75  C   UNL A   1      37.407  30.630  33.222  1.00  0.00     0.002 A 
ATOM     76  C   UNL A   1      36.487  31.619  31.211  1.00  0.00     0.091 A 
ATOM     77  F   UNL A   1      37.713  31.463  29.171  1.00  0.00    -0.205 F 
ATOM     78  C   UNL A   1      36.376  31.305  32.575  1.00  0.00     0.022 A 
BRANCH  76  79
ATOM     79  S   UNL A   1      35.179  32.610  30.479  1.00  0.00     0.127 S 
ATOM     80  O   UNL A   1      34.220  32.701  31.576  1.00  0.00    -0.237 OA
ATOM     81  O   UNL A   1      35.876  33.858  30.165  1.00  0.00    -0.237 OA
ATOM     82  O   UNL A   1      34.745  31.862  29.307  1.00  0.00    -0.744 OA
ENDBRANCH  76  79
ENDBRANCH  48  72
BRANCH  60  83
ATOM     83  C   UNL A   1      44.628  33.755  29.448  1.00  0.00     0.023 A 
ATOM     84  C   UNL A   1      45.234  34.119  30.667  1.00  0.00     0.012 A 
ATOM     85  C   UNL A   1      44.547  34.698  28.405  1.00  0.00     0.148 A 
ATOM     86  C   UNL A   1      45.717  35.413  30.857  1.00  0.00     0.002 A 
ATOM     87  C   UNL A   1      45.074  35.972  28.587  1.00  0.00     0.091 A 
ATOM     88  F   UNL A   1      43.947  34.341  27.261  1.00  0.00    -0.205 F 
ATOM     89  C   UNL A   1      45.648  36.335  29.816  1.00  0.00     0.022 A 
BRANCH  87  90
ATOM     90  S   UNL A   1      45.109  37.183  27.261  1.00  0.00     0.127 S 
ATOM     91  O   UNL A   1      45.968  36.525  26.278  1.00  0.00    -0.237 OA
ATOM     92  O   UNL A   1      43.699  37.271  26.876  1.00  0.00    -0.237 OA
ATOM     93  O   UNL A   1      45.644  38.401  27.854  1.00  0.00    -0.744 OA
ENDBRANCH  87  90
ENDBRANCH  60  83
ENDBRANCH  34  35
ENDBRANCH  26  29
ENDBRANCH  24  25
ENDBRANCH   1  24
TORSDOF 15
ENDMDL
MODEL 3
REMARK VINA RESULT:     -12.4      5.302     10.215
REMARK SMILES O=C(NCCCCNC(=O)c1ccc(-c2c3nc(c(-c4cccc(S(=O)(=O)[O-])c4F)c4ccc([nH]4)c(-c4cccc(S(=O)(=O)[O-])c4F)c4nc(c(-c5cccc(S(=O)(=O)[O-])c5F)c5ccc2[nH]5)C=C4)C=C3)cc1)C1=Cc2c(Cl)cc(Cl)cc2O[C@@H]1C(F)(F)F
REMARK SMILES IDX 6 1 5 2 4 3 3 4 1 5 2 6 74 8 75 9 85 10 76 11 84 12 77 13
REMARK SMILES IDX 83 14 78 15 79 16 82 17 80 18 81 19 86 20 87 21 88 22 89 23
REMARK SMILES IDX 7 24 8 25 9 26 10 28 11 29 12 30 73 31 13 32 72 33 14 34
REMARK SMILES IDX 15 35 16 36 66 37 17 38 71 39 65 40 67 41 18 42 70 43 64 44
REMARK SMILES IDX 63 45 19 47 51 48 31 49 50 50 32 51 35 52 49 53 68 54 33 55
REMARK SMILES IDX 34 56 48 58 69 59 36 60 20 61 21 62 29 63 22 64 24 65 30 66
REMARK SMILES IDX 23 67 25 68 26 69 27 70 28 71 52 72 53 73 61 74 54 75 56 76
REMARK SMILES IDX 62 77 55 78 57 79 58 80 59 81 60 82 37 83 38 84 46 85 39 86
REMARK SMILES IDX 41 87 47 88 40 89 42 90 43 91 44 92 45 93
REMARK H PARENT 3 7 8 27 67 46 35 57
REMARK Flexibility Score: inf
ROOT
ATOM      1  C   UNL A   1      35.441  21.291  25.569  1.00  0.00     0.023 C 
ENDROOT
BRANCH   1   2
ATOM      2  C   UNL A   1      34.505  21.824  24.484  1.00  0.00     0.023 C 
BRANCH   2   3
ATOM      3  C   UNL A   1      34.753  23.277  24.079  1.00  0.00     0.116 C 
BRANCH   3   4
ATOM      4  N   UNL A   1      34.171  23.646  22.789  1.00  0.00    -0.352 N 
ATOM      5  O   UNL A   1      32.909  24.870  21.353  1.00  0.00    -0.270 OA
ATOM      6  C   UNL A   1      33.118  24.485  22.497  1.00  0.00     0.251 C 
ATOM      7  H   UNL A   1      34.599  23.230  22.006  1.00  0.00     0.163 HD
BRANCH   6   8
ATOM      8  C   UNL A   1      32.328  25.028  23.623  1.00  0.00     0.067 C 
ATOM      9  C   UNL A   1      32.595  26.229  24.156  1.00  0.00     0.027 C 
ATOM     10  C   UNL A   1      31.048  24.326  23.950  1.00  0.00     0.314 C 
ATOM     11  C   UNL A   1      31.400  27.112  24.119  1.00  0.00     0.036 A 
ATOM     12  O   UNL A   1      29.910  25.186  23.724  1.00  0.00    -0.475 OA
ATOM     13  C   UNL A   1      31.538  28.510  23.993  1.00  0.00     0.053 A 
ATOM     14  C   UNL A   1      30.146  26.540  23.798  1.00  0.00     0.130 A 
ATOM     15  Cl  UNL A   1      33.050  29.320  24.245  1.00  0.00    -0.083 Cl
ATOM     16  C   UNL A   1      30.480  29.292  23.516  1.00  0.00     0.042 A 
ATOM     17  C   UNL A   1      29.085  27.328  23.347  1.00  0.00     0.067 A 
ATOM     18  C   UNL A   1      29.267  28.696  23.184  1.00  0.00     0.046 A 
ATOM     19  Cl  UNL A   1      28.006  29.644  22.504  1.00  0.00    -0.084 Cl
BRANCH  10  20
ATOM     20  C   UNL A   1      31.060  23.801  25.398  1.00  0.00     0.429 C 
ATOM     21  F   UNL A   1      30.651  22.510  25.457  1.00  0.00    -0.167 F 
ATOM     22  F   UNL A   1      32.298  23.845  25.946  1.00  0.00    -0.167 F 
ATOM     23  F   UNL A   1      30.242  24.511  26.213  1.00  0.00    -0.167 F 
ENDBRANCH  10  20
ENDBRANCH   6   8
ENDBRANCH   3   4
ENDBRANCH   2   3
ENDBRANCH   1   2
BRANCH   1  24
ATOM     24  C   UNL A   1      36.849  21.881  25.603  1.00  0.00     0.116 C 
BRANCH  24  25
ATOM     25  N   UNL A   1      37.920  20.896  25.641  1.00  0.00    -0.352 N 
ATOM     26  C   UNL A   1      39.216  21.060  26.084  1.00  0.00     0.251 C 
ATOM     27  H   UNL A   1      37.691  19.998  25.310  1.00  0.00     0.163 HD
ATOM     28  O   UNL A   1      40.024  20.138  25.984  1.00  0.00    -0.269 OA
BRANCH  26  29
ATOM     29  C   UNL A   1      39.641  22.369  26.631  1.00  0.00     0.039 A 
ATOM     30  C   UNL A   1      40.629  22.405  27.618  1.00  0.00     0.014 A 
ATOM     31  C   UNL A   1      39.116  23.558  26.121  1.00  0.00     0.014 A 
ATOM     32  C   UNL A   1      41.150  23.635  28.030  1.00  0.00     0.010 A 
ATOM     33  C   UNL A   1      39.698  24.774  26.466  1.00  0.00     0.010 A 
ATOM     34  C   UNL A   1      40.720  24.828  27.427  1.00  0.00    -0.014 A 
BRANCH  34  35
ATOM     35  C   UNL A   1      41.318  26.140  27.791  1.00  0.00     0.031 A 
ATOM     36  C   UNL A   1      42.741  26.451  27.405  1.00  0.00     0.074 A 
ATOM     37  C   UNL A   1      40.613  27.018  28.534  1.00  0.00     0.049 A 
ATOM     38  N   UNL A   1      43.456  27.512  27.677  1.00  0.00    -0.248 NA
ATOM     39  C   UNL A   1      43.466  25.422  26.642  1.00  0.00     0.031 C 
ATOM     40  C   UNL A   1      39.263  26.797  29.058  1.00  0.00     0.029 A 
ATOM     41  N   UNL A   1      40.945  28.267  29.001  1.00  0.00    -0.354 N 
ATOM     42  C   UNL A   1      44.718  27.266  27.146  1.00  0.00     0.074 A 
ATOM     43  C   UNL A   1      44.687  25.934  26.584  1.00  0.00     0.031 C 
ATOM     44  C   UNL A   1      38.880  27.874  29.766  1.00  0.00     0.029 A 
ATOM     45  C   UNL A   1      39.960  28.856  29.762  1.00  0.00     0.049 A 
ATOM     46  H   UNL A   1      41.807  28.702  28.808  1.00  0.00     0.167 HD
ATOM     47  C   UNL A   1      45.793  28.087  27.088  1.00  0.00     0.034 A 
ATOM     48  C   UNL A   1      39.930  30.053  30.379  1.00  0.00     0.034 A 
ATOM     49  C   UNL A   1      45.806  29.430  27.599  1.00  0.00     0.049 A 
ATOM     50  C   UNL A   1      41.107  30.982  30.222  1.00  0.00     0.074 A 
ATOM     51  C   UNL A   1      46.827  30.362  27.552  1.00  0.00     0.029 A 
ATOM     52  N   UNL A   1      44.736  30.040  28.236  1.00  0.00    -0.354 N 
ATOM     53  N   UNL A   1      42.239  30.778  29.592  1.00  0.00    -0.248 NA
ATOM     54  C   UNL A   1      40.981  32.322  30.810  1.00  0.00     0.031 C 
ATOM     55  C   UNL A   1      46.372  31.540  28.155  1.00  0.00     0.029 A 
ATOM     56  C   UNL A   1      45.063  31.344  28.564  1.00  0.00     0.049 A 
ATOM     57  H   UNL A   1      43.872  29.609  28.427  1.00  0.00     0.167 HD
ATOM     58  C   UNL A   1      42.938  31.978  29.669  1.00  0.00     0.074 A 
ATOM     59  C   UNL A   1      42.092  32.909  30.386  1.00  0.00     0.031 C 
ATOM     60  C   UNL A   1      44.176  32.278  29.206  1.00  0.00     0.034 A 
BRANCH  47  61
ATOM     61  C   UNL A   1      47.017  27.582  26.369  1.00  0.00     0.023 A 
ATOM     62  C   UNL A   1      47.950  26.794  27.075  1.00  0.00     0.012 A 
ATOM     63  C   UNL A   1      47.223  27.834  25.000  1.00  0.00     0.148 A 
ATOM     64  C   UNL A   1      49.086  26.295  26.441  1.00  0.00     0.002 A 
ATOM     65  C   UNL A   1      48.336  27.296  24.363  1.00  0.00     0.091 A 
ATOM     66  F   UNL A   1      46.335  28.599  24.350  1.00  0.00    -0.205 F 
ATOM     67  C   UNL A   1      49.273  26.537  25.083  1.00  0.00     0.022 A 
BRANCH  65  68
ATOM     68  S   UNL A   1      48.637  27.485  22.601  1.00  0.00     0.127 S 
ATOM     69  O   UNL A   1      49.938  28.154  22.595  1.00  0.00    -0.237 OA
ATOM     70  O   UNL A   1      48.663  26.095  22.144  1.00  0.00    -0.237 OA
ATOM     71  O   UNL A   1      47.528  28.275  22.086  1.00  0.00    -0.744 OA
ENDBRANCH  65  68
ENDBRANCH  47  61
BRANCH  48  72
ATOM     72  C   UNL A   1      38.713  30.488  31.125  1.00  0.00     0.023 A 
ATOM     73  C   UNL A   1      38.604  30.200  32.501  1.00  0.00     0.012 A 
ATOM     74  C   UNL A   1      37.667  31.180  30.487  1.00  0.00     0.148 A 
ATOM     75  C   UNL A   1      37.456  30.550  33.214  1.00  0.00     0.002 A 
ATOM     76  C   UNL A   1      36.550  31.577  31.216  1.00  0.00     0.091 A 
ATOM     77  F   UNL A   1      37.778  31.435  29.175  1.00  0.00    -0.205 F 
ATOM     78  C   UNL A   1      36.434  31.245  32.575  1.00  0.00     0.022 A 
BRANCH  76  79
ATOM     79  S   UNL A   1      35.255  32.591  30.495  1.00  0.00     0.127 S 
ATOM     80  O   UNL A   1      34.809  31.761  29.379  1.00  0.00    -0.237 OA
ATOM     81  O   UNL A   1      34.300  32.705  31.598  1.00  0.00    -0.237 OA
ATOM     82  O   UNL A   1      35.905  33.846  30.142  1.00  0.00    -0.744 OA
ENDBRANCH  76  79
ENDBRANCH  48  72
BRANCH  60  83
ATOM     83  C   UNL A   1      44.671  33.686  29.400  1.00  0.00     0.023 A 
ATOM     84  C   UNL A   1      45.305  34.049  30.605  1.00  0.00     0.012 A 
ATOM     85  C   UNL A   1      44.562  34.632  28.362  1.00  0.00     0.148 A 
ATOM     86  C   UNL A   1      45.788  35.344  30.787  1.00  0.00     0.002 A 
ATOM     87  C   UNL A   1      45.088  35.907  28.534  1.00  0.00     0.091 A 
ATOM     88  F   UNL A   1      43.936  34.275  27.231  1.00  0.00    -0.205 F 
ATOM     89  C   UNL A   1      45.691  36.269  29.749  1.00  0.00     0.022 A 
BRANCH  87  90
ATOM     90  S   UNL A   1      45.087  37.121  27.210  1.00  0.00     0.127 S 
ATOM     91  O   UNL A   1      43.664  37.215  26.893  1.00  0.00    -0.237 OA
ATOM     92  O   UNL A   1      45.644  38.304  27.866  1.00  0.00    -0.237 OA
ATOM     93  O   UNL A   1      45.933  36.563  26.163  1.00  0.00    -0.744 OA
ENDBRANCH  87  90
ENDBRANCH  60  83
ENDBRANCH  34  35
ENDBRANCH  26  29
ENDBRANCH  24  25
ENDBRANCH   1  24
TORSDOF 15
ENDMDL
