MODEL 1
REMARK VINA RESULT:     -10.8      0.000      0.000
REMARK SMILES O=C(CSc1ccc2ccccc2n1)NCc1ccc(C(=O)NCCCCNC(=O)c2ccc(-c3c4nc(c(-c5cccc(S(=O)(=O)[O-])c5F)c5ccc([nH]5)c(-c5cccc(S(=O)(=O)[O-])c5F)c5nc(c(-c6cccc(S(=O)(=O)[O-])c6F)c6ccc3[nH]6)C=C5)C=C4)cc2)cc1
REMARK SMILES IDX 24 1 23 2 21 3 22 4 20 6 17 7 18 8 95 9 19 10 94 11 16 12
REMARK SMILES IDX 15 13 1 14 2 15 3 17 4 18 5 19 6 20 14 21 7 22 13 23 8 24
REMARK SMILES IDX 12 25 9 26 11 27 10 28 25 29 26 30 27 31 28 32 29 33 30 35
REMARK SMILES IDX 31 36 32 37 93 38 33 39 92 40 34 41 35 42 36 43 86 44 37 45
REMARK SMILES IDX 91 46 85 47 87 48 38 49 90 50 84 51 83 52 39 54 71 55 51 56
REMARK SMILES IDX 70 57 52 58 55 59 69 60 88 61 53 62 54 63 68 65 89 66 56 67
REMARK SMILES IDX 40 68 41 69 49 70 42 71 44 72 50 73 43 74 45 75 46 76 47 77
REMARK SMILES IDX 48 78 72 79 73 80 81 81 74 82 76 83 82 84 75 85 77 86 78 87
REMARK SMILES IDX 79 88 80 89 57 90 58 91 66 92 59 93 61 94 67 95 60 96 62 97
REMARK SMILES IDX 63 98 64 99 65 100
REMARK H PARENT 23 5 15 16 28 34 87 53 55 64
REMARK Flexibility Score: inf
ROOT
ATOM      1  C   UNL A   1      38.369  22.570  25.711  1.00  0.00     0.116 C 
ENDROOT
BRANCH   1   2
ATOM      2  N   UNL A   1      37.335  21.619  25.358  1.00  0.00    -0.352 N 
ATOM      3  C   UNL A   1      36.044  21.785  24.926  1.00  0.00     0.251 C 
ATOM      4  O   UNL A   1      35.396  20.773  24.656  1.00  0.00    -0.269 OA
ATOM      5  H   UNL A   1      37.609  20.678  25.444  1.00  0.00     0.163 HD
BRANCH   3   6
ATOM      6  C   UNL A   1      35.408  23.118  24.720  1.00  0.00     0.039 A 
ATOM      7  C   UNL A   1      34.197  25.676  24.534  1.00  0.00    -0.029 A 
ATOM      8  C   UNL A   1      34.642  25.185  25.768  1.00  0.00     0.006 A 
ATOM      9  C   UNL A   1      34.416  24.894  23.392  1.00  0.00     0.006 A 
ATOM     10  C   UNL A   1      35.229  23.918  25.858  1.00  0.00     0.014 A 
ATOM     11  C   UNL A   1      35.035  23.642  23.482  1.00  0.00     0.014 A 
BRANCH   7  12
ATOM     12  C   UNL A   1      33.567  27.036  24.363  1.00  0.00     0.151 C 
BRANCH  12  13
ATOM     13  N   UNL A   1      32.363  27.029  23.567  1.00  0.00    -0.351 N 
ATOM     14  O   UNL A   1      31.498  28.959  24.454  1.00  0.00    -0.274 OA
ATOM     15  C   UNL A   1      31.422  28.033  23.650  1.00  0.00     0.230 C 
ATOM     16  H   UNL A   1      32.209  26.283  22.943  1.00  0.00     0.163 HD
BRANCH  15  17
ATOM     17  C   UNL A   1      30.243  27.881  22.705  1.00  0.00     0.176 C 
BRANCH  17  18
ATOM     18  S   UNL A   1      28.843  27.052  23.526  1.00  0.00    -0.096 SA
BRANCH  18  19
ATOM     19  C   UNL A   1      29.736  25.713  24.289  1.00  0.00     0.097 A 
ATOM     20  C   UNL A   1      29.831  25.657  25.671  1.00  0.00     0.036 A 
ATOM     21  N   UNL A   1      30.256  24.773  23.471  1.00  0.00    -0.241 NA
ATOM     22  C   UNL A   1      30.499  24.583  26.245  1.00  0.00     0.013 A 
ATOM     23  C   UNL A   1      30.892  23.727  24.029  1.00  0.00     0.072 A 
ATOM     24  C   UNL A   1      31.037  23.586  25.427  1.00  0.00     0.000 A 
ATOM     25  C   UNL A   1      31.424  22.732  23.218  1.00  0.00     0.029 A 
ATOM     26  C   UNL A   1      31.695  22.467  25.967  1.00  0.00     0.010 A 
ATOM     27  C   UNL A   1      32.075  21.614  23.751  1.00  0.00     0.002 A 
ATOM     28  C   UNL A   1      32.209  21.481  25.129  1.00  0.00     0.001 A 
ENDBRANCH  18  19
ENDBRANCH  17  18
ENDBRANCH  15  17
ENDBRANCH  12  13
ENDBRANCH   7  12
ENDBRANCH   3   6
ENDBRANCH   1   2
BRANCH   1  29
ATOM     29  C   UNL A   1      39.520  21.870  26.439  1.00  0.00     0.023 C 
BRANCH  29  30
ATOM     30  C   UNL A   1      39.754  20.421  26.003  1.00  0.00     0.023 C 
BRANCH  30  31
ATOM     31  C   UNL A   1      40.833  19.680  26.785  1.00  0.00     0.116 C 
BRANCH  31  32
ATOM     32  N   UNL A   1      41.986  19.324  25.973  1.00  0.00    -0.352 N 
ATOM     33  C   UNL A   1      43.021  20.129  25.557  1.00  0.00     0.251 C 
ATOM     34  H   UNL A   1      42.033  18.384  25.684  1.00  0.00     0.163 HD
ATOM     35  O   UNL A   1      43.862  19.694  24.781  1.00  0.00    -0.269 OA
BRANCH  33  36
ATOM     36  C   UNL A   1      43.084  21.530  26.026  1.00  0.00     0.039 A 
ATOM     37  C   UNL A   1      43.277  21.773  27.388  1.00  0.00     0.014 A 
ATOM     38  C   UNL A   1      42.973  22.593  25.128  1.00  0.00     0.014 A 
ATOM     39  C   UNL A   1      43.412  23.087  27.840  1.00  0.00     0.010 A 
ATOM     40  C   UNL A   1      43.181  23.896  25.569  1.00  0.00     0.010 A 
ATOM     41  C   UNL A   1      43.393  24.157  26.932  1.00  0.00    -0.014 A 
BRANCH  41  42
ATOM     42  C   UNL A   1      43.595  25.554  27.390  1.00  0.00     0.031 A 
ATOM     43  C   UNL A   1      44.965  26.176  27.349  1.00  0.00     0.074 A 
ATOM     44  C   UNL A   1      42.559  26.236  27.916  1.00  0.00     0.049 A 
ATOM     45  N   UNL A   1      45.338  27.373  27.723  1.00  0.00    -0.248 NA
ATOM     46  C   UNL A   1      46.065  25.336  26.849  1.00  0.00     0.031 C 
ATOM     47  C   UNL A   1      41.204  25.710  28.097  1.00  0.00     0.029 A 
ATOM     48  N   UNL A   1      42.488  27.512  28.416  1.00  0.00    -0.354 N 
ATOM     49  C   UNL A   1      46.714  27.417  27.537  1.00  0.00     0.074 A 
ATOM     50  C   UNL A   1      47.117  26.116  27.052  1.00  0.00     0.031 C 
ATOM     51  C   UNL A   1      40.435  26.658  28.658  1.00  0.00     0.029 A 
ATOM     52  C   UNL A   1      41.244  27.850  28.896  1.00  0.00     0.049 A 
ATOM     53  H   UNL A   1      43.255  28.129  28.429  1.00  0.00     0.167 HD
ATOM     54  C   UNL A   1      47.563  28.458  27.720  1.00  0.00     0.034 A 
ATOM     55  C   UNL A   1      40.805  28.992  29.459  1.00  0.00     0.034 A 
ATOM     56  C   UNL A   1      47.149  29.763  28.156  1.00  0.00     0.049 A 
ATOM     57  C   UNL A   1      41.753  30.154  29.586  1.00  0.00     0.074 A 
ATOM     58  C   UNL A   1      47.914  30.910  28.286  1.00  0.00     0.029 A 
ATOM     59  N   UNL A   1      45.858  30.100  28.535  1.00  0.00    -0.354 N 
ATOM     60  N   UNL A   1      43.016  30.230  29.244  1.00  0.00    -0.248 NA
ATOM     61  C   UNL A   1      41.203  31.401  30.135  1.00  0.00     0.031 C 
ATOM     62  C   UNL A   1      47.088  31.936  28.759  1.00  0.00     0.029 A 
ATOM     63  C   UNL A   1      45.804  31.434  28.899  1.00  0.00     0.049 A 
ATOM     64  H   UNL A   1      45.094  29.481  28.542  1.00  0.00     0.167 HD
ATOM     65  C   UNL A   1      43.402  31.541  29.499  1.00  0.00     0.074 A 
ATOM     66  C   UNL A   1      42.230  32.229  30.002  1.00  0.00     0.031 C 
ATOM     67  C   UNL A   1      44.618  32.120  29.345  1.00  0.00     0.034 A 
BRANCH  54  68
ATOM     68  C   UNL A   1      49.015  28.240  27.386  1.00  0.00     0.023 A 
ATOM     69  C   UNL A   1      49.936  27.992  28.426  1.00  0.00     0.012 A 
ATOM     70  C   UNL A   1      49.464  28.227  26.052  1.00  0.00     0.148 A 
ATOM     71  C   UNL A   1      51.283  27.773  28.147  1.00  0.00     0.002 A 
ATOM     72  C   UNL A   1      50.801  27.962  25.778  1.00  0.00     0.091 A 
ATOM     73  F   UNL A   1      48.580  28.486  25.076  1.00  0.00    -0.205 F 
ATOM     74  C   UNL A   1      51.714  27.747  26.824  1.00  0.00     0.022 A 
BRANCH  72  75
ATOM     75  S   UNL A   1      51.439  27.829  24.104  1.00  0.00     0.127 S 
ATOM     76  O   UNL A   1      50.476  26.915  23.492  1.00  0.00    -0.237 OA
ATOM     77  O   UNL A   1      51.352  29.211  23.630  1.00  0.00    -0.237 OA
ATOM     78  O   UNL A   1      52.795  27.315  24.232  1.00  0.00    -0.744 OA
ENDBRANCH  72  75
ENDBRANCH  54  68
BRANCH  55  79
ATOM     79  C   UNL A   1      39.376  29.121  29.863  1.00  0.00     0.023 A 
ATOM     80  C   UNL A   1      38.980  28.694  31.147  1.00  0.00     0.012 A 
ATOM     81  C   UNL A   1      38.417  29.684  29.001  1.00  0.00     0.148 A 
ATOM     82  C   UNL A   1      37.649  28.794  31.551  1.00  0.00     0.002 A 
ATOM     83  C   UNL A   1      37.103  29.831  29.431  1.00  0.00     0.091 A 
ATOM     84  F   UNL A   1      38.810  30.074  27.781  1.00  0.00    -0.205 F 
ATOM     85  C   UNL A   1      36.712  29.370  30.698  1.00  0.00     0.022 A 
BRANCH  83  86
ATOM     86  S   UNL A   1      35.860  30.682  28.451  1.00  0.00     0.127 S 
ATOM     87  O   UNL A   1      35.280  29.583  27.684  1.00  0.00    -0.237 OA
ATOM     88  O   UNL A   1      34.988  31.240  29.485  1.00  0.00    -0.237 OA
ATOM     89  O   UNL A   1      36.588  31.681  27.680  1.00  0.00    -0.744 OA
ENDBRANCH  83  86
ENDBRANCH  55  79
BRANCH  67  90
ATOM     90  C   UNL A   1      44.741  33.582  29.688  1.00  0.00     0.023 A 
ATOM     91  C   UNL A   1      45.050  33.970  31.006  1.00  0.00     0.012 A 
ATOM     92  C   UNL A   1      44.613  34.567  28.689  1.00  0.00     0.148 A 
ATOM     93  C   UNL A   1      45.189  35.318  31.334  1.00  0.00     0.002 A 
ATOM     94  C   UNL A   1      44.802  35.905  29.013  1.00  0.00     0.091 A 
ATOM     95  F   UNL A   1      44.299  34.181  27.444  1.00  0.00    -0.205 F 
ATOM     96  C   UNL A   1      45.077  36.284  30.337  1.00  0.00     0.022 A 
BRANCH  94  97
ATOM     97  S   UNL A   1      44.772  37.202  27.770  1.00  0.00     0.127 S 
ATOM     98  O   UNL A   1      43.406  37.095  27.261  1.00  0.00    -0.237 OA
ATOM     99  O   UNL A   1      45.034  38.404  28.564  1.00  0.00    -0.237 OA
ATOM    100  O   UNL A   1      45.826  36.867  26.822  1.00  0.00    -0.744 OA
ENDBRANCH  94  97
ENDBRANCH  67  90
ENDBRANCH  41  42
ENDBRANCH  33  36
ENDBRANCH  31  32
ENDBRANCH  30  31
ENDBRANCH  29  30
ENDBRANCH   1  29
TORSDOF 19
ENDMDL
MODEL 2
REMARK VINA RESULT:     -10.8      1.784      7.529
REMARK SMILES O=C(CSc1ccc2ccccc2n1)NCc1ccc(C(=O)NCCCCNC(=O)c2ccc(-c3c4nc(c(-c5cccc(S(=O)(=O)[O-])c5F)c5ccc([nH]5)c(-c5cccc(S(=O)(=O)[O-])c5F)c5nc(c(-c6cccc(S(=O)(=O)[O-])c6F)c6ccc3[nH]6)C=C5)C=C4)cc2)cc1
REMARK SMILES IDX 24 1 23 2 21 3 22 4 20 6 17 7 18 8 95 9 19 10 94 11 16 12
REMARK SMILES IDX 15 13 1 14 2 15 3 17 4 18 5 19 6 20 14 21 7 22 13 23 8 24
REMARK SMILES IDX 12 25 9 26 11 27 10 28 25 29 26 30 27 31 28 32 29 33 30 35
REMARK SMILES IDX 31 36 32 37 93 38 33 39 92 40 34 41 35 42 36 43 86 44 37 45
REMARK SMILES IDX 91 46 85 47 87 48 38 49 90 50 84 51 83 52 39 54 71 55 51 56
REMARK SMILES IDX 70 57 52 58 55 59 69 60 88 61 53 62 54 63 68 65 89 66 56 67
REMARK SMILES IDX 40 68 41 69 49 70 42 71 44 72 50 73 43 74 45 75 46 76 47 77
REMARK SMILES IDX 48 78 72 79 73 80 81 81 74 82 76 83 82 84 75 85 77 86 78 87
REMARK SMILES IDX 79 88 80 89 57 90 58 91 66 92 59 93 61 94 67 95 60 96 62 97
REMARK SMILES IDX 63 98 64 99 65 100
REMARK H PARENT 23 5 15 16 28 34 87 53 55 64
REMARK Flexibility Score: inf
ROOT
ATOM      1  C   UNL A   1      38.217  23.009  26.131  1.00  0.00     0.116 C 
ENDROOT
BRANCH   1   2
ATOM      2  N   UNL A   1      37.177  22.000  26.139  1.00  0.00    -0.352 N 
ATOM      3  C   UNL A   1      35.902  21.991  25.634  1.00  0.00     0.251 C 
ATOM      4  O   UNL A   1      35.245  20.957  25.755  1.00  0.00    -0.269 OA
ATOM      5  H   UNL A   1      37.432  21.165  26.592  1.00  0.00     0.163 HD
BRANCH   3   6
ATOM      6  C   UNL A   1      35.295  23.143  24.906  1.00  0.00     0.039 A 
ATOM      7  C   UNL A   1      34.200  25.244  23.347  1.00  0.00    -0.029 A 
ATOM      8  C   UNL A   1      34.706  24.090  22.735  1.00  0.00     0.006 A 
ATOM      9  C   UNL A   1      34.201  25.306  24.747  1.00  0.00     0.006 A 
ATOM     10  C   UNL A   1      35.256  23.060  23.507  1.00  0.00     0.014 A 
ATOM     11  C   UNL A   1      34.720  24.258  25.516  1.00  0.00     0.014 A 
BRANCH   7  12
ATOM     12  C   UNL A   1      33.583  26.385  22.578  1.00  0.00     0.151 C 
BRANCH  12  13
ATOM     13  N   UNL A   1      32.515  27.056  23.278  1.00  0.00    -0.351 N 
ATOM     14  O   UNL A   1      31.135  27.244  21.455  1.00  0.00    -0.274 OA
ATOM     15  C   UNL A   1      31.334  27.405  22.657  1.00  0.00     0.230 C 
ATOM     16  H   UNL A   1      32.631  27.270  24.232  1.00  0.00     0.163 HD
BRANCH  15  17
ATOM     17  C   UNL A   1      30.307  28.062  23.563  1.00  0.00     0.176 C 
BRANCH  17  18
ATOM     18  S   UNL A   1      28.899  26.949  23.879  1.00  0.00    -0.096 SA
BRANCH  18  19
ATOM     19  C   UNL A   1      29.802  25.544  24.498  1.00  0.00     0.097 A 
ATOM     20  C   UNL A   1      29.944  25.374  25.867  1.00  0.00     0.036 A 
ATOM     21  N   UNL A   1      30.284  24.671  23.588  1.00  0.00    -0.241 NA
ATOM     22  C   UNL A   1      30.619  24.250  26.327  1.00  0.00     0.013 A 
ATOM     23  C   UNL A   1      30.927  23.577  24.035  1.00  0.00     0.072 A 
ATOM     24  C   UNL A   1      31.117  23.320  25.410  1.00  0.00     0.000 A 
ATOM     25  C   UNL A   1      31.420  22.648  23.127  1.00  0.00     0.029 A 
ATOM     26  C   UNL A   1      31.781  22.155  25.834  1.00  0.00     0.010 A 
ATOM     27  C   UNL A   1      32.075  21.485  23.543  1.00  0.00     0.002 A 
ATOM     28  C   UNL A   1      32.255  21.237  24.900  1.00  0.00     0.001 A 
ENDBRANCH  18  19
ENDBRANCH  17  18
ENDBRANCH  15  17
ENDBRANCH  12  13
ENDBRANCH   7  12
ENDBRANCH   3   6
ENDBRANCH   1   2
BRANCH   1  29
ATOM     29  C   UNL A   1      39.600  22.358  26.067  1.00  0.00     0.023 C 
BRANCH  29  30
ATOM     30  C   UNL A   1      39.649  20.925  26.605  1.00  0.00     0.023 C 
BRANCH  30  31
ATOM     31  C   UNL A   1      39.923  19.853  25.555  1.00  0.00     0.116 C 
BRANCH  31  32
ATOM     32  N   UNL A   1      41.021  18.968  25.914  1.00  0.00    -0.352 N 
ATOM     33  C   UNL A   1      42.294  19.301  26.313  1.00  0.00     0.251 C 
ATOM     34  H   UNL A   1      40.827  18.004  25.866  1.00  0.00     0.163 HD
ATOM     35  O   UNL A   1      43.135  18.427  26.474  1.00  0.00    -0.269 OA
BRANCH  33  36
ATOM     36  C   UNL A   1      42.643  20.725  26.509  1.00  0.00     0.039 A 
ATOM     37  C   UNL A   1      42.638  21.245  27.806  1.00  0.00     0.014 A 
ATOM     38  C   UNL A   1      42.991  21.534  25.425  1.00  0.00     0.014 A 
ATOM     39  C   UNL A   1      43.036  22.566  28.019  1.00  0.00     0.010 A 
ATOM     40  C   UNL A   1      43.455  22.826  25.649  1.00  0.00     0.010 A 
ATOM     41  C   UNL A   1      43.473  23.359  26.947  1.00  0.00    -0.014 A 
BRANCH  41  42
ATOM     42  C   UNL A   1      43.955  24.746  27.167  1.00  0.00     0.031 A 
ATOM     43  C   UNL A   1      43.020  25.798  27.699  1.00  0.00     0.074 A 
ATOM     44  C   UNL A   1      45.212  25.075  26.813  1.00  0.00     0.049 A 
ATOM     45  N   UNL A   1      43.254  27.063  27.938  1.00  0.00    -0.248 NA
ATOM     46  C   UNL A   1      41.634  25.384  27.975  1.00  0.00     0.031 C 
ATOM     47  C   UNL A   1      46.184  24.168  26.199  1.00  0.00     0.029 A 
ATOM     48  N   UNL A   1      45.883  26.269  26.898  1.00  0.00    -0.354 N 
ATOM     49  C   UNL A   1      42.043  27.601  28.356  1.00  0.00     0.074 A 
ATOM     50  C   UNL A   1      41.066  26.535  28.303  1.00  0.00     0.031 C 
ATOM     51  C   UNL A   1      47.327  24.835  25.971  1.00  0.00     0.029 A 
ATOM     52  C   UNL A   1      47.165  26.220  26.403  1.00  0.00     0.049 A 
ATOM     53  H   UNL A   1      45.483  27.085  27.278  1.00  0.00     0.167 HD
ATOM     54  C   UNL A   1      41.774  28.860  28.779  1.00  0.00     0.034 A 
ATOM     55  C   UNL A   1      48.104  27.181  26.313  1.00  0.00     0.034 A 
ATOM     56  C   UNL A   1      42.759  29.902  28.876  1.00  0.00     0.049 A 
ATOM     57  C   UNL A   1      47.800  28.552  26.854  1.00  0.00     0.074 A 
ATOM     58  C   UNL A   1      42.610  31.184  29.376  1.00  0.00     0.029 A 
ATOM     59  N   UNL A   1      44.078  29.786  28.463  1.00  0.00    -0.354 N 
ATOM     60  N   UNL A   1      46.696  28.995  27.405  1.00  0.00    -0.248 NA
ATOM     61  C   UNL A   1      48.885  29.542  26.802  1.00  0.00     0.031 C 
ATOM     62  C   UNL A   1      43.835  31.848  29.252  1.00  0.00     0.029 A 
ATOM     63  C   UNL A   1      44.754  30.971  28.696  1.00  0.00     0.049 A 
ATOM     64  H   UNL A   1      44.474  28.978  28.064  1.00  0.00     0.167 HD
ATOM     65  C   UNL A   1      46.965  30.301  27.801  1.00  0.00     0.074 A 
ATOM     66  C   UNL A   1      48.345  30.567  27.446  1.00  0.00     0.031 C 
ATOM     67  C   UNL A   1      46.142  31.203  28.389  1.00  0.00     0.034 A 
BRANCH  54  68
ATOM     68  C   UNL A   1      40.368  29.159  29.230  1.00  0.00     0.023 A 
ATOM     69  C   UNL A   1      39.410  29.577  28.282  1.00  0.00     0.012 A 
ATOM     70  C   UNL A   1      39.977  28.978  30.570  1.00  0.00     0.148 A 
ATOM     71  C   UNL A   1      38.099  29.847  28.667  1.00  0.00     0.002 A 
ATOM     72  C   UNL A   1      38.656  29.205  30.938  1.00  0.00     0.091 A 
ATOM     73  F   UNL A   1      40.905  28.601  31.463  1.00  0.00    -0.205 F 
ATOM     74  C   UNL A   1      37.718  29.651  29.992  1.00  0.00     0.022 A 
BRANCH  72  75
ATOM     75  S   UNL A   1      38.048  28.905  32.602  1.00  0.00     0.127 S 
ATOM     76  O   UNL A   1      36.653  29.327  32.488  1.00  0.00    -0.237 OA
ATOM     77  O   UNL A   1      38.237  27.462  32.745  1.00  0.00    -0.237 OA
ATOM     78  O   UNL A   1      38.877  29.716  33.484  1.00  0.00    -0.744 OA
ENDBRANCH  72  75
ENDBRANCH  54  68
BRANCH  55  79
ATOM     79  C   UNL A   1      49.452  26.855  25.766  1.00  0.00     0.023 A 
ATOM     80  C   UNL A   1      50.367  26.141  26.565  1.00  0.00     0.012 A 
ATOM     81  C   UNL A   1      49.823  27.221  24.458  1.00  0.00     0.148 A 
ATOM     82  C   UNL A   1      51.639  25.829  26.085  1.00  0.00     0.002 A 
ATOM     83  C   UNL A   1      51.071  26.858  23.967  1.00  0.00     0.091 A 
ATOM     84  F   UNL A   1      48.942  27.909  23.717  1.00  0.00    -0.205 F 
ATOM     85  C   UNL A   1      51.988  26.178  24.784  1.00  0.00     0.022 A 
BRANCH  83  86
ATOM     86  S   UNL A   1      51.555  27.150  22.261  1.00  0.00     0.127 S 
ATOM     87  O   UNL A   1      51.816  28.587  22.265  1.00  0.00    -0.237 OA
ATOM     88  O   UNL A   1      52.745  26.308  22.135  1.00  0.00    -0.237 OA
ATOM     89  O   UNL A   1      50.424  26.711  21.454  1.00  0.00    -0.744 OA
ENDBRANCH  83  86
ENDBRANCH  55  79
BRANCH  67  90
ATOM     90  C   UNL A   1      46.717  32.554  28.727  1.00  0.00     0.023 A 
ATOM     91  C   UNL A   1      47.356  32.755  29.966  1.00  0.00     0.012 A 
ATOM     92  C   UNL A   1      46.680  33.605  27.790  1.00  0.00     0.148 A 
ATOM     93  C   UNL A   1      47.913  33.992  30.285  1.00  0.00     0.002 A 
ATOM     94  C   UNL A   1      47.281  34.821  28.095  1.00  0.00     0.091 A 
ATOM     95  F   UNL A   1      46.051  33.403  26.623  1.00  0.00    -0.205 F 
ATOM     96  C   UNL A   1      47.886  35.021  29.346  1.00  0.00     0.022 A 
BRANCH  94  97
ATOM     97  S   UNL A   1      47.376  36.164  26.904  1.00  0.00     0.127 S 
ATOM     98  O   UNL A   1      48.033  35.512  25.772  1.00  0.00    -0.237 OA
ATOM     99  O   UNL A   1      45.966  36.490  26.686  1.00  0.00    -0.237 OA
ATOM    100  O   UNL A   1      48.141  37.217  27.556  1.00  0.00    -0.744 OA
ENDBRANCH  94  97
ENDBRANCH  67  90
ENDBRANCH  41  42
ENDBRANCH  33  36
ENDBRANCH  31  32
ENDBRANCH  30  31
ENDBRANCH  29  30
ENDBRANCH   1  29
TORSDOF 19
ENDMDL
MODEL 3
REMARK VINA RESULT:     -10.4      7.096     11.792
REMARK SMILES O=C(CSc1ccc2ccccc2n1)NCc1ccc(C(=O)NCCCCNC(=O)c2ccc(-c3c4nc(c(-c5cccc(S(=O)(=O)[O-])c5F)c5ccc([nH]5)c(-c5cccc(S(=O)(=O)[O-])c5F)c5nc(c(-c6cccc(S(=O)(=O)[O-])c6F)c6ccc3[nH]6)C=C5)C=C4)cc2)cc1
REMARK SMILES IDX 24 1 23 2 21 3 22 4 20 6 17 7 18 8 95 9 19 10 94 11 16 12
REMARK SMILES IDX 15 13 1 14 2 15 3 17 4 18 5 19 6 20 14 21 7 22 13 23 8 24
REMARK SMILES IDX 12 25 9 26 11 27 10 28 25 29 26 30 27 31 28 32 29 33 30 35
REMARK SMILES IDX 31 36 32 37 93 38 33 39 92 40 34 41 35 42 36 43 86 44 37 45
REMARK SMILES IDX 91 46 85 47 87 48 38 49 90 50 84 51 83 52 39 54 71 55 51 56
REMARK SMILES IDX 70 57 52 58 55 59 69 60 88 61 53 62 54 63 68 65 89 66 56 67
REMARK SMILES IDX 40 68 41 69 49 70 42 71 44 72 50 73 43 74 45 75 46 76 47 77
REMARK SMILES IDX 48 78 72 79 73 80 81 81 74 82 76 83 82 84 75 85 77 86 78 87
REMARK SMILES IDX 79 88 80 89 57 90 58 91 66 92 59 93 61 94 67 95 60 96 62 97
REMARK SMILES IDX 63 98 64 99 65 100
REMARK H PARENT 23 5 15 16 28 34 87 53 55 64
REMARK Flexibility Score: inf
ROOT
ATOM      1  C   UNL A   1      34.118  33.158  27.921  1.00  0.00     0.116 C 
ENDROOT
BRANCH   1   2
ATOM      2  N   UNL A   1      35.327  32.370  28.038  1.00  0.00    -0.352 N 
ATOM      3  C   UNL A   1      35.584  31.042  27.809  1.00  0.00     0.251 C 
ATOM      4  O   UNL A   1      36.742  30.650  27.955  1.00  0.00    -0.269 OA
ATOM      5  H   UNL A   1      36.112  32.882  28.338  1.00  0.00     0.163 HD
BRANCH   3   6
ATOM      6  C   UNL A   1      34.551  30.069  27.349  1.00  0.00     0.039 A 
ATOM      7  C   UNL A   1      32.443  28.359  26.526  1.00  0.00    -0.029 A 
ATOM      8  C   UNL A   1      32.182  29.679  26.914  1.00  0.00     0.006 A 
ATOM      9  C   UNL A   1      33.777  27.928  26.504  1.00  0.00     0.006 A 
ATOM     10  C   UNL A   1      33.222  30.517  27.331  1.00  0.00     0.014 A 
ATOM     11  C   UNL A   1      34.818  28.781  26.887  1.00  0.00     0.014 A 
BRANCH   7  12
ATOM     12  C   UNL A   1      31.373  27.407  26.055  1.00  0.00     0.151 C 
BRANCH  12  13
ATOM     13  N   UNL A   1      31.884  26.182  25.490  1.00  0.00    -0.351 N 
ATOM     14  O   UNL A   1      31.191  24.834  27.212  1.00  0.00    -0.274 OA
ATOM     15  C   UNL A   1      31.715  24.960  26.108  1.00  0.00     0.230 C 
ATOM     16  H   UNL A   1      32.369  26.218  24.633  1.00  0.00     0.163 HD
BRANCH  15  17
ATOM     17  C   UNL A   1      32.281  23.776  25.344  1.00  0.00     0.176 C 
BRANCH  17  18
ATOM     18  S   UNL A   1      31.209  22.311  25.511  1.00  0.00    -0.096 SA
BRANCH  18  19
ATOM     19  C   UNL A   1      32.416  21.053  25.146  1.00  0.00     0.097 A 
ATOM     20  C   UNL A   1      33.752  21.404  25.029  1.00  0.00     0.036 A 
ATOM     21  N   UNL A   1      31.969  19.784  25.035  1.00  0.00    -0.241 NA
ATOM     22  C   UNL A   1      34.680  20.399  24.782  1.00  0.00     0.013 A 
ATOM     23  C   UNL A   1      32.870  18.811  24.808  1.00  0.00     0.072 A 
ATOM     24  C   UNL A   1      34.251  19.073  24.676  1.00  0.00     0.000 A 
ATOM     25  C   UNL A   1      32.447  17.491  24.707  1.00  0.00     0.029 A 
ATOM     26  C   UNL A   1      35.159  18.023  24.456  1.00  0.00     0.010 A 
ATOM     27  C   UNL A   1      33.348  16.442  24.494  1.00  0.00     0.002 A 
ATOM     28  C   UNL A   1      34.707  16.708  24.369  1.00  0.00     0.001 A 
ENDBRANCH  18  19
ENDBRANCH  17  18
ENDBRANCH  15  17
ENDBRANCH  12  13
ENDBRANCH   7  12
ENDBRANCH   3   6
ENDBRANCH   1   2
BRANCH   1  29
ATOM     29  C   UNL A   1      34.452  34.646  27.799  1.00  0.00     0.023 C 
BRANCH  29  30
ATOM     30  C   UNL A   1      33.768  35.534  28.842  1.00  0.00     0.023 C 
BRANCH  30  31
ATOM     31  C   UNL A   1      32.953  34.784  29.891  1.00  0.00     0.116 C 
BRANCH  31  32
ATOM     32  N   UNL A   1      32.377  35.659  30.901  1.00  0.00    -0.352 N 
ATOM     33  C   UNL A   1      32.777  35.843  32.203  1.00  0.00     0.251 C 
ATOM     34  H   UNL A   1      31.599  36.189  30.614  1.00  0.00     0.163 HD
ATOM     35  O   UNL A   1      32.111  36.539  32.957  1.00  0.00    -0.269 OA
BRANCH  33  36
ATOM     36  C   UNL A   1      33.996  35.161  32.691  1.00  0.00     0.039 A 
ATOM     37  C   UNL A   1      33.865  33.918  33.315  1.00  0.00     0.014 A 
ATOM     38  C   UNL A   1      35.257  35.735  32.518  1.00  0.00     0.014 A 
ATOM     39  C   UNL A   1      35.008  33.226  33.716  1.00  0.00     0.010 A 
ATOM     40  C   UNL A   1      36.397  35.012  32.852  1.00  0.00     0.010 A 
ATOM     41  C   UNL A   1      36.284  33.754  33.464  1.00  0.00    -0.014 A 
BRANCH  41  42
ATOM     42  C   UNL A   1      37.511  33.002  33.831  1.00  0.00     0.031 A 
ATOM     43  C   UNL A   1      38.329  33.420  35.023  1.00  0.00     0.074 A 
ATOM     44  C   UNL A   1      37.929  31.991  33.046  1.00  0.00     0.049 A 
ATOM     45  N   UNL A   1      39.436  32.899  35.486  1.00  0.00    -0.248 NA
ATOM     46  C   UNL A   1      37.858  34.593  35.779  1.00  0.00     0.031 C 
ATOM     47  C   UNL A   1      37.274  31.551  31.812  1.00  0.00     0.029 A 
ATOM     48  N   UNL A   1      39.018  31.163  33.156  1.00  0.00    -0.354 N 
ATOM     49  C   UNL A   1      39.811  33.697  36.560  1.00  0.00     0.074 A 
ATOM     50  C   UNL A   1      38.835  34.761  36.658  1.00  0.00     0.031 C 
ATOM     51  C   UNL A   1      37.969  30.530  31.285  1.00  0.00     0.029 A 
ATOM     52  C   UNL A   1      39.128  30.254  32.130  1.00  0.00     0.049 A 
ATOM     53  H   UNL A   1      39.660  31.214  33.900  1.00  0.00     0.167 HD
ATOM     54  C   UNL A   1      40.855  33.542  37.410  1.00  0.00     0.034 A 
ATOM     55  C   UNL A   1      40.054  29.304  31.898  1.00  0.00     0.034 A 
ATOM     56  C   UNL A   1      41.793  32.455  37.338  1.00  0.00     0.049 A 
ATOM     57  C   UNL A   1      41.163  29.109  32.897  1.00  0.00     0.074 A 
ATOM     58  C   UNL A   1      42.832  32.156  38.203  1.00  0.00     0.029 A 
ATOM     59  N   UNL A   1      41.813  31.490  36.343  1.00  0.00    -0.354 N 
ATOM     60  N   UNL A   1      41.404  29.770  34.003  1.00  0.00    -0.248 NA
ATOM     61  C   UNL A   1      42.102  28.008  32.638  1.00  0.00     0.031 C 
ATOM     62  C   UNL A   1      43.488  31.017  37.722  1.00  0.00     0.029 A 
ATOM     63  C   UNL A   1      42.843  30.594  36.570  1.00  0.00     0.049 A 
ATOM     64  H   UNL A   1      41.184  31.448  35.586  1.00  0.00     0.167 HD
ATOM     65  C   UNL A   1      42.496  29.142  34.592  1.00  0.00     0.074 A 
ATOM     66  C   UNL A   1      42.854  28.034  33.730  1.00  0.00     0.031 C 
ATOM     67  C   UNL A   1      43.153  29.463  35.734  1.00  0.00     0.034 A 
BRANCH  54  68
ATOM     68  C   UNL A   1      40.996  34.537  38.532  1.00  0.00     0.023 A 
ATOM     69  C   UNL A   1      41.956  35.566  38.429  1.00  0.00     0.012 A 
ATOM     70  C   UNL A   1      40.152  34.493  39.657  1.00  0.00     0.148 A 
ATOM     71  C   UNL A   1      42.100  36.510  39.444  1.00  0.00     0.002 A 
ATOM     72  C   UNL A   1      40.270  35.465  40.645  1.00  0.00     0.091 A 
ATOM     73  F   UNL A   1      39.259  33.496  39.750  1.00  0.00    -0.205 F 
ATOM     74  C   UNL A   1      41.250  36.467  40.546  1.00  0.00     0.022 A 
BRANCH  72  75
ATOM     75  S   UNL A   1      39.172  35.543  42.064  1.00  0.00     0.127 S 
ATOM     76  O   UNL A   1      39.560  34.342  42.804  1.00  0.00    -0.237 OA
ATOM     77  O   UNL A   1      39.572  36.801  42.695  1.00  0.00    -0.237 OA
ATOM     78  O   UNL A   1      37.819  35.537  41.526  1.00  0.00    -0.744 OA
ENDBRANCH  72  75
ENDBRANCH  54  68
BRANCH  55  79
ATOM     79  C   UNL A   1      39.921  28.406  30.716  1.00  0.00     0.023 A 
ATOM     80  C   UNL A   1      39.061  27.292  30.789  1.00  0.00     0.012 A 
ATOM     81  C   UNL A   1      40.614  28.661  29.518  1.00  0.00     0.148 A 
ATOM     82  C   UNL A   1      38.922  26.428  29.702  1.00  0.00     0.002 A 
ATOM     83  C   UNL A   1      40.427  27.828  28.421  1.00  0.00     0.091 A 
ATOM     84  F   UNL A   1      41.435  29.720  29.471  1.00  0.00    -0.205 F 
ATOM     85  C   UNL A   1      39.596  26.701  28.516  1.00  0.00     0.022 A 
BRANCH  83  86
ATOM     86  S   UNL A   1      41.152  28.177  26.814  1.00  0.00     0.127 S 
ATOM     87  O   UNL A   1      40.235  29.183  26.284  1.00  0.00    -0.237 OA
ATOM     88  O   UNL A   1      42.475  28.681  27.181  1.00  0.00    -0.237 OA
ATOM     89  O   UNL A   1      41.172  26.902  26.110  1.00  0.00    -0.744 OA
ENDBRANCH  83  86
ENDBRANCH  55  79
BRANCH  67  90
ATOM     90  C   UNL A   1      44.304  28.583  36.145  1.00  0.00     0.023 A 
ATOM     91  C   UNL A   1      45.596  28.840  35.646  1.00  0.00     0.012 A 
ATOM     92  C   UNL A   1      44.116  27.541  37.074  1.00  0.00     0.148 A 
ATOM     93  C   UNL A   1      46.676  28.048  36.034  1.00  0.00     0.002 A 
ATOM     94  C   UNL A   1      45.206  26.788  37.494  1.00  0.00     0.091 A 
ATOM     95  F   UNL A   1      42.877  27.297  37.524  1.00  0.00    -0.205 F 
ATOM     96  C   UNL A   1      46.484  27.031  36.965  1.00  0.00     0.022 A 
BRANCH  94  97
ATOM     97  S   UNL A   1      45.062  25.524  38.763  1.00  0.00     0.127 S 
ATOM     98  O   UNL A   1      44.399  24.444  38.034  1.00  0.00    -0.237 OA
ATOM     99  O   UNL A   1      46.460  25.260  39.104  1.00  0.00    -0.237 OA
ATOM    100  O   UNL A   1      44.286  26.129  39.837  1.00  0.00    -0.744 OA
ENDBRANCH  94  97
ENDBRANCH  67  90
ENDBRANCH  41  42
ENDBRANCH  33  36
ENDBRANCH  31  32
ENDBRANCH  30  31
ENDBRANCH  29  30
ENDBRANCH   1  29
TORSDOF 19
ENDMDL
