MODEL 1
REMARK VINA RESULT:     -12.2      0.000      0.000
REMARK SMILES Cc1cc(Br)c(C)c([C@@H]2[NH2+][C@H](C(=O)NCCCCNC(=O)c3ccc(-c4c5nc(c(-c6cccc(S(=O)(=O)[O-])c6F)c6ccc([nH]6)c(-c6cccc(S(=O)(=O)[O-])c6F)c6nc(c(-c7cccc(S(=O)(=O)[O-])c7F)c7ccc4[nH]7)C=C6)C=C5)cc3)CS2)c1O
REMARK SMILES IDX 17 1 16 2 15 3 14 4 12 5 13 6 11 8 9 9 10 10 86 11 85 14
REMARK SMILES IDX 8 15 1 16 2 17 3 18 87 19 4 20 5 21 6 22 7 23 88 24 18 26
REMARK SMILES IDX 19 27 20 28 21 30 22 31 23 32 84 33 24 34 83 35 25 36 26 37
REMARK SMILES IDX 27 38 77 39 28 40 82 41 76 42 78 43 29 44 81 45 75 46 74 47
REMARK SMILES IDX 30 49 62 50 42 51 61 52 43 53 46 54 60 55 79 56 44 57 45 58
REMARK SMILES IDX 59 60 80 61 47 62 31 63 32 64 40 65 33 66 35 67 41 68 34 69
REMARK SMILES IDX 36 70 37 71 38 72 39 73 63 74 64 75 72 76 65 77 67 78 73 79
REMARK SMILES IDX 66 80 68 81 69 82 70 83 71 84 48 85 49 86 57 87 50 88 52 89
REMARK SMILES IDX 58 90 51 91 53 92 54 93 55 94 56 95
REMARK H PARENT 14 7 10 12 10 13 88 25 19 29 78 48 46 59
REMARK Flexibility Score: inf
ROOT
ATOM      1  C   UNL A   1      32.778  29.698  25.016  1.00  0.00     0.023 C 
ENDROOT
BRANCH   1   2
ATOM      2  C   UNL A   1      33.093  28.228  24.764  1.00  0.00     0.023 C 
BRANCH   2   3
ATOM      3  C   UNL A   1      33.108  27.787  23.304  1.00  0.00     0.116 C 
BRANCH   3   4
ATOM      4  N   UNL A   1      33.682  26.479  23.024  1.00  0.00    -0.351 N 
ATOM      5  C   UNL A   1      33.148  25.300  22.601  1.00  0.00     0.279 C 
ATOM      6  O   UNL A   1      33.942  24.604  21.947  1.00  0.00    -0.268 OA
ATOM      7  H   UNL A   1      34.656  26.438  23.169  1.00  0.00     0.163 HD
BRANCH   5   8
ATOM      8  C   UNL A   1      31.752  24.719  22.936  1.00  0.00     0.283 C 
ATOM      9  C   UNL A   1      31.757  22.538  24.032  1.00  0.00     0.278 C 
ATOM     10  N   UNL A   1      31.697  23.247  22.749  1.00  0.00    -0.320 N 
ATOM     11  S   UNL A   1      31.051  23.678  25.276  1.00  0.00    -0.087 SA
ATOM     12  H   UNL A   1      30.826  23.004  22.278  1.00  0.00     0.348 HD
ATOM     13  H   UNL A   1      32.504  22.965  22.192  1.00  0.00     0.348 HD
ATOM     14  C   UNL A   1      31.012  25.117  24.189  1.00  0.00     0.151 C 
BRANCH   9  15
ATOM     15  C   UNL A   1      33.083  21.849  24.419  1.00  0.00     0.066 A 
ATOM     16  C   UNL A   1      36.578  22.803  25.757  1.00  0.00     0.048 C 
ATOM     17  C   UNL A   1      35.445  21.980  25.205  1.00  0.00    -0.008 A 
ATOM     18  C   UNL A   1      35.576  20.604  25.085  1.00  0.00     0.023 A 
ATOM     19  C   UNL A   1      34.221  22.573  24.853  1.00  0.00     0.128 A 
ATOM     20  C   UNL A   1      34.502  19.841  24.627  1.00  0.00     0.021 A 
ATOM     21  Br  UNL A   1      34.821  17.963  24.502  1.00  0.00    -0.051 Br
ATOM     22  C   UNL A   1      33.255  20.432  24.287  1.00  0.00    -0.023 A 
ATOM     23  C   UNL A   1      32.143  19.515  23.826  1.00  0.00     0.046 C 
BRANCH  19  24
ATOM     24  O   UNL A   1      34.206  23.935  24.920  1.00  0.00    -0.507 OA
ATOM     25  H   UNL A   1      34.205  24.442  24.132  1.00  0.00     0.293 HD
ENDBRANCH  19  24
ENDBRANCH   9  15
ENDBRANCH   5   8
ENDBRANCH   3   4
ENDBRANCH   2   3
ENDBRANCH   1   2
BRANCH   1  26
ATOM     26  C   UNL A   1      32.216  30.011  26.392  1.00  0.00     0.116 C 
BRANCH  26  27
ATOM     27  N   UNL A   1      32.071  31.438  26.659  1.00  0.00    -0.352 N 
ATOM     28  C   UNL A   1      32.922  32.300  27.323  1.00  0.00     0.251 C 
ATOM     29  H   UNL A   1      31.245  31.847  26.315  1.00  0.00     0.163 HD
ATOM     30  O   UNL A   1      32.567  33.462  27.516  1.00  0.00    -0.269 OA
BRANCH  28  31
ATOM     31  C   UNL A   1      34.230  31.825  27.844  1.00  0.00     0.039 A 
ATOM     32  C   UNL A   1      34.421  30.492  28.198  1.00  0.00     0.014 A 
ATOM     33  C   UNL A   1      35.285  32.733  28.009  1.00  0.00     0.014 A 
ATOM     34  C   UNL A   1      35.553  30.117  28.910  1.00  0.00     0.010 A 
ATOM     35  C   UNL A   1      36.485  32.317  28.606  1.00  0.00     0.010 A 
ATOM     36  C   UNL A   1      36.613  31.016  29.112  1.00  0.00    -0.014 A 
BRANCH  36  37
ATOM     37  C   UNL A   1      37.838  30.544  29.823  1.00  0.00     0.031 A 
ATOM     38  C   UNL A   1      38.107  30.914  31.261  1.00  0.00     0.074 A 
ATOM     39  C   UNL A   1      38.693  29.723  29.176  1.00  0.00     0.049 A 
ATOM     40  N   UNL A   1      39.123  30.582  32.017  1.00  0.00    -0.248 NA
ATOM     41  C   UNL A   1      37.119  31.769  31.939  1.00  0.00     0.031 C 
ATOM     42  C   UNL A   1      38.556  29.303  27.779  1.00  0.00     0.029 A 
ATOM     43  N   UNL A   1      39.824  29.072  29.602  1.00  0.00    -0.354 N 
ATOM     44  C   UNL A   1      38.927  31.228  33.234  1.00  0.00     0.074 A 
ATOM     45  C   UNL A   1      37.693  31.975  33.117  1.00  0.00     0.031 C 
ATOM     46  C   UNL A   1      39.511  28.411  27.488  1.00  0.00     0.029 A 
ATOM     47  C   UNL A   1      40.390  28.265  28.641  1.00  0.00     0.049 A 
ATOM     48  H   UNL A   1      40.196  29.174  30.508  1.00  0.00     0.167 HD
ATOM     49  C   UNL A   1      39.694  31.188  34.350  1.00  0.00     0.034 A 
ATOM     50  C   UNL A   1      41.504  27.506  28.666  1.00  0.00     0.034 A 
ATOM     51  C   UNL A   1      40.889  30.395  34.481  1.00  0.00     0.049 A 
ATOM     52  C   UNL A   1      42.329  27.475  29.920  1.00  0.00     0.074 A 
ATOM     53  C   UNL A   1      41.713  30.262  35.586  1.00  0.00     0.029 A 
ATOM     54  N   UNL A   1      41.428  29.595  33.484  1.00  0.00    -0.354 N 
ATOM     55  N   UNL A   1      42.090  28.046  31.075  1.00  0.00    -0.248 NA
ATOM     56  C   UNL A   1      43.572  26.694  29.878  1.00  0.00     0.031 C 
ATOM     57  C   UNL A   1      42.757  29.395  35.252  1.00  0.00     0.029 A 
ATOM     58  C   UNL A   1      42.574  28.970  33.946  1.00  0.00     0.049 A 
ATOM     59  H   UNL A   1      41.050  29.487  32.581  1.00  0.00     0.167 HD
ATOM     60  C   UNL A   1      43.149  27.691  31.901  1.00  0.00     0.074 A 
ATOM     61  C   UNL A   1      44.010  26.821  31.124  1.00  0.00     0.031 C 
ATOM     62  C   UNL A   1      43.399  28.074  33.177  1.00  0.00     0.034 A 
BRANCH  49  63
ATOM     63  C   UNL A   1      39.254  31.992  35.549  1.00  0.00     0.023 A 
ATOM     64  C   UNL A   1      39.502  33.380  35.585  1.00  0.00     0.012 A 
ATOM     65  C   UNL A   1      38.507  31.399  36.587  1.00  0.00     0.148 A 
ATOM     66  C   UNL A   1      39.034  34.158  36.645  1.00  0.00     0.002 A 
ATOM     67  C   UNL A   1      38.006  32.189  37.617  1.00  0.00     0.091 A 
ATOM     68  F   UNL A   1      38.291  30.076  36.543  1.00  0.00    -0.205 F 
ATOM     69  C   UNL A   1      38.278  33.566  37.652  1.00  0.00     0.022 A 
BRANCH  67  70
ATOM     70  S   UNL A   1      36.948  31.540  38.917  1.00  0.00     0.127 S 
ATOM     71  O   UNL A   1      37.811  31.668  40.091  1.00  0.00    -0.237 OA
ATOM     72  O   UNL A   1      35.819  32.469  38.887  1.00  0.00    -0.237 OA
ATOM     73  O   UNL A   1      36.623  30.174  38.529  1.00  0.00    -0.744 OA
ENDBRANCH  67  70
ENDBRANCH  49  63
BRANCH  50  74
ATOM     74  C   UNL A   1      41.869  26.694  27.469  1.00  0.00     0.023 A 
ATOM     75  C   UNL A   1      42.625  27.283  26.438  1.00  0.00     0.012 A 
ATOM     76  C   UNL A   1      41.546  25.324  27.386  1.00  0.00     0.148 A 
ATOM     77  C   UNL A   1      43.048  26.524  25.345  1.00  0.00     0.002 A 
ATOM     78  C   UNL A   1      42.032  24.559  26.332  1.00  0.00     0.091 A 
ATOM     79  F   UNL A   1      40.802  24.786  28.363  1.00  0.00    -0.205 F 
ATOM     80  C   UNL A   1      42.769  25.160  25.302  1.00  0.00     0.022 A 
BRANCH  78  81
ATOM     81  S   UNL A   1      41.871  22.770  26.294  1.00  0.00     0.127 S 
ATOM     82  O   UNL A   1      42.652  22.425  25.109  1.00  0.00    -0.237 OA
ATOM     83  O   UNL A   1      42.480  22.385  27.568  1.00  0.00    -0.237 OA
ATOM     84  O   UNL A   1      40.441  22.508  26.211  1.00  0.00    -0.744 OA
ENDBRANCH  78  81
ENDBRANCH  50  74
BRANCH  62  85
ATOM     85  C   UNL A   1      44.656  27.560  33.827  1.00  0.00     0.023 A 
ATOM     86  C   UNL A   1      45.794  28.388  33.882  1.00  0.00     0.012 A 
ATOM     87  C   UNL A   1      44.680  26.304  34.465  1.00  0.00     0.148 A 
ATOM     88  C   UNL A   1      46.945  27.966  34.546  1.00  0.00     0.002 A 
ATOM     89  C   UNL A   1      45.814  25.910  35.166  1.00  0.00     0.091 A 
ATOM     90  F   UNL A   1      43.591  25.524  34.383  1.00  0.00    -0.205 F 
ATOM     91  C   UNL A   1      46.950  26.735  35.198  1.00  0.00     0.022 A 
BRANCH  89  92
ATOM     92  S   UNL A   1      45.879  24.389  36.119  1.00  0.00     0.127 S 
ATOM     93  O   UNL A   1      47.319  24.210  36.296  1.00  0.00    -0.237 OA
ATOM     94  O   UNL A   1      45.156  24.755  37.337  1.00  0.00    -0.237 OA
ATOM     95  O   UNL A   1      45.220  23.376  35.306  1.00  0.00    -0.744 OA
ENDBRANCH  89  92
ENDBRANCH  62  85
ENDBRANCH  36  37
ENDBRANCH  28  31
ENDBRANCH  26  27
ENDBRANCH   1  26
TORSDOF 16
ENDMDL
MODEL 2
REMARK VINA RESULT:     -12.1      5.368     10.395
REMARK SMILES Cc1cc(Br)c(C)c([C@@H]2[NH2+][C@H](C(=O)NCCCCNC(=O)c3ccc(-c4c5nc(c(-c6cccc(S(=O)(=O)[O-])c6F)c6ccc([nH]6)c(-c6cccc(S(=O)(=O)[O-])c6F)c6nc(c(-c7cccc(S(=O)(=O)[O-])c7F)c7ccc4[nH]7)C=C6)C=C5)cc3)CS2)c1O
REMARK SMILES IDX 17 1 16 2 15 3 14 4 12 5 13 6 11 8 9 9 10 10 86 11 85 14
REMARK SMILES IDX 8 15 1 16 2 17 3 18 87 19 4 20 5 21 6 22 7 23 88 24 18 26
REMARK SMILES IDX 19 27 20 28 21 30 22 31 23 32 84 33 24 34 83 35 25 36 26 37
REMARK SMILES IDX 27 38 77 39 28 40 82 41 76 42 78 43 29 44 81 45 75 46 74 47
REMARK SMILES IDX 30 49 62 50 42 51 61 52 43 53 46 54 60 55 79 56 44 57 45 58
REMARK SMILES IDX 59 60 80 61 47 62 31 63 32 64 40 65 33 66 35 67 41 68 34 69
REMARK SMILES IDX 36 70 37 71 38 72 39 73 63 74 64 75 72 76 65 77 67 78 73 79
REMARK SMILES IDX 66 80 68 81 69 82 70 83 71 84 48 85 49 86 57 87 50 88 52 89
REMARK SMILES IDX 58 90 51 91 53 92 54 93 55 94 56 95
REMARK H PARENT 14 7 10 12 10 13 88 25 19 29 78 48 46 59
REMARK Flexibility Score: inf
ROOT
ATOM      1  C   UNL A   1      36.406  20.814  25.100  1.00  0.00     0.023 C 
ENDROOT
BRANCH   1   2
ATOM      2  C   UNL A   1      35.229  21.742  25.376  1.00  0.00     0.023 C 
BRANCH   2   3
ATOM      3  C   UNL A   1      34.415  21.437  26.629  1.00  0.00     0.116 C 
BRANCH   3   4
ATOM      4  N   UNL A   1      33.475  22.462  27.062  1.00  0.00    -0.351 N 
ATOM      5  C   UNL A   1      32.158  22.684  26.804  1.00  0.00     0.279 C 
ATOM      6  O   UNL A   1      31.562  23.260  27.730  1.00  0.00    -0.268 OA
ATOM      7  H   UNL A   1      33.875  23.131  27.665  1.00  0.00     0.163 HD
BRANCH   5   8
ATOM      8  C   UNL A   1      31.391  22.404  25.487  1.00  0.00     0.283 C 
ATOM      9  C   UNL A   1      30.985  24.353  24.074  1.00  0.00     0.278 C 
ATOM     10  N   UNL A   1      30.451  23.501  25.142  1.00  0.00    -0.320 N 
ATOM     11  S   UNL A   1      32.100  23.291  23.087  1.00  0.00    -0.087 SA
ATOM     12  H   UNL A   1      29.568  23.096  24.831  1.00  0.00     0.348 HD
ATOM     13  H   UNL A   1      30.314  24.078  25.972  1.00  0.00     0.348 HD
ATOM     14  C   UNL A   1      32.100  21.912  24.250  1.00  0.00     0.151 C 
BRANCH   9  15
ATOM     15  C   UNL A   1      31.537  25.741  24.462  1.00  0.00     0.066 A 
ATOM     16  C   UNL A   1      31.504  28.149  27.481  1.00  0.00     0.048 C 
ATOM     17  C   UNL A   1      31.745  27.612  26.095  1.00  0.00    -0.008 A 
ATOM     18  C   UNL A   1      32.495  28.342  25.185  1.00  0.00     0.023 A 
ATOM     19  C   UNL A   1      31.266  26.348  25.713  1.00  0.00     0.128 A 
ATOM     20  C   UNL A   1      32.764  27.814  23.923  1.00  0.00     0.021 A 
ATOM     21  Br  UNL A   1      33.800  28.926  22.768  1.00  0.00    -0.051 Br
ATOM     22  C   UNL A   1      32.298  26.527  23.535  1.00  0.00    -0.023 A 
ATOM     23  C   UNL A   1      32.665  26.031  22.154  1.00  0.00     0.046 C 
BRANCH  19  24
ATOM     24  O   UNL A   1      30.468  25.736  26.634  1.00  0.00    -0.507 OA
ATOM     25  H   UNL A   1      29.651  26.126  26.877  1.00  0.00     0.293 HD
ENDBRANCH  19  24
ENDBRANCH   9  15
ENDBRANCH   5   8
ENDBRANCH   3   4
ENDBRANCH   2   3
ENDBRANCH   1   2
BRANCH   1  26
ATOM     26  C   UNL A   1      37.778  21.429  25.315  1.00  0.00     0.116 C 
BRANCH  26  27
ATOM     27  N   UNL A   1      38.802  20.466  25.704  1.00  0.00    -0.352 N 
ATOM     28  C   UNL A   1      39.988  20.667  26.383  1.00  0.00     0.251 C 
ATOM     29  H   UNL A   1      38.621  19.534  25.444  1.00  0.00     0.163 HD
ATOM     30  O   UNL A   1      40.760  19.721  26.535  1.00  0.00    -0.269 OA
BRANCH  28  31
ATOM     31  C   UNL A   1      40.358  22.017  26.883  1.00  0.00     0.039 A 
ATOM     32  C   UNL A   1      39.891  23.169  26.254  1.00  0.00     0.014 A 
ATOM     33  C   UNL A   1      41.209  22.141  27.988  1.00  0.00     0.014 A 
ATOM     34  C   UNL A   1      40.439  24.405  26.571  1.00  0.00     0.010 A 
ATOM     35  C   UNL A   1      41.654  23.407  28.396  1.00  0.00     0.010 A 
ATOM     36  C   UNL A   1      41.316  24.551  27.658  1.00  0.00    -0.014 A 
BRANCH  36  37
ATOM     37  C   UNL A   1      41.823  25.913  28.003  1.00  0.00     0.031 A 
ATOM     38  C   UNL A   1      43.206  26.363  27.603  1.00  0.00     0.074 A 
ATOM     39  C   UNL A   1      41.000  26.774  28.638  1.00  0.00     0.049 A 
ATOM     40  N   UNL A   1      43.790  27.514  27.826  1.00  0.00    -0.248 NA
ATOM     41  C   UNL A   1      44.047  25.405  26.866  1.00  0.00     0.031 C 
ATOM     42  C   UNL A   1      39.644  26.456  29.095  1.00  0.00     0.029 A 
ATOM     43  N   UNL A   1      41.160  28.092  28.988  1.00  0.00    -0.354 N 
ATOM     44  C   UNL A   1      45.078  27.400  27.310  1.00  0.00     0.074 A 
ATOM     45  C   UNL A   1      45.192  26.066  26.762  1.00  0.00     0.031 C 
ATOM     46  C   UNL A   1      39.071  27.561  29.589  1.00  0.00     0.029 A 
ATOM     47  C   UNL A   1      40.046  28.645  29.579  1.00  0.00     0.049 A 
ATOM     48  H   UNL A   1      41.992  28.594  28.832  1.00  0.00     0.167 HD
ATOM     49  C   UNL A   1      46.066  28.327  27.280  1.00  0.00     0.034 A 
ATOM     50  C   UNL A   1      39.829  29.876  30.080  1.00  0.00     0.034 A 
ATOM     51  C   UNL A   1      45.925  29.673  27.773  1.00  0.00     0.049 A 
ATOM     52  C   UNL A   1      40.939  30.885  30.025  1.00  0.00     0.074 A 
ATOM     53  C   UNL A   1      46.859  30.695  27.752  1.00  0.00     0.029 A 
ATOM     54  N   UNL A   1      44.782  30.190  28.364  1.00  0.00    -0.354 N 
ATOM     55  N   UNL A   1      42.125  30.772  29.479  1.00  0.00    -0.248 NA
ATOM     56  C   UNL A   1      40.684  32.190  30.649  1.00  0.00     0.031 C 
ATOM     57  C   UNL A   1      46.287  31.824  28.345  1.00  0.00     0.029 A 
ATOM     58  C   UNL A   1      44.989  31.514  28.717  1.00  0.00     0.049 A 
ATOM     59  H   UNL A   1      43.947  29.690  28.512  1.00  0.00     0.167 HD
ATOM     60  C   UNL A   1      42.757  31.991  29.687  1.00  0.00     0.074 A 
ATOM     61  C   UNL A   1      41.806  32.842  30.376  1.00  0.00     0.031 C 
ATOM     62  C   UNL A   1      44.020  32.362  29.364  1.00  0.00     0.034 A 
BRANCH  49  63
ATOM     63  C   UNL A   1      47.386  27.945  26.657  1.00  0.00     0.023 A 
ATOM     64  C   UNL A   1      48.449  27.526  27.483  1.00  0.00     0.012 A 
ATOM     65  C   UNL A   1      47.542  27.899  25.256  1.00  0.00     0.148 A 
ATOM     66  C   UNL A   1      49.653  27.091  26.926  1.00  0.00     0.002 A 
ATOM     67  C   UNL A   1      48.729  27.423  24.709  1.00  0.00     0.091 A 
ATOM     68  F   UNL A   1      46.525  28.313  24.486  1.00  0.00    -0.205 F 
ATOM     69  C   UNL A   1      49.787  27.028  25.543  1.00  0.00     0.022 A 
BRANCH  67  70
ATOM     70  S   UNL A   1      48.973  27.220  22.940  1.00  0.00     0.127 S 
ATOM     71  O   UNL A   1      50.430  27.134  22.851  1.00  0.00    -0.237 OA
ATOM     72  O   UNL A   1      48.271  25.964  22.674  1.00  0.00    -0.237 OA
ATOM     73  O   UNL A   1      48.379  28.393  22.313  1.00  0.00    -0.744 OA
ENDBRANCH  67  70
ENDBRANCH  49  63
BRANCH  50  74
ATOM     74  C   UNL A   1      38.489  30.217  30.643  1.00  0.00     0.023 A 
ATOM     75  C   UNL A   1      38.206  29.911  31.987  1.00  0.00     0.012 A 
ATOM     76  C   UNL A   1      37.531  30.917  29.883  1.00  0.00     0.148 A 
ATOM     77  C   UNL A   1      36.991  30.291  32.561  1.00  0.00     0.002 A 
ATOM     78  C   UNL A   1      36.355  31.355  30.480  1.00  0.00     0.091 A 
ATOM     79  F   UNL A   1      37.806  31.175  28.596  1.00  0.00    -0.205 F 
ATOM     80  C   UNL A   1      36.075  31.028  31.815  1.00  0.00     0.022 A 
BRANCH  78  81
ATOM     81  S   UNL A   1      35.210  32.458  29.645  1.00  0.00     0.127 S 
ATOM     82  O   UNL A   1      34.658  31.590  28.610  1.00  0.00    -0.237 OA
ATOM     83  O   UNL A   1      34.281  32.802  30.723  1.00  0.00    -0.237 OA
ATOM     84  O   UNL A   1      36.017  33.575  29.173  1.00  0.00    -0.744 OA
ENDBRANCH  78  81
ENDBRANCH  50  74
BRANCH  62  85
ATOM     85  C   UNL A   1      44.460  33.750  29.746  1.00  0.00     0.023 A 
ATOM     86  C   UNL A   1      45.175  33.942  30.944  1.00  0.00     0.012 A 
ATOM     87  C   UNL A   1      44.254  34.839  28.879  1.00  0.00     0.148 A 
ATOM     88  C   UNL A   1      45.662  35.204  31.284  1.00  0.00     0.002 A 
ATOM     89  C   UNL A   1      44.783  36.084  29.200  1.00  0.00     0.091 A 
ATOM     90  F   UNL A   1      43.554  34.638  27.752  1.00  0.00    -0.205 F 
ATOM     91  C   UNL A   1      45.478  36.270  30.406  1.00  0.00     0.022 A 
BRANCH  89  92
ATOM     92  S   UNL A   1      44.684  37.492  28.087  1.00  0.00     0.127 S 
ATOM     93  O   UNL A   1      45.211  36.927  26.846  1.00  0.00    -0.237 OA
ATOM     94  O   UNL A   1      43.248  37.771  28.068  1.00  0.00    -0.237 OA
ATOM     95  O   UNL A   1      45.496  38.539  28.690  1.00  0.00    -0.744 OA
ENDBRANCH  89  92
ENDBRANCH  62  85
ENDBRANCH  36  37
ENDBRANCH  28  31
ENDBRANCH  26  27
ENDBRANCH   1  26
TORSDOF 16
ENDMDL
MODEL 3
REMARK VINA RESULT:     -12.1      2.298      8.227
REMARK SMILES Cc1cc(Br)c(C)c([C@@H]2[NH2+][C@H](C(=O)NCCCCNC(=O)c3ccc(-c4c5nc(c(-c6cccc(S(=O)(=O)[O-])c6F)c6ccc([nH]6)c(-c6cccc(S(=O)(=O)[O-])c6F)c6nc(c(-c7cccc(S(=O)(=O)[O-])c7F)c7ccc4[nH]7)C=C6)C=C5)cc3)CS2)c1O
REMARK SMILES IDX 17 1 16 2 15 3 14 4 12 5 13 6 11 8 9 9 10 10 86 11 85 14
REMARK SMILES IDX 8 15 1 16 2 17 3 18 87 19 4 20 5 21 6 22 7 23 88 24 18 26
REMARK SMILES IDX 19 27 20 28 21 30 22 31 23 32 84 33 24 34 83 35 25 36 26 37
REMARK SMILES IDX 27 38 77 39 28 40 82 41 76 42 78 43 29 44 81 45 75 46 74 47
REMARK SMILES IDX 30 49 62 50 42 51 61 52 43 53 46 54 60 55 79 56 44 57 45 58
REMARK SMILES IDX 59 60 80 61 47 62 31 63 32 64 40 65 33 66 35 67 41 68 34 69
REMARK SMILES IDX 36 70 37 71 38 72 39 73 63 74 64 75 72 76 65 77 67 78 73 79
REMARK SMILES IDX 66 80 68 81 69 82 70 83 71 84 48 85 49 86 57 87 50 88 52 89
REMARK SMILES IDX 58 90 51 91 53 92 54 93 55 94 56 95
REMARK H PARENT 14 7 10 12 10 13 88 25 19 29 78 48 46 59
REMARK Flexibility Score: inf
ROOT
ATOM      1  C   UNL A   1      31.492  28.439  26.225  1.00  0.00     0.023 C 
ENDROOT
BRANCH   1   2
ATOM      2  C   UNL A   1      31.975  27.290  27.103  1.00  0.00     0.023 C 
BRANCH   2   3
ATOM      3  C   UNL A   1      31.912  25.899  26.482  1.00  0.00     0.116 C 
BRANCH   3   4
ATOM      4  N   UNL A   1      30.731  25.103  26.783  1.00  0.00    -0.351 N 
ATOM      5  C   UNL A   1      30.459  23.772  26.693  1.00  0.00     0.279 C 
ATOM      6  O   UNL A   1      29.622  23.381  27.523  1.00  0.00    -0.268 OA
ATOM      7  H   UNL A   1      29.974  25.635  27.121  1.00  0.00     0.163 HD
BRANCH   5   8
ATOM      8  C   UNL A   1      30.981  22.769  25.634  1.00  0.00     0.283 C 
ATOM      9  C   UNL A   1      31.560  23.734  23.468  1.00  0.00     0.278 C 
ATOM     10  N   UNL A   1      30.506  23.100  24.266  1.00  0.00    -0.320 N 
ATOM     11  S   UNL A   1      33.146  23.115  24.137  1.00  0.00    -0.087 SA
ATOM     12  H   UNL A   1      30.211  22.241  23.801  1.00  0.00     0.348 HD
ATOM     13  H   UNL A   1      29.729  23.756  24.347  1.00  0.00     0.348 HD
ATOM     14  C   UNL A   1      32.426  22.340  25.598  1.00  0.00     0.151 C 
BRANCH   9  15
ATOM     15  C   UNL A   1      31.473  25.257  23.231  1.00  0.00     0.066 A 
ATOM     16  C   UNL A   1      28.804  28.048  23.183  1.00  0.00     0.048 C 
ATOM     17  C   UNL A   1      30.127  27.347  23.037  1.00  0.00    -0.008 A 
ATOM     18  C   UNL A   1      31.271  28.071  22.733  1.00  0.00     0.023 A 
ATOM     19  C   UNL A   1      30.245  25.964  23.257  1.00  0.00     0.128 A 
ATOM     20  C   UNL A   1      32.504  27.424  22.655  1.00  0.00     0.021 A 
ATOM     21  Br  UNL A   1      33.992  28.538  22.221  1.00  0.00    -0.051 Br
ATOM     22  C   UNL A   1      32.634  26.029  22.895  1.00  0.00    -0.023 A 
ATOM     23  C   UNL A   1      34.019  25.425  22.814  1.00  0.00     0.046 C 
BRANCH  19  24
ATOM     24  O   UNL A   1      29.064  25.316  23.466  1.00  0.00    -0.507 OA
ATOM     25  H   UNL A   1      28.262  25.800  23.482  1.00  0.00     0.293 HD
ENDBRANCH  19  24
ENDBRANCH   9  15
ENDBRANCH   5   8
ENDBRANCH   3   4
ENDBRANCH   2   3
ENDBRANCH   1   2
BRANCH   1  26
ATOM     26  C   UNL A   1      32.558  29.451  25.841  1.00  0.00     0.116 C 
BRANCH  26  27
ATOM     27  N   UNL A   1      32.249  30.816  26.250  1.00  0.00    -0.352 N 
ATOM     28  C   UNL A   1      32.961  31.674  27.066  1.00  0.00     0.251 C 
ATOM     29  H   UNL A   1      31.408  31.181  25.890  1.00  0.00     0.163 HD
ATOM     30  O   UNL A   1      32.475  32.766  27.357  1.00  0.00    -0.269 OA
BRANCH  28  31
ATOM     31  C   UNL A   1      34.275  31.270  27.630  1.00  0.00     0.039 A 
ATOM     32  C   UNL A   1      34.530  29.947  27.982  1.00  0.00     0.014 A 
ATOM     33  C   UNL A   1      35.270  32.235  27.837  1.00  0.00     0.014 A 
ATOM     34  C   UNL A   1      35.656  29.632  28.732  1.00  0.00     0.010 A 
ATOM     35  C   UNL A   1      36.470  31.884  28.473  1.00  0.00     0.010 A 
ATOM     36  C   UNL A   1      36.655  30.588  28.976  1.00  0.00    -0.014 A 
BRANCH  36  37
ATOM     37  C   UNL A   1      37.879  30.181  29.727  1.00  0.00     0.031 A 
ATOM     38  C   UNL A   1      38.948  29.329  29.089  1.00  0.00     0.074 A 
ATOM     39  C   UNL A   1      38.053  30.635  30.987  1.00  0.00     0.049 A 
ATOM     40  N   UNL A   1      40.069  28.894  29.609  1.00  0.00    -0.248 NA
ATOM     41  C   UNL A   1      38.736  28.902  27.697  1.00  0.00     0.031 C 
ATOM     42  C   UNL A   1      37.087  31.453  31.725  1.00  0.00     0.029 A 
ATOM     43  N   UNL A   1      39.103  30.504  31.862  1.00  0.00    -0.354 N 
ATOM     44  C   UNL A   1      40.665  28.101  28.633  1.00  0.00     0.074 A 
ATOM     45  C   UNL A   1      39.782  28.113  27.487  1.00  0.00     0.031 C 
ATOM     46  C   UNL A   1      37.617  31.815  32.900  1.00  0.00     0.029 A 
ATOM     47  C   UNL A   1      38.919  31.177  33.049  1.00  0.00     0.049 A 
ATOM     48  H   UNL A   1      39.911  29.978  31.661  1.00  0.00     0.167 HD
ATOM     49  C   UNL A   1      41.848  27.441  28.680  1.00  0.00     0.034 A 
ATOM     50  C   UNL A   1      39.692  31.260  34.149  1.00  0.00     0.034 A 
ATOM     51  C   UNL A   1      42.751  27.482  29.801  1.00  0.00     0.049 A 
ATOM     52  C   UNL A   1      41.001  30.525  34.169  1.00  0.00     0.074 A 
ATOM     53  C   UNL A   1      43.989  26.875  29.927  1.00  0.00     0.029 A 
ATOM     54  N   UNL A   1      42.525  28.173  30.982  1.00  0.00    -0.354 N 
ATOM     55  N   UNL A   1      41.569  29.833  33.213  1.00  0.00    -0.248 NA
ATOM     56  C   UNL A   1      41.777  30.583  35.415  1.00  0.00     0.031 C 
ATOM     57  C   UNL A   1      44.503  27.185  31.189  1.00  0.00     0.029 A 
ATOM     58  C   UNL A   1      43.597  28.004  31.843  1.00  0.00     0.049 A 
ATOM     59  H   UNL A   1      41.721  28.706  31.179  1.00  0.00     0.167 HD
ATOM     60  C   UNL A   1      42.772  29.377  33.737  1.00  0.00     0.074 A 
ATOM     61  C   UNL A   1      42.868  29.905  35.083  1.00  0.00     0.031 C 
ATOM     62  C   UNL A   1      43.698  28.570  33.164  1.00  0.00     0.034 A 
BRANCH  49  63
ATOM     63  C   UNL A   1      42.269  26.641  27.472  1.00  0.00     0.023 A 
ATOM     64  C   UNL A   1      43.046  27.254  26.468  1.00  0.00     0.012 A 
ATOM     65  C   UNL A   1      41.986  25.263  27.379  1.00  0.00     0.148 A 
ATOM     66  C   UNL A   1      43.515  26.516  25.381  1.00  0.00     0.002 A 
ATOM     67  C   UNL A   1      42.495  24.524  26.315  1.00  0.00     0.091 A 
ATOM     68  F   UNL A   1      41.235  24.698  28.335  1.00  0.00    -0.205 F 
ATOM     69  C   UNL A   1      43.250  25.152  25.311  1.00  0.00     0.022 A 
BRANCH  67  70
ATOM     70  S   UNL A   1      42.283  22.745  26.176  1.00  0.00     0.127 S 
ATOM     71  O   UNL A   1      42.891  22.476  24.873  1.00  0.00    -0.237 OA
ATOM     72  O   UNL A   1      43.054  22.253  27.319  1.00  0.00    -0.237 OA
ATOM     73  O   UNL A   1      40.851  22.500  26.258  1.00  0.00    -0.744 OA
ENDBRANCH  67  70
ENDBRANCH  49  63
BRANCH  50  74
ATOM     74  C   UNL A   1      39.251  32.103  35.299  1.00  0.00     0.023 A 
ATOM     75  C   UNL A   1      38.458  31.531  36.311  1.00  0.00     0.012 A 
ATOM     76  C   UNL A   1      39.681  33.438  35.437  1.00  0.00     0.148 A 
ATOM     77  C   UNL A   1      38.098  32.274  37.437  1.00  0.00     0.002 A 
ATOM     78  C   UNL A   1      39.380  34.148  36.593  1.00  0.00     0.091 A 
ATOM     79  F   UNL A   1      40.412  33.976  34.450  1.00  0.00    -0.205 F 
ATOM     80  C   UNL A   1      38.574  33.574  37.587  1.00  0.00     0.022 A 
BRANCH  78  81
ATOM     81  S   UNL A   1      40.100  35.756  36.944  1.00  0.00     0.127 S 
ATOM     82  O   UNL A   1      39.643  36.544  35.804  1.00  0.00    -0.237 OA
ATOM     83  O   UNL A   1      39.471  36.096  38.222  1.00  0.00    -0.237 OA
ATOM     84  O   UNL A   1      41.537  35.532  37.026  1.00  0.00    -0.744 OA
ENDBRANCH  78  81
ENDBRANCH  50  74
BRANCH  62  85
ATOM     85  C   UNL A   1      44.906  28.200  33.984  1.00  0.00     0.023 A 
ATOM     86  C   UNL A   1      46.039  29.036  33.962  1.00  0.00     0.012 A 
ATOM     87  C   UNL A   1      44.882  27.087  34.846  1.00  0.00     0.148 A 
ATOM     88  C   UNL A   1      47.140  28.759  34.771  1.00  0.00     0.002 A 
ATOM     89  C   UNL A   1      45.964  26.843  35.685  1.00  0.00     0.091 A 
ATOM     90  F   UNL A   1      43.800  26.293  34.837  1.00  0.00    -0.205 F 
ATOM     91  C   UNL A   1      47.097  27.672  35.641  1.00  0.00     0.022 A 
BRANCH  89  92
ATOM     92  S   UNL A   1      45.959  25.527  36.908  1.00  0.00     0.127 S 
ATOM     93  O   UNL A   1      44.787  25.873  37.711  1.00  0.00    -0.237 OA
ATOM     94  O   UNL A   1      45.798  24.333  36.079  1.00  0.00    -0.237 OA
ATOM     95  O   UNL A   1      47.237  25.616  37.600  1.00  0.00    -0.744 OA
ENDBRANCH  89  92
ENDBRANCH  62  85
ENDBRANCH  36  37
ENDBRANCH  28  31
ENDBRANCH  26  27
ENDBRANCH   1  26
TORSDOF 16
ENDMDL
