MODEL 1
REMARK VINA RESULT:     -12.0      0.000      0.000
REMARK SMILES COc1ccc(C2=NN(C(=O)CCC(=O)NCCCCNC(=O)c3ccc(-c4c5nc(c(-c6cccc(S(=O)(=O)[O-])c6F)c6ccc([nH]6)c(-c6cccc(S(=O)(=O)[O-])c6F)c6nc(c(-c7cccc(S(=O)(=O)[O-])c7F)c7ccc4[nH]7)C=C6)C=C5)cc3)[C@H](c3ccc(Cl)cc3Cl)C2)cc1
REMARK SMILES IDX 17 1 16 2 14 3 15 4 13 6 12 7 10 8 11 9 9 10 7 11 8 12 96 13
REMARK SMILES IDX 87 14 6 15 3 16 4 17 98 18 5 19 97 20 2 21 1 22 88 23 89 24
REMARK SMILES IDX 94 25 90 26 93 27 95 28 91 29 92 30 18 31 19 32 20 33 21 34
REMARK SMILES IDX 22 35 23 37 24 38 25 39 86 40 26 41 85 42 27 43 28 44 29 45
REMARK SMILES IDX 79 46 30 47 84 48 78 49 80 50 31 51 83 52 77 53 76 54 32 56
REMARK SMILES IDX 64 57 44 58 63 59 45 60 48 61 62 62 81 63 46 64 47 65 61 67
REMARK SMILES IDX 82 68 49 69 33 70 34 71 42 72 35 73 37 74 43 75 36 76 38 77
REMARK SMILES IDX 39 78 40 79 41 80 65 81 66 82 74 83 67 84 69 85 75 86 68 87
REMARK SMILES IDX 70 88 71 89 72 90 73 91 50 92 51 93 59 94 52 95 54 96 60 97
REMARK SMILES IDX 53 98 55 99 56 100 57 101 58 102
REMARK H PARENT 16 5 21 36 80 55 48 66
REMARK Flexibility Score: inf
ROOT
ATOM      1  C   UNL A   1      31.570  30.025  24.757  1.00  0.00     0.116 C 
ENDROOT
BRANCH   1   2
ATOM      2  N   UNL A   1      30.710  29.955  23.593  1.00  0.00    -0.356 N 
ATOM      3  C   UNL A   1      30.606  28.960  22.673  1.00  0.00     0.220 C 
ATOM      4  O   UNL A   1      29.577  28.878  22.001  1.00  0.00    -0.275 OA
ATOM      5  H   UNL A   1      30.121  30.732  23.450  1.00  0.00     0.163 HD
BRANCH   3   6
ATOM      6  C   UNL A   1      31.740  27.991  22.461  1.00  0.00     0.110 C 
BRANCH   6   7
ATOM      7  C   UNL A   1      31.412  26.655  21.799  1.00  0.00     0.112 C 
BRANCH   7   8
ATOM      8  C   UNL A   1      32.349  25.459  21.897  1.00  0.00     0.243 C 
ATOM      9  O   UNL A   1      33.235  25.372  21.034  1.00  0.00    -0.273 OA
BRANCH   8  10
ATOM     10  N   UNL A   1      32.193  24.513  22.886  1.00  0.00    -0.225 N 
ATOM     11  C   UNL A   1      32.497  22.499  23.612  1.00  0.00     0.071 C 
ATOM     12  N   UNL A   1      33.019  23.411  22.847  1.00  0.00    -0.174 NA
ATOM     13  C   UNL A   1      31.274  22.952  24.375  1.00  0.00     0.091 C 
ATOM     14  C   UNL A   1      31.299  24.462  24.060  1.00  0.00     0.149 C 
BRANCH  11  15
ATOM     15  C   UNL A   1      32.963  21.083  23.544  1.00  0.00    -0.002 A 
ATOM     16  C   UNL A   1      33.107  18.297  24.112  1.00  0.00     0.118 A 
ATOM     17  C   UNL A   1      32.334  18.784  23.043  1.00  0.00     0.047 A 
ATOM     18  C   UNL A   1      33.979  19.219  24.717  1.00  0.00     0.047 A 
ATOM     19  C   UNL A   1      32.244  20.161  22.775  1.00  0.00     0.014 A 
ATOM     20  C   UNL A   1      33.902  20.601  24.450  1.00  0.00     0.014 A 
BRANCH  16  21
ATOM     21  O   UNL A   1      32.757  16.973  24.529  1.00  0.00    -0.497 OA
ATOM     22  C   UNL A   1      32.717  15.254  25.564  1.00  0.00     0.278 C 
ENDBRANCH  16  21
ENDBRANCH  11  15
BRANCH  14  23
ATOM     23  C   UNL A   1      31.909  25.369  25.129  1.00  0.00    -0.004 A 
ATOM     24  C   UNL A   1      33.294  25.627  25.127  1.00  0.00     0.009 A 
ATOM     25  C   UNL A   1      31.108  26.119  26.011  1.00  0.00     0.047 A 
ATOM     26  C   UNL A   1      33.846  26.635  25.919  1.00  0.00     0.021 A 
ATOM     27  C   UNL A   1      31.653  27.164  26.765  1.00  0.00     0.041 A 
ATOM     28  Cl  UNL A   1      29.426  25.798  26.256  1.00  0.00    -0.084 Cl
ATOM     29  C   UNL A   1      33.017  27.421  26.708  1.00  0.00     0.042 A 
ATOM     30  Cl  UNL A   1      33.677  28.722  27.619  1.00  0.00    -0.084 Cl
ENDBRANCH  14  23
ENDBRANCH   8  10
ENDBRANCH   7   8
ENDBRANCH   6   7
ENDBRANCH   3   6
ENDBRANCH   1   2
BRANCH   1  31
ATOM     31  C   UNL A   1      30.983  30.699  25.995  1.00  0.00     0.023 C 
BRANCH  31  32
ATOM     32  C   UNL A   1      31.391  32.139  26.284  1.00  0.00     0.023 C 
BRANCH  32  33
ATOM     33  C   UNL A   1      32.598  32.332  27.184  1.00  0.00     0.116 C 
BRANCH  33  34
ATOM     34  N   UNL A   1      32.754  33.727  27.542  1.00  0.00    -0.352 N 
ATOM     35  C   UNL A   1      33.598  34.230  28.498  1.00  0.00     0.251 C 
ATOM     36  H   UNL A   1      32.201  34.376  27.050  1.00  0.00     0.163 HD
ATOM     37  O   UNL A   1      33.398  35.331  29.002  1.00  0.00    -0.269 OA
BRANCH  35  38
ATOM     38  C   UNL A   1      34.782  33.460  28.893  1.00  0.00     0.039 A 
ATOM     39  C   UNL A   1      34.611  32.141  30.115  1.00  0.00     0.014 A 
ATOM     40  C   UNL A   1      36.412  33.925  28.281  1.00  0.00     0.014 A 
ATOM     41  C   UNL A   1      36.068  31.258  30.694  1.00  0.00     0.010 A 
ATOM     42  C   UNL A   1      37.883  33.044  28.877  1.00  0.00     0.010 A 
ATOM     43  C   UNL A   1      37.717  31.692  30.065  1.00  0.00    -0.014 A 
BRANCH  43  44
ATOM     44  C   UNL A   1      38.921  31.019  30.614  1.00  0.00     0.031 A 
ATOM     45  C   UNL A   1      39.519  31.441  31.934  1.00  0.00     0.074 A 
ATOM     46  C   UNL A   1      39.497  30.035  29.896  1.00  0.00     0.049 A 
ATOM     47  N   UNL A   1      40.573  30.973  32.554  1.00  0.00    -0.248 NA
ATOM     48  C   UNL A   1      38.874  32.554  32.647  1.00  0.00     0.031 C 
ATOM     49  C   UNL A   1      39.070  29.596  28.566  1.00  0.00     0.029 A 
ATOM     50  N   UNL A   1      40.579  29.237  30.172  1.00  0.00    -0.354 N 
ATOM     51  C   UNL A   1      40.738  31.765  33.688  1.00  0.00     0.074 A 
ATOM     52  C   UNL A   1      39.716  32.780  33.643  1.00  0.00     0.031 C 
ATOM     53  C   UNL A   1      39.861  28.594  28.153  1.00  0.00     0.029 A 
ATOM     54  C   UNL A   1      40.875  28.343  29.168  1.00  0.00     0.049 A 
ATOM     55  H   UNL A   1      41.093  29.299  31.009  1.00  0.00     0.167 HD
ATOM     56  C   UNL A   1      41.625  31.637  34.703  1.00  0.00     0.034 A 
ATOM     57  C   UNL A   1      41.859  27.427  29.076  1.00  0.00     0.034 A 
ATOM     58  C   UNL A   1      42.603  30.589  34.771  1.00  0.00     0.049 A 
ATOM     59  C   UNL A   1      42.804  27.270  30.234  1.00  0.00     0.074 A 
ATOM     60  C   UNL A   1      43.500  30.309  35.784  1.00  0.00     0.029 A 
ATOM     61  N   UNL A   1      42.811  29.649  33.774  1.00  0.00    -0.354 N 
ATOM     62  N   UNL A   1      42.844  27.936  31.364  1.00  0.00    -0.248 NA
ATOM     63  C   UNL A   1      43.815  26.207  30.129  1.00  0.00     0.031 C 
ATOM     64  C   UNL A   1      44.278  29.219  35.381  1.00  0.00     0.029 A 
ATOM     65  C   UNL A   1      43.833  28.793  34.139  1.00  0.00     0.049 A 
ATOM     66  H   UNL A   1      42.306  29.598  32.930  1.00  0.00     0.167 HD
ATOM     67  C   UNL A   1      43.854  27.351  32.118  1.00  0.00     0.074 A 
ATOM     68  C   UNL A   1      44.386  26.262  31.324  1.00  0.00     0.031 C 
ATOM     69  C   UNL A   1      44.309  27.686  33.349  1.00  0.00     0.034 A 
BRANCH  56  70
ATOM     70  C   UNL A   1      41.544  32.634  35.837  1.00  0.00     0.023 A 
ATOM     71  C   UNL A   1      42.481  33.686  35.918  1.00  0.00     0.012 A 
ATOM     72  C   UNL A   1      40.534  32.538  36.815  1.00  0.00     0.148 A 
ATOM     73  C   UNL A   1      42.454  34.587  36.983  1.00  0.00     0.002 A 
ATOM     74  C   UNL A   1      40.482  33.470  37.846  1.00  0.00     0.091 A 
ATOM     75  F   UNL A   1      39.658  31.528  36.732  1.00  0.00    -0.205 F 
ATOM     76  C   UNL A   1      41.451  34.482  37.942  1.00  0.00     0.022 A 
BRANCH  74  77
ATOM     77  S   UNL A   1      39.190  33.472  39.093  1.00  0.00     0.127 S 
ATOM     78  O   UNL A   1      39.543  34.653  39.880  1.00  0.00    -0.237 OA
ATOM     79  O   UNL A   1      37.983  33.620  38.280  1.00  0.00    -0.237 OA
ATOM     80  O   UNL A   1      39.304  32.202  39.796  1.00  0.00    -0.744 OA
ENDBRANCH  74  77
ENDBRANCH  56  70
BRANCH  57  81
ATOM     81  C   UNL A   1      41.952  26.547  27.875  1.00  0.00     0.023 A 
ATOM     82  C   UNL A   1      42.654  26.996  26.738  1.00  0.00     0.012 A 
ATOM     83  C   UNL A   1      41.373  25.263  27.859  1.00  0.00     0.148 A 
ATOM     84  C   UNL A   1      42.741  26.200  25.594  1.00  0.00     0.002 A 
ATOM     85  C   UNL A   1      41.510  24.454  26.736  1.00  0.00     0.091 A 
ATOM     86  F   UNL A   1      40.707  24.853  28.948  1.00  0.00    -0.205 F 
ATOM     87  C   UNL A   1      42.177  24.928  25.596  1.00  0.00     0.022 A 
BRANCH  85  88
ATOM     88  S   UNL A   1      40.921  22.757  26.690  1.00  0.00     0.127 S 
ATOM     89  O   UNL A   1      39.486  22.944  26.495  1.00  0.00    -0.237 OA
ATOM     90  O   UNL A   1      41.636  22.222  25.531  1.00  0.00    -0.237 OA
ATOM     91  O   UNL A   1      41.314  22.168  27.963  1.00  0.00    -0.744 OA
ENDBRANCH  85  88
ENDBRANCH  57  81
BRANCH  69  92
ATOM     92  C   UNL A   1      45.403  26.843  33.943  1.00  0.00     0.023 A 
ATOM     93  C   UNL A   1      46.753  27.187  33.736  1.00  0.00     0.012 A 
ATOM     94  C   UNL A   1      45.083  25.761  34.786  1.00  0.00     0.148 A 
ATOM     95  C   UNL A   1      47.769  26.447  34.335  1.00  0.00     0.002 A 
ATOM     96  C   UNL A   1      46.098  25.065  35.426  1.00  0.00     0.091 A 
ATOM     97  F   UNL A   1      43.791  25.442  34.953  1.00  0.00    -0.205 F 
ATOM     98  C   UNL A   1      47.442  25.396  35.190  1.00  0.00     0.022 A 
BRANCH  96  99
ATOM     99  S   UNL A   1      45.767  23.777  36.631  1.00  0.00     0.127 S 
ATOM    100  O   UNL A   1      44.999  22.818  35.838  1.00  0.00    -0.237 OA
ATOM    101  O   UNL A   1      47.114  23.335  36.988  1.00  0.00    -0.237 OA
ATOM    102  O   UNL A   1      45.033  24.417  37.715  1.00  0.00    -0.744 OA
ENDBRANCH  96  99
ENDBRANCH  69  92
ENDBRANCH  43  44
ENDBRANCH  35  38
ENDBRANCH  33  34
ENDBRANCH  32  33
ENDBRANCH  31  32
ENDBRANCH   1  31
TORSDOF 20
ENDMDL
MODEL 2
REMARK VINA RESULT:     -11.4      1.751      4.070
REMARK SMILES COc1ccc(C2=NN(C(=O)CCC(=O)NCCCCNC(=O)c3ccc(-c4c5nc(c(-c6cccc(S(=O)(=O)[O-])c6F)c6ccc([nH]6)c(-c6cccc(S(=O)(=O)[O-])c6F)c6nc(c(-c7cccc(S(=O)(=O)[O-])c7F)c7ccc4[nH]7)C=C6)C=C5)cc3)[C@H](c3ccc(Cl)cc3Cl)C2)cc1
REMARK SMILES IDX 17 1 16 2 14 3 15 4 13 6 12 7 10 8 11 9 9 10 7 11 8 12 96 13
REMARK SMILES IDX 87 14 6 15 3 16 4 17 98 18 5 19 97 20 2 21 1 22 88 23 89 24
REMARK SMILES IDX 94 25 90 26 93 27 95 28 91 29 92 30 18 31 19 32 20 33 21 34
REMARK SMILES IDX 22 35 23 37 24 38 25 39 86 40 26 41 85 42 27 43 28 44 29 45
REMARK SMILES IDX 79 46 30 47 84 48 78 49 80 50 31 51 83 52 77 53 76 54 32 56
REMARK SMILES IDX 64 57 44 58 63 59 45 60 48 61 62 62 81 63 46 64 47 65 61 67
REMARK SMILES IDX 82 68 49 69 33 70 34 71 42 72 35 73 37 74 43 75 36 76 38 77
REMARK SMILES IDX 39 78 40 79 41 80 65 81 66 82 74 83 67 84 69 85 75 86 68 87
REMARK SMILES IDX 70 88 71 89 72 90 73 91 50 92 51 93 59 94 52 95 54 96 60 97
REMARK SMILES IDX 53 98 55 99 56 100 57 101 58 102
REMARK H PARENT 16 5 21 36 80 55 48 66
REMARK Flexibility Score: inf
ROOT
ATOM      1  C   UNL A   1      32.663  30.206  26.576  1.00  0.00     0.116 C 
ENDROOT
BRANCH   1   2
ATOM      2  N   UNL A   1      33.380  29.790  25.387  1.00  0.00    -0.356 N 
ATOM      3  C   UNL A   1      33.790  28.543  25.037  1.00  0.00     0.220 C 
ATOM      4  O   UNL A   1      34.018  28.306  23.850  1.00  0.00    -0.275 OA
ATOM      5  H   UNL A   1      33.598  30.507  24.747  1.00  0.00     0.163 HD
BRANCH   3   6
ATOM      6  C   UNL A   1      33.989  27.479  26.084  1.00  0.00     0.110 C 
BRANCH   6   7
ATOM      7  C   UNL A   1      34.890  26.299  25.729  1.00  0.00     0.112 C 
BRANCH   7   8
ATOM      8  C   UNL A   1      34.325  24.980  25.222  1.00  0.00     0.243 C 
ATOM      9  O   UNL A   1      35.144  24.122  24.862  1.00  0.00    -0.273 OA
BRANCH   8  10
ATOM     10  N   UNL A   1      32.965  24.772  25.146  1.00  0.00    -0.225 N 
ATOM     11  C   UNL A   1      31.019  25.374  24.422  1.00  0.00     0.071 C 
ATOM     12  N   UNL A   1      32.283  25.393  24.122  1.00  0.00    -0.174 NA
ATOM     13  C   UNL A   1      30.687  24.598  25.676  1.00  0.00     0.091 C 
ATOM     14  C   UNL A   1      32.054  23.943  25.961  1.00  0.00     0.149 C 
BRANCH  11  15
ATOM     15  C   UNL A   1      30.045  26.237  23.691  1.00  0.00    -0.002 A 
ATOM     16  C   UNL A   1      28.377  28.470  23.112  1.00  0.00     0.118 A 
ATOM     17  C   UNL A   1      29.687  28.389  22.607  1.00  0.00     0.047 A 
ATOM     18  C   UNL A   1      27.865  27.300  23.700  1.00  0.00     0.047 A 
ATOM     19  C   UNL A   1      30.519  27.297  22.910  1.00  0.00     0.014 A 
ATOM     20  C   UNL A   1      28.689  26.197  24.002  1.00  0.00     0.014 A 
BRANCH  16  21
ATOM     21  O   UNL A   1      27.829  29.792  23.100  1.00  0.00    -0.497 OA
ATOM     22  C   UNL A   1      27.696  31.795  23.073  1.00  0.00     0.278 C 
ENDBRANCH  16  21
ENDBRANCH  11  15
BRANCH  14  23
ATOM     23  C   UNL A   1      32.225  22.497  25.495  1.00  0.00    -0.004 A 
ATOM     24  C   UNL A   1      31.767  22.109  24.219  1.00  0.00     0.009 A 
ATOM     25  C   UNL A   1      33.000  21.570  26.217  1.00  0.00     0.047 A 
ATOM     26  C   UNL A   1      32.124  20.881  23.663  1.00  0.00     0.021 A 
ATOM     27  C   UNL A   1      33.401  20.362  25.638  1.00  0.00     0.041 A 
ATOM     28  Cl  UNL A   1      33.484  21.828  27.858  1.00  0.00    -0.084 Cl
ATOM     29  C   UNL A   1      32.968  20.028  24.361  1.00  0.00     0.042 A 
ATOM     30  Cl  UNL A   1      33.485  18.552  23.645  1.00  0.00    -0.084 Cl
ENDBRANCH  14  23
ENDBRANCH   8  10
ENDBRANCH   7   8
ENDBRANCH   6   7
ENDBRANCH   3   6
ENDBRANCH   1   2
BRANCH   1  31
ATOM     31  C   UNL A   1      31.422  31.068  26.353  1.00  0.00     0.023 C 
BRANCH  31  32
ATOM     32  C   UNL A   1      31.503  32.543  26.728  1.00  0.00     0.023 C 
BRANCH  32  33
ATOM     33  C   UNL A   1      32.778  32.997  27.416  1.00  0.00     0.116 C 
BRANCH  33  34
ATOM     34  N   UNL A   1      32.636  34.347  27.920  1.00  0.00    -0.352 N 
ATOM     35  C   UNL A   1      33.201  34.849  29.064  1.00  0.00     0.251 C 
ATOM     36  H   UNL A   1      32.082  34.964  27.390  1.00  0.00     0.163 HD
ATOM     37  O   UNL A   1      32.737  35.842  29.616  1.00  0.00    -0.269 OA
BRANCH  35  38
ATOM     38  C   UNL A   1      34.405  34.217  29.613  1.00  0.00     0.039 A 
ATOM     39  C   UNL A   1      36.000  34.520  28.821  1.00  0.00     0.014 A 
ATOM     40  C   UNL A   1      34.273  33.033  30.965  1.00  0.00     0.014 A 
ATOM     41  C   UNL A   1      37.472  33.668  29.410  1.00  0.00     0.010 A 
ATOM     42  C   UNL A   1      35.755  32.162  31.548  1.00  0.00     0.010 A 
ATOM     43  C   UNL A   1      37.364  32.493  30.793  1.00  0.00    -0.014 A 
BRANCH  43  44
ATOM     44  C   UNL A   1      38.565  31.730  31.213  1.00  0.00     0.031 A 
ATOM     45  C   UNL A   1      39.284  32.052  32.501  1.00  0.00     0.074 A 
ATOM     46  C   UNL A   1      39.027  30.754  30.408  1.00  0.00     0.049 A 
ATOM     47  N   UNL A   1      40.353  31.497  33.014  1.00  0.00    -0.248 NA
ATOM     48  C   UNL A   1      38.761  33.160  33.313  1.00  0.00     0.031 C 
ATOM     49  C   UNL A   1      38.477  30.407  29.096  1.00  0.00     0.029 A 
ATOM     50  N   UNL A   1      40.079  29.886  30.560  1.00  0.00    -0.354 N 
ATOM     51  C   UNL A   1      40.649  32.220  34.167  1.00  0.00     0.074 A 
ATOM     52  C   UNL A   1      39.687  33.290  34.250  1.00  0.00     0.031 C 
ATOM     53  C   UNL A   1      39.175  29.386  28.577  1.00  0.00     0.029 A 
ATOM     54  C   UNL A   1      40.247  29.030  29.497  1.00  0.00     0.049 A 
ATOM     55  H   UNL A   1      40.658  29.877  31.357  1.00  0.00     0.167 HD
ATOM     56  C   UNL A   1      41.601  31.994  35.103  1.00  0.00     0.034 A 
ATOM     57  C   UNL A   1      41.167  28.068  29.285  1.00  0.00     0.034 A 
ATOM     58  C   UNL A   1      42.520  30.892  35.045  1.00  0.00     0.049 A 
ATOM     59  C   UNL A   1      42.186  27.802  30.357  1.00  0.00     0.074 A 
ATOM     60  C   UNL A   1      43.473  30.513  35.970  1.00  0.00     0.029 A 
ATOM     61  N   UNL A   1      42.598  29.994  33.992  1.00  0.00    -0.354 N 
ATOM     62  N   UNL A   1      42.350  28.407  31.510  1.00  0.00    -0.248 NA
ATOM     63  C   UNL A   1      43.123  26.693  30.123  1.00  0.00     0.031 C 
ATOM     64  C   UNL A   1      44.155  29.405  35.457  1.00  0.00     0.029 A 
ATOM     65  C   UNL A   1      43.593  29.067  34.236  1.00  0.00     0.049 A 
ATOM     66  H   UNL A   1      42.028  30.013  33.189  1.00  0.00     0.167 HD
ATOM     67  C   UNL A   1      43.378  27.731  32.154  1.00  0.00     0.074 A 
ATOM     68  C   UNL A   1      43.786  26.656  31.272  1.00  0.00     0.031 C 
ATOM     69  C   UNL A   1      43.943  27.978  33.361  1.00  0.00     0.034 A 
BRANCH  56  70
ATOM     70  C   UNL A   1      41.664  32.934  36.284  1.00  0.00     0.023 A 
ATOM     71  C   UNL A   1      42.615  33.977  36.304  1.00  0.00     0.012 A 
ATOM     72  C   UNL A   1      40.775  32.795  37.369  1.00  0.00     0.148 A 
ATOM     73  C   UNL A   1      42.721  34.825  37.407  1.00  0.00     0.002 A 
ATOM     74  C   UNL A   1      40.853  33.676  38.442  1.00  0.00     0.091 A 
ATOM     75  F   UNL A   1      39.884  31.794  37.341  1.00  0.00    -0.205 F 
ATOM     76  C   UNL A   1      41.837  34.678  38.471  1.00  0.00     0.022 A 
BRANCH  74  77
ATOM     77  S   UNL A   1      39.716  33.623  39.831  1.00  0.00     0.127 S 
ATOM     78  O   UNL A   1      40.010  32.309  40.402  1.00  0.00    -0.237 OA
ATOM     79  O   UNL A   1      40.170  34.754  40.639  1.00  0.00    -0.237 OA
ATOM     80  O   UNL A   1      38.382  33.770  39.267  1.00  0.00    -0.744 OA
ENDBRANCH  74  77
ENDBRANCH  56  70
BRANCH  57  81
ATOM     81  C   UNL A   1      41.119  27.246  28.040  1.00  0.00     0.023 A 
ATOM     82  C   UNL A   1      41.709  27.738  26.859  1.00  0.00     0.012 A 
ATOM     83  C   UNL A   1      40.513  25.975  28.024  1.00  0.00     0.148 A 
ATOM     84  C   UNL A   1      41.663  26.999  25.677  1.00  0.00     0.002 A 
ATOM     85  C   UNL A   1      40.518  25.219  26.857  1.00  0.00     0.091 A 
ATOM     86  F   UNL A   1      39.954  25.523  29.155  1.00  0.00    -0.205 F 
ATOM     87  C   UNL A   1      41.075  25.737  25.677  1.00  0.00     0.022 A 
BRANCH  85  88
ATOM     88  S   UNL A   1      39.892  23.536  26.792  1.00  0.00     0.127 S 
ATOM     89  O   UNL A   1      40.721  22.950  25.743  1.00  0.00    -0.237 OA
ATOM     90  O   UNL A   1      40.178  23.056  28.144  1.00  0.00    -0.237 OA
ATOM     91  O   UNL A   1      38.473  23.653  26.483  1.00  0.00    -0.744 OA
ENDBRANCH  85  88
ENDBRANCH  57  81
BRANCH  69  92
ATOM     92  C   UNL A   1      45.029  27.048  33.826  1.00  0.00     0.023 A 
ATOM     93  C   UNL A   1      46.379  27.345  33.557  1.00  0.00     0.012 A 
ATOM     94  C   UNL A   1      44.708  25.927  34.617  1.00  0.00     0.148 A 
ATOM     95  C   UNL A   1      47.392  26.521  34.040  1.00  0.00     0.002 A 
ATOM     96  C   UNL A   1      45.725  25.144  35.143  1.00  0.00     0.091 A 
ATOM     97  F   UNL A   1      43.415  25.655  34.844  1.00  0.00    -0.205 F 
ATOM     98  C   UNL A   1      47.067  25.430  34.844  1.00  0.00     0.022 A 
BRANCH  96  99
ATOM     99  S   UNL A   1      45.405  23.793  36.280  1.00  0.00     0.127 S 
ATOM    100  O   UNL A   1      44.612  22.887  35.451  1.00  0.00    -0.237 OA
ATOM    101  O   UNL A   1      46.755  23.318  36.584  1.00  0.00    -0.237 OA
ATOM    102  O   UNL A   1      44.701  24.377  37.414  1.00  0.00    -0.744 OA
ENDBRANCH  96  99
ENDBRANCH  69  92
ENDBRANCH  43  44
ENDBRANCH  35  38
ENDBRANCH  33  34
ENDBRANCH  32  33
ENDBRANCH  31  32
ENDBRANCH   1  31
TORSDOF 20
ENDMDL
MODEL 3
REMARK VINA RESULT:     -11.3      4.980     10.742
REMARK SMILES COc1ccc(C2=NN(C(=O)CCC(=O)NCCCCNC(=O)c3ccc(-c4c5nc(c(-c6cccc(S(=O)(=O)[O-])c6F)c6ccc([nH]6)c(-c6cccc(S(=O)(=O)[O-])c6F)c6nc(c(-c7cccc(S(=O)(=O)[O-])c7F)c7ccc4[nH]7)C=C6)C=C5)cc3)[C@H](c3ccc(Cl)cc3Cl)C2)cc1
REMARK SMILES IDX 17 1 16 2 14 3 15 4 13 6 12 7 10 8 11 9 9 10 7 11 8 12 96 13
REMARK SMILES IDX 87 14 6 15 3 16 4 17 98 18 5 19 97 20 2 21 1 22 88 23 89 24
REMARK SMILES IDX 94 25 90 26 93 27 95 28 91 29 92 30 18 31 19 32 20 33 21 34
REMARK SMILES IDX 22 35 23 37 24 38 25 39 86 40 26 41 85 42 27 43 28 44 29 45
REMARK SMILES IDX 79 46 30 47 84 48 78 49 80 50 31 51 83 52 77 53 76 54 32 56
REMARK SMILES IDX 64 57 44 58 63 59 45 60 48 61 62 62 81 63 46 64 47 65 61 67
REMARK SMILES IDX 82 68 49 69 33 70 34 71 42 72 35 73 37 74 43 75 36 76 38 77
REMARK SMILES IDX 39 78 40 79 41 80 65 81 66 82 74 83 67 84 69 85 75 86 68 87
REMARK SMILES IDX 70 88 71 89 72 90 73 91 50 92 51 93 59 94 52 95 54 96 60 97
REMARK SMILES IDX 53 98 55 99 56 100 57 101 58 102
REMARK H PARENT 16 5 21 36 80 55 48 66
REMARK Flexibility Score: inf
ROOT
ATOM      1  C   UNL A   1      32.684  22.900  23.138  1.00  0.00     0.116 C 
ENDROOT
BRANCH   1   2
ATOM      2  N   UNL A   1      33.418  23.878  22.359  1.00  0.00    -0.356 N 
ATOM      3  C   UNL A   1      33.124  25.188  22.148  1.00  0.00     0.220 C 
ATOM      4  O   UNL A   1      34.029  25.953  21.813  1.00  0.00    -0.275 OA
ATOM      5  H   UNL A   1      34.240  23.550  21.927  1.00  0.00     0.163 HD
BRANCH   3   6
ATOM      6  C   UNL A   1      31.711  25.690  22.296  1.00  0.00     0.110 C 
BRANCH   6   7
ATOM      7  C   UNL A   1      31.486  27.198  22.221  1.00  0.00     0.112 C 
BRANCH   7   8
ATOM      8  C   UNL A   1      30.917  27.985  23.393  1.00  0.00     0.243 C 
ATOM      9  O   UNL A   1      29.812  28.520  23.223  1.00  0.00    -0.273 OA
BRANCH   8  10
ATOM     10  N   UNL A   1      31.619  28.110  24.572  1.00  0.00    -0.225 N 
ATOM     11  C   UNL A   1      32.304  29.331  26.219  1.00  0.00     0.071 C 
ATOM     12  N   UNL A   1      31.328  29.194  25.372  1.00  0.00    -0.174 NA
ATOM     13  C   UNL A   1      33.342  28.235  26.157  1.00  0.00     0.091 C 
ATOM     14  C   UNL A   1      32.642  27.250  25.199  1.00  0.00     0.149 C 
BRANCH  11  15
ATOM     15  C   UNL A   1      32.461  30.586  27.011  1.00  0.00    -0.002 A 
ATOM     16  C   UNL A   1      33.256  33.241  27.663  1.00  0.00     0.118 A 
ATOM     17  C   UNL A   1      31.995  32.976  27.100  1.00  0.00     0.047 A 
ATOM     18  C   UNL A   1      33.987  32.123  28.104  1.00  0.00     0.047 A 
ATOM     19  C   UNL A   1      31.610  31.668  26.757  1.00  0.00     0.014 A 
ATOM     20  C   UNL A   1      33.605  30.807  27.771  1.00  0.00     0.014 A 
BRANCH  16  21
ATOM     21  O   UNL A   1      33.672  34.605  27.544  1.00  0.00    -0.497 OA
ATOM     22  C   UNL A   1      34.321  36.444  28.022  1.00  0.00     0.278 C 
ENDBRANCH  16  21
ENDBRANCH  11  15
BRANCH  14  23
ATOM     23  C   UNL A   1      31.906  26.077  25.849  1.00  0.00    -0.004 A 
ATOM     24  C   UNL A   1      30.504  26.117  25.993  1.00  0.00     0.009 A 
ATOM     25  C   UNL A   1      32.556  24.862  26.141  1.00  0.00     0.047 A 
ATOM     26  C   UNL A   1      29.778  24.979  26.344  1.00  0.00     0.021 A 
ATOM     27  C   UNL A   1      31.823  23.710  26.442  1.00  0.00     0.041 A 
ATOM     28  Cl  UNL A   1      34.278  24.706  26.183  1.00  0.00    -0.084 Cl
ATOM     29  C   UNL A   1      30.439  23.773  26.533  1.00  0.00     0.042 A 
ATOM     30  Cl  UNL A   1      29.542  22.346  26.879  1.00  0.00    -0.084 Cl
ENDBRANCH  14  23
ENDBRANCH   8  10
ENDBRANCH   7   8
ENDBRANCH   6   7
ENDBRANCH   3   6
ENDBRANCH   1   2
BRANCH   1  31
ATOM     31  C   UNL A   1      33.516  21.828  23.838  1.00  0.00     0.023 C 
BRANCH  31  32
ATOM     32  C   UNL A   1      35.006  22.091  24.026  1.00  0.00     0.023 C 
BRANCH  32  33
ATOM     33  C   UNL A   1      35.582  21.771  25.394  1.00  0.00     0.116 C 
BRANCH  33  34
ATOM     34  N   UNL A   1      36.475  20.633  25.321  1.00  0.00    -0.352 N 
ATOM     35  C   UNL A   1      37.845  20.676  25.319  1.00  0.00     0.251 C 
ATOM     36  H   UNL A   1      36.058  19.743  25.267  1.00  0.00     0.163 HD
ATOM     37  O   UNL A   1      38.507  19.744  24.875  1.00  0.00    -0.269 OA
BRANCH  35  38
ATOM     38  C   UNL A   1      38.532  21.835  25.900  1.00  0.00     0.039 A 
ATOM     39  C   UNL A   1      37.995  23.499  25.444  1.00  0.00     0.014 A 
ATOM     40  C   UNL A   1      39.987  21.603  26.936  1.00  0.00     0.014 A 
ATOM     41  C   UNL A   1      38.892  24.932  26.059  1.00  0.00     0.010 A 
ATOM     42  C   UNL A   1      40.902  23.049  27.543  1.00  0.00     0.010 A 
ATOM     43  C   UNL A   1      40.346  24.719  27.129  1.00  0.00    -0.014 A 
BRANCH  43  44
ATOM     44  C   UNL A   1      41.131  25.902  27.559  1.00  0.00     0.031 A 
ATOM     45  C   UNL A   1      42.524  26.149  27.031  1.00  0.00     0.074 A 
ATOM     46  C   UNL A   1      40.590  26.748  28.457  1.00  0.00     0.049 A 
ATOM     47  N   UNL A   1      43.355  27.122  27.309  1.00  0.00    -0.248 NA
ATOM     48  C   UNL A   1      43.079  25.164  26.091  1.00  0.00     0.031 C 
ATOM     49  C   UNL A   1      39.292  26.572  29.110  1.00  0.00     0.029 A 
ATOM     50  N   UNL A   1      41.072  27.914  28.996  1.00  0.00    -0.354 N 
ATOM     51  C   UNL A   1      44.532  26.833  26.621  1.00  0.00     0.074 A 
ATOM     52  C   UNL A   1      44.333  25.567  25.962  1.00  0.00     0.031 C 
ATOM     53  C   UNL A   1      39.067  27.604  29.938  1.00  0.00     0.029 A 
ATOM     54  C   UNL A   1      40.220  28.494  29.908  1.00  0.00     0.049 A 
ATOM     55  H   UNL A   1      41.944  28.300  28.752  1.00  0.00     0.167 HD
ATOM     56  C   UNL A   1      45.662  27.571  26.505  1.00  0.00     0.034 A 
ATOM     57  C   UNL A   1      40.355  29.616  30.641  1.00  0.00     0.034 A 
ATOM     58  C   UNL A   1      45.831  28.858  27.117  1.00  0.00     0.049 A 
ATOM     59  C   UNL A   1      41.596  30.445  30.461  1.00  0.00     0.074 A 
ATOM     60  C   UNL A   1      46.895  29.733  27.006  1.00  0.00     0.029 A 
ATOM     61  N   UNL A   1      44.906  29.450  27.962  1.00  0.00    -0.354 N 
ATOM     62  N   UNL A   1      42.633  30.223  29.688  1.00  0.00    -0.248 NA
ATOM     63  C   UNL A   1      41.673  31.702  31.220  1.00  0.00     0.031 C 
ATOM     64  C   UNL A   1      46.628  30.841  27.817  1.00  0.00     0.029 A 
ATOM     65  C   UNL A   1      45.378  30.675  28.393  1.00  0.00     0.049 A 
ATOM     66  H   UNL A   1      44.040  29.056  28.217  1.00  0.00     0.167 HD
ATOM     67  C   UNL A   1      43.465  31.326  29.836  1.00  0.00     0.074 A 
ATOM     68  C   UNL A   1      42.800  32.226  30.757  1.00  0.00     0.031 C 
ATOM     69  C   UNL A   1      44.672  31.572  29.272  1.00  0.00     0.034 A 
BRANCH  56  70
ATOM     70  C   UNL A   1      46.778  27.015  25.651  1.00  0.00     0.023 A 
ATOM     71  C   UNL A   1      47.570  25.952  26.133  1.00  0.00     0.012 A 
ATOM     72  C   UNL A   1      47.037  27.537  24.368  1.00  0.00     0.148 A 
ATOM     73  C   UNL A   1      48.637  25.458  25.381  1.00  0.00     0.002 A 
ATOM     74  C   UNL A   1      48.070  27.006  23.603  1.00  0.00     0.091 A 
ATOM     75  F   UNL A   1      46.283  28.554  23.928  1.00  0.00    -0.205 F 
ATOM     76  C   UNL A   1      48.882  25.981  24.115  1.00  0.00     0.022 A 
BRANCH  74  77
ATOM     77  S   UNL A   1      48.425  27.554  21.930  1.00  0.00     0.127 S 
ATOM     78  O   UNL A   1      49.585  28.419  22.144  1.00  0.00    -0.237 OA
ATOM     79  O   UNL A   1      48.722  26.292  21.252  1.00  0.00    -0.237 OA
ATOM     80  O   UNL A   1      47.224  28.233  21.463  1.00  0.00    -0.744 OA
ENDBRANCH  74  77
ENDBRANCH  56  70
BRANCH  57  81
ATOM     81  C   UNL A   1      39.259  30.052  31.554  1.00  0.00     0.023 A 
ATOM     82  C   UNL A   1      39.179  29.509  32.852  1.00  0.00     0.012 A 
ATOM     83  C   UNL A   1      38.310  31.014  31.156  1.00  0.00     0.148 A 
ATOM     84  C   UNL A   1      38.153  29.884  33.721  1.00  0.00     0.002 A 
ATOM     85  C   UNL A   1      37.323  31.425  32.045  1.00  0.00     0.091 A 
ATOM     86  F   UNL A   1      38.400  31.519  29.917  1.00  0.00    -0.205 F 
ATOM     87  C   UNL A   1      37.231  30.848  33.321  1.00  0.00     0.022 A 
BRANCH  85  88
ATOM     88  S   UNL A   1      36.166  32.744  31.662  1.00  0.00     0.127 S 
ATOM     89  O   UNL A   1      35.140  32.032  30.906  1.00  0.00    -0.237 OA
ATOM     90  O   UNL A   1      35.755  33.182  32.997  1.00  0.00    -0.237 OA
ATOM     91  O   UNL A   1      36.928  33.734  30.914  1.00  0.00    -0.744 OA
ENDBRANCH  85  88
ENDBRANCH  57  81
BRANCH  69  92
ATOM     92  C   UNL A   1      45.337  32.882  29.590  1.00  0.00     0.023 A 
ATOM     93  C   UNL A   1      46.232  32.977  30.673  1.00  0.00     0.012 A 
ATOM     94  C   UNL A   1      45.141  33.996  28.749  1.00  0.00     0.148 A 
ATOM     95  C   UNL A   1      46.899  34.172  30.934  1.00  0.00     0.002 A 
ATOM     96  C   UNL A   1      45.853  35.164  28.981  1.00  0.00     0.091 A 
ATOM     97  F   UNL A   1      44.270  33.886  27.736  1.00  0.00    -0.205 F 
ATOM     98  C   UNL A   1      46.721  35.259  30.081  1.00  0.00     0.022 A 
BRANCH  96  99
ATOM     99  S   UNL A   1      45.776  36.571  27.869  1.00  0.00     0.127 S 
ATOM    100  O   UNL A   1      44.565  37.249  28.331  1.00  0.00    -0.237 OA
ATOM    101  O   UNL A   1      47.022  37.274  28.173  1.00  0.00    -0.237 OA
ATOM    102  O   UNL A   1      45.705  36.019  26.523  1.00  0.00    -0.744 OA
ENDBRANCH  96  99
ENDBRANCH  69  92
ENDBRANCH  43  44
ENDBRANCH  35  38
ENDBRANCH  33  34
ENDBRANCH  32  33
ENDBRANCH  31  32
ENDBRANCH   1  31
TORSDOF 20
ENDMDL
