MODEL 1
REMARK VINA RESULT:     -12.8      0.000      0.000
REMARK SMILES O=C(C[C@H](C(=O)NCCCCNC(=O)c1ccc(-c2c3nc(c(-c4cccc(S(=O)(=O)[O-])c4F)c4ccc([nH]4)c(-c4cccc(S(=O)(=O)[O-])c4F)c4nc(c(-c5cccc(S(=O)(=O)[O-])c5F)c5ccc2[nH]5)C=C4)C=C3)cc1)c1ccccc1)Nc1ccc(Cl)cc1Cl
REMARK SMILES IDX 9 1 8 2 7 3 5 4 6 5 4 7 3 8 2 9 1 10 84 11 85 13 86 14 91 15
REMARK SMILES IDX 87 16 90 17 92 18 88 19 89 20 78 21 79 22 83 23 80 24 82 25
REMARK SMILES IDX 81 26 10 27 11 28 12 29 13 30 14 32 15 33 16 34 77 35 17 36
REMARK SMILES IDX 76 37 18 38 19 39 20 40 70 41 21 42 75 43 69 44 71 45 22 46
REMARK SMILES IDX 74 47 68 48 67 49 23 51 55 52 35 53 54 54 36 55 39 56 53 57
REMARK SMILES IDX 72 58 37 59 38 60 52 62 73 63 40 64 24 65 25 66 33 67 26 68
REMARK SMILES IDX 28 69 34 70 27 71 29 72 30 73 31 74 32 75 56 76 57 77 65 78
REMARK SMILES IDX 58 79 60 80 66 81 59 82 61 83 62 84 63 85 64 86 41 87 42 88
REMARK SMILES IDX 50 89 43 90 45 91 51 92 44 93 46 94 47 95 48 96 49 97
REMARK H PARENT 7 6 84 12 12 31 71 50 39 61
REMARK Flexibility Score: inf
ROOT
ATOM      1  C   UNL A   1      31.751  29.041  27.338  1.00  0.00     0.023 C 
ENDROOT
BRANCH   1   2
ATOM      2  C   UNL A   1      32.251  27.594  26.741  1.00  0.00     0.116 C 
BRANCH   2   3
ATOM      3  N   UNL A   1      32.997  27.356  25.475  1.00  0.00    -0.356 N 
ATOM      4  C   UNL A   1      33.485  26.369  24.676  1.00  0.00     0.228 C 
ATOM      5  O   UNL A   1      34.151  26.698  23.685  1.00  0.00    -0.274 OA
ATOM      6  H   UNL A   1      33.215  28.226  25.069  1.00  0.00     0.163 HD
BRANCH   4   7
ATOM      7  C   UNL A   1      33.332  24.907  24.993  1.00  0.00     0.118 C 
BRANCH   7   8
ATOM      8  C   UNL A   1      31.947  24.504  24.514  1.00  0.00     0.118 C 
BRANCH   8   9
ATOM      9  C   UNL A   1      31.261  25.382  23.384  1.00  0.00     0.225 C 
ATOM     10  O   UNL A   1      31.654  25.049  22.261  1.00  0.00    -0.275 OA
ATOM     11  N   UNL A   1      30.197  26.308  23.674  1.00  0.00    -0.325 N 
ATOM     12  H   UNL A   1      29.629  26.019  24.424  1.00  0.00     0.169 HD
BRANCH  11  13
ATOM     13  C   UNL A   1      29.757  27.644  23.074  1.00  0.00     0.060 A 
ATOM     14  C   UNL A   1      28.406  28.028  23.185  1.00  0.00     0.029 A 
ATOM     15  C   UNL A   1      30.498  28.774  22.642  1.00  0.00     0.066 A 
ATOM     16  C   UNL A   1      27.797  29.274  22.588  1.00  0.00     0.023 A 
ATOM     17  C   UNL A   1      29.885  30.021  22.192  1.00  0.00     0.043 A 
ATOM     18  Cl  UNL A   1      32.203  29.105  22.527  1.00  0.00    -0.082 Cl
ATOM     19  C   UNL A   1      28.495  30.345  21.816  1.00  0.00     0.042 A 
ATOM     20  Cl  UNL A   1      27.730  32.003  20.141  1.00  0.00    -0.084 Cl
ENDBRANCH  11  13
ENDBRANCH   8   9
ENDBRANCH   7   8
BRANCH   7  21
ATOM     21  C   UNL A   1      34.662  24.160  24.768  1.00  0.00    -0.035 A 
ATOM     22  C   UNL A   1      34.797  23.480  23.528  1.00  0.00     0.004 A 
ATOM     23  C   UNL A   1      35.772  24.119  25.621  1.00  0.00     0.004 A 
ATOM     24  C   UNL A   1      35.939  22.759  23.170  1.00  0.00     0.000 A 
ATOM     25  C   UNL A   1      36.936  23.400  25.253  1.00  0.00     0.000 A 
ATOM     26  C   UNL A   1      37.015  22.714  24.038  1.00  0.00     0.000 A 
ENDBRANCH   7  21
ENDBRANCH   4   7
ENDBRANCH   2   3
ENDBRANCH   1   2
BRANCH   1  27
ATOM     27  C   UNL A   1      31.334  30.431  26.708  1.00  0.00     0.023 C 
BRANCH  27  28
ATOM     28  C   UNL A   1      32.316  31.597  26.504  1.00  0.00     0.116 C 
BRANCH  28  29
ATOM     29  N   UNL A   1      32.078  32.806  27.243  1.00  0.00    -0.352 N 
ATOM     30  C   UNL A   1      32.999  33.530  27.972  1.00  0.00     0.251 C 
ATOM     31  H   UNL A   1      31.159  33.155  27.228  1.00  0.00     0.163 HD
ATOM     32  O   UNL A   1      32.717  34.631  28.428  1.00  0.00    -0.269 OA
BRANCH  30  33
ATOM     33  C   UNL A   1      34.340  32.954  28.192  1.00  0.00     0.039 A 
ATOM     34  C   UNL A   1      34.534  31.155  28.082  1.00  0.00     0.014 A 
ATOM     35  C   UNL A   1      35.781  34.004  28.593  1.00  0.00     0.014 A 
ATOM     36  C   UNL A   1      36.158  30.388  28.378  1.00  0.00     0.010 A 
ATOM     37  C   UNL A   1      37.450  33.233  28.696  1.00  0.00     0.010 A 
ATOM     38  C   UNL A   1      37.661  31.411  28.677  1.00  0.00    -0.014 A 
BRANCH  38  39
ATOM     39  C   UNL A   1      38.790  30.746  29.558  1.00  0.00     0.031 A 
ATOM     40  C   UNL A   1      38.946  30.974  31.078  1.00  0.00     0.074 A 
ATOM     41  C   UNL A   1      39.572  29.743  29.078  1.00  0.00     0.049 A 
ATOM     42  N   UNL A   1      39.952  30.650  31.869  1.00  0.00    -0.248 NA
ATOM     43  C   UNL A   1      37.867  31.643  31.812  1.00  0.00     0.031 C 
ATOM     44  C   UNL A   1      39.594  29.255  27.706  1.00  0.00     0.029 A 
ATOM     45  N   UNL A   1      40.464  28.890  29.713  1.00  0.00    -0.354 N 
ATOM     46  C   UNL A   1      39.679  31.207  33.123  1.00  0.00     0.074 A 
ATOM     47  C   UNL A   1      38.415  31.890  32.993  1.00  0.00     0.031 C 
ATOM     48  C   UNL A   1      40.264  28.099  27.639  1.00  0.00     0.029 A 
ATOM     49  C   UNL A   1      40.988  27.916  28.887  1.00  0.00     0.049 A 
ATOM     50  H   UNL A   1      40.701  28.972  30.666  1.00  0.00     0.167 HD
ATOM     51  C   UNL A   1      40.365  31.135  34.294  1.00  0.00     0.034 A 
ATOM     52  C   UNL A   1      42.015  27.046  29.020  1.00  0.00     0.034 A 
ATOM     53  C   UNL A   1      41.514  30.297  34.531  1.00  0.00     0.049 A 
ATOM     54  C   UNL A   1      42.828  27.041  30.281  1.00  0.00     0.074 A 
ATOM     55  C   UNL A   1      42.263  30.169  35.691  1.00  0.00     0.029 A 
ATOM     56  N   UNL A   1      42.051  29.408  33.617  1.00  0.00    -0.354 N 
ATOM     57  N   UNL A   1      42.625  27.693  31.395  1.00  0.00    -0.248 NA
ATOM     58  C   UNL A   1      44.031  26.192  30.292  1.00  0.00     0.031 C 
ATOM     59  C   UNL A   1      43.285  29.242  35.460  1.00  0.00     0.029 A 
ATOM     60  C   UNL A   1      43.131  28.745  34.179  1.00  0.00     0.049 A 
ATOM     61  H   UNL A   1      41.715  29.267  32.703  1.00  0.00     0.167 HD
ATOM     62  C   UNL A   1      43.656  27.313  32.248  1.00  0.00     0.074 A 
ATOM     63  C   UNL A   1      44.467  26.353  31.533  1.00  0.00     0.031 C 
ATOM     64  C   UNL A   1      43.912  27.743  33.506  1.00  0.00     0.034 A 
BRANCH  51  65
ATOM     65  C   UNL A   1      39.918  32.014  35.447  1.00  0.00     0.023 A 
ATOM     66  C   UNL A   1      40.341  33.354  35.561  1.00  0.00     0.012 A 
ATOM     67  C   UNL A   1      38.999  31.505  36.391  1.00  0.00     0.148 A 
ATOM     68  C   UNL A   1      39.902  34.151  36.621  1.00  0.00     0.002 A 
ATOM     69  C   UNL A   1      38.520  32.321  37.410  1.00  0.00     0.091 A 
ATOM     70  F   UNL A   1      38.601  30.230  36.269  1.00  0.00    -0.205 F 
ATOM     71  C   UNL A   1      38.986  33.639  37.538  1.00  0.00     0.022 A 
BRANCH  69  72
ATOM     72  S   UNL A   1      37.266  31.780  38.578  1.00  0.00     0.127 S 
ATOM     73  O   UNL A   1      37.904  32.089  39.858  1.00  0.00    -0.237 OA
ATOM     74  O   UNL A   1      36.136  32.644  38.237  1.00  0.00    -0.237 OA
ATOM     75  O   UNL A   1      37.052  30.364  38.315  1.00  0.00    -0.744 OA
ENDBRANCH  69  72
ENDBRANCH  51  65
BRANCH  52  76
ATOM     76  C   UNL A   1      42.441  26.196  27.859  1.00  0.00     0.023 A 
ATOM     77  C   UNL A   1      43.369  26.679  26.917  1.00  0.00     0.012 A 
ATOM     78  C   UNL A   1      41.896  24.908  27.677  1.00  0.00     0.148 A 
ATOM     79  C   UNL A   1      43.726  25.904  25.810  1.00  0.00     0.002 A 
ATOM     80  C   UNL A   1      42.326  24.108  26.628  1.00  0.00     0.091 A 
ATOM     81  F   UNL A   1      40.974  24.476  28.551  1.00  0.00    -0.205 F 
ATOM     82  C   UNL A   1      43.220  24.612  25.676  1.00  0.00     0.022 A 
BRANCH  80  83
ATOM     83  S   UNL A   1      41.852  22.380  26.495  1.00  0.00     0.127 S 
ATOM     84  O   UNL A   1      42.398  22.020  25.191  1.00  0.00    -0.237 OA
ATOM     85  O   UNL A   1      42.545  21.791  27.641  1.00  0.00    -0.237 OA
ATOM     86  O   UNL A   1      40.398  22.360  26.603  1.00  0.00    -0.744 OA
ENDBRANCH  80  83
ENDBRANCH  52  76
BRANCH  64  87
ATOM     87  C   UNL A   1      45.067  27.118  34.241  1.00  0.00     0.023 A 
ATOM     88  C   UNL A   1      46.353  27.691  34.177  1.00  0.00     0.012 A 
ATOM     89  C   UNL A   1      44.863  25.968  35.030  1.00  0.00     0.148 A 
ATOM     90  C   UNL A   1      47.424  27.104  34.850  1.00  0.00     0.002 A 
ATOM     91  C   UNL A   1      45.923  25.422  35.743  1.00  0.00     0.091 A 
ATOM     92  F   UNL A   1      43.637  25.427  35.064  1.00  0.00    -0.205 F 
ATOM     93  C   UNL A   1      47.208  25.977  35.640  1.00  0.00     0.022 A 
BRANCH  91  94
ATOM     94  S   UNL A   1      45.718  24.030  36.858  1.00  0.00     0.127 S 
ATOM     95  O   UNL A   1      47.069  23.878  37.395  1.00  0.00    -0.237 OA
ATOM     96  O   UNL A   1      44.735  24.543  37.813  1.00  0.00    -0.237 OA
ATOM     97  O   UNL A   1      45.246  22.921  36.040  1.00  0.00    -0.744 OA
ENDBRANCH  91  94
ENDBRANCH  64  87
ENDBRANCH  38  39
ENDBRANCH  30  33
ENDBRANCH  28  29
ENDBRANCH  27  28
ENDBRANCH   1  27
TORSDOF 18
ENDMDL
MODEL 2
REMARK VINA RESULT:     -12.0      4.998      7.969
REMARK SMILES O=C(C[C@H](C(=O)NCCCCNC(=O)c1ccc(-c2c3nc(c(-c4cccc(S(=O)(=O)[O-])c4F)c4ccc([nH]4)c(-c4cccc(S(=O)(=O)[O-])c4F)c4nc(c(-c5cccc(S(=O)(=O)[O-])c5F)c5ccc2[nH]5)C=C4)C=C3)cc1)c1ccccc1)Nc1ccc(Cl)cc1Cl
REMARK SMILES IDX 9 1 8 2 7 3 5 4 6 5 4 7 3 8 2 9 1 10 84 11 85 13 86 14 91 15
REMARK SMILES IDX 87 16 90 17 92 18 88 19 89 20 78 21 79 22 83 23 80 24 82 25
REMARK SMILES IDX 81 26 10 27 11 28 12 29 13 30 14 32 15 33 16 34 77 35 17 36
REMARK SMILES IDX 76 37 18 38 19 39 20 40 70 41 21 42 75 43 69 44 71 45 22 46
REMARK SMILES IDX 74 47 68 48 67 49 23 51 55 52 35 53 54 54 36 55 39 56 53 57
REMARK SMILES IDX 72 58 37 59 38 60 52 62 73 63 40 64 24 65 25 66 33 67 26 68
REMARK SMILES IDX 28 69 34 70 27 71 29 72 30 73 31 74 32 75 56 76 57 77 65 78
REMARK SMILES IDX 58 79 60 80 66 81 59 82 61 83 62 84 63 85 64 86 41 87 42 88
REMARK SMILES IDX 50 89 43 90 45 91 51 92 44 93 46 94 47 95 48 96 49 97
REMARK H PARENT 7 6 84 12 12 31 71 50 39 61
REMARK Flexibility Score: inf
ROOT
ATOM      1  C   UNL A   1      34.221  31.876  27.906  1.00  0.00     0.023 C 
ENDROOT
BRANCH   1   2
ATOM      2  C   UNL A   1      34.164  30.272  27.553  1.00  0.00     0.116 C 
BRANCH   2   3
ATOM      3  N   UNL A   1      33.029  29.340  27.800  1.00  0.00    -0.356 N 
ATOM      4  C   UNL A   1      32.320  28.326  27.235  1.00  0.00     0.228 C 
ATOM      5  O   UNL A   1      31.341  27.886  27.852  1.00  0.00    -0.274 OA
ATOM      6  H   UNL A   1      32.659  29.524  28.693  1.00  0.00     0.163 HD
BRANCH   4   7
ATOM      7  C   UNL A   1      32.615  27.784  25.863  1.00  0.00     0.118 C 
BRANCH   7   8
ATOM      8  C   UNL A   1      33.818  26.868  26.010  1.00  0.00     0.118 C 
BRANCH   8   9
ATOM      9  C   UNL A   1      33.902  25.586  25.079  1.00  0.00     0.225 C 
ATOM     10  O   UNL A   1      33.867  25.900  23.885  1.00  0.00    -0.275 OA
ATOM     11  N   UNL A   1      34.160  24.271  25.607  1.00  0.00    -0.325 N 
ATOM     12  H   UNL A   1      34.735  24.283  26.404  1.00  0.00     0.169 HD
BRANCH  11  13
ATOM     13  C   UNL A   1      33.735  22.859  25.201  1.00  0.00     0.060 A 
ATOM     14  C   UNL A   1      34.673  21.813  25.293  1.00  0.00     0.029 A 
ATOM     15  C   UNL A   1      32.455  22.282  24.996  1.00  0.00     0.066 A 
ATOM     16  C   UNL A   1      34.436  20.384  24.866  1.00  0.00     0.023 A 
ATOM     17  C   UNL A   1      32.242  20.865  24.714  1.00  0.00     0.043 A 
ATOM     18  Cl  UNL A   1      30.839  22.928  25.034  1.00  0.00    -0.082 Cl
ATOM     19  C   UNL A   1      33.179  19.797  24.314  1.00  0.00     0.042 A 
ATOM     20  Cl  UNL A   1      32.709  17.831  22.882  1.00  0.00    -0.084 Cl
ENDBRANCH  11  13
ENDBRANCH   8   9
ENDBRANCH   7   8
BRANCH   7  21
ATOM     21  C   UNL A   1      31.307  27.506  25.095  1.00  0.00    -0.035 A 
ATOM     22  C   UNL A   1      30.923  28.481  24.135  1.00  0.00     0.004 A 
ATOM     23  C   UNL A   1      30.483  26.378  25.195  1.00  0.00     0.004 A 
ATOM     24  C   UNL A   1      29.769  28.376  23.357  1.00  0.00     0.000 A 
ATOM     25  C   UNL A   1      29.319  26.265  24.396  1.00  0.00     0.000 A 
ATOM     26  C   UNL A   1      28.957  27.264  23.489  1.00  0.00     0.000 A 
ENDBRANCH   7  21
ENDBRANCH   4   7
ENDBRANCH   2   3
ENDBRANCH   1   2
BRANCH   1  27
ATOM     27  C   UNL A   1      35.372  32.919  28.205  1.00  0.00     0.023 C 
BRANCH  27  28
ATOM     28  C   UNL A   1      35.433  33.769  29.485  1.00  0.00     0.116 C 
BRANCH  28  29
ATOM     29  N   UNL A   1      34.493  33.472  30.529  1.00  0.00    -0.352 N 
ATOM     30  C   UNL A   1      34.724  32.735  31.672  1.00  0.00     0.251 C 
ATOM     31  H   UNL A   1      33.584  33.832  30.416  1.00  0.00     0.163 HD
ATOM     32  O   UNL A   1      33.891  32.682  32.568  1.00  0.00    -0.269 OA
BRANCH  30  33
ATOM     33  C   UNL A   1      36.003  32.009  31.800  1.00  0.00     0.039 A 
ATOM     34  C   UNL A   1      37.293  32.714  32.859  1.00  0.00     0.014 A 
ATOM     35  C   UNL A   1      36.313  30.447  30.902  1.00  0.00     0.014 A 
ATOM     36  C   UNL A   1      38.901  31.878  33.027  1.00  0.00     0.010 A 
ATOM     37  C   UNL A   1      37.867  29.516  31.234  1.00  0.00     0.010 A 
ATOM     38  C   UNL A   1      39.222  30.248  32.229  1.00  0.00    -0.014 A 
BRANCH  38  39
ATOM     39  C   UNL A   1      40.724  29.945  31.846  1.00  0.00     0.031 A 
ATOM     40  C   UNL A   1      41.599  30.879  30.981  1.00  0.00     0.074 A 
ATOM     41  C   UNL A   1      41.424  28.944  32.442  1.00  0.00     0.049 A 
ATOM     42  N   UNL A   1      42.775  30.641  30.428  1.00  0.00    -0.248 NA
ATOM     43  C   UNL A   1      41.121  32.233  30.685  1.00  0.00     0.031 C 
ATOM     44  C   UNL A   1      40.887  27.953  33.364  1.00  0.00     0.029 A 
ATOM     45  N   UNL A   1      42.776  28.630  32.419  1.00  0.00    -0.354 N 
ATOM     46  C   UNL A   1      43.075  31.744  29.622  1.00  0.00     0.074 A 
ATOM     47  C   UNL A   1      41.963  32.653  29.753  1.00  0.00     0.031 C 
ATOM     48  C   UNL A   1      41.884  27.296  33.967  1.00  0.00     0.029 A 
ATOM     49  C   UNL A   1      43.120  27.587  33.257  1.00  0.00     0.049 A 
ATOM     50  H   UNL A   1      43.429  29.106  31.857  1.00  0.00     0.167 HD
ATOM     51  C   UNL A   1      44.177  32.023  28.875  1.00  0.00     0.034 A 
ATOM     52  C   UNL A   1      44.236  26.834  33.384  1.00  0.00     0.034 A 
ATOM     53  C   UNL A   1      45.395  31.253  28.877  1.00  0.00     0.049 A 
ATOM     54  C   UNL A   1      45.412  27.087  32.488  1.00  0.00     0.074 A 
ATOM     55  C   UNL A   1      46.555  31.473  28.147  1.00  0.00     0.029 A 
ATOM     56  N   UNL A   1      45.638  30.152  29.677  1.00  0.00    -0.354 N 
ATOM     57  N   UNL A   1      45.601  28.055  31.629  1.00  0.00    -0.248 NA
ATOM     58  C   UNL A   1      46.524  26.125  32.562  1.00  0.00     0.031 C 
ATOM     59  C   UNL A   1      47.477  30.472  28.468  1.00  0.00     0.029 A 
ATOM     60  C   UNL A   1      46.917  29.670  29.445  1.00  0.00     0.049 A 
ATOM     61  H   UNL A   1      44.997  29.767  30.317  1.00  0.00     0.167 HD
ATOM     62  C   UNL A   1      46.860  27.835  31.083  1.00  0.00     0.074 A 
ATOM     63  C   UNL A   1      47.402  26.659  31.727  1.00  0.00     0.031 C 
ATOM     64  C   UNL A   1      47.497  28.539  30.118  1.00  0.00     0.034 A 
BRANCH  51  65
ATOM     65  C   UNL A   1      44.131  33.219  27.942  1.00  0.00     0.023 A 
ATOM     66  C   UNL A   1      43.793  33.081  26.581  1.00  0.00     0.012 A 
ATOM     67  C   UNL A   1      44.360  34.512  28.462  1.00  0.00     0.148 A 
ATOM     68  C   UNL A   1      43.739  34.199  25.745  1.00  0.00     0.002 A 
ATOM     69  C   UNL A   1      44.247  35.626  27.638  1.00  0.00     0.091 A 
ATOM     70  F   UNL A   1      44.676  34.630  29.760  1.00  0.00    -0.205 F 
ATOM     71  C   UNL A   1      43.956  35.469  26.274  1.00  0.00     0.022 A 
BRANCH  69  72
ATOM     72  S   UNL A   1      44.413  37.307  28.250  1.00  0.00     0.127 S 
ATOM     73  O   UNL A   1      43.424  37.327  29.327  1.00  0.00    -0.237 OA
ATOM     74  O   UNL A   1      45.804  37.333  28.701  1.00  0.00    -0.237 OA
ATOM     75  O   UNL A   1      44.123  38.180  27.121  1.00  0.00    -0.744 OA
ENDBRANCH  69  72
ENDBRANCH  51  65
BRANCH  52  76
ATOM     76  C   UNL A   1      44.248  25.651  34.307  1.00  0.00     0.023 A 
ATOM     77  C   UNL A   1      43.854  24.378  33.850  1.00  0.00     0.012 A 
ATOM     78  C   UNL A   1      44.627  25.800  35.657  1.00  0.00     0.148 A 
ATOM     79  C   UNL A   1      43.820  23.290  34.726  1.00  0.00     0.002 A 
ATOM     80  C   UNL A   1      44.681  24.697  36.496  1.00  0.00     0.091 A 
ATOM     81  F   UNL A   1      44.951  27.026  36.097  1.00  0.00    -0.205 F 
ATOM     82  C   UNL A   1      44.252  23.444  36.042  1.00  0.00     0.022 A 
BRANCH  80  83
ATOM     83  S   UNL A   1      45.389  24.789  38.144  1.00  0.00     0.127 S 
ATOM     84  O   UNL A   1      46.727  25.301  37.867  1.00  0.00    -0.237 OA
ATOM     85  O   UNL A   1      44.488  25.734  38.804  1.00  0.00    -0.237 OA
ATOM     86  O   UNL A   1      45.325  23.434  38.678  1.00  0.00    -0.744 OA
ENDBRANCH  80  83
ENDBRANCH  52  76
BRANCH  64  87
ATOM     87  C   UNL A   1      48.896  28.124  29.751  1.00  0.00     0.023 A 
ATOM     88  C   UNL A   1      50.005  28.642  30.450  1.00  0.00     0.012 A 
ATOM     89  C   UNL A   1      49.107  27.184  28.722  1.00  0.00     0.148 A 
ATOM     90  C   UNL A   1      51.302  28.265  30.100  1.00  0.00     0.002 A 
ATOM     91  C   UNL A   1      50.397  26.770  28.418  1.00  0.00     0.091 A 
ATOM     92  F   UNL A   1      48.041  26.717  28.056  1.00  0.00    -0.205 F 
ATOM     93  C   UNL A   1      51.497  27.322  29.093  1.00  0.00     0.022 A 
BRANCH  91  94
ATOM     94  S   UNL A   1      50.738  25.494  27.201  1.00  0.00     0.127 S 
ATOM     95  O   UNL A   1      50.141  26.066  25.995  1.00  0.00    -0.237 OA
ATOM     96  O   UNL A   1      52.201  25.455  27.198  1.00  0.00    -0.237 OA
ATOM     97  O   UNL A   1      50.100  24.282  27.696  1.00  0.00    -0.744 OA
ENDBRANCH  91  94
ENDBRANCH  64  87
ENDBRANCH  38  39
ENDBRANCH  30  33
ENDBRANCH  28  29
ENDBRANCH  27  28
ENDBRANCH   1  27
TORSDOF 18
ENDMDL
MODEL 3
REMARK VINA RESULT:     -11.9      5.331      8.458
REMARK SMILES O=C(C[C@H](C(=O)NCCCCNC(=O)c1ccc(-c2c3nc(c(-c4cccc(S(=O)(=O)[O-])c4F)c4ccc([nH]4)c(-c4cccc(S(=O)(=O)[O-])c4F)c4nc(c(-c5cccc(S(=O)(=O)[O-])c5F)c5ccc2[nH]5)C=C4)C=C3)cc1)c1ccccc1)Nc1ccc(Cl)cc1Cl
REMARK SMILES IDX 9 1 8 2 7 3 5 4 6 5 4 7 3 8 2 9 1 10 84 11 85 13 86 14 91 15
REMARK SMILES IDX 87 16 90 17 92 18 88 19 89 20 78 21 79 22 83 23 80 24 82 25
REMARK SMILES IDX 81 26 10 27 11 28 12 29 13 30 14 32 15 33 16 34 77 35 17 36
REMARK SMILES IDX 76 37 18 38 19 39 20 40 70 41 21 42 75 43 69 44 71 45 22 46
REMARK SMILES IDX 74 47 68 48 67 49 23 51 55 52 35 53 54 54 36 55 39 56 53 57
REMARK SMILES IDX 72 58 37 59 38 60 52 62 73 63 40 64 24 65 25 66 33 67 26 68
REMARK SMILES IDX 28 69 34 70 27 71 29 72 30 73 31 74 32 75 56 76 57 77 65 78
REMARK SMILES IDX 58 79 60 80 66 81 59 82 61 83 62 84 63 85 64 86 41 87 42 88
REMARK SMILES IDX 50 89 43 90 45 91 51 92 44 93 46 94 47 95 48 96 49 97
REMARK H PARENT 7 6 84 12 12 31 71 50 39 61
REMARK Flexibility Score: inf
ROOT
ATOM      1  C   UNL A   1      34.895  23.708  23.437  1.00  0.00     0.023 C 
ENDROOT
BRANCH   1   2
ATOM      2  C   UNL A   1      34.503  25.051  24.301  1.00  0.00     0.116 C 
BRANCH   2   3
ATOM      3  N   UNL A   1      33.897  26.306  23.779  1.00  0.00    -0.356 N 
ATOM      4  C   UNL A   1      32.726  26.994  23.711  1.00  0.00     0.228 C 
ATOM      5  O   UNL A   1      32.704  28.044  23.054  1.00  0.00    -0.274 OA
ATOM      6  H   UNL A   1      34.594  26.825  23.317  1.00  0.00     0.163 HD
BRANCH   4   7
ATOM      7  C   UNL A   1      31.443  26.492  24.316  1.00  0.00     0.118 C 
BRANCH   7   8
ATOM      8  C   UNL A   1      31.782  26.027  25.722  1.00  0.00     0.118 C 
BRANCH   8   9
ATOM      9  C   UNL A   1      31.617  24.485  26.062  1.00  0.00     0.225 C 
ATOM     10  O   UNL A   1      31.295  24.322  27.243  1.00  0.00    -0.275 OA
ATOM     11  N   UNL A   1      31.673  23.466  25.045  1.00  0.00    -0.325 N 
ATOM     12  H   UNL A   1      31.331  23.773  24.175  1.00  0.00     0.169 HD
BRANCH  11  13
ATOM     13  C   UNL A   1      32.148  22.014  25.021  1.00  0.00     0.060 A 
ATOM     14  C   UNL A   1      32.017  21.274  23.829  1.00  0.00     0.029 A 
ATOM     15  C   UNL A   1      32.988  21.281  25.899  1.00  0.00     0.066 A 
ATOM     16  C   UNL A   1      32.368  19.815  23.659  1.00  0.00     0.023 A 
ATOM     17  C   UNL A   1      33.424  19.910  25.646  1.00  0.00     0.043 A 
ATOM     18  Cl  UNL A   1      33.766  21.675  27.405  1.00  0.00    -0.082 Cl
ATOM     19  C   UNL A   1      32.952  18.897  24.682  1.00  0.00     0.042 A 
ATOM     20  Cl  UNL A   1      32.925  16.436  24.966  1.00  0.00    -0.084 Cl
ENDBRANCH  11  13
ENDBRANCH   8   9
ENDBRANCH   7   8
BRANCH   7  21
ATOM     21  C   UNL A   1      30.254  27.368  23.874  1.00  0.00    -0.035 A 
ATOM     22  C   UNL A   1      28.979  26.739  23.869  1.00  0.00     0.004 A 
ATOM     23  C   UNL A   1      30.275  28.726  23.531  1.00  0.00     0.004 A 
ATOM     24  C   UNL A   1      27.803  27.394  23.497  1.00  0.00     0.000 A 
ATOM     25  C   UNL A   1      29.080  29.395  23.167  1.00  0.00     0.000 A 
ATOM     26  C   UNL A   1      27.852  28.730  23.140  1.00  0.00     0.000 A 
ENDBRANCH   7  21
ENDBRANCH   4   7
ENDBRANCH   2   3
ENDBRANCH   1   2
BRANCH   1  27
ATOM     27  C   UNL A   1      36.069  22.649  23.481  1.00  0.00     0.023 C 
BRANCH  27  28
ATOM     28  C   UNL A   1      36.464  21.874  24.749  1.00  0.00     0.116 C 
BRANCH  28  29
ATOM     29  N   UNL A   1      37.441  20.830  24.616  1.00  0.00    -0.352 N 
ATOM     30  C   UNL A   1      38.638  20.720  25.292  1.00  0.00     0.251 C 
ATOM     31  H   UNL A   1      37.234  20.116  23.972  1.00  0.00     0.163 HD
ATOM     32  O   UNL A   1      39.316  19.703  25.213  1.00  0.00    -0.269 OA
BRANCH  30  33
ATOM     33  C   UNL A   1      39.091  21.854  26.121  1.00  0.00     0.039 A 
ATOM     34  C   UNL A   1      38.052  23.337  26.195  1.00  0.00     0.014 A 
ATOM     35  C   UNL A   1      40.670  21.800  27.040  1.00  0.00     0.014 A 
ATOM     36  C   UNL A   1      38.578  24.778  27.174  1.00  0.00     0.010 A 
ATOM     37  C   UNL A   1      41.092  23.186  28.178  1.00  0.00     0.010 A 
ATOM     38  C   UNL A   1      40.106  24.731  28.204  1.00  0.00    -0.014 A 
BRANCH  38  39
ATOM     39  C   UNL A   1      40.829  26.116  28.437  1.00  0.00     0.031 A 
ATOM     40  C   UNL A   1      40.209  27.292  29.222  1.00  0.00     0.074 A 
ATOM     41  C   UNL A   1      42.147  26.288  28.154  1.00  0.00     0.049 A 
ATOM     42  N   UNL A   1      40.617  28.546  29.303  1.00  0.00    -0.248 NA
ATOM     43  C   UNL A   1      38.991  27.063  30.006  1.00  0.00     0.031 C 
ATOM     44  C   UNL A   1      43.015  25.327  27.487  1.00  0.00     0.029 A 
ATOM     45  N   UNL A   1      43.024  27.321  28.458  1.00  0.00    -0.354 N 
ATOM     46  C   UNL A   1      39.633  29.249  30.007  1.00  0.00     0.074 A 
ATOM     47  C   UNL A   1      38.607  28.288  30.332  1.00  0.00     0.031 C 
ATOM     48  C   UNL A   1      44.294  25.696  27.612  1.00  0.00     0.029 A 
ATOM     49  C   UNL A   1      44.330  27.070  28.088  1.00  0.00     0.049 A 
ATOM     50  H   UNL A   1      42.740  28.155  28.898  1.00  0.00     0.167 HD
ATOM     51  C   UNL A   1      39.583  30.549  30.401  1.00  0.00     0.034 A 
ATOM     52  C   UNL A   1      45.430  27.852  27.995  1.00  0.00     0.034 A 
ATOM     53  C   UNL A   1      40.668  31.491  30.288  1.00  0.00     0.049 A 
ATOM     54  C   UNL A   1      45.341  29.309  28.339  1.00  0.00     0.074 A 
ATOM     55  C   UNL A   1      40.693  32.826  30.665  1.00  0.00     0.029 A 
ATOM     56  N   UNL A   1      41.932  31.194  29.812  1.00  0.00    -0.354 N 
ATOM     57  N   UNL A   1      44.344  29.972  28.865  1.00  0.00    -0.248 NA
ATOM     58  C   UNL A   1      46.526  30.134  28.054  1.00  0.00     0.031 C 
ATOM     59  C   UNL A   1      41.955  33.348  30.367  1.00  0.00     0.029 A 
ATOM     60  C   UNL A   1      42.736  32.322  29.866  1.00  0.00     0.049 A 
ATOM     61  H   UNL A   1      42.218  30.312  29.484  1.00  0.00     0.167 HD
ATOM     62  C   UNL A   1      44.790  31.282  28.999  1.00  0.00     0.074 A 
ATOM     63  C   UNL A   1      46.156  31.315  28.526  1.00  0.00     0.031 C 
ATOM     64  C   UNL A   1      44.114  32.361  29.457  1.00  0.00     0.034 A 
BRANCH  51  65
ATOM     65  C   UNL A   1      38.285  31.076  30.985  1.00  0.00     0.023 A 
ATOM     66  C   UNL A   1      38.041  31.061  32.372  1.00  0.00     0.012 A 
ATOM     67  C   UNL A   1      37.327  31.662  30.128  1.00  0.00     0.148 A 
ATOM     68  C   UNL A   1      36.846  31.569  32.890  1.00  0.00     0.002 A 
ATOM     69  C   UNL A   1      36.167  32.218  30.655  1.00  0.00     0.091 A 
ATOM     70  F   UNL A   1      37.573  31.673  28.810  1.00  0.00    -0.205 F 
ATOM     71  C   UNL A   1      35.915  32.154  32.034  1.00  0.00     0.022 A 
BRANCH  69  72
ATOM     72  S   UNL A   1      34.957  33.079  29.642  1.00  0.00     0.127 S 
ATOM     73  O   UNL A   1      35.796  34.050  28.942  1.00  0.00    -0.237 OA
ATOM     74  O   UNL A   1      34.440  32.001  28.799  1.00  0.00    -0.237 OA
ATOM     75  O   UNL A   1      33.986  33.647  30.567  1.00  0.00    -0.744 OA
ENDBRANCH  69  72
ENDBRANCH  51  65
BRANCH  52  76
ATOM     76  C   UNL A   1      46.697  27.306  27.404  1.00  0.00     0.023 A 
ATOM     77  C   UNL A   1      47.708  26.779  28.230  1.00  0.00     0.012 A 
ATOM     78  C   UNL A   1      46.908  27.339  26.009  1.00  0.00     0.148 A 
ATOM     79  C   UNL A   1      48.907  26.318  27.679  1.00  0.00     0.002 A 
ATOM     80  C   UNL A   1      48.061  26.794  25.462  1.00  0.00     0.091 A 
ATOM     81  F   UNL A   1      45.962  27.890  25.234  1.00  0.00    -0.205 F 
ATOM     82  C   UNL A   1      49.075  26.307  26.295  1.00  0.00     0.022 A 
BRANCH  80  83
ATOM     83  S   UNL A   1      48.266  26.588  23.690  1.00  0.00     0.127 S 
ATOM     84  O   UNL A   1      49.705  26.771  23.532  1.00  0.00    -0.237 OA
ATOM     85  O   UNL A   1      47.790  25.218  23.491  1.00  0.00    -0.237 OA
ATOM     86  O   UNL A   1      47.423  27.605  23.074  1.00  0.00    -0.744 OA
ENDBRANCH  80  83
ENDBRANCH  52  76
BRANCH  64  87
ATOM     87  C   UNL A   1      44.858  33.666  29.562  1.00  0.00     0.023 A 
ATOM     88  C   UNL A   1      45.568  33.994  30.734  1.00  0.00     0.012 A 
ATOM     89  C   UNL A   1      44.877  34.557  28.471  1.00  0.00     0.148 A 
ATOM     90  C   UNL A   1      46.247  35.208  30.834  1.00  0.00     0.002 A 
ATOM     91  C   UNL A   1      45.603  35.738  28.557  1.00  0.00     0.091 A 
ATOM     92  F   UNL A   1      44.180  34.236  27.371  1.00  0.00    -0.205 F 
ATOM     93  C   UNL A   1      46.273  36.074  29.743  1.00  0.00     0.022 A 
BRANCH  91  94
ATOM     94  S   UNL A   1      45.770  36.869  27.172  1.00  0.00     0.127 S 
ATOM     95  O   UNL A   1      44.389  37.308  26.978  1.00  0.00    -0.237 OA
ATOM     96  O   UNL A   1      46.664  37.892  27.716  1.00  0.00    -0.237 OA
ATOM     97  O   UNL A   1      46.334  36.090  26.078  1.00  0.00    -0.744 OA
ENDBRANCH  91  94
ENDBRANCH  64  87
ENDBRANCH  38  39
ENDBRANCH  30  33
ENDBRANCH  28  29
ENDBRANCH  27  28
ENDBRANCH   1  27
TORSDOF 18
ENDMDL
