MODEL 1
REMARK VINA RESULT:     -11.8      0.000      0.000
REMARK SMILES Cc1cccc(S(=O)(=O)N[C@@H](CCC(N)=O)C(=O)NCCCCNC(=O)c2ccc(-c3c4nc(c(-c5cccc(S(=O)(=O)[O-])c5F)c5ccc([nH]5)c(-c5cccc(S(=O)(=O)[O-])c5F)c5nc(c(-c6cccc(S(=O)(=O)[O-])c6F)c6ccc3[nH]6)C=C5)C=C4)cc2)c1
REMARK SMILES IDX 21 1 20 2 19 3 17 4 18 5 11 7 10 8 7 10 8 11 9 12 6 13 1 14
REMARK SMILES IDX 2 15 3 16 90 17 4 18 5 19 12 20 13 21 14 22 15 23 16 24
REMARK SMILES IDX 22 27 23 28 24 29 25 30 26 32 27 33 28 34 89 35 29 36 88 37
REMARK SMILES IDX 30 38 31 39 32 40 82 41 33 42 87 43 81 44 83 45 34 46 86 47
REMARK SMILES IDX 80 48 79 49 35 51 67 52 47 53 66 54 48 55 51 56 65 57 84 58
REMARK SMILES IDX 49 59 50 60 64 62 85 63 52 64 36 65 37 66 45 67 38 68 40 69
REMARK SMILES IDX 46 70 39 71 41 72 42 73 43 74 44 75 68 76 69 77 77 78 70 79
REMARK SMILES IDX 72 80 78 81 71 82 73 83 74 84 75 85 76 86 53 87 54 88 62 89
REMARK SMILES IDX 55 90 57 91 63 92 56 93 58 94 59 95 60 96 61 97
REMARK H PARENT 19 6 10 9 15 25 15 26 24 31 83 50 51 61
REMARK Flexibility Score: inf
ROOT
ATOM      1  C   UNL A   1      36.007  23.662  25.161  1.00  0.00     0.023 C 
ENDROOT
BRANCH   1   2
ATOM      2  C   UNL A   1      35.139  22.655  24.404  1.00  0.00     0.116 C 
BRANCH   2   3
ATOM      3  N   UNL A   1      34.695  23.152  23.107  1.00  0.00    -0.355 N 
ATOM      4  C   UNL A   1      33.668  23.990  22.764  1.00  0.00     0.238 C 
ATOM      5  O   UNL A   1      33.489  24.218  21.563  1.00  0.00    -0.273 OA
ATOM      6  H   UNL A   1      35.226  22.827  22.345  1.00  0.00     0.163 HD
BRANCH   4   7
ATOM      7  C   UNL A   1      32.665  24.507  23.817  1.00  0.00     0.159 C 
BRANCH   7   8
ATOM      8  N   UNL A   1      31.883  25.553  23.124  1.00  0.00    -0.199 NA
ATOM      9  H   UNL A   1      32.252  25.567  22.173  1.00  0.00     0.142 HD
BRANCH   8  10
ATOM     10  S   UNL A   1      31.738  27.146  23.545  1.00  0.00     0.241 S 
ATOM     11  O   UNL A   1      32.480  27.933  22.570  1.00  0.00    -0.207 OA
ATOM     12  O   UNL A   1      32.050  27.205  24.944  1.00  0.00    -0.207 OA
BRANCH  10  13
ATOM     13  C   UNL A   1      30.028  27.581  23.384  1.00  0.00     0.082 A 
ATOM     14  C   UNL A   1      27.824  30.544  22.499  1.00  0.00     0.044 C 
ATOM     15  C   UNL A   1      28.264  29.167  22.900  1.00  0.00    -0.050 A 
ATOM     16  C   UNL A   1      27.323  28.225  23.334  1.00  0.00     0.003 A 
ATOM     17  C   UNL A   1      29.619  28.816  22.873  1.00  0.00     0.025 A 
ATOM     18  C   UNL A   1      27.729  26.965  23.774  1.00  0.00     0.002 A 
ATOM     19  C   UNL A   1      29.084  26.648  23.821  1.00  0.00     0.022 A 
ENDBRANCH  10  13
ENDBRANCH   8  10
ENDBRANCH   7   8
BRANCH   7  20
ATOM     20  C   UNL A   1      31.885  23.477  24.641  1.00  0.00     0.040 C 
BRANCH  20  21
ATOM     21  C   UNL A   1      30.679  23.914  25.469  1.00  0.00     0.102 C 
BRANCH  21  22
ATOM     22  C   UNL A   1      30.597  23.200  26.801  1.00  0.00     0.217 C 
ATOM     23  N   UNL A   1      29.491  22.439  26.976  1.00  0.00    -0.370 N 
ATOM     24  O   UNL A   1      31.453  23.281  27.674  1.00  0.00    -0.275 OA
ATOM     25  H   UNL A   1      28.814  22.385  26.264  1.00  0.00     0.159 HD
ATOM     26  H   UNL A   1      29.365  21.939  27.814  1.00  0.00     0.159 HD
ENDBRANCH  21  22
ENDBRANCH  20  21
ENDBRANCH   7  20
ENDBRANCH   4   7
ENDBRANCH   2   3
ENDBRANCH   1   2
BRANCH   1  27
ATOM     27  C   UNL A   1      37.046  23.048  26.096  1.00  0.00     0.023 C 
BRANCH  27  28
ATOM     28  C   UNL A   1      38.219  22.401  25.382  1.00  0.00     0.116 C 
BRANCH  28  29
ATOM     29  N   UNL A   1      39.376  22.190  26.221  1.00  0.00    -0.352 N 
ATOM     30  C   UNL A   1      40.250  23.120  26.753  1.00  0.00     0.251 C 
ATOM     31  H   UNL A   1      39.569  21.251  26.448  1.00  0.00     0.163 HD
ATOM     32  O   UNL A   1      41.343  22.712  27.138  1.00  0.00    -0.269 OA
BRANCH  30  33
ATOM     33  C   UNL A   1      39.822  24.524  27.009  1.00  0.00     0.039 A 
ATOM     34  C   UNL A   1      40.487  25.537  26.300  1.00  0.00     0.014 A 
ATOM     35  C   UNL A   1      39.014  24.871  28.087  1.00  0.00     0.014 A 
ATOM     36  C   UNL A   1      40.578  26.816  26.838  1.00  0.00     0.010 A 
ATOM     37  C   UNL A   1      39.177  26.095  28.677  1.00  0.00     0.010 A 
ATOM     38  C   UNL A   1      40.027  27.028  28.089  1.00  0.00    -0.014 A 
BRANCH  38  39
ATOM     39  C   UNL A   1      40.246  28.192  28.915  1.00  0.00     0.031 A 
ATOM     40  C   UNL A   1      39.355  29.339  28.760  1.00  0.00     0.074 A 
ATOM     41  C   UNL A   1      41.047  28.012  29.988  1.00  0.00     0.049 A 
ATOM     42  N   UNL A   1      39.617  30.509  29.214  1.00  0.00    -0.248 NA
ATOM     43  C   UNL A   1      38.076  29.245  28.062  1.00  0.00     0.031 C 
ATOM     44  C   UNL A   1      41.078  28.758  31.235  1.00  0.00     0.029 A 
ATOM     45  N   UNL A   1      42.140  27.143  30.082  1.00  0.00    -0.354 N 
ATOM     46  C   UNL A   1      38.439  31.220  29.161  1.00  0.00     0.074 A 
ATOM     47  C   UNL A   1      37.547  30.439  28.337  1.00  0.00     0.031 C 
ATOM     48  C   UNL A   1      42.257  28.534  31.840  1.00  0.00     0.029 A 
ATOM     49  C   UNL A   1      43.080  27.787  30.901  1.00  0.00     0.049 A 
ATOM     50  H   UNL A   1      42.229  26.258  29.660  1.00  0.00     0.167 HD
ATOM     51  C   UNL A   1      38.276  32.280  29.998  1.00  0.00     0.034 A 
ATOM     52  C   UNL A   1      44.316  28.152  30.448  1.00  0.00     0.034 A 
ATOM     53  C   UNL A   1      39.467  32.447  30.844  1.00  0.00     0.049 A 
ATOM     54  C   UNL A   1      44.491  29.661  30.496  1.00  0.00     0.074 A 
ATOM     55  C   UNL A   1      39.767  32.023  32.130  1.00  0.00     0.029 A 
ATOM     56  N   UNL A   1      40.680  32.796  30.260  1.00  0.00    -0.354 N 
ATOM     57  N   UNL A   1      43.515  30.501  30.709  1.00  0.00    -0.248 NA
ATOM     58  C   UNL A   1      45.768  30.339  30.327  1.00  0.00     0.031 C 
ATOM     59  C   UNL A   1      41.178  32.071  32.296  1.00  0.00     0.029 A 
ATOM     60  C   UNL A   1      41.739  32.544  31.123  1.00  0.00     0.049 A 
ATOM     61  H   UNL A   1      40.776  33.171  29.354  1.00  0.00     0.167 HD
ATOM     62  C   UNL A   1      43.968  31.792  30.645  1.00  0.00     0.074 A 
ATOM     63  C   UNL A   1      45.403  31.628  30.456  1.00  0.00     0.031 C 
ATOM     64  C   UNL A   1      43.110  32.863  30.724  1.00  0.00     0.034 A 
BRANCH  51  65
ATOM     65  C   UNL A   1      36.924  32.890  30.307  1.00  0.00     0.023 A 
ATOM     66  C   UNL A   1      36.285  33.606  29.270  1.00  0.00     0.012 A 
ATOM     67  C   UNL A   1      36.250  32.853  31.551  1.00  0.00     0.148 A 
ATOM     68  C   UNL A   1      35.102  34.323  29.470  1.00  0.00     0.002 A 
ATOM     69  C   UNL A   1      35.099  33.621  31.769  1.00  0.00     0.091 A 
ATOM     70  F   UNL A   1      36.680  32.026  32.511  1.00  0.00    -0.205 F 
ATOM     71  C   UNL A   1      34.525  34.358  30.728  1.00  0.00     0.022 A 
BRANCH  69  72
ATOM     72  S   UNL A   1      34.339  33.799  33.393  1.00  0.00     0.127 S 
ATOM     73  O   UNL A   1      34.147  35.247  33.492  1.00  0.00    -0.237 OA
ATOM     74  O   UNL A   1      33.103  33.033  33.250  1.00  0.00    -0.237 OA
ATOM     75  O   UNL A   1      35.308  33.268  34.346  1.00  0.00    -0.744 OA
ENDBRANCH  69  72
ENDBRANCH  51  65
BRANCH  52  76
ATOM     76  C   UNL A   1      44.844  27.221  29.398  1.00  0.00     0.023 A 
ATOM     77  C   UNL A   1      44.963  25.857  29.776  1.00  0.00     0.012 A 
ATOM     78  C   UNL A   1      44.740  27.531  28.031  1.00  0.00     0.148 A 
ATOM     79  C   UNL A   1      44.757  24.835  28.846  1.00  0.00     0.002 A 
ATOM     80  C   UNL A   1      44.561  26.502  27.106  1.00  0.00     0.091 A 
ATOM     81  F   UNL A   1      44.720  28.818  27.664  1.00  0.00    -0.205 F 
ATOM     82  C   UNL A   1      44.506  25.160  27.518  1.00  0.00     0.022 A 
BRANCH  80  83
ATOM     83  S   UNL A   1      44.262  26.872  25.371  1.00  0.00     0.127 S 
ATOM     84  O   UNL A   1      43.401  28.046  25.467  1.00  0.00    -0.237 OA
ATOM     85  O   UNL A   1      45.604  27.139  24.858  1.00  0.00    -0.237 OA
ATOM     86  O   UNL A   1      43.655  25.657  24.848  1.00  0.00    -0.744 OA
ENDBRANCH  80  83
ENDBRANCH  52  76
BRANCH  64  87
ATOM     87  C   UNL A   1      43.447  34.326  30.448  1.00  0.00     0.023 A 
ATOM     88  C   UNL A   1      43.900  35.208  31.444  1.00  0.00     0.012 A 
ATOM     89  C   UNL A   1      43.433  34.844  29.120  1.00  0.00     0.148 A 
ATOM     90  C   UNL A   1      44.283  36.525  31.160  1.00  0.00     0.002 A 
ATOM     91  C   UNL A   1      43.937  36.106  28.825  1.00  0.00     0.091 A 
ATOM     92  F   UNL A   1      42.894  34.133  28.120  1.00  0.00    -0.205 F 
ATOM     93  C   UNL A   1      44.333  36.964  29.847  1.00  0.00     0.022 A 
BRANCH  91  94
ATOM     94  S   UNL A   1      44.237  36.626  27.128  1.00  0.00     0.127 S 
ATOM     95  O   UNL A   1      45.200  35.625  26.674  1.00  0.00    -0.237 OA
ATOM     96  O   UNL A   1      42.905  36.507  26.532  1.00  0.00    -0.237 OA
ATOM     97  O   UNL A   1      44.728  37.993  27.223  1.00  0.00    -0.744 OA
ENDBRANCH  91  94
ENDBRANCH  64  87
ENDBRANCH  38  39
ENDBRANCH  30  33
ENDBRANCH  28  29
ENDBRANCH  27  28
ENDBRANCH   1  27
TORSDOF 20
ENDMDL
MODEL 2
REMARK VINA RESULT:     -11.3      3.984      9.559
REMARK SMILES Cc1cccc(S(=O)(=O)N[C@@H](CCC(N)=O)C(=O)NCCCCNC(=O)c2ccc(-c3c4nc(c(-c5cccc(S(=O)(=O)[O-])c5F)c5ccc([nH]5)c(-c5cccc(S(=O)(=O)[O-])c5F)c5nc(c(-c6cccc(S(=O)(=O)[O-])c6F)c6ccc3[nH]6)C=C5)C=C4)cc2)c1
REMARK SMILES IDX 21 1 20 2 19 3 17 4 18 5 11 7 10 8 7 10 8 11 9 12 6 13 1 14
REMARK SMILES IDX 2 15 3 16 90 17 4 18 5 19 12 20 13 21 14 22 15 23 16 24
REMARK SMILES IDX 22 27 23 28 24 29 25 30 26 32 27 33 28 34 89 35 29 36 88 37
REMARK SMILES IDX 30 38 31 39 32 40 82 41 33 42 87 43 81 44 83 45 34 46 86 47
REMARK SMILES IDX 80 48 79 49 35 51 67 52 47 53 66 54 48 55 51 56 65 57 84 58
REMARK SMILES IDX 49 59 50 60 64 62 85 63 52 64 36 65 37 66 45 67 38 68 40 69
REMARK SMILES IDX 46 70 39 71 41 72 42 73 43 74 44 75 68 76 69 77 77 78 70 79
REMARK SMILES IDX 72 80 78 81 71 82 73 83 74 84 75 85 76 86 53 87 54 88 62 89
REMARK SMILES IDX 55 90 57 91 63 92 56 93 58 94 59 95 60 96 61 97
REMARK H PARENT 19 6 10 9 15 25 15 26 24 31 83 50 51 61
REMARK Flexibility Score: inf
ROOT
ATOM      1  C   UNL A   1      32.581  29.637  26.419  1.00  0.00     0.023 C 
ENDROOT
BRANCH   1   2
ATOM      2  C   UNL A   1      32.851  28.430  25.516  1.00  0.00     0.116 C 
BRANCH   2   3
ATOM      3  N   UNL A   1      31.746  27.478  25.500  1.00  0.00    -0.355 N 
ATOM      4  C   UNL A   1      30.950  27.035  24.478  1.00  0.00     0.238 C 
ATOM      5  O   UNL A   1      30.046  26.241  24.756  1.00  0.00    -0.273 OA
ATOM      6  H   UNL A   1      31.535  27.086  26.377  1.00  0.00     0.163 HD
BRANCH   4   7
ATOM      7  C   UNL A   1      31.065  27.625  23.055  1.00  0.00     0.159 C 
BRANCH   7   8
ATOM      8  N   UNL A   1      31.512  26.499  22.207  1.00  0.00    -0.199 NA
ATOM      9  H   UNL A   1      31.145  25.665  22.666  1.00  0.00     0.142 HD
BRANCH   8  10
ATOM     10  S   UNL A   1      33.065  26.105  21.793  1.00  0.00     0.241 S 
ATOM     11  O   UNL A   1      33.912  27.248  22.105  1.00  0.00    -0.207 OA
ATOM     12  O   UNL A   1      32.987  25.575  20.463  1.00  0.00    -0.207 OA
BRANCH  10  13
ATOM     13  C   UNL A   1      33.569  24.772  22.846  1.00  0.00     0.082 A 
ATOM     14  C   UNL A   1      36.020  24.007  25.644  1.00  0.00     0.044 C 
ATOM     15  C   UNL A   1      34.943  23.848  24.612  1.00  0.00    -0.050 A 
ATOM     16  C   UNL A   1      34.423  22.579  24.328  1.00  0.00     0.003 A 
ATOM     17  C   UNL A   1      34.466  24.956  23.902  1.00  0.00     0.025 A 
ATOM     18  C   UNL A   1      33.471  22.409  23.322  1.00  0.00     0.002 A 
ATOM     19  C   UNL A   1      33.059  23.502  22.564  1.00  0.00     0.022 A 
ENDBRANCH  10  13
ENDBRANCH   8  10
ENDBRANCH   7   8
BRANCH   7  20
ATOM     20  C   UNL A   1      29.910  28.483  22.531  1.00  0.00     0.040 C 
BRANCH  20  21
ATOM     21  C   UNL A   1      30.188  29.859  21.933  1.00  0.00     0.102 C 
BRANCH  21  22
ATOM     22  C   UNL A   1      29.095  30.860  22.240  1.00  0.00     0.217 C 
ATOM     23  N   UNL A   1      28.677  31.594  21.182  1.00  0.00    -0.370 N 
ATOM     24  O   UNL A   1      28.602  31.015  23.351  1.00  0.00    -0.275 OA
ATOM     25  H   UNL A   1      29.083  31.456  20.296  1.00  0.00     0.159 HD
ATOM     26  H   UNL A   1      27.965  32.264  21.297  1.00  0.00     0.159 HD
ENDBRANCH  21  22
ENDBRANCH  20  21
ENDBRANCH   7  20
ENDBRANCH   4   7
ENDBRANCH   2   3
ENDBRANCH   1   2
BRANCH   1  27
ATOM     27  C   UNL A   1      33.575  29.824  27.563  1.00  0.00     0.023 C 
BRANCH  27  28
ATOM     28  C   UNL A   1      34.566  30.952  27.346  1.00  0.00     0.116 C 
BRANCH  28  29
ATOM     29  N   UNL A   1      34.023  32.268  27.592  1.00  0.00    -0.352 N 
ATOM     30  C   UNL A   1      34.257  33.126  28.651  1.00  0.00     0.251 C 
ATOM     31  H   UNL A   1      33.398  32.603  26.908  1.00  0.00     0.163 HD
ATOM     32  O   UNL A   1      33.444  34.026  28.839  1.00  0.00    -0.269 OA
BRANCH  30  33
ATOM     33  C   UNL A   1      35.530  33.068  29.423  1.00  0.00     0.039 A 
ATOM     34  C   UNL A   1      36.689  33.543  28.789  1.00  0.00     0.014 A 
ATOM     35  C   UNL A   1      35.656  32.332  30.597  1.00  0.00     0.014 A 
ATOM     36  C   UNL A   1      37.934  33.043  29.151  1.00  0.00     0.010 A 
ATOM     37  C   UNL A   1      36.860  31.756  30.899  1.00  0.00     0.010 A 
ATOM     38  C   UNL A   1      37.973  32.054  30.118  1.00  0.00    -0.014 A 
BRANCH  38  39
ATOM     39  C   UNL A   1      39.120  31.237  30.434  1.00  0.00     0.031 A 
ATOM     40  C   UNL A   1      39.258  29.937  29.778  1.00  0.00     0.074 A 
ATOM     41  C   UNL A   1      40.140  31.866  31.056  1.00  0.00     0.049 A 
ATOM     42  N   UNL A   1      40.057  29.019  30.182  1.00  0.00    -0.248 NA
ATOM     43  C   UNL A   1      38.483  29.575  28.596  1.00  0.00     0.031 C 
ATOM     44  C   UNL A   1      41.553  31.522  31.065  1.00  0.00     0.029 A 
ATOM     45  N   UNL A   1      40.041  32.927  31.964  1.00  0.00    -0.354 N 
ATOM     46  C   UNL A   1      40.142  28.101  29.159  1.00  0.00     0.074 A 
ATOM     47  C   UNL A   1      39.066  28.425  28.252  1.00  0.00     0.031 C 
ATOM     48  C   UNL A   1      42.139  32.138  32.107  1.00  0.00     0.029 A 
ATOM     49  C   UNL A   1      41.075  32.741  32.896  1.00  0.00     0.049 A 
ATOM     50  H   UNL A   1      39.381  33.658  31.949  1.00  0.00     0.167 HD
ATOM     51  C   UNL A   1      41.245  27.309  29.082  1.00  0.00     0.034 A 
ATOM     52  C   UNL A   1      40.832  32.518  34.221  1.00  0.00     0.034 A 
ATOM     53  C   UNL A   1      42.177  27.627  30.173  1.00  0.00     0.049 A 
ATOM     54  C   UNL A   1      41.339  31.150  34.646  1.00  0.00     0.074 A 
ATOM     55  C   UNL A   1      43.295  28.447  30.238  1.00  0.00     0.029 A 
ATOM     56  N   UNL A   1      41.804  27.379  31.490  1.00  0.00    -0.354 N 
ATOM     57  N   UNL A   1      41.730  30.226  33.811  1.00  0.00    -0.248 NA
ATOM     58  C   UNL A   1      41.463  30.721  36.033  1.00  0.00     0.031 C 
ATOM     59  C   UNL A   1      43.559  28.731  31.605  1.00  0.00     0.029 A 
ATOM     60  C   UNL A   1      42.618  28.069  32.377  1.00  0.00     0.049 A 
ATOM     61  H   UNL A   1      41.060  26.791  31.757  1.00  0.00     0.167 HD
ATOM     62  C   UNL A   1      42.084  29.086  34.484  1.00  0.00     0.074 A 
ATOM     63  C   UNL A   1      41.947  29.474  35.881  1.00  0.00     0.031 C 
ATOM     64  C   UNL A   1      42.423  27.932  33.821  1.00  0.00     0.034 A 
BRANCH  51  65
ATOM     65  C   UNL A   1      41.634  26.552  27.828  1.00  0.00     0.023 A 
ATOM     66  C   UNL A   1      41.739  27.295  26.630  1.00  0.00     0.012 A 
ATOM     67  C   UNL A   1      41.864  25.160  27.723  1.00  0.00     0.148 A 
ATOM     68  C   UNL A   1      41.960  26.692  25.388  1.00  0.00     0.002 A 
ATOM     69  C   UNL A   1      42.023  24.548  26.474  1.00  0.00     0.091 A 
ATOM     70  F   UNL A   1      41.992  24.427  28.836  1.00  0.00    -0.205 F 
ATOM     71  C   UNL A   1      42.069  25.315  25.305  1.00  0.00     0.022 A 
BRANCH  69  72
ATOM     72  S   UNL A   1      42.078  22.759  26.264  1.00  0.00     0.127 S 
ATOM     73  O   UNL A   1      40.660  22.395  26.302  1.00  0.00    -0.237 OA
ATOM     74  O   UNL A   1      42.705  22.613  24.952  1.00  0.00    -0.237 OA
ATOM     75  O   UNL A   1      42.846  22.250  27.395  1.00  0.00    -0.744 OA
ENDBRANCH  69  72
ENDBRANCH  51  65
BRANCH  52  76
ATOM     76  C   UNL A   1      39.588  33.203  34.703  1.00  0.00     0.023 A 
ATOM     77  C   UNL A   1      38.562  33.386  33.738  1.00  0.00     0.012 A 
ATOM     78  C   UNL A   1      39.236  33.201  36.064  1.00  0.00     0.148 A 
ATOM     79  C   UNL A   1      37.215  33.339  34.106  1.00  0.00     0.002 A 
ATOM     80  C   UNL A   1      37.887  33.180  36.423  1.00  0.00     0.091 A 
ATOM     81  F   UNL A   1      40.209  33.121  36.979  1.00  0.00    -0.205 F 
ATOM     82  C   UNL A   1      36.878  33.185  35.445  1.00  0.00     0.022 A 
BRANCH  80  83
ATOM     83  S   UNL A   1      37.402  33.012  38.147  1.00  0.00     0.127 S 
ATOM     84  O   UNL A   1      37.972  31.712  38.486  1.00  0.00    -0.237 OA
ATOM     85  O   UNL A   1      38.058  34.152  38.784  1.00  0.00    -0.237 OA
ATOM     86  O   UNL A   1      35.950  33.101  38.118  1.00  0.00    -0.744 OA
ENDBRANCH  80  83
ENDBRANCH  52  76
BRANCH  64  87
ATOM     87  C   UNL A   1      42.619  26.548  34.435  1.00  0.00     0.023 A 
ATOM     88  C   UNL A   1      41.681  25.955  35.297  1.00  0.00     0.012 A 
ATOM     89  C   UNL A   1      43.723  25.728  34.060  1.00  0.00     0.148 A 
ATOM     90  C   UNL A   1      41.835  24.652  35.789  1.00  0.00     0.002 A 
ATOM     91  C   UNL A   1      43.803  24.394  34.444  1.00  0.00     0.091 A 
ATOM     92  F   UNL A   1      44.738  26.242  33.352  1.00  0.00    -0.205 F 
ATOM     93  C   UNL A   1      42.878  23.860  35.336  1.00  0.00     0.022 A 
BRANCH  91  94
ATOM     94  S   UNL A   1      44.999  23.273  33.702  1.00  0.00     0.127 S 
ATOM     95  O   UNL A   1      44.676  22.010  34.361  1.00  0.00    -0.237 OA
ATOM     96  O   UNL A   1      44.635  23.332  32.284  1.00  0.00    -0.237 OA
ATOM     97  O   UNL A   1      46.304  23.841  34.006  1.00  0.00    -0.744 OA
ENDBRANCH  91  94
ENDBRANCH  64  87
ENDBRANCH  38  39
ENDBRANCH  30  33
ENDBRANCH  28  29
ENDBRANCH  27  28
ENDBRANCH   1  27
TORSDOF 20
ENDMDL
MODEL 3
REMARK VINA RESULT:     -11.3      2.256      4.033
REMARK SMILES Cc1cccc(S(=O)(=O)N[C@@H](CCC(N)=O)C(=O)NCCCCNC(=O)c2ccc(-c3c4nc(c(-c5cccc(S(=O)(=O)[O-])c5F)c5ccc([nH]5)c(-c5cccc(S(=O)(=O)[O-])c5F)c5nc(c(-c6cccc(S(=O)(=O)[O-])c6F)c6ccc3[nH]6)C=C5)C=C4)cc2)c1
REMARK SMILES IDX 21 1 20 2 19 3 17 4 18 5 11 7 10 8 7 10 8 11 9 12 6 13 1 14
REMARK SMILES IDX 2 15 3 16 90 17 4 18 5 19 12 20 13 21 14 22 15 23 16 24
REMARK SMILES IDX 22 27 23 28 24 29 25 30 26 32 27 33 28 34 89 35 29 36 88 37
REMARK SMILES IDX 30 38 31 39 32 40 82 41 33 42 87 43 81 44 83 45 34 46 86 47
REMARK SMILES IDX 80 48 79 49 35 51 67 52 47 53 66 54 48 55 51 56 65 57 84 58
REMARK SMILES IDX 49 59 50 60 64 62 85 63 52 64 36 65 37 66 45 67 38 68 40 69
REMARK SMILES IDX 46 70 39 71 41 72 42 73 43 74 44 75 68 76 69 77 77 78 70 79
REMARK SMILES IDX 72 80 78 81 71 82 73 83 74 84 75 85 76 86 53 87 54 88 62 89
REMARK SMILES IDX 55 90 57 91 63 92 56 93 58 94 59 95 60 96 61 97
REMARK H PARENT 19 6 10 9 15 25 15 26 24 31 83 50 51 61
REMARK Flexibility Score: inf
ROOT
ATOM      1  C   UNL A   1      36.829  21.646  24.600  1.00  0.00     0.023 C 
ENDROOT
BRANCH   1   2
ATOM      2  C   UNL A   1      35.852  20.713  25.319  1.00  0.00     0.116 C 
BRANCH   2   3
ATOM      3  N   UNL A   1      35.313  21.292  26.543  1.00  0.00    -0.355 N 
ATOM      4  C   UNL A   1      34.452  22.338  26.745  1.00  0.00     0.238 C 
ATOM      5  O   UNL A   1      34.187  22.648  27.911  1.00  0.00    -0.273 OA
ATOM      6  H   UNL A   1      35.622  20.856  27.369  1.00  0.00     0.163 HD
BRANCH   4   7
ATOM      7  C   UNL A   1      33.953  23.207  25.571  1.00  0.00     0.159 C 
BRANCH   7   8
ATOM      8  N   UNL A   1      33.634  22.249  24.491  1.00  0.00    -0.199 NA
ATOM      9  H   UNL A   1      33.835  22.754  23.627  1.00  0.00     0.142 HD
BRANCH   8  10
ATOM     10  S   UNL A   1      32.190  21.490  24.212  1.00  0.00     0.241 S 
ATOM     11  O   UNL A   1      31.554  22.148  23.078  1.00  0.00    -0.207 OA
ATOM     12  O   UNL A   1      31.543  21.412  25.489  1.00  0.00    -0.207 OA
BRANCH  10  13
ATOM     13  C   UNL A   1      32.555  19.827  23.721  1.00  0.00     0.082 A 
ATOM     14  C   UNL A   1      34.675  16.856  24.767  1.00  0.00     0.044 C 
ATOM     15  C   UNL A   1      33.713  17.721  24.007  1.00  0.00    -0.050 A 
ATOM     16  C   UNL A   1      33.206  17.295  22.774  1.00  0.00     0.003 A 
ATOM     17  C   UNL A   1      33.335  18.974  24.505  1.00  0.00     0.025 A 
ATOM     18  C   UNL A   1      32.365  18.121  22.027  1.00  0.00     0.002 A 
ATOM     19  C   UNL A   1      32.056  19.398  22.488  1.00  0.00     0.022 A 
ENDBRANCH  10  13
ENDBRANCH   8  10
ENDBRANCH   7   8
BRANCH   7  20
ATOM     20  C   UNL A   1      32.921  24.300  25.867  1.00  0.00     0.040 C 
BRANCH  20  21
ATOM     21  C   UNL A   1      33.092  25.695  25.272  1.00  0.00     0.102 C 
BRANCH  21  22
ATOM     22  C   UNL A   1      32.372  25.858  23.950  1.00  0.00     0.217 C 
ATOM     23  N   UNL A   1      32.761  25.002  22.976  1.00  0.00    -0.370 N 
ATOM     24  O   UNL A   1      31.494  26.688  23.748  1.00  0.00    -0.275 OA
ATOM     25  H   UNL A   1      33.468  24.341  23.156  1.00  0.00     0.159 HD
ATOM     26  H   UNL A   1      32.338  25.040  22.089  1.00  0.00     0.159 HD
ENDBRANCH  21  22
ENDBRANCH  20  21
ENDBRANCH   7  20
ENDBRANCH   4   7
ENDBRANCH   2   3
ENDBRANCH   1   2
BRANCH   1  27
ATOM     27  C   UNL A   1      38.220  21.734  25.226  1.00  0.00     0.023 C 
BRANCH  27  28
ATOM     28  C   UNL A   1      38.372  22.845  26.247  1.00  0.00     0.116 C 
BRANCH  28  29
ATOM     29  N   UNL A   1      39.569  22.748  27.050  1.00  0.00    -0.352 N 
ATOM     30  C   UNL A   1      40.395  23.756  27.512  1.00  0.00     0.251 C 
ATOM     31  H   UNL A   1      39.834  21.835  27.306  1.00  0.00     0.163 HD
ATOM     32  O   UNL A   1      41.526  23.439  27.871  1.00  0.00    -0.269 OA
BRANCH  30  33
ATOM     33  C   UNL A   1      39.880  25.137  27.729  1.00  0.00     0.039 A 
ATOM     34  C   UNL A   1      40.407  26.153  26.917  1.00  0.00     0.014 A 
ATOM     35  C   UNL A   1      39.133  25.486  28.850  1.00  0.00     0.014 A 
ATOM     36  C   UNL A   1      40.440  27.465  27.378  1.00  0.00     0.010 A 
ATOM     37  C   UNL A   1      39.246  26.750  29.360  1.00  0.00     0.010 A 
ATOM     38  C   UNL A   1      39.972  27.708  28.658  1.00  0.00    -0.014 A 
BRANCH  38  39
ATOM     39  C   UNL A   1      40.164  28.930  29.400  1.00  0.00     0.031 A 
ATOM     40  C   UNL A   1      39.197  30.013  29.230  1.00  0.00     0.074 A 
ATOM     41  C   UNL A   1      41.029  28.864  30.435  1.00  0.00     0.049 A 
ATOM     42  N   UNL A   1      39.411  31.222  29.600  1.00  0.00    -0.248 NA
ATOM     43  C   UNL A   1      37.892  29.803  28.612  1.00  0.00     0.031 C 
ATOM     44  C   UNL A   1      41.081  29.685  31.633  1.00  0.00     0.029 A 
ATOM     45  N   UNL A   1      42.176  28.066  30.518  1.00  0.00    -0.354 N 
ATOM     46  C   UNL A   1      38.191  31.859  29.572  1.00  0.00     0.074 A 
ATOM     47  C   UNL A   1      37.306  30.979  28.846  1.00  0.00     0.031 C 
ATOM     48  C   UNL A   1      42.302  29.566  32.183  1.00  0.00     0.029 A 
ATOM     49  C   UNL A   1      43.118  28.812  31.244  1.00  0.00     0.049 A 
ATOM     50  H   UNL A   1      42.297  27.163  30.144  1.00  0.00     0.167 HD
ATOM     51  C   UNL A   1      38.009  32.957  30.355  1.00  0.00     0.034 A 
ATOM     52  C   UNL A   1      44.304  29.219  30.702  1.00  0.00     0.034 A 
ATOM     53  C   UNL A   1      39.230  33.244  31.121  1.00  0.00     0.049 A 
ATOM     54  C   UNL A   1      44.388  30.736  30.652  1.00  0.00     0.074 A 
ATOM     55  C   UNL A   1      39.623  32.917  32.411  1.00  0.00     0.029 A 
ATOM     56  N   UNL A   1      40.388  33.626  30.450  1.00  0.00    -0.354 N 
ATOM     57  N   UNL A   1      43.376  31.530  30.871  1.00  0.00    -0.248 NA
ATOM     58  C   UNL A   1      45.612  31.474  30.373  1.00  0.00     0.031 C 
ATOM     59  C   UNL A   1      41.034  33.056  32.494  1.00  0.00     0.029 A 
ATOM     60  C   UNL A   1      41.503  33.488  31.265  1.00  0.00     0.049 A 
ATOM     61  H   UNL A   1      40.412  33.950  29.521  1.00  0.00     0.167 HD
ATOM     62  C   UNL A   1      43.746  32.838  30.707  1.00  0.00     0.074 A 
ATOM     63  C   UNL A   1      45.176  32.746  30.447  1.00  0.00     0.031 C 
ATOM     64  C   UNL A   1      42.830  33.861  30.773  1.00  0.00     0.034 A 
BRANCH  51  65
ATOM     65  C   UNL A   1      36.640  33.506  30.704  1.00  0.00     0.023 A 
ATOM     66  C   UNL A   1      36.132  33.210  31.988  1.00  0.00     0.012 A 
ATOM     67  C   UNL A   1      35.793  34.256  29.853  1.00  0.00     0.148 A 
ATOM     68  C   UNL A   1      34.832  33.545  32.379  1.00  0.00     0.002 A 
ATOM     69  C   UNL A   1      34.472  34.538  30.219  1.00  0.00     0.091 A 
ATOM     70  F   UNL A   1      36.280  34.755  28.710  1.00  0.00    -0.205 F 
ATOM     71  C   UNL A   1      33.990  34.181  31.483  1.00  0.00     0.022 A 
BRANCH  69  72
ATOM     72  S   UNL A   1      33.282  35.276  29.085  1.00  0.00     0.127 S 
ATOM     73  O   UNL A   1      32.344  35.932  29.998  1.00  0.00    -0.237 OA
ATOM     74  O   UNL A   1      34.111  36.194  28.308  1.00  0.00    -0.237 OA
ATOM     75  O   UNL A   1      32.699  34.164  28.342  1.00  0.00    -0.744 OA
ENDBRANCH  69  72
ENDBRANCH  51  65
BRANCH  52  76
ATOM     76  C   UNL A   1      44.831  28.257  29.680  1.00  0.00     0.023 A 
ATOM     77  C   UNL A   1      45.050  26.928  30.128  1.00  0.00     0.012 A 
ATOM     78  C   UNL A   1      44.639  28.478  28.305  1.00  0.00     0.148 A 
ATOM     79  C   UNL A   1      44.858  25.841  29.271  1.00  0.00     0.002 A 
ATOM     80  C   UNL A   1      44.473  27.386  27.451  1.00  0.00     0.091 A 
ATOM     81  F   UNL A   1      44.523  29.737  27.866  1.00  0.00    -0.205 F 
ATOM     82  C   UNL A   1      44.519  26.071  27.942  1.00  0.00     0.022 A 
BRANCH  80  83
ATOM     83  S   UNL A   1      44.064  27.634  25.717  1.00  0.00     0.127 S 
ATOM     84  O   UNL A   1      45.357  28.017  25.163  1.00  0.00    -0.237 OA
ATOM     85  O   UNL A   1      43.586  26.317  25.302  1.00  0.00    -0.237 OA
ATOM     86  O   UNL A   1      43.032  28.661  25.739  1.00  0.00    -0.744 OA
ENDBRANCH  80  83
ENDBRANCH  52  76
BRANCH  64  87
ATOM     87  C   UNL A   1      43.062  35.321  30.394  1.00  0.00     0.023 A 
ATOM     88  C   UNL A   1      43.706  36.238  31.242  1.00  0.00     0.012 A 
ATOM     89  C   UNL A   1      42.740  35.801  29.090  1.00  0.00     0.148 A 
ATOM     90  C   UNL A   1      43.984  37.553  30.848  1.00  0.00     0.002 A 
ATOM     91  C   UNL A   1      43.135  37.063  28.660  1.00  0.00     0.091 A 
ATOM     92  F   UNL A   1      42.007  35.053  28.254  1.00  0.00    -0.205 F 
ATOM     93  C   UNL A   1      43.730  37.956  29.547  1.00  0.00     0.022 A 
BRANCH  91  94
ATOM     94  S   UNL A   1      43.036  37.540  26.928  1.00  0.00     0.127 S 
ATOM     95  O   UNL A   1      44.159  38.467  26.807  1.00  0.00    -0.237 OA
ATOM     96  O   UNL A   1      43.226  36.258  26.247  1.00  0.00    -0.237 OA
ATOM     97  O   UNL A   1      41.708  38.114  26.759  1.00  0.00    -0.744 OA
ENDBRANCH  91  94
ENDBRANCH  64  87
ENDBRANCH  38  39
ENDBRANCH  30  33
ENDBRANCH  28  29
ENDBRANCH  27  28
ENDBRANCH   1  27
TORSDOF 20
ENDMDL
