MODEL 1
REMARK VINA RESULT:     -11.3      0.000      0.000
REMARK SMILES CSc1ccccc1[C@H](C(=O)NCCCCNC(=O)c1ccc(-c2c3nc(c(-c4cccc(S(=O)(=O)[O-])c4F)c4ccc([nH]4)c(-c4cccc(S(=O)(=O)[O-])c4F)c4nc(c(-c5cccc(S(=O)(=O)[O-])c5F)c5ccc2[nH]5)C=C4)C=C3)cc1)[N@@H+](C)CCc1cnn(C)c1
REMARK SMILES IDX 14 1 13 2 12 3 10 4 11 5 9 7 8 8 3 9 4 10 5 11 7 12 6 13
REMARK SMILES IDX 2 14 1 15 83 16 84 17 85 19 86 20 87 21 88 22 92 23 89 24
REMARK SMILES IDX 90 25 91 26 15 27 16 28 17 29 18 30 19 32 20 33 21 34 82 35
REMARK SMILES IDX 22 36 81 37 23 38 24 39 25 40 75 41 26 42 80 43 74 44 76 45
REMARK SMILES IDX 27 46 79 47 73 48 72 49 28 51 60 52 40 53 59 54 41 55 44 56
REMARK SMILES IDX 58 57 77 58 42 59 43 60 57 62 78 63 45 64 29 65 30 66 38 67
REMARK SMILES IDX 31 68 33 69 39 70 32 71 34 72 35 73 36 74 37 75 61 76 62 77
REMARK SMILES IDX 70 78 63 79 65 80 71 81 64 82 66 83 67 84 68 85 69 86 46 87
REMARK SMILES IDX 47 88 55 89 48 90 50 91 56 92 49 93 51 94 52 95 53 96 54 97
REMARK H PARENT 12 6 83 18 17 31 76 50 44 61
REMARK Flexibility Score: inf
ROOT
ATOM      1  C   UNL A   1      33.243  28.895  24.546  1.00  0.00     0.023 C 
ENDROOT
BRANCH   1   2
ATOM      2  C   UNL A   1      31.732  28.704  24.370  1.00  0.00     0.116 C 
BRANCH   2   3
ATOM      3  N   UNL A   1      31.006  27.439  24.619  1.00  0.00    -0.351 N 
ATOM      4  C   UNL A   1      31.232  26.085  24.751  1.00  0.00     0.283 C 
ATOM      5  O   UNL A   1      30.121  25.582  25.084  1.00  0.00    -0.268 OA
ATOM      6  H   UNL A   1      30.046  27.625  24.726  1.00  0.00     0.163 HD
BRANCH   4   7
ATOM      7  C   UNL A   1      32.522  24.899  24.713  1.00  0.00     0.306 C 
BRANCH   7   8
ATOM      8  C   UNL A   1      33.306  23.879  25.734  1.00  0.00     0.033 A 
ATOM      9  C   UNL A   1      34.611  23.186  25.621  1.00  0.00     0.017 A 
ATOM     10  C   UNL A   1      34.876  22.063  26.442  1.00  0.00     0.015 A 
ATOM     11  C   UNL A   1      34.010  21.694  27.460  1.00  0.00     0.001 A 
ATOM     12  C   UNL A   1      32.541  23.537  26.879  1.00  0.00     0.011 A 
ATOM     13  C   UNL A   1      32.891  22.473  27.722  1.00  0.00     0.001 A 
BRANCH   9  14
ATOM     14  S   UNL A   1      36.180  23.663  24.789  1.00  0.00    -0.129 SA
ATOM     15  C   UNL A   1      37.523  23.672  26.061  1.00  0.00     0.091 C 
ENDBRANCH   9  14
ENDBRANCH   7   8
BRANCH   7  16
ATOM     16  N   UNL A   1      32.231  24.217  23.477  1.00  0.00    -0.323 N 
ATOM     17  C   UNL A   1      33.228  24.460  22.444  1.00  0.00     0.333 C 
ATOM     18  H   UNL A   1      31.447  24.641  22.983  1.00  0.00     0.348 HD
BRANCH  16  19
ATOM     19  C   UNL A   1      31.652  22.898  23.709  1.00  0.00     0.267 C 
BRANCH  19  20
ATOM     20  C   UNL A   1      31.999  21.574  22.827  1.00  0.00     0.100 C 
BRANCH  20  21
ATOM     21  C   UNL A   1      32.379  20.109  23.319  1.00  0.00    -0.004 A 
ATOM     22  C   UNL A   1      32.413  18.877  22.580  1.00  0.00     0.139 A 
ATOM     23  C   UNL A   1      32.550  19.569  24.584  1.00  0.00     0.112 A 
ATOM     24  N   UNL A   1      32.605  17.763  23.315  1.00  0.00    -0.182 NA
ATOM     25  N   UNL A   1      32.728  18.224  24.558  1.00  0.00    -0.276 N 
ATOM     26  C   UNL A   1      32.717  17.390  25.747  1.00  0.00     0.173 C 
ENDBRANCH  20  21
ENDBRANCH  19  20
ENDBRANCH  16  19
ENDBRANCH   7  16
ENDBRANCH   4   7
ENDBRANCH   2   3
ENDBRANCH   1   2
BRANCH   1  27
ATOM     27  C   UNL A   1      33.842  28.597  25.955  1.00  0.00     0.023 C 
BRANCH  27  28
ATOM     28  C   UNL A   1      33.236  29.125  27.272  1.00  0.00     0.116 C 
BRANCH  28  29
ATOM     29  N   UNL A   1      33.505  30.512  27.636  1.00  0.00    -0.352 N 
ATOM     30  C   UNL A   1      34.632  31.119  28.159  1.00  0.00     0.251 C 
ATOM     31  H   UNL A   1      32.749  31.125  27.483  1.00  0.00     0.163 HD
ATOM     32  O   UNL A   1      34.626  32.321  28.415  1.00  0.00    -0.269 OA
BRANCH  30  33
ATOM     33  C   UNL A   1      35.854  30.331  28.438  1.00  0.00     0.039 A 
ATOM     34  C   UNL A   1      36.909  30.351  27.521  1.00  0.00     0.014 A 
ATOM     35  C   UNL A   1      35.972  29.581  29.608  1.00  0.00     0.014 A 
ATOM     36  C   UNL A   1      38.126  29.743  27.849  1.00  0.00     0.010 A 
ATOM     37  C   UNL A   1      37.213  29.068  29.979  1.00  0.00     0.010 A 
ATOM     38  C   UNL A   1      38.315  29.160  29.115  1.00  0.00    -0.014 A 
BRANCH  38  39
ATOM     39  C   UNL A   1      39.661  28.703  29.564  1.00  0.00     0.031 A 
ATOM     40  C   UNL A   1      40.405  29.427  30.656  1.00  0.00     0.074 A 
ATOM     41  C   UNL A   1      40.264  27.682  28.916  1.00  0.00     0.049 A 
ATOM     42  N   UNL A   1      41.594  29.184  31.146  1.00  0.00    -0.248 NA
ATOM     43  C   UNL A   1      39.745  30.600  31.255  1.00  0.00     0.031 C 
ATOM     44  C   UNL A   1      39.707  26.958  27.769  1.00  0.00     0.029 A 
ATOM     45  N   UNL A   1      41.488  27.087  29.115  1.00  0.00    -0.354 N 
ATOM     46  C   UNL A   1      41.837  30.184  32.080  1.00  0.00     0.074 A 
ATOM     47  C   UNL A   1      40.693  31.068  32.054  1.00  0.00     0.031 C 
ATOM     48  C   UNL A   1      40.570  26.005  27.385  1.00  0.00     0.029 A 
ATOM     49  C   UNL A   1      41.757  26.066  28.230  1.00  0.00     0.049 A 
ATOM     50  H   UNL A   1      42.112  27.364  29.823  1.00  0.00     0.167 HD
ATOM     51  C   UNL A   1      42.897  30.339  32.910  1.00  0.00     0.034 A 
ATOM     52  C   UNL A   1      42.837  25.268  28.109  1.00  0.00     0.034 A 
ATOM     53  C   UNL A   1      44.018  29.439  32.965  1.00  0.00     0.049 A 
ATOM     54  C   UNL A   1      43.977  25.429  29.077  1.00  0.00     0.074 A 
ATOM     55  C   UNL A   1      45.095  29.458  33.835  1.00  0.00     0.029 A 
ATOM     56  N   UNL A   1      44.215  28.365  32.112  1.00  0.00    -0.354 N 
ATOM     57  N   UNL A   1      44.108  26.278  30.066  1.00  0.00    -0.248 NA
ATOM     58  C   UNL A   1      45.102  24.491  28.939  1.00  0.00     0.031 C 
ATOM     59  C   UNL A   1      45.959  28.414  33.486  1.00  0.00     0.029 A 
ATOM     60  C   UNL A   1      45.399  27.720  32.425  1.00  0.00     0.049 A 
ATOM     61  H   UNL A   1      43.602  28.100  31.388  1.00  0.00     0.167 HD
ATOM     62  C   UNL A   1      45.308  25.956  30.691  1.00  0.00     0.074 A 
ATOM     63  C   UNL A   1      45.851  24.815  29.983  1.00  0.00     0.031 C 
ATOM     64  C   UNL A   1      45.911  26.558  31.745  1.00  0.00     0.034 A 
BRANCH  51  65
ATOM     65  C   UNL A   1      42.868  31.502  33.871  1.00  0.00     0.023 A 
ATOM     66  C   UNL A   1      43.391  32.750  33.471  1.00  0.00     0.012 A 
ATOM     67  C   UNL A   1      42.276  31.380  35.144  1.00  0.00     0.148 A 
ATOM     68  C   UNL A   1      43.367  33.844  34.335  1.00  0.00     0.002 A 
ATOM     69  C   UNL A   1      42.210  32.488  35.980  1.00  0.00     0.091 A 
ATOM     70  F   UNL A   1      41.798  30.185  35.515  1.00  0.00    -0.205 F 
ATOM     71  C   UNL A   1      42.767  33.716  35.585  1.00  0.00     0.022 A 
BRANCH  69  72
ATOM     72  S   UNL A   1      41.385  32.453  37.576  1.00  0.00     0.127 S 
ATOM     73  O   UNL A   1      41.399  33.867  37.946  1.00  0.00    -0.237 OA
ATOM     74  O   UNL A   1      40.066  31.927  37.228  1.00  0.00    -0.237 OA
ATOM     75  O   UNL A   1      42.185  31.580  38.424  1.00  0.00    -0.744 OA
ENDBRANCH  69  72
ENDBRANCH  51  65
BRANCH  52  76
ATOM     76  C   UNL A   1      42.864  24.195  27.073  1.00  0.00     0.023 A 
ATOM     77  C   UNL A   1      43.560  24.413  25.866  1.00  0.00     0.012 A 
ATOM     78  C   UNL A   1      42.220  22.960  27.277  1.00  0.00     0.148 A 
ATOM     79  C   UNL A   1      43.580  23.439  24.868  1.00  0.00     0.002 A 
ATOM     80  C   UNL A   1      42.293  21.971  26.303  1.00  0.00     0.091 A 
ATOM     81  F   UNL A   1      41.556  22.773  28.427  1.00  0.00    -0.205 F 
ATOM     82  C   UNL A   1      42.955  22.215  25.089  1.00  0.00     0.022 A 
BRANCH  80  83
ATOM     83  S   UNL A   1      41.633  20.318  26.549  1.00  0.00     0.127 S 
ATOM     84  O   UNL A   1      40.200  20.571  26.604  1.00  0.00    -0.237 OA
ATOM     85  O   UNL A   1      42.098  19.625  25.350  1.00  0.00    -0.237 OA
ATOM     86  O   UNL A   1      42.239  19.836  27.792  1.00  0.00    -0.744 OA
ENDBRANCH  80  83
ENDBRANCH  52  76
BRANCH  64  87
ATOM     87  C   UNL A   1      47.212  25.972  32.231  1.00  0.00     0.023 A 
ATOM     88  C   UNL A   1      48.432  26.379  31.653  1.00  0.00     0.012 A 
ATOM     89  C   UNL A   1      47.229  25.051  33.297  1.00  0.00     0.148 A 
ATOM     90  C   UNL A   1      49.641  25.845  32.096  1.00  0.00     0.002 A 
ATOM     91  C   UNL A   1      48.441  24.565  33.771  1.00  0.00     0.091 A 
ATOM     92  F   UNL A   1      46.060  24.661  33.824  1.00  0.00    -0.205 F 
ATOM     93  C   UNL A   1      49.646  24.947  33.161  1.00  0.00     0.022 A 
BRANCH  91  94
ATOM     94  S   UNL A   1      48.552  23.484  35.201  1.00  0.00     0.127 S 
ATOM     95  O   UNL A   1      48.133  22.201  34.638  1.00  0.00    -0.237 OA
ATOM     96  O   UNL A   1      49.971  23.566  35.543  1.00  0.00    -0.237 OA
ATOM     97  O   UNL A   1      47.657  24.050  36.201  1.00  0.00    -0.744 OA
ENDBRANCH  91  94
ENDBRANCH  64  87
ENDBRANCH  38  39
ENDBRANCH  30  33
ENDBRANCH  28  29
ENDBRANCH  27  28
ENDBRANCH   1  27
TORSDOF 20
ENDMDL
MODEL 2
REMARK VINA RESULT:     -10.8      3.264      8.465
REMARK SMILES CSc1ccccc1[C@H](C(=O)NCCCCNC(=O)c1ccc(-c2c3nc(c(-c4cccc(S(=O)(=O)[O-])c4F)c4ccc([nH]4)c(-c4cccc(S(=O)(=O)[O-])c4F)c4nc(c(-c5cccc(S(=O)(=O)[O-])c5F)c5ccc2[nH]5)C=C4)C=C3)cc1)[N@@H+](C)CCc1cnn(C)c1
REMARK SMILES IDX 14 1 13 2 12 3 10 4 11 5 9 7 8 8 3 9 4 10 5 11 7 12 6 13
REMARK SMILES IDX 2 14 1 15 83 16 84 17 85 19 86 20 87 21 88 22 92 23 89 24
REMARK SMILES IDX 90 25 91 26 15 27 16 28 17 29 18 30 19 32 20 33 21 34 82 35
REMARK SMILES IDX 22 36 81 37 23 38 24 39 25 40 75 41 26 42 80 43 74 44 76 45
REMARK SMILES IDX 27 46 79 47 73 48 72 49 28 51 60 52 40 53 59 54 41 55 44 56
REMARK SMILES IDX 58 57 77 58 42 59 43 60 57 62 78 63 45 64 29 65 30 66 38 67
REMARK SMILES IDX 31 68 33 69 39 70 32 71 34 72 35 73 36 74 37 75 61 76 62 77
REMARK SMILES IDX 70 78 63 79 65 80 71 81 64 82 66 83 67 84 68 85 69 86 46 87
REMARK SMILES IDX 47 88 55 89 48 90 50 91 56 92 49 93 51 94 52 95 53 96 54 97
REMARK H PARENT 12 6 83 18 17 31 76 50 44 61
REMARK Flexibility Score: inf
ROOT
ATOM      1  C   UNL A   1      32.531  29.555  25.958  1.00  0.00     0.023 C 
ENDROOT
BRANCH   1   2
ATOM      2  C   UNL A   1      31.623  28.380  26.338  1.00  0.00     0.116 C 
BRANCH   2   3
ATOM      3  N   UNL A   1      31.085  27.385  25.382  1.00  0.00    -0.351 N 
ATOM      4  C   UNL A   1      31.405  26.176  24.805  1.00  0.00     0.283 C 
ATOM      5  O   UNL A   1      30.387  25.833  24.138  1.00  0.00    -0.268 OA
ATOM      6  H   UNL A   1      30.209  27.688  25.050  1.00  0.00     0.163 HD
BRANCH   4   7
ATOM      7  C   UNL A   1      32.666  24.959  24.779  1.00  0.00     0.306 C 
BRANCH   7   8
ATOM      8  C   UNL A   1      33.416  23.920  25.806  1.00  0.00     0.033 A 
ATOM      9  C   UNL A   1      34.726  23.231  25.726  1.00  0.00     0.017 A 
ATOM     10  C   UNL A   1      34.964  22.093  26.534  1.00  0.00     0.015 A 
ATOM     11  C   UNL A   1      34.065  21.705  27.515  1.00  0.00     0.001 A 
ATOM     12  C   UNL A   1      32.613  23.557  26.918  1.00  0.00     0.011 A 
ATOM     13  C   UNL A   1      32.936  22.477  27.753  1.00  0.00     0.001 A 
BRANCH   9  14
ATOM     14  S   UNL A   1      36.322  23.725  24.957  1.00  0.00    -0.129 SA
ATOM     15  C   UNL A   1      36.597  22.656  23.473  1.00  0.00     0.091 C 
ENDBRANCH   9  14
ENDBRANCH   7   8
BRANCH   7  16
ATOM     16  N   UNL A   1      32.370  24.283  23.541  1.00  0.00    -0.323 N 
ATOM     17  C   UNL A   1      33.379  24.505  22.515  1.00  0.00     0.333 C 
ATOM     18  H   UNL A   1      31.599  24.724  23.041  1.00  0.00     0.348 HD
BRANCH  16  19
ATOM     19  C   UNL A   1      31.760  22.977  23.768  1.00  0.00     0.267 C 
BRANCH  19  20
ATOM     20  C   UNL A   1      32.326  21.580  23.153  1.00  0.00     0.100 C 
BRANCH  20  21
ATOM     21  C   UNL A   1      32.372  20.134  23.816  1.00  0.00    -0.004 A 
ATOM     22  C   UNL A   1      32.314  19.762  25.203  1.00  0.00     0.139 A 
ATOM     23  C   UNL A   1      32.700  18.888  23.306  1.00  0.00     0.112 A 
ATOM     24  N   UNL A   1      32.553  18.462  25.467  1.00  0.00    -0.182 NA
ATOM     25  N   UNL A   1      32.751  17.927  24.264  1.00  0.00    -0.276 N 
ATOM     26  C   UNL A   1      33.275  16.593  24.035  1.00  0.00     0.173 C 
ENDBRANCH  20  21
ENDBRANCH  19  20
ENDBRANCH  16  19
ENDBRANCH   7  16
ENDBRANCH   4   7
ENDBRANCH   2   3
ENDBRANCH   1   2
BRANCH   1  27
ATOM     27  C   UNL A   1      32.133  30.966  26.491  1.00  0.00     0.023 C 
BRANCH  27  28
ATOM     28  C   UNL A   1      33.100  31.897  27.252  1.00  0.00     0.116 C 
BRANCH  28  29
ATOM     29  N   UNL A   1      32.664  33.266  27.509  1.00  0.00    -0.352 N 
ATOM     30  C   UNL A   1      33.131  34.225  28.388  1.00  0.00     0.251 C 
ATOM     31  H   UNL A   1      31.901  33.558  26.958  1.00  0.00     0.163 HD
ATOM     32  O   UNL A   1      32.586  35.325  28.453  1.00  0.00    -0.269 OA
BRANCH  30  33
ATOM     33  C   UNL A   1      34.279  33.939  29.280  1.00  0.00     0.039 A 
ATOM     34  C   UNL A   1      34.056  33.311  30.508  1.00  0.00     0.014 A 
ATOM     35  C   UNL A   1      35.579  34.276  28.904  1.00  0.00     0.014 A 
ATOM     36  C   UNL A   1      35.144  32.893  31.282  1.00  0.00     0.010 A 
ATOM     37  C   UNL A   1      36.660  33.767  29.620  1.00  0.00     0.010 A 
ATOM     38  C   UNL A   1      36.459  33.049  30.809  1.00  0.00    -0.014 A 
BRANCH  38  39
ATOM     39  C   UNL A   1      37.615  32.421  31.511  1.00  0.00     0.031 A 
ATOM     40  C   UNL A   1      38.377  31.279  30.888  1.00  0.00     0.074 A 
ATOM     41  C   UNL A   1      37.923  32.816  32.766  1.00  0.00     0.049 A 
ATOM     42  N   UNL A   1      39.384  30.598  31.372  1.00  0.00    -0.248 NA
ATOM     43  C   UNL A   1      37.930  30.817  29.563  1.00  0.00     0.031 C 
ATOM     44  C   UNL A   1      37.201  33.835  33.534  1.00  0.00     0.029 A 
ATOM     45  N   UNL A   1      38.909  32.396  33.626  1.00  0.00    -0.354 N 
ATOM     46  C   UNL A   1      39.668  29.613  30.433  1.00  0.00     0.074 A 
ATOM     47  C   UNL A   1      38.695  29.753  29.373  1.00  0.00     0.031 C 
ATOM     48  C   UNL A   1      37.783  33.979  34.735  1.00  0.00     0.029 A 
ATOM     49  C   UNL A   1      38.896  33.042  34.842  1.00  0.00     0.049 A 
ATOM     50  H   UNL A   1      39.564  31.700  33.393  1.00  0.00     0.167 HD
ATOM     51  C   UNL A   1      40.667  28.697  30.432  1.00  0.00     0.034 A 
ATOM     52  C   UNL A   1      39.688  32.899  35.923  1.00  0.00     0.034 A 
ATOM     53  C   UNL A   1      41.659  28.582  31.467  1.00  0.00     0.049 A 
ATOM     54  C   UNL A   1      40.821  31.910  35.874  1.00  0.00     0.074 A 
ATOM     55  C   UNL A   1      42.764  27.749  31.512  1.00  0.00     0.029 A 
ATOM     56  N   UNL A   1      41.665  29.314  32.645  1.00  0.00    -0.354 N 
ATOM     57  N   UNL A   1      41.174  31.106  34.903  1.00  0.00    -0.248 NA
ATOM     58  C   UNL A   1      41.691  31.840  37.058  1.00  0.00     0.031 C 
ATOM     59  C   UNL A   1      43.418  27.955  32.731  1.00  0.00     0.029 A 
ATOM     60  C   UNL A   1      42.745  28.945  33.428  1.00  0.00     0.049 A 
ATOM     61  H   UNL A   1      40.997  29.995  32.888  1.00  0.00     0.167 HD
ATOM     62  C   UNL A   1      42.326  30.461  35.340  1.00  0.00     0.074 A 
ATOM     63  C   UNL A   1      42.625  30.990  36.655  1.00  0.00     0.031 C 
ATOM     64  C   UNL A   1      43.061  29.508  34.715  1.00  0.00     0.034 A 
BRANCH  51  65
ATOM     65  C   UNL A   1      40.769  27.776  29.241  1.00  0.00     0.023 A 
ATOM     66  C   UNL A   1      39.966  26.617  29.185  1.00  0.00     0.012 A 
ATOM     67  C   UNL A   1      41.612  28.083  28.154  1.00  0.00     0.148 A 
ATOM     68  C   UNL A   1      40.033  25.755  28.091  1.00  0.00     0.002 A 
ATOM     69  C   UNL A   1      41.635  27.246  27.045  1.00  0.00     0.091 A 
ATOM     70  F   UNL A   1      42.380  29.179  28.230  1.00  0.00    -0.205 F 
ATOM     71  C   UNL A   1      40.859  26.075  27.017  1.00  0.00     0.022 A 
BRANCH  69  72
ATOM     72  S   UNL A   1      42.601  27.609  25.574  1.00  0.00     0.127 S 
ATOM     73  O   UNL A   1      41.982  28.852  25.115  1.00  0.00    -0.237 OA
ATOM     74  O   UNL A   1      43.948  27.764  26.122  1.00  0.00    -0.237 OA
ATOM     75  O   UNL A   1      42.431  26.465  24.688  1.00  0.00    -0.744 OA
ENDBRANCH  69  72
ENDBRANCH  51  65
BRANCH  52  76
ATOM     76  C   UNL A   1      39.484  33.763  37.122  1.00  0.00     0.023 A 
ATOM     77  C   UNL A   1      39.949  35.094  37.106  1.00  0.00     0.012 A 
ATOM     78  C   UNL A   1      38.823  33.284  38.269  1.00  0.00     0.148 A 
ATOM     79  C   UNL A   1      39.795  35.917  38.222  1.00  0.00     0.002 A 
ATOM     80  C   UNL A   1      38.621  34.127  39.356  1.00  0.00     0.091 A 
ATOM     81  F   UNL A   1      38.395  32.013  38.271  1.00  0.00    -0.205 F 
ATOM     82  C   UNL A   1      39.125  35.437  39.343  1.00  0.00     0.022 A 
BRANCH  80  83
ATOM     83  S   UNL A   1      37.656  33.643  40.792  1.00  0.00     0.127 S 
ATOM     84  O   UNL A   1      36.462  33.081  40.177  1.00  0.00    -0.237 OA
ATOM     85  O   UNL A   1      38.539  32.677  41.438  1.00  0.00    -0.237 OA
ATOM     86  O   UNL A   1      37.452  34.875  41.559  1.00  0.00    -0.744 OA
ENDBRANCH  80  83
ENDBRANCH  52  76
BRANCH  64  87
ATOM     87  C   UNL A   1      44.290  29.000  35.425  1.00  0.00     0.023 A 
ATOM     88  C   UNL A   1      45.544  29.597  35.184  1.00  0.00     0.012 A 
ATOM     89  C   UNL A   1      44.193  27.960  36.370  1.00  0.00     0.148 A 
ATOM     90  C   UNL A   1      46.687  29.137  35.837  1.00  0.00     0.002 A 
ATOM     91  C   UNL A   1      45.326  27.544  37.058  1.00  0.00     0.091 A 
ATOM     92  F   UNL A   1      42.996  27.391  36.575  1.00  0.00    -0.205 F 
ATOM     93  C   UNL A   1      46.576  28.118  36.781  1.00  0.00     0.022 A 
BRANCH  91  94
ATOM     94  S   UNL A   1      45.261  26.309  38.361  1.00  0.00     0.127 S 
ATOM     95  O   UNL A   1      44.444  26.982  39.370  1.00  0.00    -0.237 OA
ATOM     96  O   UNL A   1      44.604  25.187  37.693  1.00  0.00    -0.237 OA
ATOM     97  O   UNL A   1      46.644  26.057  38.743  1.00  0.00    -0.744 OA
ENDBRANCH  91  94
ENDBRANCH  64  87
ENDBRANCH  38  39
ENDBRANCH  30  33
ENDBRANCH  28  29
ENDBRANCH  27  28
ENDBRANCH   1  27
TORSDOF 20
ENDMDL
MODEL 3
REMARK VINA RESULT:     -10.8      2.834      3.668
REMARK SMILES CSc1ccccc1[C@H](C(=O)NCCCCNC(=O)c1ccc(-c2c3nc(c(-c4cccc(S(=O)(=O)[O-])c4F)c4ccc([nH]4)c(-c4cccc(S(=O)(=O)[O-])c4F)c4nc(c(-c5cccc(S(=O)(=O)[O-])c5F)c5ccc2[nH]5)C=C4)C=C3)cc1)[N@@H+](C)CCc1cnn(C)c1
REMARK SMILES IDX 14 1 13 2 12 3 10 4 11 5 9 7 8 8 3 9 4 10 5 11 7 12 6 13
REMARK SMILES IDX 2 14 1 15 83 16 84 17 85 19 86 20 87 21 88 22 92 23 89 24
REMARK SMILES IDX 90 25 91 26 15 27 16 28 17 29 18 30 19 32 20 33 21 34 82 35
REMARK SMILES IDX 22 36 81 37 23 38 24 39 25 40 75 41 26 42 80 43 74 44 76 45
REMARK SMILES IDX 27 46 79 47 73 48 72 49 28 51 60 52 40 53 59 54 41 55 44 56
REMARK SMILES IDX 58 57 77 58 42 59 43 60 57 62 78 63 45 64 29 65 30 66 38 67
REMARK SMILES IDX 31 68 33 69 39 70 32 71 34 72 35 73 36 74 37 75 61 76 62 77
REMARK SMILES IDX 70 78 63 79 65 80 71 81 64 82 66 83 67 84 68 85 69 86 46 87
REMARK SMILES IDX 47 88 55 89 48 90 50 91 56 92 49 93 51 94 52 95 53 96 54 97
REMARK H PARENT 12 6 83 18 17 31 76 50 44 61
REMARK Flexibility Score: inf
ROOT
ATOM      1  C   UNL A   1      31.871  27.399  25.718  1.00  0.00     0.023 C 
ENDROOT
BRANCH   1   2
ATOM      2  C   UNL A   1      30.677  26.502  26.063  1.00  0.00     0.116 C 
BRANCH   2   3
ATOM      3  N   UNL A   1      30.606  25.049  25.792  1.00  0.00    -0.351 N 
ATOM      4  C   UNL A   1      31.310  24.042  25.168  1.00  0.00     0.283 C 
ATOM      5  O   UNL A   1      30.694  22.972  25.438  1.00  0.00    -0.268 OA
ATOM      6  H   UNL A   1      29.784  24.679  26.190  1.00  0.00     0.163 HD
BRANCH   4   7
ATOM      7  C   UNL A   1      32.776  23.759  24.249  1.00  0.00     0.306 C 
BRANCH   7   8
ATOM      8  C   UNL A   1      34.261  23.087  24.449  1.00  0.00     0.033 A 
ATOM      9  C   UNL A   1      34.869  22.367  25.593  1.00  0.00     0.017 A 
ATOM     10  C   UNL A   1      36.278  22.241  25.665  1.00  0.00     0.015 A 
ATOM     11  C   UNL A   1      37.092  22.630  24.613  1.00  0.00     0.001 A 
ATOM     12  C   UNL A   1      35.135  23.329  23.357  1.00  0.00     0.011 A 
ATOM     13  C   UNL A   1      36.516  23.100  23.441  1.00  0.00     0.001 A 
BRANCH   9  14
ATOM     14  S   UNL A   1      34.135  21.287  26.888  1.00  0.00    -0.129 SA
ATOM     15  C   UNL A   1      33.142  22.354  28.027  1.00  0.00     0.091 C 
ENDBRANCH   9  14
ENDBRANCH   7   8
BRANCH   7  16
ATOM     16  N   UNL A   1      32.230  23.355  22.978  1.00  0.00    -0.323 N 
ATOM     17  C   UNL A   1      32.298  24.403  21.970  1.00  0.00     0.333 C 
ATOM     18  H   UNL A   1      31.213  23.287  23.005  1.00  0.00     0.348 HD
BRANCH  16  19
ATOM     19  C   UNL A   1      32.532  21.960  22.677  1.00  0.00     0.267 C 
BRANCH  19  20
ATOM     20  C   UNL A   1      32.139  20.707  23.640  1.00  0.00     0.100 C 
BRANCH  20  21
ATOM     21  C   UNL A   1      32.670  19.207  23.606  1.00  0.00    -0.004 A 
ATOM     22  C   UNL A   1      32.615  18.242  22.542  1.00  0.00     0.139 A 
ATOM     23  C   UNL A   1      33.104  18.353  24.607  1.00  0.00     0.112 A 
ATOM     24  N   UNL A   1      32.993  16.991  22.872  1.00  0.00    -0.182 NA
ATOM     25  N   UNL A   1      33.333  17.093  24.156  1.00  0.00    -0.276 N 
ATOM     26  C   UNL A   1      33.587  15.961  25.029  1.00  0.00     0.173 C 
ENDBRANCH  20  21
ENDBRANCH  19  20
ENDBRANCH  16  19
ENDBRANCH   7  16
ENDBRANCH   4   7
ENDBRANCH   2   3
ENDBRANCH   1   2
BRANCH   1  27
ATOM     27  C   UNL A   1      31.943  28.793  26.415  1.00  0.00     0.023 C 
BRANCH  27  28
ATOM     28  C   UNL A   1      33.060  29.824  26.153  1.00  0.00     0.116 C 
BRANCH  28  29
ATOM     29  N   UNL A   1      32.890  31.165  26.702  1.00  0.00    -0.352 N 
ATOM     30  C   UNL A   1      33.688  31.916  27.545  1.00  0.00     0.251 C 
ATOM     31  H   UNL A   1      32.058  31.614  26.424  1.00  0.00     0.163 HD
ATOM     32  O   UNL A   1      33.328  33.036  27.905  1.00  0.00    -0.269 OA
BRANCH  30  33
ATOM     33  C   UNL A   1      34.975  31.381  28.044  1.00  0.00     0.039 A 
ATOM     34  C   UNL A   1      36.088  32.223  28.118  1.00  0.00     0.014 A 
ATOM     35  C   UNL A   1      35.088  30.052  28.455  1.00  0.00     0.014 A 
ATOM     36  C   UNL A   1      37.260  31.773  28.736  1.00  0.00     0.010 A 
ATOM     37  C   UNL A   1      36.214  29.640  29.163  1.00  0.00     0.010 A 
ATOM     38  C   UNL A   1      37.309  30.501  29.333  1.00  0.00    -0.014 A 
BRANCH  38  39
ATOM     39  C   UNL A   1      38.465  30.087  30.181  1.00  0.00     0.031 A 
ATOM     40  C   UNL A   1      38.662  30.659  31.561  1.00  0.00     0.074 A 
ATOM     41  C   UNL A   1      39.401  29.260  29.666  1.00  0.00     0.049 A 
ATOM     42  N   UNL A   1      39.626  30.433  32.417  1.00  0.00    -0.248 NA
ATOM     43  C   UNL A   1      37.668  31.639  32.030  1.00  0.00     0.031 C 
ATOM     44  C   UNL A   1      39.395  28.715  28.305  1.00  0.00     0.029 A 
ATOM     45  N   UNL A   1      40.551  28.747  30.218  1.00  0.00    -0.354 N 
ATOM     46  C   UNL A   1      39.374  31.262  33.505  1.00  0.00     0.074 A 
ATOM     47  C   UNL A   1      38.194  32.032  33.181  1.00  0.00     0.031 C 
ATOM     48  C   UNL A   1      40.469  27.928  28.138  1.00  0.00     0.029 A 
ATOM     49  C   UNL A   1      41.261  27.935  29.362  1.00  0.00     0.049 A 
ATOM     50  H   UNL A   1      40.839  28.942  31.138  1.00  0.00     0.167 HD
ATOM     51  C   UNL A   1      40.040  31.352  34.682  1.00  0.00     0.034 A 
ATOM     52  C   UNL A   1      42.421  27.270  29.540  1.00  0.00     0.034 A 
ATOM     53  C   UNL A   1      41.191  30.558  35.022  1.00  0.00     0.049 A 
ATOM     54  C   UNL A   1      43.112  27.347  30.874  1.00  0.00     0.074 A 
ATOM     55  C   UNL A   1      41.879  30.509  36.222  1.00  0.00     0.029 A 
ATOM     56  N   UNL A   1      41.832  29.681  34.160  1.00  0.00    -0.354 N 
ATOM     57  N   UNL A   1      42.760  28.007  31.949  1.00  0.00    -0.248 NA
ATOM     58  C   UNL A   1      44.339  26.553  31.032  1.00  0.00     0.031 C 
ATOM     59  C   UNL A   1      42.955  29.627  36.075  1.00  0.00     0.029 A 
ATOM     60  C   UNL A   1      42.913  29.095  34.796  1.00  0.00     0.049 A 
ATOM     61  H   UNL A   1      41.558  29.502  33.231  1.00  0.00     0.167 HD
ATOM     62  C   UNL A   1      43.698  27.681  32.922  1.00  0.00     0.074 A 
ATOM     63  C   UNL A   1      44.618  26.742  32.314  1.00  0.00     0.031 C 
ATOM     64  C   UNL A   1      43.797  28.128  34.198  1.00  0.00     0.034 A 
BRANCH  51  65
ATOM     65  C   UNL A   1      39.504  32.310  35.717  1.00  0.00     0.023 A 
ATOM     66  C   UNL A   1      38.551  31.861  36.655  1.00  0.00     0.012 A 
ATOM     67  C   UNL A   1      39.980  33.634  35.799  1.00  0.00     0.148 A 
ATOM     68  C   UNL A   1      38.047  32.723  37.628  1.00  0.00     0.002 A 
ATOM     69  C   UNL A   1      39.511  34.472  36.803  1.00  0.00     0.091 A 
ATOM     70  F   UNL A   1      40.874  34.049  34.891  1.00  0.00    -0.205 F 
ATOM     71  C   UNL A   1      38.535  34.024  37.709  1.00  0.00     0.022 A 
BRANCH  69  72
ATOM     72  S   UNL A   1      40.135  36.139  37.047  1.00  0.00     0.127 S 
ATOM     73  O   UNL A   1      39.320  36.597  38.172  1.00  0.00    -0.237 OA
ATOM     74  O   UNL A   1      41.540  35.897  37.372  1.00  0.00    -0.237 OA
ATOM     75  O   UNL A   1      39.912  36.841  35.791  1.00  0.00    -0.744 OA
ENDBRANCH  69  72
ENDBRANCH  51  65
BRANCH  52  76
ATOM     76  C   UNL A   1      42.968  26.413  28.447  1.00  0.00     0.023 A 
ATOM     77  C   UNL A   1      42.400  25.146  28.209  1.00  0.00     0.012 A 
ATOM     78  C   UNL A   1      44.035  26.848  27.638  1.00  0.00     0.148 A 
ATOM     79  C   UNL A   1      42.909  24.312  27.212  1.00  0.00     0.002 A 
ATOM     80  C   UNL A   1      44.499  26.037  26.608  1.00  0.00     0.091 A 
ATOM     81  F   UNL A   1      44.569  28.053  27.884  1.00  0.00    -0.205 F 
ATOM     82  C   UNL A   1      43.951  24.760  26.407  1.00  0.00     0.022 A 
BRANCH  80  83
ATOM     83  S   UNL A   1      45.747  26.578  25.436  1.00  0.00     0.127 S 
ATOM     84  O   UNL A   1      45.872  25.414  24.570  1.00  0.00    -0.237 OA
ATOM     85  O   UNL A   1      45.108  27.742  24.829  1.00  0.00    -0.237 OA
ATOM     86  O   UNL A   1      46.929  26.896  26.242  1.00  0.00    -0.744 OA
ENDBRANCH  80  83
ENDBRANCH  52  76
BRANCH  64  87
ATOM     87  C   UNL A   1      44.916  27.577  35.045  1.00  0.00     0.023 A 
ATOM     88  C   UNL A   1      46.181  28.200  35.038  1.00  0.00     0.012 A 
ATOM     89  C   UNL A   1      44.699  26.468  35.886  1.00  0.00     0.148 A 
ATOM     90  C   UNL A   1      47.223  27.701  35.818  1.00  0.00     0.002 A 
ATOM     91  C   UNL A   1      45.726  26.010  36.703  1.00  0.00     0.091 A 
ATOM     92  F   UNL A   1      43.497  25.876  35.867  1.00  0.00    -0.205 F 
ATOM     93  C   UNL A   1      46.992  26.613  36.657  1.00  0.00     0.022 A 
BRANCH  91  94
ATOM     94  S   UNL A   1      45.492  24.680  37.887  1.00  0.00     0.127 S 
ATOM     95  O   UNL A   1      46.795  24.636  38.548  1.00  0.00    -0.237 OA
ATOM     96  O   UNL A   1      44.403  25.193  38.718  1.00  0.00    -0.237 OA
ATOM     97  O   UNL A   1      45.147  23.501  37.103  1.00  0.00    -0.744 OA
ENDBRANCH  91  94
ENDBRANCH  64  87
ENDBRANCH  38  39
ENDBRANCH  30  33
ENDBRANCH  28  29
ENDBRANCH  27  28
ENDBRANCH   1  27
TORSDOF 20
ENDMDL
