MODEL 1
REMARK VINA RESULT:     -12.7      0.000      0.000
REMARK SMILES O=C(NCCCCNC(=O)[C@@H]1[C@@H](C(=O)Nc2cccc([N+](=O)[O-])c2)[C@@H]2C=C[C@H]1O2)c1ccc(-c2c3nc(c(-c4cccc(S(=O)(=O)[O-])c4F)c4ccc([nH]4)c(-c4cccc(S(=O)(=O)[O-])c4F)c4nc(c(-c5cccc(S(=O)(=O)[O-])c5F)c5ccc2[nH]5)C=C4)C=C3)cc1
REMARK SMILES IDX 5 1 4 2 3 3 1 4 2 5 30 7 31 8 92 9 32 10 91 11 33 12 34 13
REMARK SMILES IDX 35 14 85 15 36 16 90 17 84 18 86 19 37 20 89 21 83 22 82 23
REMARK SMILES IDX 38 25 70 26 50 27 69 28 51 29 54 30 68 31 87 32 52 33 53 34
REMARK SMILES IDX 67 36 88 37 55 38 39 39 40 40 48 41 41 42 43 43 49 44 42 45
REMARK SMILES IDX 44 46 45 47 46 48 47 49 71 50 72 51 80 52 73 53 75 54 81 55
REMARK SMILES IDX 74 56 76 57 77 58 78 59 79 60 56 61 57 62 65 63 58 64 60 65
REMARK SMILES IDX 66 66 59 67 61 68 62 69 63 70 64 71 6 72 7 73 8 74 9 75
REMARK SMILES IDX 10 77 11 78 12 79 28 80 25 81 27 82 29 83 26 84 13 85 14 86
REMARK SMILES IDX 15 87 16 89 17 90 24 91 18 92 20 93 19 94 21 95 22 96 23 97
REMARK H PARENT 3 6 86 24 54 35 8 76 15 88
REMARK Flexibility Score: inf
ROOT
ATOM      1  C   UNL A   1      31.387  29.807  25.302  1.00  0.00     0.023 C 
ENDROOT
BRANCH   1   2
ATOM      2  C   UNL A   1      32.474  30.328  26.233  1.00  0.00     0.116 C 
BRANCH   2   3
ATOM      3  N   UNL A   1      32.308  31.735  26.566  1.00  0.00    -0.352 N 
ATOM      4  O   UNL A   1      32.654  33.665  27.672  1.00  0.00    -0.269 OA
ATOM      5  C   UNL A   1      33.059  32.539  27.393  1.00  0.00     0.251 C 
ATOM      6  H   UNL A   1      31.542  32.179  26.134  1.00  0.00     0.163 HD
BRANCH   5   7
ATOM      7  C   UNL A   1      34.326  32.036  27.968  1.00  0.00     0.039 A 
ATOM      8  C   UNL A   1      34.423  30.725  28.436  1.00  0.00     0.014 A 
ATOM      9  C   UNL A   1      35.432  32.887  28.043  1.00  0.00     0.014 A 
ATOM     10  C   UNL A   1      35.555  30.323  29.135  1.00  0.00     0.010 A 
ATOM     11  C   UNL A   1      36.609  32.447  28.661  1.00  0.00     0.010 A 
ATOM     12  C   UNL A   1      36.665  31.176  29.252  1.00  0.00    -0.014 A 
BRANCH  12  13
ATOM     13  C   UNL A   1      37.886  30.683  29.942  1.00  0.00     0.031 A 
ATOM     14  C   UNL A   1      38.205  31.082  31.358  1.00  0.00     0.074 A 
ATOM     15  C   UNL A   1      38.702  29.839  29.279  1.00  0.00     0.049 A 
ATOM     16  N   UNL A   1      39.202  30.697  32.113  1.00  0.00    -0.248 NA
ATOM     17  C   UNL A   1      37.297  32.036  32.013  1.00  0.00     0.031 C 
ATOM     18  C   UNL A   1      38.523  29.419  27.886  1.00  0.00     0.029 A 
ATOM     19  N   UNL A   1      39.833  29.177  29.681  1.00  0.00    -0.354 N 
ATOM     20  C   UNL A   1      39.063  31.380  33.315  1.00  0.00     0.074 A 
ATOM     21  C   UNL A   1      37.889  32.217  33.186  1.00  0.00     0.031 C 
ATOM     22  C   UNL A   1      39.487  28.546  27.561  1.00  0.00     0.029 A 
ATOM     23  C   UNL A   1      40.380  28.381  28.702  1.00  0.00     0.049 A 
ATOM     24  H   UNL A   1      40.217  29.262  30.584  1.00  0.00     0.167 HD
ATOM     25  C   UNL A   1      39.827  31.301  34.432  1.00  0.00     0.034 A 
ATOM     26  C   UNL A   1      41.483  27.609  28.712  1.00  0.00     0.034 A 
ATOM     27  C   UNL A   1      40.974  30.439  34.568  1.00  0.00     0.049 A 
ATOM     28  C   UNL A   1      42.290  27.515  29.975  1.00  0.00     0.074 A 
ATOM     29  C   UNL A   1      41.792  30.261  35.671  1.00  0.00     0.029 A 
ATOM     30  N   UNL A   1      41.464  29.608  33.572  1.00  0.00    -0.354 N 
ATOM     31  N   UNL A   1      42.072  28.082  31.135  1.00  0.00    -0.248 NA
ATOM     32  C   UNL A   1      43.478  26.652  29.939  1.00  0.00     0.031 C 
ATOM     33  C   UNL A   1      42.780  29.327  35.340  1.00  0.00     0.029 A 
ATOM     34  C   UNL A   1      42.570  28.915  34.034  1.00  0.00     0.049 A 
ATOM     35  H   UNL A   1      41.082  29.524  32.668  1.00  0.00     0.167 HD
ATOM     36  C   UNL A   1      43.083  27.633  31.974  1.00  0.00     0.074 A 
ATOM     37  C   UNL A   1      43.893  26.717  31.197  1.00  0.00     0.031 C 
ATOM     38  C   UNL A   1      43.335  27.969  33.262  1.00  0.00     0.034 A 
BRANCH  25  39
ATOM     39  C   UNL A   1      39.420  32.125  35.626  1.00  0.00     0.023 A 
ATOM     40  C   UNL A   1      39.835  33.470  35.707  1.00  0.00     0.012 A 
ATOM     41  C   UNL A   1      38.568  31.605  36.620  1.00  0.00     0.148 A 
ATOM     42  C   UNL A   1      39.429  34.277  36.770  1.00  0.00     0.002 A 
ATOM     43  C   UNL A   1      38.137  32.426  37.658  1.00  0.00     0.091 A 
ATOM     44  F   UNL A   1      38.198  30.318  36.538  1.00  0.00    -0.205 F 
ATOM     45  C   UNL A   1      38.573  33.760  37.738  1.00  0.00     0.022 A 
BRANCH  43  46
ATOM     46  S   UNL A   1      36.978  31.873  38.915  1.00  0.00     0.127 S 
ATOM     47  O   UNL A   1      37.684  32.228  40.144  1.00  0.00    -0.237 OA
ATOM     48  O   UNL A   1      35.799  32.692  38.632  1.00  0.00    -0.237 OA
ATOM     49  O   UNL A   1      36.792  30.447  38.686  1.00  0.00    -0.744 OA
ENDBRANCH  43  46
ENDBRANCH  25  39
BRANCH  26  50
ATOM     50  C   UNL A   1      41.849  26.829  27.497  1.00  0.00     0.023 A 
ATOM     51  C   UNL A   1      42.469  27.480  26.414  1.00  0.00     0.012 A 
ATOM     52  C   UNL A   1      41.637  25.439  27.432  1.00  0.00     0.148 A 
ATOM     53  C   UNL A   1      42.850  26.763  25.279  1.00  0.00     0.002 A 
ATOM     54  C   UNL A   1      42.074  24.721  26.326  1.00  0.00     0.091 A 
ATOM     55  F   UNL A   1      41.024  24.837  28.462  1.00  0.00    -0.205 F 
ATOM     56  C   UNL A   1      42.667  25.383  25.240  1.00  0.00     0.022 A 
BRANCH  54  57
ATOM     57  S   UNL A   1      42.010  22.927  26.283  1.00  0.00     0.127 S 
ATOM     58  O   UNL A   1      40.574  22.675  26.338  1.00  0.00    -0.237 OA
ATOM     59  O   UNL A   1      42.641  22.623  24.997  1.00  0.00    -0.237 OA
ATOM     60  O   UNL A   1      42.785  22.493  27.438  1.00  0.00    -0.744 OA
ENDBRANCH  54  57
ENDBRANCH  26  50
BRANCH  38  61
ATOM     61  C   UNL A   1      44.531  27.331  33.917  1.00  0.00     0.023 A 
ATOM     62  C   UNL A   1      45.783  27.975  33.850  1.00  0.00     0.012 A 
ATOM     63  C   UNL A   1      44.408  26.128  34.638  1.00  0.00     0.148 A 
ATOM     64  C   UNL A   1      46.902  27.413  34.462  1.00  0.00     0.002 A 
ATOM     65  C   UNL A   1      45.519  25.596  35.282  1.00  0.00     0.091 A 
ATOM     66  F   UNL A   1      43.214  25.519  34.672  1.00  0.00    -0.205 F 
ATOM     67  C   UNL A   1      46.768  26.230  35.186  1.00  0.00     0.022 A 
BRANCH  65  68
ATOM     68  S   UNL A   1      45.416  24.123  36.304  1.00  0.00     0.127 S 
ATOM     69  O   UNL A   1      44.639  23.222  35.453  1.00  0.00    -0.237 OA
ATOM     70  O   UNL A   1      46.822  23.750  36.461  1.00  0.00    -0.237 OA
ATOM     71  O   UNL A   1      44.764  24.541  37.538  1.00  0.00    -0.744 OA
ENDBRANCH  65  68
ENDBRANCH  38  61
ENDBRANCH  12  13
ENDBRANCH   5   7
ENDBRANCH   2   3
ENDBRANCH   1   2
BRANCH   1  72
ATOM     72  C   UNL A   1      31.517  28.340  24.899  1.00  0.00     0.023 C 
BRANCH  72  73
ATOM     73  C   UNL A   1      31.853  27.374  26.028  1.00  0.00     0.116 C 
BRANCH  73  74
ATOM     74  N   UNL A   1      33.106  26.669  25.837  1.00  0.00    -0.356 N 
ATOM     75  C   UNL A   1      33.319  25.464  25.233  1.00  0.00     0.227 C 
ATOM     76  H   UNL A   1      33.908  27.119  26.188  1.00  0.00     0.163 HD
ATOM     77  O   UNL A   1      34.478  25.060  25.136  1.00  0.00    -0.275 OA
BRANCH  75  78
ATOM     78  C   UNL A   1      32.132  24.654  24.757  1.00  0.00     0.127 C 
ATOM     79  C   UNL A   1      32.442  23.120  24.620  1.00  0.00     0.127 C 
ATOM     80  C   UNL A   1      31.692  25.001  23.326  1.00  0.00     0.155 C 
ATOM     81  C   UNL A   1      32.024  22.870  23.159  1.00  0.00     0.155 C 
ATOM     82  C   UNL A   1      32.808  24.833  22.337  1.00  0.00     0.004 C 
ATOM     83  O   UNL A   1      30.927  23.809  23.016  1.00  0.00    -0.365 OA
ATOM     84  C   UNL A   1      33.017  23.515  22.238  1.00  0.00     0.004 C 
BRANCH  79  85
ATOM     85  C   UNL A   1      31.639  22.270  25.596  1.00  0.00     0.231 C 
ATOM     86  O   UNL A   1      30.713  22.738  26.263  1.00  0.00    -0.274 OA
ATOM     87  N   UNL A   1      31.905  20.933  25.751  1.00  0.00    -0.325 N 
ATOM     88  H   UNL A   1      31.263  20.448  26.318  1.00  0.00     0.169 HD
BRANCH  87  89
ATOM     89  C   UNL A   1      32.942  20.145  25.234  1.00  0.00     0.048 A 
ATOM     90  C   UNL A   1      34.243  20.646  25.352  1.00  0.00     0.026 A 
ATOM     91  C   UNL A   1      32.733  18.890  24.660  1.00  0.00     0.111 A 
ATOM     92  C   UNL A   1      35.341  19.854  25.006  1.00  0.00     0.009 A 
ATOM     93  C   UNL A   1      33.838  18.105  24.300  1.00  0.00     0.271 A 
ATOM     94  C   UNL A   1      35.143  18.574  24.493  1.00  0.00     0.086 A 
BRANCH  93  95
ATOM     95  N   UNL A   1      33.624  16.767  23.734  1.00  0.00     0.062 N 
ATOM     96  O   UNL A   1      32.967  15.959  24.404  1.00  0.00    -0.258 OA
ATOM     97  O   UNL A   1      34.106  16.531  22.619  1.00  0.00    -0.258 OA
ENDBRANCH  93  95
ENDBRANCH  87  89
ENDBRANCH  79  85
ENDBRANCH  75  78
ENDBRANCH  73  74
ENDBRANCH  72  73
ENDBRANCH   1  72
TORSDOF 17
ENDMDL
MODEL 2
REMARK VINA RESULT:     -12.6      2.183      7.959
REMARK SMILES O=C(NCCCCNC(=O)[C@@H]1[C@@H](C(=O)Nc2cccc([N+](=O)[O-])c2)[C@@H]2C=C[C@H]1O2)c1ccc(-c2c3nc(c(-c4cccc(S(=O)(=O)[O-])c4F)c4ccc([nH]4)c(-c4cccc(S(=O)(=O)[O-])c4F)c4nc(c(-c5cccc(S(=O)(=O)[O-])c5F)c5ccc2[nH]5)C=C4)C=C3)cc1
REMARK SMILES IDX 5 1 4 2 3 3 1 4 2 5 30 7 31 8 92 9 32 10 91 11 33 12 34 13
REMARK SMILES IDX 35 14 85 15 36 16 90 17 84 18 86 19 37 20 89 21 83 22 82 23
REMARK SMILES IDX 38 25 70 26 50 27 69 28 51 29 54 30 68 31 87 32 52 33 53 34
REMARK SMILES IDX 67 36 88 37 55 38 39 39 40 40 48 41 41 42 43 43 49 44 42 45
REMARK SMILES IDX 44 46 45 47 46 48 47 49 71 50 72 51 80 52 73 53 75 54 81 55
REMARK SMILES IDX 74 56 76 57 77 58 78 59 79 60 56 61 57 62 65 63 58 64 60 65
REMARK SMILES IDX 66 66 59 67 61 68 62 69 63 70 64 71 6 72 7 73 8 74 9 75
REMARK SMILES IDX 10 77 11 78 12 79 28 80 25 81 27 82 29 83 26 84 13 85 14 86
REMARK SMILES IDX 15 87 16 89 17 90 24 91 18 92 20 93 19 94 21 95 22 96 23 97
REMARK H PARENT 3 6 86 24 54 35 8 76 15 88
REMARK Flexibility Score: inf
ROOT
ATOM      1  C   UNL A   1      31.535  32.149  26.647  1.00  0.00     0.023 C 
ENDROOT
BRANCH   1   2
ATOM      2  C   UNL A   1      32.758  32.740  27.338  1.00  0.00     0.116 C 
BRANCH   2   3
ATOM      3  N   UNL A   1      32.576  34.132  27.720  1.00  0.00    -0.352 N 
ATOM      4  O   UNL A   1      32.755  35.980  28.992  1.00  0.00    -0.269 OA
ATOM      5  C   UNL A   1      33.169  34.854  28.730  1.00  0.00     0.251 C 
ATOM      6  H   UNL A   1      31.929  34.634  27.171  1.00  0.00     0.163 HD
BRANCH   5   7
ATOM      7  C   UNL A   1      34.276  34.262  29.514  1.00  0.00     0.039 A 
ATOM      8  C   UNL A   1      35.605  34.516  29.173  1.00  0.00     0.014 A 
ATOM      9  C   UNL A   1      33.980  33.436  30.603  1.00  0.00     0.014 A 
ATOM     10  C   UNL A   1      36.626  33.812  29.800  1.00  0.00     0.010 A 
ATOM     11  C   UNL A   1      35.017  32.804  31.299  1.00  0.00     0.010 A 
ATOM     12  C   UNL A   1      36.347  32.952  30.875  1.00  0.00    -0.014 A 
BRANCH  12  13
ATOM     13  C   UNL A   1      37.474  32.274  31.570  1.00  0.00     0.031 A 
ATOM     14  C   UNL A   1      38.237  31.151  30.921  1.00  0.00     0.074 A 
ATOM     15  C   UNL A   1      37.824  32.706  32.798  1.00  0.00     0.049 A 
ATOM     16  N   UNL A   1      39.274  30.495  31.376  1.00  0.00    -0.248 NA
ATOM     17  C   UNL A   1      37.782  30.700  29.597  1.00  0.00     0.031 C 
ATOM     18  C   UNL A   1      37.127  33.755  33.549  1.00  0.00     0.029 A 
ATOM     19  N   UNL A   1      38.849  32.331  33.627  1.00  0.00    -0.354 N 
ATOM     20  C   UNL A   1      39.577  29.537  30.416  1.00  0.00     0.074 A 
ATOM     21  C   UNL A   1      38.604  29.687  29.355  1.00  0.00     0.031 C 
ATOM     22  C   UNL A   1      37.763  33.963  34.711  1.00  0.00     0.029 A 
ATOM     23  C   UNL A   1      38.881  33.032  34.811  1.00  0.00     0.049 A 
ATOM     24  H   UNL A   1      39.499  31.629  33.398  1.00  0.00     0.167 HD
ATOM     25  C   UNL A   1      40.585  28.631  30.407  1.00  0.00     0.034 A 
ATOM     26  C   UNL A   1      39.710  32.934  35.867  1.00  0.00     0.034 A 
ATOM     27  C   UNL A   1      41.574  28.510  31.449  1.00  0.00     0.049 A 
ATOM     28  C   UNL A   1      40.839  31.945  35.812  1.00  0.00     0.074 A 
ATOM     29  C   UNL A   1      42.655  27.648  31.514  1.00  0.00     0.029 A 
ATOM     30  N   UNL A   1      41.604  29.274  32.605  1.00  0.00    -0.354 N 
ATOM     31  N   UNL A   1      41.173  31.129  34.843  1.00  0.00    -0.248 NA
ATOM     32  C   UNL A   1      41.723  31.883  36.984  1.00  0.00     0.031 C 
ATOM     33  C   UNL A   1      43.335  27.886  32.713  1.00  0.00     0.029 A 
ATOM     34  C   UNL A   1      42.684  28.905  33.389  1.00  0.00     0.049 A 
ATOM     35  H   UNL A   1      40.952  29.975  32.837  1.00  0.00     0.167 HD
ATOM     36  C   UNL A   1      42.314  30.469  35.278  1.00  0.00     0.074 A 
ATOM     37  C   UNL A   1      42.635  31.007  36.584  1.00  0.00     0.031 C 
ATOM     38  C   UNL A   1      43.018  29.486  34.665  1.00  0.00     0.034 A 
BRANCH  25  39
ATOM     39  C   UNL A   1      40.714  27.731  29.205  1.00  0.00     0.023 A 
ATOM     40  C   UNL A   1      39.902  26.583  29.115  1.00  0.00     0.012 A 
ATOM     41  C   UNL A   1      41.571  28.056  28.134  1.00  0.00     0.148 A 
ATOM     42  C   UNL A   1      39.956  25.759  27.990  1.00  0.00     0.002 A 
ATOM     43  C   UNL A   1      41.592  27.250  27.000  1.00  0.00     0.091 A 
ATOM     44  F   UNL A   1      42.351  29.141  28.244  1.00  0.00    -0.205 F 
ATOM     45  C   UNL A   1      40.792  26.098  26.930  1.00  0.00     0.022 A 
BRANCH  43  46
ATOM     46  S   UNL A   1      42.583  27.641  25.552  1.00  0.00     0.127 S 
ATOM     47  O   UNL A   1      42.318  26.488  24.693  1.00  0.00    -0.237 OA
ATOM     48  O   UNL A   1      41.981  28.893  25.092  1.00  0.00    -0.237 OA
ATOM     49  O   UNL A   1      43.953  27.768  26.029  1.00  0.00    -0.744 OA
ENDBRANCH  43  46
ENDBRANCH  25  39
BRANCH  26  50
ATOM     50  C   UNL A   1      39.525  33.836  37.037  1.00  0.00     0.023 A 
ATOM     51  C   UNL A   1      39.890  35.191  36.935  1.00  0.00     0.012 A 
ATOM     52  C   UNL A   1      38.939  33.372  38.230  1.00  0.00     0.148 A 
ATOM     53  C   UNL A   1      39.695  36.062  38.007  1.00  0.00     0.002 A 
ATOM     54  C   UNL A   1      38.691  34.257  39.272  1.00  0.00     0.091 A 
ATOM     55  F   UNL A   1      38.619  32.073  38.321  1.00  0.00    -0.205 F 
ATOM     56  C   UNL A   1      39.083  35.600  39.170  1.00  0.00     0.022 A 
BRANCH  54  57
ATOM     57  S   UNL A   1      37.766  33.760  40.729  1.00  0.00     0.127 S 
ATOM     58  O   UNL A   1      38.690  32.829  41.369  1.00  0.00    -0.237 OA
ATOM     59  O   UNL A   1      37.586  35.031  41.432  1.00  0.00    -0.237 OA
ATOM     60  O   UNL A   1      36.528  33.188  40.214  1.00  0.00    -0.744 OA
ENDBRANCH  54  57
ENDBRANCH  26  50
BRANCH  38  61
ATOM     61  C   UNL A   1      44.214  28.939  35.396  1.00  0.00     0.023 A 
ATOM     62  C   UNL A   1      45.482  29.513  35.176  1.00  0.00     0.012 A 
ATOM     63  C   UNL A   1      44.077  27.897  36.333  1.00  0.00     0.148 A 
ATOM     64  C   UNL A   1      46.603  29.034  35.852  1.00  0.00     0.002 A 
ATOM     65  C   UNL A   1      45.192  27.454  37.035  1.00  0.00     0.091 A 
ATOM     66  F   UNL A   1      42.866  27.349  36.511  1.00  0.00    -0.205 F 
ATOM     67  C   UNL A   1      46.456  28.013  36.789  1.00  0.00     0.022 A 
BRANCH  65  68
ATOM     68  S   UNL A   1      45.077  26.203  38.319  1.00  0.00     0.127 S 
ATOM     69  O   UNL A   1      44.195  26.850  39.289  1.00  0.00    -0.237 OA
ATOM     70  O   UNL A   1      44.473  25.076  37.605  1.00  0.00    -0.237 OA
ATOM     71  O   UNL A   1      46.443  25.968  38.767  1.00  0.00    -0.744 OA
ENDBRANCH  65  68
ENDBRANCH  38  61
ENDBRANCH  12  13
ENDBRANCH   5   7
ENDBRANCH   2   3
ENDBRANCH   1   2
BRANCH   1  72
ATOM     72  C   UNL A   1      31.743  30.778  26.008  1.00  0.00     0.023 C 
BRANCH  72  73
ATOM     73  C   UNL A   1      31.916  29.617  26.981  1.00  0.00     0.116 C 
BRANCH  73  74
ATOM     74  N   UNL A   1      32.865  28.618  26.530  1.00  0.00    -0.356 N 
ATOM     75  C   UNL A   1      32.626  27.474  25.827  1.00  0.00     0.227 C 
ATOM     76  H   UNL A   1      33.807  28.789  26.762  1.00  0.00     0.163 HD
ATOM     77  O   UNL A   1      33.588  26.778  25.504  1.00  0.00    -0.275 OA
BRANCH  75  78
ATOM     78  C   UNL A   1      31.197  27.080  25.520  1.00  0.00     0.127 C 
ATOM     79  C   UNL A   1      31.016  25.537  25.278  1.00  0.00     0.127 C 
ATOM     80  C   UNL A   1      30.678  27.655  24.192  1.00  0.00     0.155 C 
ATOM     81  C   UNL A   1      30.337  25.540  23.896  1.00  0.00     0.155 C 
ATOM     82  C   UNL A   1      31.540  27.257  23.031  1.00  0.00     0.004 C 
ATOM     83  O   UNL A   1      29.558  26.762  23.967  1.00  0.00    -0.365 OA
ATOM     84  C   UNL A   1      31.333  25.947  22.851  1.00  0.00     0.004 C 
BRANCH  79  85
ATOM     85  C   UNL A   1      30.147  24.876  26.339  1.00  0.00     0.231 C 
ATOM     86  O   UNL A   1      29.164  25.441  26.827  1.00  0.00    -0.274 OA
ATOM     87  N   UNL A   1      30.414  23.604  26.777  1.00  0.00    -0.325 N 
ATOM     88  H   UNL A   1      29.734  23.223  27.379  1.00  0.00     0.169 HD
BRANCH  87  89
ATOM     89  C   UNL A   1      31.498  22.758  26.508  1.00  0.00     0.048 A 
ATOM     90  C   UNL A   1      32.669  22.968  27.246  1.00  0.00     0.026 A 
ATOM     91  C   UNL A   1      31.439  21.711  25.587  1.00  0.00     0.111 A 
ATOM     92  C   UNL A   1      33.736  22.071  27.150  1.00  0.00     0.009 A 
ATOM     93  C   UNL A   1      32.518  20.822  25.484  1.00  0.00     0.271 A 
ATOM     94  C   UNL A   1      33.659  20.985  26.280  1.00  0.00     0.086 A 
BRANCH  93  95
ATOM     95  N   UNL A   1      32.444  19.695  24.546  1.00  0.00     0.062 N 
ATOM     96  O   UNL A   1      32.071  18.601  24.991  1.00  0.00    -0.258 OA
ATOM     97  O   UNL A   1      32.751  19.908  23.366  1.00  0.00    -0.258 OA
ENDBRANCH  93  95
ENDBRANCH  87  89
ENDBRANCH  79  85
ENDBRANCH  75  78
ENDBRANCH  73  74
ENDBRANCH  72  73
ENDBRANCH   1  72
TORSDOF 17
ENDMDL
MODEL 3
REMARK VINA RESULT:     -12.6      5.052      9.715
REMARK SMILES O=C(NCCCCNC(=O)[C@@H]1[C@@H](C(=O)Nc2cccc([N+](=O)[O-])c2)[C@@H]2C=C[C@H]1O2)c1ccc(-c2c3nc(c(-c4cccc(S(=O)(=O)[O-])c4F)c4ccc([nH]4)c(-c4cccc(S(=O)(=O)[O-])c4F)c4nc(c(-c5cccc(S(=O)(=O)[O-])c5F)c5ccc2[nH]5)C=C4)C=C3)cc1
REMARK SMILES IDX 5 1 4 2 3 3 1 4 2 5 30 7 31 8 92 9 32 10 91 11 33 12 34 13
REMARK SMILES IDX 35 14 85 15 36 16 90 17 84 18 86 19 37 20 89 21 83 22 82 23
REMARK SMILES IDX 38 25 70 26 50 27 69 28 51 29 54 30 68 31 87 32 52 33 53 34
REMARK SMILES IDX 67 36 88 37 55 38 39 39 40 40 48 41 41 42 43 43 49 44 42 45
REMARK SMILES IDX 44 46 45 47 46 48 47 49 71 50 72 51 80 52 73 53 75 54 81 55
REMARK SMILES IDX 74 56 76 57 77 58 78 59 79 60 56 61 57 62 65 63 58 64 60 65
REMARK SMILES IDX 66 66 59 67 61 68 62 69 63 70 64 71 6 72 7 73 8 74 9 75
REMARK SMILES IDX 10 77 11 78 12 79 28 80 25 81 27 82 29 83 26 84 13 85 14 86
REMARK SMILES IDX 15 87 16 89 17 90 24 91 18 92 20 93 19 94 21 95 22 96 23 97
REMARK H PARENT 3 6 86 24 54 35 8 76 15 88
REMARK Flexibility Score: inf
ROOT
ATOM      1  C   UNL A   1      35.943  22.091  24.093  1.00  0.00     0.023 C 
ENDROOT
BRANCH   1   2
ATOM      2  C   UNL A   1      36.564  22.004  25.481  1.00  0.00     0.116 C 
BRANCH   2   3
ATOM      3  N   UNL A   1      37.538  20.930  25.600  1.00  0.00    -0.352 N 
ATOM      4  O   UNL A   1      39.561  19.975  25.849  1.00  0.00    -0.269 OA
ATOM      5  C   UNL A   1      38.862  20.978  25.972  1.00  0.00     0.251 C 
ATOM      6  H   UNL A   1      37.197  20.032  25.383  1.00  0.00     0.163 HD
BRANCH   5   7
ATOM      7  C   UNL A   1      39.445  22.239  26.481  1.00  0.00     0.039 A 
ATOM      8  C   UNL A   1      39.008  23.472  25.994  1.00  0.00     0.014 A 
ATOM      9  C   UNL A   1      40.446  22.188  27.456  1.00  0.00     0.014 A 
ATOM     10  C   UNL A   1      39.687  24.633  26.345  1.00  0.00     0.010 A 
ATOM     11  C   UNL A   1      41.062  23.370  27.883  1.00  0.00     0.010 A 
ATOM     12  C   UNL A   1      40.718  24.599  27.298  1.00  0.00    -0.014 A 
BRANCH  12  13
ATOM     13  C   UNL A   1      41.370  25.873  27.704  1.00  0.00     0.031 A 
ATOM     14  C   UNL A   1      42.790  26.188  27.317  1.00  0.00     0.074 A 
ATOM     15  C   UNL A   1      40.649  26.766  28.411  1.00  0.00     0.049 A 
ATOM     16  N   UNL A   1      43.480  27.275  27.550  1.00  0.00    -0.248 NA
ATOM     17  C   UNL A   1      43.535  25.156  26.579  1.00  0.00     0.031 C 
ATOM     18  C   UNL A   1      39.279  26.551  28.886  1.00  0.00     0.029 A 
ATOM     19  N   UNL A   1      40.956  28.029  28.846  1.00  0.00    -0.354 N 
ATOM     20  C   UNL A   1      44.745  27.050  27.020  1.00  0.00     0.074 A 
ATOM     21  C   UNL A   1      44.733  25.714  26.462  1.00  0.00     0.031 C 
ATOM     22  C   UNL A   1      38.852  27.655  29.516  1.00  0.00     0.029 A 
ATOM     23  C   UNL A   1      39.930  28.637  29.534  1.00  0.00     0.049 A 
ATOM     24  H   UNL A   1      41.826  28.460  28.683  1.00  0.00     0.167 HD
ATOM     25  C   UNL A   1      45.811  27.886  26.980  1.00  0.00     0.034 A 
ATOM     26  C   UNL A   1      39.863  29.845  30.123  1.00  0.00     0.034 A 
ATOM     27  C   UNL A   1      45.807  29.229  27.504  1.00  0.00     0.049 A 
ATOM     28  C   UNL A   1      41.049  30.762  30.031  1.00  0.00     0.074 A 
ATOM     29  C   UNL A   1      46.826  30.166  27.480  1.00  0.00     0.029 A 
ATOM     30  N   UNL A   1      44.732  29.826  28.145  1.00  0.00    -0.354 N 
ATOM     31  N   UNL A   1      42.194  30.570  29.424  1.00  0.00    -0.248 NA
ATOM     32  C   UNL A   1      40.923  32.074  30.681  1.00  0.00     0.031 C 
ATOM     33  C   UNL A   1      46.369  31.328  28.111  1.00  0.00     0.029 A 
ATOM     34  C   UNL A   1      45.062  31.118  28.519  1.00  0.00     0.049 A 
ATOM     35  H   UNL A   1      43.863  29.395  28.311  1.00  0.00     0.167 HD
ATOM     36  C   UNL A   1      42.920  31.741  29.602  1.00  0.00     0.074 A 
ATOM     37  C   UNL A   1      42.069  32.650  30.343  1.00  0.00     0.031 C 
ATOM     38  C   UNL A   1      44.185  32.028  29.211  1.00  0.00     0.034 A 
BRANCH  25  39
ATOM     39  C   UNL A   1      47.063  27.402  26.294  1.00  0.00     0.023 A 
ATOM     40  C   UNL A   1      47.288  27.750  24.947  1.00  0.00     0.012 A 
ATOM     41  C   UNL A   1      48.048  26.677  26.993  1.00  0.00     0.148 A 
ATOM     42  C   UNL A   1      48.462  27.366  24.299  1.00  0.00     0.002 A 
ATOM     43  C   UNL A   1      49.233  26.330  26.351  1.00  0.00     0.091 A 
ATOM     44  F   UNL A   1      47.810  26.337  28.268  1.00  0.00    -0.205 F 
ATOM     45  C   UNL A   1      49.438  26.666  25.002  1.00  0.00     0.022 A 
BRANCH  43  46
ATOM     46  S   UNL A   1      50.580  25.488  27.192  1.00  0.00     0.127 S 
ATOM     47  O   UNL A   1      49.923  24.267  27.653  1.00  0.00    -0.237 OA
ATOM     48  O   UNL A   1      51.545  25.289  26.110  1.00  0.00    -0.237 OA
ATOM     49  O   UNL A   1      51.026  26.396  28.239  1.00  0.00    -0.744 OA
ENDBRANCH  43  46
ENDBRANCH  25  39
BRANCH  26  50
ATOM     50  C   UNL A   1      38.608  30.266  30.803  1.00  0.00     0.023 A 
ATOM     51  C   UNL A   1      38.442  30.012  32.177  1.00  0.00     0.012 A 
ATOM     52  C   UNL A   1      37.601  30.964  30.108  1.00  0.00     0.148 A 
ATOM     53  C   UNL A   1      37.287  30.426  32.842  1.00  0.00     0.002 A 
ATOM     54  C   UNL A   1      36.482  31.428  30.789  1.00  0.00     0.091 A 
ATOM     55  F   UNL A   1      37.762  31.177  28.794  1.00  0.00    -0.205 F 
ATOM     56  C   UNL A   1      36.314  31.146  32.153  1.00  0.00     0.022 A 
BRANCH  54  57
ATOM     57  S   UNL A   1      35.273  32.493  29.996  1.00  0.00     0.127 S 
ATOM     58  O   UNL A   1      34.301  32.695  31.065  1.00  0.00    -0.237 OA
ATOM     59  O   UNL A   1      36.071  33.673  29.658  1.00  0.00    -0.237 OA
ATOM     60  O   UNL A   1      34.809  31.741  28.836  1.00  0.00    -0.744 OA
ENDBRANCH  54  57
ENDBRANCH  26  50
BRANCH  38  61
ATOM     61  C   UNL A   1      44.722  33.388  29.568  1.00  0.00     0.023 A 
ATOM     62  C   UNL A   1      45.397  33.566  30.792  1.00  0.00     0.012 A 
ATOM     63  C   UNL A   1      44.605  34.471  28.676  1.00  0.00     0.148 A 
ATOM     64  C   UNL A   1      45.918  34.812  31.139  1.00  0.00     0.002 A 
ATOM     65  C   UNL A   1      45.165  35.699  29.010  1.00  0.00     0.091 A 
ATOM     66  F   UNL A   1      43.940  34.287  27.526  1.00  0.00    -0.205 F 
ATOM     67  C   UNL A   1      45.811  35.875  30.244  1.00  0.00     0.022 A 
BRANCH  65  68
ATOM     68  S   UNL A   1      45.146  37.095  27.880  1.00  0.00     0.127 S 
ATOM     69  O   UNL A   1      45.549  36.467  26.622  1.00  0.00    -0.237 OA
ATOM     70  O   UNL A   1      43.746  37.519  27.927  1.00  0.00    -0.237 OA
ATOM     71  O   UNL A   1      46.086  38.063  28.430  1.00  0.00    -0.744 OA
ENDBRANCH  65  68
ENDBRANCH  38  61
ENDBRANCH  12  13
ENDBRANCH   5   7
ENDBRANCH   2   3
ENDBRANCH   1   2
BRANCH   1  72
ATOM     72  C   UNL A   1      36.081  23.443  23.397  1.00  0.00     0.023 C 
BRANCH  72  73
ATOM     73  C   UNL A   1      34.983  24.455  23.701  1.00  0.00     0.116 C 
BRANCH  73  74
ATOM     74  N   UNL A   1      33.667  24.035  23.261  1.00  0.00    -0.356 N 
ATOM     75  C   UNL A   1      32.568  23.750  24.018  1.00  0.00     0.227 C 
ATOM     76  H   UNL A   1      33.551  23.943  22.287  1.00  0.00     0.163 HD
ATOM     77  O   UNL A   1      31.525  23.449  23.437  1.00  0.00    -0.275 OA
BRANCH  75  78
ATOM     78  C   UNL A   1      32.685  23.764  25.527  1.00  0.00     0.127 C 
ATOM     79  C   UNL A   1      32.157  22.447  26.202  1.00  0.00     0.127 C 
ATOM     80  C   UNL A   1      31.797  24.824  26.197  1.00  0.00     0.155 C 
ATOM     81  C   UNL A   1      31.136  23.025  27.200  1.00  0.00     0.155 C 
ATOM     82  C   UNL A   1      30.351  24.658  25.836  1.00  0.00     0.004 C 
ATOM     83  O   UNL A   1      31.763  24.288  27.545  1.00  0.00    -0.365 OA
ATOM     84  C   UNL A   1      29.943  23.542  26.452  1.00  0.00     0.004 C 
BRANCH  79  85
ATOM     85  C   UNL A   1      33.259  21.665  26.904  1.00  0.00     0.231 C 
ATOM     86  O   UNL A   1      33.864  22.116  27.879  1.00  0.00    -0.274 OA
ATOM     87  N   UNL A   1      33.606  20.406  26.484  1.00  0.00    -0.325 N 
ATOM     88  H   UNL A   1      34.248  19.939  27.067  1.00  0.00     0.169 HD
BRANCH  87  89
ATOM     89  C   UNL A   1      33.195  19.675  25.362  1.00  0.00     0.048 A 
ATOM     90  C   UNL A   1      32.430  20.351  24.405  1.00  0.00     0.026 A 
ATOM     91  C   UNL A   1      33.550  18.342  25.146  1.00  0.00     0.111 A 
ATOM     92  C   UNL A   1      32.118  19.741  23.188  1.00  0.00     0.009 A 
ATOM     93  C   UNL A   1      33.221  17.729  23.930  1.00  0.00     0.271 A 
ATOM     94  C   UNL A   1      32.525  18.432  22.939  1.00  0.00     0.086 A 
BRANCH  93  95
ATOM     95  N   UNL A   1      33.629  16.340  23.682  1.00  0.00     0.062 N 
ATOM     96  O   UNL A   1      33.285  15.485  24.509  1.00  0.00    -0.258 OA
ATOM     97  O   UNL A   1      34.286  16.107  22.660  1.00  0.00    -0.258 OA
ENDBRANCH  93  95
ENDBRANCH  87  89
ENDBRANCH  79  85
ENDBRANCH  75  78
ENDBRANCH  73  74
ENDBRANCH  72  73
ENDBRANCH   1  72
TORSDOF 17
ENDMDL
