MODEL 1
REMARK VINA RESULT:     -11.5      0.000      0.000
REMARK SMILES Cc1cc(S[C@@H](C)c2ccc(C(=O)NCCCCNC(=O)c3ccc(-c4c5nc(c(-c6cccc(S(=O)(=O)[O-])c6F)c6ccc([nH]6)c(-c6cccc(S(=O)(=O)[O-])c6F)c6nc(c(-c7cccc(S(=O)(=O)[O-])c7F)c7ccc4[nH]7)C=C6)C=C5)cc3)o2)n(C)n1
REMARK SMILES IDX 16 1 15 2 14 3 12 4 13 5 11 7 8 8 9 9 85 10 10 11 6 12 7 13
REMARK SMILES IDX 5 14 4 15 1 16 2 17 3 18 88 19 86 20 87 21 17 22 18 23 19 24
REMARK SMILES IDX 20 25 21 27 22 28 23 29 84 30 24 31 83 32 25 33 26 34 27 35
REMARK SMILES IDX 77 36 28 37 82 38 76 39 78 40 29 41 81 42 75 43 74 44 30 46
REMARK SMILES IDX 62 47 42 48 61 49 43 50 46 51 60 52 79 53 44 54 45 55 59 57
REMARK SMILES IDX 80 58 47 59 31 60 32 61 40 62 33 63 35 64 41 65 34 66 36 67
REMARK SMILES IDX 37 68 38 69 39 70 63 71 64 72 72 73 65 74 67 75 73 76 66 77
REMARK SMILES IDX 68 78 69 79 70 80 71 81 48 82 49 83 57 84 50 85 52 86 58 87
REMARK SMILES IDX 51 88 53 89 54 90 55 91 56 92
REMARK H PARENT 14 6 19 26 78 45 46 56
REMARK Flexibility Score: inf
ROOT
ATOM      1  C   UNL A   1      31.585  28.553  25.337  1.00  0.00     0.023 C 
ENDROOT
BRANCH   1   2
ATOM      2  C   UNL A   1      32.345  27.779  26.414  1.00  0.00     0.116 C 
BRANCH   2   3
ATOM      3  N   UNL A   1      31.644  26.568  26.778  1.00  0.00    -0.349 N 
ATOM      4  C   UNL A   1      31.752  25.281  26.311  1.00  0.00     0.286 C 
ATOM      5  O   UNL A   1      31.036  24.452  26.876  1.00  0.00    -0.266 OA
ATOM      6  H   UNL A   1      30.972  26.687  27.486  1.00  0.00     0.163 HD
BRANCH   4   7
ATOM      7  C   UNL A   1      32.654  24.925  25.227  1.00  0.00     0.191 A 
ATOM      8  C   UNL A   1      34.626  24.193  24.502  1.00  0.00     0.118 A 
ATOM      9  C   UNL A   1      33.847  24.396  23.383  1.00  0.00     0.047 A 
ATOM     10  O   UNL A   1      33.918  24.544  25.606  1.00  0.00    -0.455 OA
ATOM     11  C   UNL A   1      32.578  24.823  23.849  1.00  0.00     0.056 A 
BRANCH   8  12
ATOM     12  C   UNL A   1      36.010  23.646  24.678  1.00  0.00     0.116 C 
ATOM     13  C   UNL A   1      36.651  23.282  23.339  1.00  0.00     0.028 C 
BRANCH  12  14
ATOM     14  S   UNL A   1      36.211  22.341  25.932  1.00  0.00    -0.096 SA
BRANCH  14  15
ATOM     15  C   UNL A   1      34.930  21.185  25.710  1.00  0.00     0.095 A 
ATOM     16  C   UNL A   1      32.680  18.613  24.365  1.00  0.00     0.069 C 
ATOM     17  C   UNL A   1      33.441  19.649  25.102  1.00  0.00     0.061 A 
ATOM     18  C   UNL A   1      34.673  20.238  24.744  1.00  0.00     0.060 A 
ATOM     19  N   UNL A   1      32.973  20.150  26.250  1.00  0.00    -0.178 NA
ATOM     20  N   UNL A   1      33.854  21.126  26.564  1.00  0.00    -0.262 N 
ATOM     21  C   UNL A   1      33.532  21.957  27.701  1.00  0.00     0.175 C 
ENDBRANCH  14  15
ENDBRANCH  12  14
ENDBRANCH   8  12
ENDBRANCH   4   7
ENDBRANCH   2   3
ENDBRANCH   1   2
BRANCH   1  22
ATOM     22  C   UNL A   1      31.609  30.073  25.535  1.00  0.00     0.023 C 
BRANCH  22  23
ATOM     23  C   UNL A   1      32.223  30.551  26.850  1.00  0.00     0.116 C 
BRANCH  23  24
ATOM     24  N   UNL A   1      32.171  31.998  27.020  1.00  0.00    -0.352 N 
ATOM     25  C   UNL A   1      33.133  32.832  27.539  1.00  0.00     0.251 C 
ATOM     26  H   UNL A   1      31.339  32.435  26.726  1.00  0.00     0.163 HD
ATOM     27  O   UNL A   1      32.899  34.024  27.711  1.00  0.00    -0.269 OA
BRANCH  25  28
ATOM     28  C   UNL A   1      34.439  32.260  27.925  1.00  0.00     0.039 A 
ATOM     29  C   UNL A   1      35.554  33.099  27.973  1.00  0.00     0.014 A 
ATOM     30  C   UNL A   1      34.533  30.924  28.320  1.00  0.00     0.014 A 
ATOM     31  C   UNL A   1      36.749  32.618  28.511  1.00  0.00     0.010 A 
ATOM     32  C   UNL A   1      35.704  30.467  28.914  1.00  0.00     0.010 A 
ATOM     33  C   UNL A   1      36.816  31.316  29.036  1.00  0.00    -0.014 A 
BRANCH  33  34
ATOM     34  C   UNL A   1      38.010  30.849  29.787  1.00  0.00     0.031 A 
ATOM     35  C   UNL A   1      38.937  29.829  29.191  1.00  0.00     0.074 A 
ATOM     36  C   UNL A   1      38.190  31.265  31.056  1.00  0.00     0.049 A 
ATOM     37  N   UNL A   1      39.978  29.251  29.729  1.00  0.00    -0.248 NA
ATOM     38  C   UNL A   1      38.643  29.380  27.819  1.00  0.00     0.031 C 
ATOM     39  C   UNL A   1      37.309  32.190  31.776  1.00  0.00     0.029 A 
ATOM     40  N   UNL A   1      39.151  30.940  31.981  1.00  0.00    -0.354 N 
ATOM     41  C   UNL A   1      40.447  28.351  28.780  1.00  0.00     0.074 A 
ATOM     42  C   UNL A   1      39.557  28.438  27.641  1.00  0.00     0.031 C 
ATOM     43  C   UNL A   1      37.770  32.355  33.026  1.00  0.00     0.029 A 
ATOM     44  C   UNL A   1      38.955  31.524  33.211  1.00  0.00     0.049 A 
ATOM     45  H   UNL A   1      39.910  30.344  31.781  1.00  0.00     0.167 HD
ATOM     46  C   UNL A   1      41.534  27.546  28.841  1.00  0.00     0.034 A 
ATOM     47  C   UNL A   1      39.639  31.393  34.365  1.00  0.00     0.034 A 
ATOM     48  C   UNL A   1      42.432  27.486  29.963  1.00  0.00     0.049 A 
ATOM     49  C   UNL A   1      40.849  30.500  34.399  1.00  0.00     0.074 A 
ATOM     50  C   UNL A   1      43.615  26.777  30.078  1.00  0.00     0.029 A 
ATOM     51  N   UNL A   1      42.243  28.146  31.167  1.00  0.00    -0.354 N 
ATOM     52  N   UNL A   1      41.379  29.793  33.431  1.00  0.00    -0.248 NA
ATOM     53  C   UNL A   1      41.572  30.409  35.676  1.00  0.00     0.031 C 
ATOM     54  C   UNL A   1      44.124  26.982  31.365  1.00  0.00     0.029 A 
ATOM     55  C   UNL A   1      43.272  27.841  32.042  1.00  0.00     0.049 A 
ATOM     56  H   UNL A   1      41.486  28.742  31.371  1.00  0.00     0.167 HD
ATOM     57  C   UNL A   1      42.509  29.191  33.972  1.00  0.00     0.074 A 
ATOM     58  C   UNL A   1      42.604  29.643  35.346  1.00  0.00     0.031 C 
ATOM     59  C   UNL A   1      43.379  28.328  33.393  1.00  0.00     0.034 A 
BRANCH  46  60
ATOM     60  C   UNL A   1      41.844  26.695  27.638  1.00  0.00     0.023 A 
ATOM     61  C   UNL A   1      42.527  27.263  26.544  1.00  0.00     0.012 A 
ATOM     62  C   UNL A   1      41.523  25.323  27.615  1.00  0.00     0.148 A 
ATOM     63  C   UNL A   1      42.860  26.490  25.432  1.00  0.00     0.002 A 
ATOM     64  C   UNL A   1      41.896  24.548  26.523  1.00  0.00     0.091 A 
ATOM     65  F   UNL A   1      40.854  24.805  28.656  1.00  0.00    -0.205 F 
ATOM     66  C   UNL A   1      42.555  25.132  25.427  1.00  0.00     0.022 A 
BRANCH  64  67
ATOM     67  S   UNL A   1      41.619  22.775  26.451  1.00  0.00     0.127 S 
ATOM     68  O   UNL A   1      42.219  22.333  27.709  1.00  0.00    -0.237 OA
ATOM     69  O   UNL A   1      40.158  22.694  26.411  1.00  0.00    -0.237 OA
ATOM     70  O   UNL A   1      42.288  22.311  25.244  1.00  0.00    -0.744 OA
ENDBRANCH  64  67
ENDBRANCH  46  60
BRANCH  47  71
ATOM     71  C   UNL A   1      39.219  32.160  35.573  1.00  0.00     0.023 A 
ATOM     72  C   UNL A   1      38.368  31.551  36.516  1.00  0.00     0.012 A 
ATOM     73  C   UNL A   1      39.676  33.471  35.805  1.00  0.00     0.148 A 
ATOM     74  C   UNL A   1      37.953  32.247  37.651  1.00  0.00     0.002 A 
ATOM     75  C   UNL A   1      39.305  34.137  36.967  1.00  0.00     0.091 A 
ATOM     76  F   UNL A   1      40.475  34.037  34.889  1.00  0.00    -0.205 F 
ATOM     77  C   UNL A   1      38.430  33.534  37.883  1.00  0.00     0.022 A 
BRANCH  75  78
ATOM     78  S   UNL A   1      39.979  35.741  37.413  1.00  0.00     0.127 S 
ATOM     79  O   UNL A   1      41.408  35.452  37.501  1.00  0.00    -0.237 OA
ATOM     80  O   UNL A   1      39.585  36.564  36.270  1.00  0.00    -0.237 OA
ATOM     81  O   UNL A   1      39.326  36.105  38.664  1.00  0.00    -0.744 OA
ENDBRANCH  75  78
ENDBRANCH  47  71
BRANCH  59  82
ATOM     82  C   UNL A   1      44.520  27.818  34.232  1.00  0.00     0.023 A 
ATOM     83  C   UNL A   1      45.705  28.575  34.331  1.00  0.00     0.012 A 
ATOM     84  C   UNL A   1      44.394  26.632  34.983  1.00  0.00     0.148 A 
ATOM     85  C   UNL A   1      46.756  28.146  35.139  1.00  0.00     0.002 A 
ATOM     86  C   UNL A   1      45.426  26.236  35.824  1.00  0.00     0.091 A 
ATOM     87  F   UNL A   1      43.265  25.918  34.862  1.00  0.00    -0.205 F 
ATOM     88  C   UNL A   1      46.612  26.984  35.894  1.00  0.00     0.022 A 
BRANCH  86  89
ATOM     89  S   UNL A   1      45.298  24.806  36.905  1.00  0.00     0.127 S 
ATOM     90  O   UNL A   1      44.364  25.286  37.923  1.00  0.00    -0.237 OA
ATOM     91  O   UNL A   1      44.751  23.788  36.007  1.00  0.00    -0.237 OA
ATOM     92  O   UNL A   1      46.649  24.535  37.378  1.00  0.00    -0.744 OA
ENDBRANCH  86  89
ENDBRANCH  59  82
ENDBRANCH  33  34
ENDBRANCH  25  28
ENDBRANCH  23  24
ENDBRANCH  22  23
ENDBRANCH   1  22
TORSDOF 17
ENDMDL
MODEL 2
REMARK VINA RESULT:     -11.1      5.507     10.692
REMARK SMILES Cc1cc(S[C@@H](C)c2ccc(C(=O)NCCCCNC(=O)c3ccc(-c4c5nc(c(-c6cccc(S(=O)(=O)[O-])c6F)c6ccc([nH]6)c(-c6cccc(S(=O)(=O)[O-])c6F)c6nc(c(-c7cccc(S(=O)(=O)[O-])c7F)c7ccc4[nH]7)C=C6)C=C5)cc3)o2)n(C)n1
REMARK SMILES IDX 16 1 15 2 14 3 12 4 13 5 11 7 8 8 9 9 85 10 10 11 6 12 7 13
REMARK SMILES IDX 5 14 4 15 1 16 2 17 3 18 88 19 86 20 87 21 17 22 18 23 19 24
REMARK SMILES IDX 20 25 21 27 22 28 23 29 84 30 24 31 83 32 25 33 26 34 27 35
REMARK SMILES IDX 77 36 28 37 82 38 76 39 78 40 29 41 81 42 75 43 74 44 30 46
REMARK SMILES IDX 62 47 42 48 61 49 43 50 46 51 60 52 79 53 44 54 45 55 59 57
REMARK SMILES IDX 80 58 47 59 31 60 32 61 40 62 33 63 35 64 41 65 34 66 36 67
REMARK SMILES IDX 37 68 38 69 39 70 63 71 64 72 72 73 65 74 67 75 73 76 66 77
REMARK SMILES IDX 68 78 69 79 70 80 71 81 48 82 49 83 57 84 50 85 52 86 58 87
REMARK SMILES IDX 51 88 53 89 54 90 55 91 56 92
REMARK H PARENT 14 6 19 26 78 45 46 56
REMARK Flexibility Score: inf
ROOT
ATOM      1  C   UNL A   1      36.547  21.746  25.529  1.00  0.00     0.023 C 
ENDROOT
BRANCH   1   2
ATOM      2  C   UNL A   1      35.374  21.707  24.550  1.00  0.00     0.116 C 
BRANCH   2   3
ATOM      3  N   UNL A   1      34.388  20.732  24.956  1.00  0.00    -0.349 N 
ATOM      4  C   UNL A   1      33.016  20.743  24.884  1.00  0.00     0.286 C 
ATOM      5  O   UNL A   1      32.457  19.716  25.275  1.00  0.00    -0.266 OA
ATOM      6  H   UNL A   1      34.766  19.916  25.355  1.00  0.00     0.163 HD
BRANCH   4   7
ATOM      7  C   UNL A   1      32.278  21.888  24.375  1.00  0.00     0.191 A 
ATOM      8  C   UNL A   1      31.476  23.949  24.623  1.00  0.00     0.118 A 
ATOM      9  C   UNL A   1      31.134  23.546  23.350  1.00  0.00     0.047 A 
ATOM     10  O   UNL A   1      32.134  22.938  25.248  1.00  0.00    -0.455 OA
ATOM     11  C   UNL A   1      31.681  22.249  23.180  1.00  0.00     0.056 A 
BRANCH   8  12
ATOM     12  C   UNL A   1      31.289  25.245  25.352  1.00  0.00     0.116 C 
ATOM     13  C   UNL A   1      30.505  26.257  24.517  1.00  0.00     0.028 C 
BRANCH  12  14
ATOM     14  S   UNL A   1      32.775  25.966  26.117  1.00  0.00    -0.096 SA
BRANCH  14  15
ATOM     15  C   UNL A   1      32.628  27.698  26.041  1.00  0.00     0.095 A 
ATOM     16  C   UNL A   1      31.699  31.199  26.643  1.00  0.00     0.069 C 
ATOM     17  C   UNL A   1      32.210  29.875  26.218  1.00  0.00     0.061 A 
ATOM     18  C   UNL A   1      32.016  28.628  26.851  1.00  0.00     0.060 A 
ATOM     19  N   UNL A   1      32.945  29.752  25.108  1.00  0.00    -0.178 NA
ATOM     20  N   UNL A   1      33.128  28.419  24.982  1.00  0.00    -0.262 N 
ATOM     21  C   UNL A   1      33.778  27.960  23.777  1.00  0.00     0.175 C 
ENDBRANCH  14  15
ENDBRANCH  12  14
ENDBRANCH   8  12
ENDBRANCH   4   7
ENDBRANCH   2   3
ENDBRANCH   1   2
BRANCH   1  22
ATOM     22  C   UNL A   1      37.722  20.849  25.122  1.00  0.00     0.023 C 
BRANCH  22  23
ATOM     23  C   UNL A   1      38.997  21.031  25.943  1.00  0.00     0.116 C 
BRANCH  23  24
ATOM     24  N   UNL A   1      39.856  19.853  25.949  1.00  0.00    -0.352 N 
ATOM     25  C   UNL A   1      41.213  19.785  26.159  1.00  0.00     0.251 C 
ATOM     26  H   UNL A   1      39.405  18.993  25.780  1.00  0.00     0.163 HD
ATOM     27  O   UNL A   1      41.811  18.722  26.031  1.00  0.00    -0.269 OA
BRANCH  25  28
ATOM     28  C   UNL A   1      41.943  21.023  26.499  1.00  0.00     0.039 A 
ATOM     29  C   UNL A   1      42.278  21.911  25.475  1.00  0.00     0.014 A 
ATOM     30  C   UNL A   1      42.213  21.337  27.833  1.00  0.00     0.014 A 
ATOM     31  C   UNL A   1      42.800  23.164  25.799  1.00  0.00     0.010 A 
ATOM     32  C   UNL A   1      42.671  22.610  28.156  1.00  0.00     0.010 A 
ATOM     33  C   UNL A   1      42.949  23.543  27.145  1.00  0.00    -0.014 A 
BRANCH  33  34
ATOM     34  C   UNL A   1      43.315  24.933  27.517  1.00  0.00     0.031 A 
ATOM     35  C   UNL A   1      42.277  25.881  28.046  1.00  0.00     0.074 A 
ATOM     36  C   UNL A   1      44.566  25.371  27.269  1.00  0.00     0.049 A 
ATOM     37  N   UNL A   1      42.397  27.146  28.347  1.00  0.00    -0.248 NA
ATOM     38  C   UNL A   1      40.919  25.344  28.237  1.00  0.00     0.031 C 
ATOM     39  C   UNL A   1      45.641  24.569  26.678  1.00  0.00     0.029 A 
ATOM     40  N   UNL A   1      45.137  26.607  27.448  1.00  0.00    -0.354 N 
ATOM     41  C   UNL A   1      41.131  27.568  28.734  1.00  0.00     0.074 A 
ATOM     42  C   UNL A   1      40.249  26.428  28.601  1.00  0.00     0.031 C 
ATOM     43  C   UNL A   1      46.737  25.332  26.544  1.00  0.00     0.029 A 
ATOM     44  C   UNL A   1      46.436  26.684  27.002  1.00  0.00     0.049 A 
ATOM     45  H   UNL A   1      44.661  27.366  27.857  1.00  0.00     0.167 HD
ATOM     46  C   UNL A   1      40.745  28.785  29.185  1.00  0.00     0.034 A 
ATOM     47  C   UNL A   1      47.286  27.729  26.950  1.00  0.00     0.034 A 
ATOM     48  C   UNL A   1      41.632  29.906  29.345  1.00  0.00     0.049 A 
ATOM     49  C   UNL A   1      46.832  29.066  27.468  1.00  0.00     0.074 A 
ATOM     50  C   UNL A   1      41.356  31.148  29.887  1.00  0.00     0.029 A 
ATOM     51  N   UNL A   1      42.960  29.929  28.950  1.00  0.00    -0.354 N 
ATOM     52  N   UNL A   1      45.680  29.396  27.998  1.00  0.00    -0.248 NA
ATOM     53  C   UNL A   1      47.805  30.167  27.408  1.00  0.00     0.031 C 
ATOM     54  C   UNL A   1      42.510  31.934  29.790  1.00  0.00     0.029 A 
ATOM     55  C   UNL A   1      43.512  31.171  29.213  1.00  0.00     0.049 A 
ATOM     56  H   UNL A   1      43.441  29.172  28.541  1.00  0.00     0.167 HD
ATOM     57  C   UNL A   1      45.795  30.735  28.356  1.00  0.00     0.074 A 
ATOM     58  C   UNL A   1      47.141  31.145  28.010  1.00  0.00     0.031 C 
ATOM     59  C   UNL A   1      44.865  31.556  28.902  1.00  0.00     0.034 A 
BRANCH  46  60
ATOM     60  C   UNL A   1      39.304  28.958  29.587  1.00  0.00     0.023 A 
ATOM     61  C   UNL A   1      38.910  28.652  30.905  1.00  0.00     0.012 A 
ATOM     62  C   UNL A   1      38.356  29.486  28.687  1.00  0.00     0.148 A 
ATOM     63  C   UNL A   1      37.590  28.838  31.315  1.00  0.00     0.002 A 
ATOM     64  C   UNL A   1      37.053  29.709  29.115  1.00  0.00     0.091 A 
ATOM     65  F   UNL A   1      38.745  29.751  27.431  1.00  0.00    -0.205 F 
ATOM     66  C   UNL A   1      36.666  29.376  30.424  1.00  0.00     0.022 A 
BRANCH  64  67
ATOM     67  S   UNL A   1      35.806  30.470  28.070  1.00  0.00     0.127 S 
ATOM     68  O   UNL A   1      36.432  31.752  27.751  1.00  0.00    -0.237 OA
ATOM     69  O   UNL A   1      35.730  29.532  26.949  1.00  0.00    -0.237 OA
ATOM     70  O   UNL A   1      34.597  30.550  28.878  1.00  0.00    -0.744 OA
ENDBRANCH  64  67
ENDBRANCH  46  60
BRANCH  47  71
ATOM     71  C   UNL A   1      48.668  27.541  26.424  1.00  0.00     0.023 A 
ATOM     72  C   UNL A   1      49.703  27.186  27.311  1.00  0.00     0.012 A 
ATOM     73  C   UNL A   1      48.959  27.686  25.054  1.00  0.00     0.148 A 
ATOM     74  C   UNL A   1      51.007  27.012  26.849  1.00  0.00     0.002 A 
ATOM     75  C   UNL A   1      50.248  27.454  24.591  1.00  0.00     0.091 A 
ATOM     76  F   UNL A   1      47.963  28.037  24.227  1.00  0.00    -0.205 F 
ATOM     77  C   UNL A   1      51.278  27.134  25.489  1.00  0.00     0.022 A 
BRANCH  75  78
ATOM     78  S   UNL A   1      50.659  27.455  22.842  1.00  0.00     0.127 S 
ATOM     79  O   UNL A   1      49.564  26.669  22.278  1.00  0.00    -0.237 OA
ATOM     80  O   UNL A   1      50.623  28.882  22.524  1.00  0.00    -0.237 OA
ATOM     81  O   UNL A   1      51.983  26.855  22.751  1.00  0.00    -0.744 OA
ENDBRANCH  75  78
ENDBRANCH  47  71
BRANCH  59  82
ATOM     82  C   UNL A   1      45.266  32.982  29.176  1.00  0.00     0.023 A 
ATOM     83  C   UNL A   1      45.916  33.303  30.384  1.00  0.00     0.012 A 
ATOM     84  C   UNL A   1      45.072  33.987  28.207  1.00  0.00     0.148 A 
ATOM     85  C   UNL A   1      46.338  34.607  30.638  1.00  0.00     0.002 A 
ATOM     86  C   UNL A   1      45.540  35.273  28.447  1.00  0.00     0.091 A 
ATOM     87  F   UNL A   1      44.438  33.664  27.071  1.00  0.00    -0.205 F 
ATOM     88  C   UNL A   1      46.161  35.588  29.666  1.00  0.00     0.022 A 
BRANCH  86  89
ATOM     89  S   UNL A   1      45.442  36.582  27.219  1.00  0.00     0.127 S 
ATOM     90  O   UNL A   1      46.065  37.700  27.926  1.00  0.00    -0.237 OA
ATOM     91  O   UNL A   1      46.239  36.034  26.120  1.00  0.00    -0.237 OA
ATOM     92  O   UNL A   1      44.027  36.748  26.917  1.00  0.00    -0.744 OA
ENDBRANCH  86  89
ENDBRANCH  59  82
ENDBRANCH  33  34
ENDBRANCH  25  28
ENDBRANCH  23  24
ENDBRANCH  22  23
ENDBRANCH   1  22
TORSDOF 17
ENDMDL
MODEL 3
REMARK VINA RESULT:     -11.1      2.491      3.477
REMARK SMILES Cc1cc(S[C@@H](C)c2ccc(C(=O)NCCCCNC(=O)c3ccc(-c4c5nc(c(-c6cccc(S(=O)(=O)[O-])c6F)c6ccc([nH]6)c(-c6cccc(S(=O)(=O)[O-])c6F)c6nc(c(-c7cccc(S(=O)(=O)[O-])c7F)c7ccc4[nH]7)C=C6)C=C5)cc3)o2)n(C)n1
REMARK SMILES IDX 16 1 15 2 14 3 12 4 13 5 11 7 8 8 9 9 85 10 10 11 6 12 7 13
REMARK SMILES IDX 5 14 4 15 1 16 2 17 3 18 88 19 86 20 87 21 17 22 18 23 19 24
REMARK SMILES IDX 20 25 21 27 22 28 23 29 84 30 24 31 83 32 25 33 26 34 27 35
REMARK SMILES IDX 77 36 28 37 82 38 76 39 78 40 29 41 81 42 75 43 74 44 30 46
REMARK SMILES IDX 62 47 42 48 61 49 43 50 46 51 60 52 79 53 44 54 45 55 59 57
REMARK SMILES IDX 80 58 47 59 31 60 32 61 40 62 33 63 35 64 41 65 34 66 36 67
REMARK SMILES IDX 37 68 38 69 39 70 63 71 64 72 72 73 65 74 67 75 73 76 66 77
REMARK SMILES IDX 68 78 69 79 70 80 71 81 48 82 49 83 57 84 50 85 52 86 58 87
REMARK SMILES IDX 51 88 53 89 54 90 55 91 56 92
REMARK H PARENT 14 6 19 26 78 45 46 56
REMARK Flexibility Score: inf
ROOT
ATOM      1  C   UNL A   1      32.997  30.020  27.071  1.00  0.00     0.023 C 
ENDROOT
BRANCH   1   2
ATOM      2  C   UNL A   1      31.924  29.642  26.051  1.00  0.00     0.116 C 
BRANCH   2   3
ATOM      3  N   UNL A   1      32.472  29.583  24.715  1.00  0.00    -0.349 N 
ATOM      4  C   UNL A   1      32.218  28.734  23.665  1.00  0.00     0.286 C 
ATOM      5  O   UNL A   1      32.824  28.987  22.622  1.00  0.00    -0.266 OA
ATOM      6  H   UNL A   1      33.145  30.275  24.523  1.00  0.00     0.163 HD
BRANCH   4   7
ATOM      7  C   UNL A   1      31.293  27.618  23.781  1.00  0.00     0.191 A 
ATOM      8  C   UNL A   1      30.804  25.564  24.484  1.00  0.00     0.118 A 
ATOM      9  C   UNL A   1      29.670  26.048  23.868  1.00  0.00     0.047 A 
ATOM     10  O   UNL A   1      31.787  26.497  24.401  1.00  0.00    -0.455 OA
ATOM     11  C   UNL A   1      29.970  27.372  23.457  1.00  0.00     0.056 A 
BRANCH   8  12
ATOM     12  C   UNL A   1      31.084  24.286  25.213  1.00  0.00     0.116 C 
ATOM     13  C   UNL A   1      32.072  24.493  26.361  1.00  0.00     0.028 C 
BRANCH  12  14
ATOM     14  S   UNL A   1      31.494  22.840  24.185  1.00  0.00    -0.096 SA
BRANCH  14  15
ATOM     15  C   UNL A   1      33.199  22.896  23.840  1.00  0.00     0.095 A 
ATOM     16  C   UNL A   1      36.852  22.564  23.997  1.00  0.00     0.069 C 
ATOM     17  C   UNL A   1      35.417  22.808  23.719  1.00  0.00     0.061 A 
ATOM     18  C   UNL A   1      34.303  22.356  24.459  1.00  0.00     0.060 A 
ATOM     19  N   UNL A   1      35.042  23.543  22.667  1.00  0.00    -0.178 NA
ATOM     20  N   UNL A   1      33.700  23.641  22.799  1.00  0.00    -0.262 N 
ATOM     21  C   UNL A   1      33.015  24.510  21.871  1.00  0.00     0.175 C 
ENDBRANCH  14  15
ENDBRANCH  12  14
ENDBRANCH   8  12
ENDBRANCH   4   7
ENDBRANCH   2   3
ENDBRANCH   1   2
BRANCH   1  22
ATOM     22  C   UNL A   1      32.723  31.342  27.797  1.00  0.00     0.023 C 
BRANCH  22  23
ATOM     23  C   UNL A   1      33.534  32.538  27.303  1.00  0.00     0.116 C 
BRANCH  23  24
ATOM     24  N   UNL A   1      32.925  33.824  27.625  1.00  0.00    -0.352 N 
ATOM     25  C   UNL A   1      33.265  34.703  28.626  1.00  0.00     0.251 C 
ATOM     26  H   UNL A   1      32.173  34.097  27.052  1.00  0.00     0.163 HD
ATOM     27  O   UNL A   1      32.586  35.704  28.832  1.00  0.00    -0.269 OA
BRANCH  25  28
ATOM     28  C   UNL A   1      34.435  34.400  29.474  1.00  0.00     0.039 A 
ATOM     29  C   UNL A   1      34.230  33.782  30.709  1.00  0.00     0.014 A 
ATOM     30  C   UNL A   1      35.727  34.649  29.006  1.00  0.00     0.014 A 
ATOM     31  C   UNL A   1      35.330  33.323  31.435  1.00  0.00     0.010 A 
ATOM     32  C   UNL A   1      36.817  34.134  29.699  1.00  0.00     0.010 A 
ATOM     33  C   UNL A   1      36.628  33.448  30.910  1.00  0.00    -0.014 A 
BRANCH  33  34
ATOM     34  C   UNL A   1      37.791  32.797  31.567  1.00  0.00     0.031 A 
ATOM     35  C   UNL A   1      38.468  31.619  30.928  1.00  0.00     0.074 A 
ATOM     36  C   UNL A   1      38.160  33.204  32.798  1.00  0.00     0.049 A 
ATOM     37  N   UNL A   1      39.442  30.881  31.391  1.00  0.00    -0.248 NA
ATOM     38  C   UNL A   1      37.972  31.198  29.607  1.00  0.00     0.031 C 
ATOM     39  C   UNL A   1      37.523  34.283  33.558  1.00  0.00     0.029 A 
ATOM     40  N   UNL A   1      39.136  32.736  33.643  1.00  0.00    -0.354 N 
ATOM     41  C   UNL A   1      39.657  29.892  30.439  1.00  0.00     0.074 A 
ATOM     42  C   UNL A   1      38.691  30.107  29.383  1.00  0.00     0.031 C 
ATOM     43  C   UNL A   1      38.124  34.393  34.754  1.00  0.00     0.029 A 
ATOM     44  C   UNL A   1      39.161  33.372  34.863  1.00  0.00     0.049 A 
ATOM     45  H   UNL A   1      39.759  32.014  33.399  1.00  0.00     0.167 HD
ATOM     46  C   UNL A   1      40.591  28.912  30.432  1.00  0.00     0.034 A 
ATOM     47  C   UNL A   1      39.920  33.150  35.954  1.00  0.00     0.034 A 
ATOM     48  C   UNL A   1      41.570  28.722  31.469  1.00  0.00     0.049 A 
ATOM     49  C   UNL A   1      40.957  32.061  35.912  1.00  0.00     0.074 A 
ATOM     50  C   UNL A   1      42.619  27.821  31.504  1.00  0.00     0.029 A 
ATOM     51  N   UNL A   1      41.612  29.430  32.660  1.00  0.00    -0.354 N 
ATOM     52  N   UNL A   1      41.263  31.252  34.928  1.00  0.00    -0.248 NA
ATOM     53  C   UNL A   1      41.772  31.873  37.121  1.00  0.00     0.031 C 
ATOM     54  C   UNL A   1      43.276  27.962  32.731  1.00  0.00     0.029 A 
ATOM     55  C   UNL A   1      42.653  28.971  33.448  1.00  0.00     0.049 A 
ATOM     56  H   UNL A   1      40.991  30.154  32.908  1.00  0.00     0.167 HD
ATOM     57  C   UNL A   1      42.321  30.475  35.387  1.00  0.00     0.074 A 
ATOM     58  C   UNL A   1      42.622  30.933  36.729  1.00  0.00     0.031 C 
ATOM     59  C   UNL A   1      42.970  29.461  34.765  1.00  0.00     0.034 A 
BRANCH  46  60
ATOM     60  C   UNL A   1      40.634  27.994  29.239  1.00  0.00     0.023 A 
ATOM     61  C   UNL A   1      39.733  26.913  29.162  1.00  0.00     0.012 A 
ATOM     62  C   UNL A   1      41.513  28.238  28.165  1.00  0.00     0.148 A 
ATOM     63  C   UNL A   1      39.726  26.070  28.052  1.00  0.00     0.002 A 
ATOM     64  C   UNL A   1      41.471  27.420  27.042  1.00  0.00     0.091 A 
ATOM     65  F   UNL A   1      42.377  29.259  28.266  1.00  0.00    -0.205 F 
ATOM     66  C   UNL A   1      40.586  26.330  26.989  1.00  0.00     0.022 A 
BRANCH  64  67
ATOM     67  S   UNL A   1      42.482  27.715  25.588  1.00  0.00     0.127 S 
ATOM     68  O   UNL A   1      43.828  27.709  26.160  1.00  0.00    -0.237 OA
ATOM     69  O   UNL A   1      42.169  26.553  24.755  1.00  0.00    -0.237 OA
ATOM     70  O   UNL A   1      42.042  28.991  25.042  1.00  0.00    -0.744 OA
ENDBRANCH  64  67
ENDBRANCH  46  60
BRANCH  47  71
ATOM     71  C   UNL A   1      39.755  34.004  37.165  1.00  0.00     0.023 A 
ATOM     72  C   UNL A   1      40.243  35.326  37.149  1.00  0.00     0.012 A 
ATOM     73  C   UNL A   1      39.100  33.527  38.316  1.00  0.00     0.148 A 
ATOM     74  C   UNL A   1      40.111  36.145  38.270  1.00  0.00     0.002 A 
ATOM     75  C   UNL A   1      38.920  34.368  39.408  1.00  0.00     0.091 A 
ATOM     76  F   UNL A   1      38.654  32.263  38.316  1.00  0.00    -0.205 F 
ATOM     77  C   UNL A   1      39.440  35.671  39.394  1.00  0.00     0.022 A 
BRANCH  75  78
ATOM     78  S   UNL A   1      37.950  33.889  40.842  1.00  0.00     0.127 S 
ATOM     79  O   UNL A   1      37.748  35.173  41.509  1.00  0.00    -0.237 OA
ATOM     80  O   UNL A   1      36.753  33.321  40.222  1.00  0.00    -0.237 OA
ATOM     81  O   UNL A   1      38.768  32.921  41.561  1.00  0.00    -0.744 OA
ENDBRANCH  75  78
ENDBRANCH  47  71
BRANCH  59  82
ATOM     82  C   UNL A   1      44.083  28.779  35.516  1.00  0.00     0.023 A 
ATOM     83  C   UNL A   1      45.402  29.262  35.397  1.00  0.00     0.012 A 
ATOM     84  C   UNL A   1      43.814  27.713  36.397  1.00  0.00     0.148 A 
ATOM     85  C   UNL A   1      46.440  28.675  36.119  1.00  0.00     0.002 A 
ATOM     86  C   UNL A   1      44.845  27.165  37.151  1.00  0.00     0.091 A 
ATOM     87  F   UNL A   1      42.556  27.258  36.484  1.00  0.00    -0.205 F 
ATOM     88  C   UNL A   1      46.160  27.637  37.004  1.00  0.00     0.022 A 
BRANCH  86  89
ATOM     89  S   UNL A   1      44.569  25.888  38.384  1.00  0.00     0.127 S 
ATOM     90  O   UNL A   1      45.922  25.667  38.891  1.00  0.00    -0.237 OA
ATOM     91  O   UNL A   1      43.668  26.557  39.324  1.00  0.00    -0.237 OA
ATOM     92  O   UNL A   1      43.978  24.762  37.674  1.00  0.00    -0.744 OA
ENDBRANCH  86  89
ENDBRANCH  59  82
ENDBRANCH  33  34
ENDBRANCH  25  28
ENDBRANCH  23  24
ENDBRANCH  22  23
ENDBRANCH   1  22
TORSDOF 17
ENDMDL
