MODEL 1
REMARK VINA RESULT:     -11.9      0.000      0.000
REMARK SMILES C[C@H](Cc1cccs1)N(C)C(=O)N1CCC[C@]1(C)C(=O)NCCCCNC(=O)c1ccc(-c2c3nc(c(-c4cccc(S(=O)(=O)[O-])c4F)c4ccc([nH]4)c(-c4cccc(S(=O)(=O)[O-])c4F)c4nc(c(-c5cccc(S(=O)(=O)[O-])c5F)c5ccc2[nH]5)C=C4)C=C3)cc1
REMARK SMILES IDX 22 1 21 2 19 3 20 4 17 6 13 7 14 8 15 9 16 10 18 11 11 12
REMARK SMILES IDX 12 13 9 14 10 15 2 16 1 17 3 18 4 19 5 20 8 21 6 22 7 23
REMARK SMILES IDX 23 24 24 25 25 26 26 27 27 28 28 30 29 31 30 32 91 33 31 34
REMARK SMILES IDX 90 35 32 36 33 37 34 38 84 39 35 40 89 41 83 42 85 43 36 44
REMARK SMILES IDX 88 45 82 46 81 47 37 49 69 50 49 51 68 52 50 53 53 54 67 55
REMARK SMILES IDX 86 56 51 57 52 58 66 60 87 61 54 62 38 63 39 64 47 65 40 66
REMARK SMILES IDX 42 67 48 68 41 69 43 70 44 71 45 72 46 73 70 74 71 75 79 76
REMARK SMILES IDX 72 77 74 78 80 79 73 80 75 81 76 82 77 83 78 84 55 85 56 86
REMARK SMILES IDX 64 87 57 88 59 89 65 90 58 91 60 92 61 93 62 94 63 95
REMARK H PARENT 21 5 26 29 85 48 53 59
REMARK Flexibility Score: inf
ROOT
ATOM      1  C   UNL A   1      34.772  23.919  24.041  1.00  0.00     0.116 C 
ENDROOT
BRANCH   1   2
ATOM      2  N   UNL A   1      34.161  24.939  23.218  1.00  0.00    -0.354 N 
ATOM      3  C   UNL A   1      33.044  25.702  23.390  1.00  0.00     0.245 C 
ATOM      4  O   UNL A   1      32.598  26.208  22.352  1.00  0.00    -0.272 OA
ATOM      5  H   UNL A   1      34.642  25.116  22.377  1.00  0.00     0.163 HD
BRANCH   3   6
ATOM      6  C   UNL A   1      32.360  25.945  24.791  1.00  0.00     0.120 C 
ATOM      7  N   UNL A   1      31.182  25.095  25.168  1.00  0.00    -0.310 N 
ATOM      8  C   UNL A   1      29.961  25.886  25.159  1.00  0.00     0.122 C 
ATOM      9  C   UNL A   1      30.260  27.069  24.266  1.00  0.00     0.025 C 
ATOM     10  C   UNL A   1      31.696  27.371  24.657  1.00  0.00     0.040 C 
ATOM     11  C   UNL A   1      33.368  26.089  25.941  1.00  0.00     0.046 C 
BRANCH   7  12
ATOM     12  C   UNL A   1      31.008  23.780  24.758  1.00  0.00     0.320 C 
ATOM     13  O   UNL A   1      30.673  23.543  23.603  1.00  0.00    -0.248 OA
BRANCH  12  14
ATOM     14  N   UNL A   1      31.078  22.816  25.763  1.00  0.00    -0.325 N 
ATOM     15  C   UNL A   1      30.048  22.726  26.787  1.00  0.00     0.149 C 
BRANCH  14  16
ATOM     16  C   UNL A   1      32.124  21.749  25.778  1.00  0.00     0.088 C 
ATOM     17  C   UNL A   1      33.324  21.926  26.718  1.00  0.00     0.031 C 
BRANCH  16  18
ATOM     18  C   UNL A   1      32.531  21.248  24.374  1.00  0.00     0.071 C 
BRANCH  18  19
ATOM     19  C   UNL A   1      33.085  19.858  24.251  1.00  0.00     0.007 A 
ATOM     20  C   UNL A   1      34.312  19.403  24.694  1.00  0.00     0.015 A 
ATOM     21  S   UNL A   1      32.270  18.644  23.355  1.00  0.00    -0.149 S 
ATOM     22  C   UNL A   1      34.547  18.039  24.354  1.00  0.00     0.012 A 
ATOM     23  C   UNL A   1      33.492  17.495  23.660  1.00  0.00     0.065 A 
ENDBRANCH  18  19
ENDBRANCH  16  18
ENDBRANCH  14  16
ENDBRANCH  12  14
ENDBRANCH   7  12
ENDBRANCH   3   6
ENDBRANCH   1   2
BRANCH   1  24
ATOM     24  C   UNL A   1      35.501  22.920  23.163  1.00  0.00     0.023 C 
BRANCH  24  25
ATOM     25  C   UNL A   1      36.905  22.561  23.614  1.00  0.00     0.023 C 
BRANCH  25  26
ATOM     26  C   UNL A   1      36.980  22.042  25.038  1.00  0.00     0.116 C 
BRANCH  26  27
ATOM     27  N   UNL A   1      38.018  21.034  25.264  1.00  0.00    -0.352 N 
ATOM     28  C   UNL A   1      39.194  21.146  25.975  1.00  0.00     0.251 C 
ATOM     29  H   UNL A   1      37.854  20.157  24.852  1.00  0.00     0.163 HD
ATOM     30  O   UNL A   1      39.991  20.212  26.013  1.00  0.00    -0.269 OA
BRANCH  28  31
ATOM     31  C   UNL A   1      39.501  22.428  26.644  1.00  0.00     0.039 A 
ATOM     32  C   UNL A   1      40.533  22.485  27.583  1.00  0.00     0.014 A 
ATOM     33  C   UNL A   1      38.861  23.594  26.227  1.00  0.00     0.014 A 
ATOM     34  C   UNL A   1      41.011  23.729  28.001  1.00  0.00     0.010 A 
ATOM     35  C   UNL A   1      39.427  24.821  26.536  1.00  0.00     0.010 A 
ATOM     36  C   UNL A   1      40.512  24.908  27.421  1.00  0.00    -0.014 A 
BRANCH  36  37
ATOM     37  C   UNL A   1      41.106  26.246  27.688  1.00  0.00     0.031 A 
ATOM     38  C   UNL A   1      42.514  26.538  27.239  1.00  0.00     0.074 A 
ATOM     39  C   UNL A   1      40.445  27.138  28.457  1.00  0.00     0.049 A 
ATOM     40  N   UNL A   1      43.281  27.555  27.531  1.00  0.00    -0.248 NA
ATOM     41  C   UNL A   1      43.170  25.520  26.398  1.00  0.00     0.031 C 
ATOM     42  C   UNL A   1      39.119  26.941  29.049  1.00  0.00     0.029 A 
ATOM     43  N   UNL A   1      40.817  28.385  28.900  1.00  0.00    -0.354 N 
ATOM     44  C   UNL A   1      44.521  27.266  26.971  1.00  0.00     0.074 A 
ATOM     45  C   UNL A   1      44.418  25.959  26.364  1.00  0.00     0.031 C 
ATOM     46  C   UNL A   1      38.780  28.033  29.754  1.00  0.00     0.029 A 
ATOM     47  C   UNL A   1      39.876  28.994  29.699  1.00  0.00     0.049 A 
ATOM     48  H   UNL A   1      41.677  28.803  28.667  1.00  0.00     0.167 HD
ATOM     49  C   UNL A   1      45.633  28.037  26.922  1.00  0.00     0.034 A 
ATOM     50  C   UNL A   1      39.895  30.192  30.317  1.00  0.00     0.034 A 
ATOM     51  C   UNL A   1      45.697  29.379  27.429  1.00  0.00     0.049 A 
ATOM     52  C   UNL A   1      41.103  31.075  30.151  1.00  0.00     0.074 A 
ATOM     53  C   UNL A   1      46.736  30.286  27.335  1.00  0.00     0.029 A 
ATOM     54  N   UNL A   1      44.669  30.015  28.107  1.00  0.00    -0.354 N 
ATOM     55  N   UNL A   1      42.211  30.842  29.492  1.00  0.00    -0.248 NA
ATOM     56  C   UNL A   1      41.048  32.401  30.785  1.00  0.00     0.031 C 
ATOM     57  C   UNL A   1      46.331  31.477  27.948  1.00  0.00     0.029 A 
ATOM     58  C   UNL A   1      45.039  31.309  28.422  1.00  0.00     0.049 A 
ATOM     59  H   UNL A   1      43.801  29.604  28.330  1.00  0.00     0.167 HD
ATOM     60  C   UNL A   1      42.970  32.001  29.599  1.00  0.00     0.074 A 
ATOM     61  C   UNL A   1      42.186  32.944  30.370  1.00  0.00     0.031 C 
ATOM     62  C   UNL A   1      44.214  32.256  29.123  1.00  0.00     0.034 A 
BRANCH  49  63
ATOM     63  C   UNL A   1      46.835  27.478  26.207  1.00  0.00     0.023 A 
ATOM     64  C   UNL A   1      46.947  27.650  24.811  1.00  0.00     0.012 A 
ATOM     65  C   UNL A   1      47.864  26.819  26.906  1.00  0.00     0.148 A 
ATOM     66  C   UNL A   1      48.040  27.137  24.116  1.00  0.00     0.002 A 
ATOM     67  C   UNL A   1      48.974  26.350  26.212  1.00  0.00     0.091 A 
ATOM     68  F   UNL A   1      47.731  26.644  28.229  1.00  0.00    -0.205 F 
ATOM     69  C   UNL A   1      49.057  26.496  24.817  1.00  0.00     0.022 A 
BRANCH  67  70
ATOM     70  S   UNL A   1      50.373  25.579  27.033  1.00  0.00     0.127 S 
ATOM     71  O   UNL A   1      49.757  24.381  27.603  1.00  0.00    -0.237 OA
ATOM     72  O   UNL A   1      51.284  25.321  25.916  1.00  0.00    -0.237 OA
ATOM     73  O   UNL A   1      50.859  26.556  27.997  1.00  0.00    -0.744 OA
ENDBRANCH  67  70
ENDBRANCH  49  63
BRANCH  50  74
ATOM     74  C   UNL A   1      38.696  30.671  31.062  1.00  0.00     0.023 A 
ATOM     75  C   UNL A   1      38.645  30.487  32.458  1.00  0.00     0.012 A 
ATOM     76  C   UNL A   1      37.625  31.319  30.417  1.00  0.00     0.148 A 
ATOM     77  C   UNL A   1      37.537  30.907  33.194  1.00  0.00     0.002 A 
ATOM     78  C   UNL A   1      36.544  31.778  31.165  1.00  0.00     0.091 A 
ATOM     79  F   UNL A   1      37.682  31.473  29.087  1.00  0.00    -0.205 F 
ATOM     80  C   UNL A   1      36.491  31.560  32.550  1.00  0.00     0.022 A 
BRANCH  78  81
ATOM     81  S   UNL A   1      35.214  32.737  30.429  1.00  0.00     0.127 S 
ATOM     82  O   UNL A   1      35.925  33.923  29.961  1.00  0.00    -0.237 OA
ATOM     83  O   UNL A   1      34.740  31.845  29.370  1.00  0.00    -0.237 OA
ATOM     84  O   UNL A   1      34.255  32.948  31.505  1.00  0.00    -0.744 OA
ENDBRANCH  78  81
ENDBRANCH  50  74
BRANCH  62  85
ATOM     85  C   UNL A   1      44.795  33.618  29.381  1.00  0.00     0.023 A 
ATOM     86  C   UNL A   1      45.450  33.876  30.601  1.00  0.00     0.012 A 
ATOM     87  C   UNL A   1      44.771  34.612  28.382  1.00  0.00     0.148 A 
ATOM     88  C   UNL A   1      46.054  35.109  30.833  1.00  0.00     0.002 A 
ATOM     89  C   UNL A   1      45.412  35.824  28.603  1.00  0.00     0.091 A 
ATOM     90  F   UNL A   1      44.122  34.353  27.237  1.00  0.00    -0.205 F 
ATOM     91  C   UNL A   1      46.047  36.078  29.831  1.00  0.00     0.022 A 
BRANCH  89  92
ATOM     92  S   UNL A   1      45.531  37.089  27.334  1.00  0.00     0.127 S 
ATOM     93  O   UNL A   1      44.125  37.399  27.088  1.00  0.00    -0.237 OA
ATOM     94  O   UNL A   1      46.279  38.147  28.016  1.00  0.00    -0.237 OA
ATOM     95  O   UNL A   1      46.243  36.471  26.223  1.00  0.00    -0.744 OA
ENDBRANCH  89  92
ENDBRANCH  62  85
ENDBRANCH  36  37
ENDBRANCH  28  31
ENDBRANCH  26  27
ENDBRANCH  25  26
ENDBRANCH  24  25
ENDBRANCH   1  24
TORSDOF 19
ENDMDL
MODEL 2
REMARK VINA RESULT:     -11.8      1.475      7.595
REMARK SMILES C[C@H](Cc1cccs1)N(C)C(=O)N1CCC[C@]1(C)C(=O)NCCCCNC(=O)c1ccc(-c2c3nc(c(-c4cccc(S(=O)(=O)[O-])c4F)c4ccc([nH]4)c(-c4cccc(S(=O)(=O)[O-])c4F)c4nc(c(-c5cccc(S(=O)(=O)[O-])c5F)c5ccc2[nH]5)C=C4)C=C3)cc1
REMARK SMILES IDX 22 1 21 2 19 3 20 4 17 6 13 7 14 8 15 9 16 10 18 11 11 12
REMARK SMILES IDX 12 13 9 14 10 15 2 16 1 17 3 18 4 19 5 20 8 21 6 22 7 23
REMARK SMILES IDX 23 24 24 25 25 26 26 27 27 28 28 30 29 31 30 32 91 33 31 34
REMARK SMILES IDX 90 35 32 36 33 37 34 38 84 39 35 40 89 41 83 42 85 43 36 44
REMARK SMILES IDX 88 45 82 46 81 47 37 49 69 50 49 51 68 52 50 53 53 54 67 55
REMARK SMILES IDX 86 56 51 57 52 58 66 60 87 61 54 62 38 63 39 64 47 65 40 66
REMARK SMILES IDX 42 67 48 68 41 69 43 70 44 71 45 72 46 73 70 74 71 75 79 76
REMARK SMILES IDX 72 77 74 78 80 79 73 80 75 81 76 82 77 83 78 84 55 85 56 86
REMARK SMILES IDX 64 87 57 88 59 89 65 90 58 91 60 92 61 93 62 94 63 95
REMARK H PARENT 21 5 26 29 85 48 53 59
REMARK Flexibility Score: inf
ROOT
ATOM      1  C   UNL A   1      35.457  23.840  24.323  1.00  0.00     0.116 C 
ENDROOT
BRANCH   1   2
ATOM      2  N   UNL A   1      34.733  24.504  23.261  1.00  0.00    -0.354 N 
ATOM      3  C   UNL A   1      33.534  25.153  23.243  1.00  0.00     0.245 C 
ATOM      4  O   UNL A   1      33.035  25.285  22.118  1.00  0.00    -0.272 OA
ATOM      5  H   UNL A   1      35.192  24.484  22.390  1.00  0.00     0.163 HD
BRANCH   3   6
ATOM      6  C   UNL A   1      32.823  25.711  24.536  1.00  0.00     0.120 C 
ATOM      7  N   UNL A   1      31.465  25.177  24.891  1.00  0.00    -0.310 N 
ATOM      8  C   UNL A   1      30.448  26.194  24.678  1.00  0.00     0.122 C 
ATOM      9  C   UNL A   1      31.056  27.164  23.691  1.00  0.00     0.025 C 
ATOM     10  C   UNL A   1      32.492  27.213  24.181  1.00  0.00     0.040 C 
ATOM     11  C   UNL A   1      33.755  25.791  25.754  1.00  0.00     0.046 C 
BRANCH   7  12
ATOM     12  C   UNL A   1      31.041  23.884  24.616  1.00  0.00     0.320 C 
ATOM     13  O   UNL A   1      30.473  23.643  23.556  1.00  0.00    -0.248 OA
BRANCH  12  14
ATOM     14  N   UNL A   1      31.159  22.970  25.662  1.00  0.00    -0.325 N 
ATOM     15  C   UNL A   1      30.126  22.863  26.683  1.00  0.00     0.149 C 
BRANCH  14  16
ATOM     16  C   UNL A   1      32.266  21.969  25.731  1.00  0.00     0.088 C 
ATOM     17  C   UNL A   1      33.339  22.150  26.813  1.00  0.00     0.031 C 
BRANCH  16  18
ATOM     18  C   UNL A   1      32.860  21.593  24.355  1.00  0.00     0.071 C 
BRANCH  18  19
ATOM     19  C   UNL A   1      32.788  20.157  23.921  1.00  0.00     0.007 A 
ATOM     20  C   UNL A   1      32.266  19.664  22.740  1.00  0.00     0.015 A 
ATOM     21  S   UNL A   1      33.235  18.880  24.974  1.00  0.00    -0.149 S 
ATOM     22  C   UNL A   1      32.298  18.240  22.679  1.00  0.00     0.012 A 
ATOM     23  C   UNL A   1      32.842  17.690  23.816  1.00  0.00     0.065 A 
ENDBRANCH  18  19
ENDBRANCH  16  18
ENDBRANCH  14  16
ENDBRANCH  12  14
ENDBRANCH   7  12
ENDBRANCH   3   6
ENDBRANCH   1   2
BRANCH   1  24
ATOM     24  C   UNL A   1      36.577  23.003  23.734  1.00  0.00     0.023 C 
BRANCH  24  25
ATOM     25  C   UNL A   1      36.628  21.561  24.204  1.00  0.00     0.023 C 
BRANCH  25  26
ATOM     26  C   UNL A   1      37.264  21.382  25.570  1.00  0.00     0.116 C 
BRANCH  26  27
ATOM     27  N   UNL A   1      38.386  20.441  25.600  1.00  0.00    -0.352 N 
ATOM     28  C   UNL A   1      39.647  20.613  26.129  1.00  0.00     0.251 C 
ATOM     29  H   UNL A   1      38.215  19.566  25.186  1.00  0.00     0.163 HD
ATOM     30  O   UNL A   1      40.498  19.733  26.010  1.00  0.00    -0.269 OA
BRANCH  28  31
ATOM     31  C   UNL A   1      39.973  21.894  26.790  1.00  0.00     0.039 A 
ATOM     32  C   UNL A   1      40.892  21.912  27.841  1.00  0.00     0.014 A 
ATOM     33  C   UNL A   1      39.476  23.086  26.266  1.00  0.00     0.014 A 
ATOM     34  C   UNL A   1      41.413  23.134  28.274  1.00  0.00     0.010 A 
ATOM     35  C   UNL A   1      40.095  24.280  26.602  1.00  0.00     0.010 A 
ATOM     36  C   UNL A   1      41.075  24.322  27.605  1.00  0.00    -0.014 A 
BRANCH  36  37
ATOM     37  C   UNL A   1      41.734  25.623  27.899  1.00  0.00     0.031 A 
ATOM     38  C   UNL A   1      40.964  26.703  28.614  1.00  0.00     0.074 A 
ATOM     39  C   UNL A   1      42.960  25.889  27.399  1.00  0.00     0.049 A 
ATOM     40  N   UNL A   1      41.278  27.958  28.800  1.00  0.00    -0.248 NA
ATOM     41  C   UNL A   1      39.635  26.337  29.138  1.00  0.00     0.031 C 
ATOM     42  C   UNL A   1      43.773  24.972  26.595  1.00  0.00     0.029 A 
ATOM     43  N   UNL A   1      43.726  27.028  27.468  1.00  0.00    -0.354 N 
ATOM     44  C   UNL A   1      40.164  28.541  29.396  1.00  0.00     0.074 A 
ATOM     45  C   UNL A   1      39.151  27.517  29.496  1.00  0.00     0.031 C 
ATOM     46  C   UNL A   1      44.929  25.575  26.267  1.00  0.00     0.029 A 
ATOM     47  C   UNL A   1      44.927  26.931  26.802  1.00  0.00     0.049 A 
ATOM     48  H   UNL A   1      43.441  27.839  27.949  1.00  0.00     0.167 HD
ATOM     49  C   UNL A   1      40.012  29.803  29.862  1.00  0.00     0.034 A 
ATOM     50  C   UNL A   1      45.915  27.834  26.642  1.00  0.00     0.034 A 
ATOM     51  C   UNL A   1      41.058  30.786  29.860  1.00  0.00     0.049 A 
ATOM     52  C   UNL A   1      45.764  29.194  27.269  1.00  0.00     0.074 A 
ATOM     53  C   UNL A   1      41.046  32.058  30.405  1.00  0.00     0.029 A 
ATOM     54  N   UNL A   1      42.314  30.599  29.305  1.00  0.00    -0.354 N 
ATOM     55  N   UNL A   1      44.759  29.679  27.957  1.00  0.00    -0.248 NA
ATOM     56  C   UNL A   1      46.897  30.121  27.127  1.00  0.00     0.031 C 
ATOM     57  C   UNL A   1      42.302  32.636  30.187  1.00  0.00     0.029 A 
ATOM     58  C   UNL A   1      43.093  31.724  29.508  1.00  0.00     0.049 A 
ATOM     59  H   UNL A   1      42.608  29.785  28.834  1.00  0.00     0.167 HD
ATOM     60  C   UNL A   1      45.151  30.949  28.362  1.00  0.00     0.074 A 
ATOM     61  C   UNL A   1      46.494  31.152  27.859  1.00  0.00     0.031 C 
ATOM     62  C   UNL A   1      44.454  31.875  29.066  1.00  0.00     0.034 A 
BRANCH  49  63
ATOM     63  C   UNL A   1      38.694  30.153  30.503  1.00  0.00     0.023 A 
ATOM     64  C   UNL A   1      38.444  29.741  31.829  1.00  0.00     0.012 A 
ATOM     65  C   UNL A   1      37.724  30.910  29.820  1.00  0.00     0.148 A 
ATOM     66  C   UNL A   1      37.232  30.038  32.449  1.00  0.00     0.002 A 
ATOM     67  C   UNL A   1      36.535  31.242  30.462  1.00  0.00     0.091 A 
ATOM     68  F   UNL A   1      37.968  31.274  28.553  1.00  0.00    -0.205 F 
ATOM     69  C   UNL A   1      36.283  30.796  31.771  1.00  0.00     0.022 A 
BRANCH  67  70
ATOM     70  S   UNL A   1      35.282  32.278  29.700  1.00  0.00     0.127 S 
ATOM     71  O   UNL A   1      34.367  32.504  30.819  1.00  0.00    -0.237 OA
ATOM     72  O   UNL A   1      36.054  33.455  29.300  1.00  0.00    -0.237 OA
ATOM     73  O   UNL A   1      34.742  31.503  28.592  1.00  0.00    -0.744 OA
ENDBRANCH  67  70
ENDBRANCH  49  63
BRANCH  50  74
ATOM     74  C   UNL A   1      47.176  27.451  25.946  1.00  0.00     0.023 A 
ATOM     75  C   UNL A   1      48.183  26.789  26.677  1.00  0.00     0.012 A 
ATOM     76  C   UNL A   1      47.384  27.714  24.578  1.00  0.00     0.148 A 
ATOM     77  C   UNL A   1      49.385  26.426  26.071  1.00  0.00     0.002 A 
ATOM     78  C   UNL A   1      48.567  27.305  23.968  1.00  0.00     0.091 A 
ATOM     79  F   UNL A   1      46.424  28.358  23.900  1.00  0.00    -0.205 F 
ATOM     80  C   UNL A   1      49.573  26.675  24.715  1.00  0.00     0.022 A 
BRANCH  78  81
ATOM     81  S   UNL A   1      48.837  27.478  22.200  1.00  0.00     0.127 S 
ATOM     82  O   UNL A   1      50.269  27.757  22.143  1.00  0.00    -0.237 OA
ATOM     83  O   UNL A   1      48.447  26.159  21.698  1.00  0.00    -0.237 OA
ATOM     84  O   UNL A   1      47.956  28.560  21.782  1.00  0.00    -0.744 OA
ENDBRANCH  78  81
ENDBRANCH  50  74
BRANCH  62  85
ATOM     85  C   UNL A   1      45.139  33.177  29.375  1.00  0.00     0.023 A 
ATOM     86  C   UNL A   1      45.899  33.300  30.554  1.00  0.00     0.012 A 
ATOM     87  C   UNL A   1      45.103  34.245  28.457  1.00  0.00     0.148 A 
ATOM     88  C   UNL A   1      46.596  34.475  30.827  1.00  0.00     0.002 A 
ATOM     89  C   UNL A   1      45.835  35.397  28.714  1.00  0.00     0.091 A 
ATOM     90  F   UNL A   1      44.354  34.114  27.352  1.00  0.00    -0.205 F 
ATOM     91  C   UNL A   1      46.575  35.518  29.902  1.00  0.00     0.022 A 
BRANCH  89  92
ATOM     92  S   UNL A   1      45.938  36.748  27.535  1.00  0.00     0.127 S 
ATOM     93  O   UNL A   1      44.616  37.358  27.663  1.00  0.00    -0.237 OA
ATOM     94  O   UNL A   1      47.035  37.552  28.076  1.00  0.00    -0.237 OA
ATOM     95  O   UNL A   1      46.225  36.131  26.247  1.00  0.00    -0.744 OA
ENDBRANCH  89  92
ENDBRANCH  62  85
ENDBRANCH  36  37
ENDBRANCH  28  31
ENDBRANCH  26  27
ENDBRANCH  25  26
ENDBRANCH  24  25
ENDBRANCH   1  24
TORSDOF 19
ENDMDL
MODEL 3
REMARK VINA RESULT:     -11.6      1.782      3.474
REMARK SMILES C[C@H](Cc1cccs1)N(C)C(=O)N1CCC[C@]1(C)C(=O)NCCCCNC(=O)c1ccc(-c2c3nc(c(-c4cccc(S(=O)(=O)[O-])c4F)c4ccc([nH]4)c(-c4cccc(S(=O)(=O)[O-])c4F)c4nc(c(-c5cccc(S(=O)(=O)[O-])c5F)c5ccc2[nH]5)C=C4)C=C3)cc1
REMARK SMILES IDX 22 1 21 2 19 3 20 4 17 6 13 7 14 8 15 9 16 10 18 11 11 12
REMARK SMILES IDX 12 13 9 14 10 15 2 16 1 17 3 18 4 19 5 20 8 21 6 22 7 23
REMARK SMILES IDX 23 24 24 25 25 26 26 27 27 28 28 30 29 31 30 32 91 33 31 34
REMARK SMILES IDX 90 35 32 36 33 37 34 38 84 39 35 40 89 41 83 42 85 43 36 44
REMARK SMILES IDX 88 45 82 46 81 47 37 49 69 50 49 51 68 52 50 53 53 54 67 55
REMARK SMILES IDX 86 56 51 57 52 58 66 60 87 61 54 62 38 63 39 64 47 65 40 66
REMARK SMILES IDX 42 67 48 68 41 69 43 70 44 71 45 72 46 73 70 74 71 75 79 76
REMARK SMILES IDX 72 77 74 78 80 79 73 80 75 81 76 82 77 83 78 84 55 85 56 86
REMARK SMILES IDX 64 87 57 88 59 89 65 90 58 91 60 92 61 93 62 94 63 95
REMARK H PARENT 21 5 26 29 85 48 53 59
REMARK Flexibility Score: inf
ROOT
ATOM      1  C   UNL A   1      34.985  23.750  23.782  1.00  0.00     0.116 C 
ENDROOT
BRANCH   1   2
ATOM      2  N   UNL A   1      34.399  22.957  24.839  1.00  0.00    -0.354 N 
ATOM      3  C   UNL A   1      33.157  22.963  25.402  1.00  0.00     0.245 C 
ATOM      4  O   UNL A   1      33.090  22.424  26.514  1.00  0.00    -0.272 OA
ATOM      5  H   UNL A   1      35.010  22.287  25.224  1.00  0.00     0.163 HD
BRANCH   3   6
ATOM      6  C   UNL A   1      31.887  23.592  24.708  1.00  0.00     0.120 C 
ATOM      7  N   UNL A   1      31.622  25.058  24.897  1.00  0.00    -0.310 N 
ATOM      8  C   UNL A   1      30.459  25.259  25.746  1.00  0.00     0.122 C 
ATOM      9  C   UNL A   1      30.313  23.976  26.532  1.00  0.00     0.025 C 
ATOM     10  C   UNL A   1      30.667  22.946  25.473  1.00  0.00     0.040 C 
ATOM     11  C   UNL A   1      31.713  23.151  23.247  1.00  0.00     0.046 C 
BRANCH   7  12
ATOM     12  C   UNL A   1      32.616  26.013  25.061  1.00  0.00     0.320 C 
ATOM     13  O   UNL A   1      33.199  26.104  26.136  1.00  0.00    -0.248 OA
BRANCH  12  14
ATOM     14  N   UNL A   1      32.767  26.920  24.013  1.00  0.00    -0.325 N 
ATOM     15  C   UNL A   1      33.954  27.757  23.912  1.00  0.00     0.149 C 
BRANCH  14  16
ATOM     16  C   UNL A   1      31.801  26.998  22.876  1.00  0.00     0.088 C 
ATOM     17  C   UNL A   1      32.088  26.158  21.623  1.00  0.00     0.031 C 
BRANCH  16  18
ATOM     18  C   UNL A   1      31.337  28.434  22.543  1.00  0.00     0.071 C 
BRANCH  18  19
ATOM     19  C   UNL A   1      29.880  28.762  22.701  1.00  0.00     0.007 A 
ATOM     20  C   UNL A   1      28.878  27.929  23.161  1.00  0.00     0.015 A 
ATOM     21  S   UNL A   1      29.232  30.251  22.149  1.00  0.00    -0.149 S 
ATOM     22  C   UNL A   1      27.593  28.542  23.121  1.00  0.00     0.012 A 
ATOM     23  C   UNL A   1      27.652  29.826  22.630  1.00  0.00     0.065 A 
ENDBRANCH  18  19
ENDBRANCH  16  18
ENDBRANCH  14  16
ENDBRANCH  12  14
ENDBRANCH   7  12
ENDBRANCH   3   6
ENDBRANCH   1   2
BRANCH   1  24
ATOM     24  C   UNL A   1      36.366  23.218  23.447  1.00  0.00     0.023 C 
BRANCH  24  25
ATOM     25  C   UNL A   1      36.652  21.806  23.925  1.00  0.00     0.023 C 
BRANCH  25  26
ATOM     26  C   UNL A   1      37.216  21.736  25.332  1.00  0.00     0.116 C 
BRANCH  26  27
ATOM     27  N   UNL A   1      38.325  20.794  25.497  1.00  0.00    -0.352 N 
ATOM     28  C   UNL A   1      39.534  20.982  26.132  1.00  0.00     0.251 C 
ATOM     29  H   UNL A   1      38.189  19.905  25.099  1.00  0.00     0.163 HD
ATOM     30  O   UNL A   1      40.387  20.097  26.123  1.00  0.00    -0.269 OA
BRANCH  28  31
ATOM     31  C   UNL A   1      39.804  22.284  26.776  1.00  0.00     0.039 A 
ATOM     32  C   UNL A   1      40.850  22.394  27.696  1.00  0.00     0.014 A 
ATOM     33  C   UNL A   1      39.114  23.419  26.353  1.00  0.00     0.014 A 
ATOM     34  C   UNL A   1      41.288  23.662  28.086  1.00  0.00     0.010 A 
ATOM     35  C   UNL A   1      39.639  24.671  26.633  1.00  0.00     0.010 A 
ATOM     36  C   UNL A   1      40.735  24.812  27.497  1.00  0.00    -0.014 A 
BRANCH  36  37
ATOM     37  C   UNL A   1      41.282  26.175  27.734  1.00  0.00     0.031 A 
ATOM     38  C   UNL A   1      42.681  26.505  27.279  1.00  0.00     0.074 A 
ATOM     39  C   UNL A   1      40.591  27.062  28.481  1.00  0.00     0.049 A 
ATOM     40  N   UNL A   1      43.412  27.554  27.548  1.00  0.00    -0.248 NA
ATOM     41  C   UNL A   1      43.372  25.490  26.462  1.00  0.00     0.031 C 
ATOM     42  C   UNL A   1      39.271  26.834  29.077  1.00  0.00     0.029 A 
ATOM     43  N   UNL A   1      40.920  28.331  28.895  1.00  0.00    -0.354 N 
ATOM     44  C   UNL A   1      44.662  27.295  26.995  1.00  0.00     0.074 A 
ATOM     45  C   UNL A   1      44.605  25.971  26.419  1.00  0.00     0.031 C 
ATOM     46  C   UNL A   1      38.895  27.930  29.756  1.00  0.00     0.029 A 
ATOM     47  C   UNL A   1      39.957  28.926  29.679  1.00  0.00     0.049 A 
ATOM     48  H   UNL A   1      41.765  28.773  28.653  1.00  0.00     0.167 HD
ATOM     49  C   UNL A   1      45.747  28.101  26.929  1.00  0.00     0.034 A 
ATOM     50  C   UNL A   1      39.935  30.138  30.269  1.00  0.00     0.034 A 
ATOM     51  C   UNL A   1      45.765  29.456  27.405  1.00  0.00     0.049 A 
ATOM     52  C   UNL A   1      41.112  31.057  30.084  1.00  0.00     0.074 A 
ATOM     53  C   UNL A   1      46.773  30.396  27.291  1.00  0.00     0.029 A 
ATOM     54  N   UNL A   1      44.715  30.072  28.067  1.00  0.00    -0.354 N 
ATOM     55  N   UNL A   1      42.228  30.847  29.430  1.00  0.00    -0.248 NA
ATOM     56  C   UNL A   1      41.011  32.395  30.687  1.00  0.00     0.031 C 
ATOM     57  C   UNL A   1      46.326  31.586  27.875  1.00  0.00     0.029 A 
ATOM     58  C   UNL A   1      45.041  31.385  28.352  1.00  0.00     0.049 A 
ATOM     59  H   UNL A   1      43.861  29.638  28.299  1.00  0.00     0.167 HD
ATOM     60  C   UNL A   1      42.947  32.034  29.511  1.00  0.00     0.074 A 
ATOM     61  C   UNL A   1      42.130  32.967  30.259  1.00  0.00     0.031 C 
ATOM     62  C   UNL A   1      44.182  32.319  29.030  1.00  0.00     0.034 A 
BRANCH  49  63
ATOM     63  C   UNL A   1      46.969  27.567  26.228  1.00  0.00     0.023 A 
ATOM     64  C   UNL A   1      47.120  27.790  24.843  1.00  0.00     0.012 A 
ATOM     65  C   UNL A   1      47.977  26.881  26.931  1.00  0.00     0.148 A 
ATOM     66  C   UNL A   1      48.232  27.302  24.160  1.00  0.00     0.002 A 
ATOM     67  C   UNL A   1      49.106  26.436  26.251  1.00  0.00     0.091 A 
ATOM     68  F   UNL A   1      47.807  26.657  28.242  1.00  0.00    -0.205 F 
ATOM     69  C   UNL A   1      49.228  26.634  24.865  1.00  0.00     0.022 A 
BRANCH  67  70
ATOM     70  S   UNL A   1      50.481  25.633  27.082  1.00  0.00     0.127 S 
ATOM     71  O   UNL A   1      50.845  26.633  28.085  1.00  0.00    -0.237 OA
ATOM     72  O   UNL A   1      49.853  24.427  27.625  1.00  0.00    -0.237 OA
ATOM     73  O   UNL A   1      51.480  25.383  26.052  1.00  0.00    -0.744 OA
ENDBRANCH  67  70
ENDBRANCH  49  63
BRANCH  50  74
ATOM     74  C   UNL A   1      38.719  30.593  31.003  1.00  0.00     0.023 A 
ATOM     75  C   UNL A   1      38.629  30.349  32.388  1.00  0.00     0.012 A 
ATOM     76  C   UNL A   1      37.670  31.276  30.358  1.00  0.00     0.148 A 
ATOM     77  C   UNL A   1      37.504  30.744  33.111  1.00  0.00     0.002 A 
ATOM     78  C   UNL A   1      36.572  31.711  31.096  1.00  0.00     0.091 A 
ATOM     79  F   UNL A   1      37.764  31.488  29.038  1.00  0.00    -0.205 F 
ATOM     80  C   UNL A   1      36.481  31.433  32.468  1.00  0.00     0.022 A 
BRANCH  78  81
ATOM     81  S   UNL A   1      35.269  32.711  30.368  1.00  0.00     0.127 S 
ATOM     82  O   UNL A   1      34.392  32.938  31.513  1.00  0.00    -0.237 OA
ATOM     83  O   UNL A   1      36.005  33.892  29.911  1.00  0.00    -0.237 OA
ATOM     84  O   UNL A   1      34.719  31.898  29.291  1.00  0.00    -0.744 OA
ENDBRANCH  78  81
ENDBRANCH  50  74
BRANCH  62  85
ATOM     85  C   UNL A   1      44.716  33.706  29.257  1.00  0.00     0.023 A 
ATOM     86  C   UNL A   1      45.435  33.991  30.434  1.00  0.00     0.012 A 
ATOM     87  C   UNL A   1      44.584  34.699  28.266  1.00  0.00     0.148 A 
ATOM     88  C   UNL A   1      45.996  35.251  30.633  1.00  0.00     0.002 A 
ATOM     89  C   UNL A   1      45.182  35.939  28.451  1.00  0.00     0.091 A 
ATOM     90  F   UNL A   1      43.876  34.413  27.163  1.00  0.00    -0.205 F 
ATOM     91  C   UNL A   1      45.881  36.220  29.637  1.00  0.00     0.022 A 
BRANCH  89  92
ATOM     92  S   UNL A   1      45.163  37.210  27.183  1.00  0.00     0.127 S 
ATOM     93  O   UNL A   1      45.998  36.609  26.145  1.00  0.00    -0.237 OA
ATOM     94  O   UNL A   1      43.741  37.296  26.847  1.00  0.00    -0.237 OA
ATOM     95  O   UNL A   1      45.705  38.407  27.812  1.00  0.00    -0.744 OA
ENDBRANCH  89  92
ENDBRANCH  62  85
ENDBRANCH  36  37
ENDBRANCH  28  31
ENDBRANCH  26  27
ENDBRANCH  25  26
ENDBRANCH  24  25
ENDBRANCH   1  24
TORSDOF 19
ENDMDL
