MODEL 1
REMARK VINA RESULT:     -11.9      0.000      0.000
REMARK SMILES Cc1cc(N(C)C2CCC(C)(C)CC2)cc(C(=O)NCCCCNC(=O)c2ccc(-c3c4nc(c(-c5cccc(S(=O)(=O)[O-])c5F)c5ccc([nH]5)c(-c5cccc(S(=O)(=O)[O-])c5F)c5nc(c(-c6cccc(S(=O)(=O)[O-])c6F)c6ccc3[nH]6)C=C5)C=C4)cc2)c1N
REMARK SMILES IDX 22 1 21 2 20 3 19 4 17 5 18 6 16 8 1 9 2 10 3 11 90 12 4 13
REMARK SMILES IDX 15 14 91 15 5 18 6 19 7 20 8 21 14 22 9 23 13 24 10 25 11 26
REMARK SMILES IDX 12 27 23 28 24 29 25 30 26 32 27 33 28 34 89 35 29 36 88 37
REMARK SMILES IDX 30 38 31 39 32 40 82 41 33 42 87 43 81 44 83 45 34 46 86 47
REMARK SMILES IDX 80 48 79 49 35 51 67 52 47 53 66 54 48 55 51 56 65 57 84 58
REMARK SMILES IDX 49 59 50 60 64 62 85 63 52 64 36 65 37 66 45 67 38 68 40 69
REMARK SMILES IDX 46 70 39 71 41 72 42 73 43 74 44 75 68 76 69 77 77 78 70 79
REMARK SMILES IDX 72 80 78 81 71 82 73 83 74 84 75 85 76 86 53 87 54 88 62 89
REMARK SMILES IDX 55 90 57 91 63 92 56 93 58 94 59 95 60 96 61 97
REMARK H PARENT 19 7 91 16 91 17 24 31 83 50 51 61
REMARK Flexibility Score: inf
ROOT
ATOM      1  C   UNL A   1      32.249  31.162  27.149  1.00  0.00     0.023 C 
ENDROOT
BRANCH   1   2
ATOM      2  C   UNL A   1      32.769  29.725  27.096  1.00  0.00     0.023 C 
BRANCH   2   3
ATOM      3  C   UNL A   1      33.871  29.520  26.055  1.00  0.00     0.116 C 
BRANCH   3   4
ATOM      4  N   UNL A   1      33.282  29.545  24.732  1.00  0.00    -0.352 N 
ATOM      5  C   UNL A   1      32.958  28.521  23.873  1.00  0.00     0.253 C 
ATOM      6  O   UNL A   1      32.571  28.816  22.742  1.00  0.00    -0.269 OA
ATOM      7  H   UNL A   1      33.080  30.446  24.390  1.00  0.00     0.163 HD
BRANCH   5   8
ATOM      8  C   UNL A   1      32.934  27.103  24.339  1.00  0.00     0.065 A 
ATOM      9  C   UNL A   1      30.601  24.685  26.102  1.00  0.00     0.046 C 
ATOM     10  C   UNL A   1      31.827  25.414  25.631  1.00  0.00    -0.025 A 
ATOM     11  C   UNL A   1      33.075  24.791  25.792  1.00  0.00     0.031 A 
ATOM     12  C   UNL A   1      31.748  26.610  24.917  1.00  0.00     0.047 A 
ATOM     13  C   UNL A   1      34.144  25.055  24.940  1.00  0.00     0.038 A 
ATOM     14  C   UNL A   1      34.055  26.260  24.234  1.00  0.00     0.042 A 
BRANCH  12  15
ATOM     15  N   UNL A   1      30.521  27.227  24.708  1.00  0.00    -0.398 N 
ATOM     16  H   UNL A   1      30.037  27.627  25.466  1.00  0.00     0.156 HD
ATOM     17  H   UNL A   1      30.136  27.263  23.803  1.00  0.00     0.156 HD
ENDBRANCH  12  15
BRANCH  13  18
ATOM     18  N   UNL A   1      35.186  24.157  24.736  1.00  0.00    -0.372 N 
ATOM     19  C   UNL A   1      36.289  24.197  25.706  1.00  0.00     0.144 C 
BRANCH  18  20
ATOM     20  C   UNL A   1      35.181  22.993  23.783  1.00  0.00     0.082 C 
ATOM     21  C   UNL A   1      35.275  21.579  24.355  1.00  0.00     0.025 C 
ATOM     22  C   UNL A   1      33.949  22.981  22.846  1.00  0.00     0.025 C 
ATOM     23  C   UNL A   1      34.065  21.262  25.227  1.00  0.00     0.008 C 
ATOM     24  C   UNL A   1      32.698  22.166  23.262  1.00  0.00     0.008 C 
ATOM     25  C   UNL A   1      32.804  21.092  24.383  1.00  0.00    -0.035 C 
ATOM     26  C   UNL A   1      31.575  21.216  25.311  1.00  0.00     0.011 C 
ATOM     27  C   UNL A   1      32.813  19.658  23.813  1.00  0.00     0.011 C 
ENDBRANCH  18  20
ENDBRANCH  13  18
ENDBRANCH   5   8
ENDBRANCH   3   4
ENDBRANCH   2   3
ENDBRANCH   1   2
BRANCH   1  28
ATOM     28  C   UNL A   1      33.325  32.203  27.419  1.00  0.00     0.116 C 
BRANCH  28  29
ATOM     29  N   UNL A   1      32.788  33.545  27.601  1.00  0.00    -0.352 N 
ATOM     30  C   UNL A   1      33.166  34.472  28.540  1.00  0.00     0.251 C 
ATOM     31  H   UNL A   1      32.072  33.817  26.982  1.00  0.00     0.163 HD
ATOM     32  O   UNL A   1      32.566  35.534  28.663  1.00  0.00    -0.269 OA
BRANCH  30  33
ATOM     33  C   UNL A   1      34.290  34.127  29.428  1.00  0.00     0.039 A 
ATOM     34  C   UNL A   1      34.044  33.344  30.556  1.00  0.00     0.014 A 
ATOM     35  C   UNL A   1      35.593  34.470  29.057  1.00  0.00     0.014 A 
ATOM     36  C   UNL A   1      35.123  32.843  31.283  1.00  0.00     0.010 A 
ATOM     37  C   UNL A   1      36.665  33.911  29.739  1.00  0.00     0.010 A 
ATOM     38  C   UNL A   1      36.440  33.090  30.856  1.00  0.00    -0.014 A 
BRANCH  38  39
ATOM     39  C   UNL A   1      37.598  32.475  31.547  1.00  0.00     0.031 A 
ATOM     40  C   UNL A   1      38.336  31.333  30.908  1.00  0.00     0.074 A 
ATOM     41  C   UNL A   1      37.919  32.881  32.792  1.00  0.00     0.049 A 
ATOM     42  N   UNL A   1      39.338  30.637  31.375  1.00  0.00    -0.248 NA
ATOM     43  C   UNL A   1      37.867  30.896  29.582  1.00  0.00     0.031 C 
ATOM     44  C   UNL A   1      37.214  33.915  33.554  1.00  0.00     0.029 A 
ATOM     45  N   UNL A   1      38.903  32.452  33.647  1.00  0.00    -0.354 N 
ATOM     46  C   UNL A   1      39.596  29.660  30.423  1.00  0.00     0.074 A 
ATOM     47  C   UNL A   1      38.622  29.829  29.367  1.00  0.00     0.031 C 
ATOM     48  C   UNL A   1      37.792  34.043  34.759  1.00  0.00     0.029 A 
ATOM     49  C   UNL A   1      38.890  33.088  34.866  1.00  0.00     0.049 A 
ATOM     50  H   UNL A   1      39.556  31.755  33.410  1.00  0.00     0.167 HD
ATOM     51  C   UNL A   1      40.577  28.729  30.410  1.00  0.00     0.034 A 
ATOM     52  C   UNL A   1      39.673  32.917  35.949  1.00  0.00     0.034 A 
ATOM     53  C   UNL A   1      41.571  28.597  31.439  1.00  0.00     0.049 A 
ATOM     54  C   UNL A   1      40.793  31.913  35.886  1.00  0.00     0.074 A 
ATOM     55  C   UNL A   1      42.666  27.751  31.476  1.00  0.00     0.029 A 
ATOM     56  N   UNL A   1      41.589  29.327  32.618  1.00  0.00    -0.354 N 
ATOM     57  N   UNL A   1      41.131  31.118  34.902  1.00  0.00    -0.248 NA
ATOM     58  C   UNL A   1      41.662  31.811  37.067  1.00  0.00     0.031 C 
ATOM     59  C   UNL A   1      43.336  27.959  32.686  1.00  0.00     0.029 A 
ATOM     60  C   UNL A   1      42.671  28.948  33.393  1.00  0.00     0.049 A 
ATOM     61  H   UNL A   1      40.929  30.013  32.867  1.00  0.00     0.167 HD
ATOM     62  C   UNL A   1      42.272  30.447  35.328  1.00  0.00     0.074 A 
ATOM     63  C   UNL A   1      42.577  30.945  36.654  1.00  0.00     0.031 C 
ATOM     64  C   UNL A   1      42.993  29.494  34.687  1.00  0.00     0.034 A 
BRANCH  51  65
ATOM     65  C   UNL A   1      40.658  27.818  29.213  1.00  0.00     0.023 A 
ATOM     66  C   UNL A   1      39.823  26.684  29.148  1.00  0.00     0.012 A 
ATOM     67  C   UNL A   1      41.521  28.104  28.137  1.00  0.00     0.148 A 
ATOM     68  C   UNL A   1      39.870  25.828  28.049  1.00  0.00     0.002 A 
ATOM     69  C   UNL A   1      41.530  27.269  27.025  1.00  0.00     0.091 A 
ATOM     70  F   UNL A   1      42.326  29.171  28.227  1.00  0.00    -0.205 F 
ATOM     71  C   UNL A   1      40.715  26.126  26.984  1.00  0.00     0.022 A 
BRANCH  69  72
ATOM     72  S   UNL A   1      42.526  27.612  25.570  1.00  0.00     0.127 S 
ATOM     73  O   UNL A   1      41.994  28.907  25.147  1.00  0.00    -0.237 OA
ATOM     74  O   UNL A   1      43.879  27.662  26.126  1.00  0.00    -0.237 OA
ATOM     75  O   UNL A   1      42.289  26.506  24.653  1.00  0.00    -0.744 OA
ENDBRANCH  69  72
ENDBRANCH  51  65
BRANCH  52  76
ATOM     76  C   UNL A   1      39.478  33.776  37.151  1.00  0.00     0.023 A 
ATOM     77  C   UNL A   1      39.947  35.105  37.132  1.00  0.00     0.012 A 
ATOM     78  C   UNL A   1      38.800  33.303  38.291  1.00  0.00     0.148 A 
ATOM     79  C   UNL A   1      39.771  35.938  38.238  1.00  0.00     0.002 A 
ATOM     80  C   UNL A   1      38.582  34.155  39.368  1.00  0.00     0.091 A 
ATOM     81  F   UNL A   1      38.371  32.033  38.293  1.00  0.00    -0.205 F 
ATOM     82  C   UNL A   1      39.080  35.467  39.350  1.00  0.00     0.022 A 
BRANCH  80  83
ATOM     83  S   UNL A   1      37.591  33.677  40.787  1.00  0.00     0.127 S 
ATOM     84  O   UNL A   1      36.386  33.155  40.148  1.00  0.00    -0.237 OA
ATOM     85  O   UNL A   1      38.439  32.668  41.423  1.00  0.00    -0.237 OA
ATOM     86  O   UNL A   1      37.417  34.894  41.571  1.00  0.00    -0.744 OA
ENDBRANCH  80  83
ENDBRANCH  52  76
BRANCH  64  87
ATOM     87  C   UNL A   1      44.207  28.946  35.388  1.00  0.00     0.023 A 
ATOM     88  C   UNL A   1      45.467  29.540  35.173  1.00  0.00     0.012 A 
ATOM     89  C   UNL A   1      44.085  27.899  36.324  1.00  0.00     0.148 A 
ATOM     90  C   UNL A   1      46.592  29.080  35.857  1.00  0.00     0.002 A 
ATOM     91  C   UNL A   1      45.201  27.479  37.037  1.00  0.00     0.091 A 
ATOM     92  F   UNL A   1      42.882  27.336  36.499  1.00  0.00    -0.205 F 
ATOM     93  C   UNL A   1      46.457  28.060  36.796  1.00  0.00     0.022 A 
BRANCH  91  94
ATOM     94  S   UNL A   1      45.102  26.241  38.334  1.00  0.00     0.127 S 
ATOM     95  O   UNL A   1      44.671  25.060  37.587  1.00  0.00    -0.237 OA
ATOM     96  O   UNL A   1      46.481  26.186  38.818  1.00  0.00    -0.237 OA
ATOM     97  O   UNL A   1      44.143  26.754  39.303  1.00  0.00    -0.744 OA
ENDBRANCH  91  94
ENDBRANCH  64  87
ENDBRANCH  38  39
ENDBRANCH  30  33
ENDBRANCH  28  29
ENDBRANCH   1  28
TORSDOF 17
ENDMDL
MODEL 2
REMARK VINA RESULT:     -11.8      1.805      7.894
REMARK SMILES Cc1cc(N(C)C2CCC(C)(C)CC2)cc(C(=O)NCCCCNC(=O)c2ccc(-c3c4nc(c(-c5cccc(S(=O)(=O)[O-])c5F)c5ccc([nH]5)c(-c5cccc(S(=O)(=O)[O-])c5F)c5nc(c(-c6cccc(S(=O)(=O)[O-])c6F)c6ccc3[nH]6)C=C5)C=C4)cc2)c1N
REMARK SMILES IDX 22 1 21 2 20 3 19 4 17 5 18 6 16 8 1 9 2 10 3 11 90 12 4 13
REMARK SMILES IDX 15 14 91 15 5 18 6 19 7 20 8 21 14 22 9 23 13 24 10 25 11 26
REMARK SMILES IDX 12 27 23 28 24 29 25 30 26 32 27 33 28 34 89 35 29 36 88 37
REMARK SMILES IDX 30 38 31 39 32 40 82 41 33 42 87 43 81 44 83 45 34 46 86 47
REMARK SMILES IDX 80 48 79 49 35 51 67 52 47 53 66 54 48 55 51 56 65 57 84 58
REMARK SMILES IDX 49 59 50 60 64 62 85 63 52 64 36 65 37 66 45 67 38 68 40 69
REMARK SMILES IDX 46 70 39 71 41 72 42 73 43 74 44 75 68 76 69 77 77 78 70 79
REMARK SMILES IDX 72 80 78 81 71 82 73 83 74 84 75 85 76 86 53 87 54 88 62 89
REMARK SMILES IDX 55 90 57 91 63 92 56 93 58 94 59 95 60 96 61 97
REMARK H PARENT 19 7 91 16 91 17 24 31 83 50 51 61
REMARK Flexibility Score: inf
ROOT
ATOM      1  C   UNL A   1      31.393  31.819  26.751  1.00  0.00     0.023 C 
ENDROOT
BRANCH   1   2
ATOM      2  C   UNL A   1      31.365  30.638  25.779  1.00  0.00     0.023 C 
BRANCH   2   3
ATOM      3  C   UNL A   1      32.687  29.872  25.720  1.00  0.00     0.116 C 
BRANCH   3   4
ATOM      4  N   UNL A   1      33.077  29.706  24.334  1.00  0.00    -0.352 N 
ATOM      5  C   UNL A   1      32.951  28.629  23.488  1.00  0.00     0.253 C 
ATOM      6  O   UNL A   1      33.474  28.704  22.377  1.00  0.00    -0.269 OA
ATOM      7  H   UNL A   1      33.503  30.497  23.931  1.00  0.00     0.163 HD
BRANCH   5   8
ATOM      8  C   UNL A   1      32.085  27.467  23.845  1.00  0.00     0.065 A 
ATOM      9  C   UNL A   1      28.415  26.504  23.875  1.00  0.00     0.046 C 
ATOM     10  C   UNL A   1      29.871  26.631  24.224  1.00  0.00    -0.025 A 
ATOM     11  C   UNL A   1      30.433  25.680  25.090  1.00  0.00     0.031 A 
ATOM     12  C   UNL A   1      30.701  27.566  23.606  1.00  0.00     0.047 A 
ATOM     13  C   UNL A   1      31.783  25.345  25.038  1.00  0.00     0.038 A 
ATOM     14  C   UNL A   1      32.605  26.294  24.421  1.00  0.00     0.042 A 
BRANCH  12  15
ATOM     15  N   UNL A   1      30.177  28.493  22.713  1.00  0.00    -0.398 N 
ATOM     16  H   UNL A   1      29.636  29.245  23.046  1.00  0.00     0.156 HD
ATOM     17  H   UNL A   1      30.347  28.397  21.748  1.00  0.00     0.156 HD
ENDBRANCH  12  15
BRANCH  13  18
ATOM     18  N   UNL A   1      32.275  24.124  25.488  1.00  0.00    -0.372 N 
ATOM     19  C   UNL A   1      31.970  23.764  26.880  1.00  0.00     0.144 C 
BRANCH  18  20
ATOM     20  C   UNL A   1      32.865  23.036  24.635  1.00  0.00     0.082 C 
ATOM     21  C   UNL A   1      33.891  23.417  23.569  1.00  0.00     0.025 C 
ATOM     22  C   UNL A   1      33.525  21.906  25.462  1.00  0.00     0.025 C 
ATOM     23  C   UNL A   1      35.142  24.014  24.204  1.00  0.00     0.008 C 
ATOM     24  C   UNL A   1      35.045  21.984  25.758  1.00  0.00     0.008 C 
ATOM     25  C   UNL A   1      35.951  22.950  24.940  1.00  0.00    -0.035 C 
ATOM     26  C   UNL A   1      36.926  23.658  25.907  1.00  0.00     0.011 C 
ATOM     27  C   UNL A   1      36.800  22.200  23.892  1.00  0.00     0.011 C 
ENDBRANCH  18  20
ENDBRANCH  13  18
ENDBRANCH   5   8
ENDBRANCH   3   4
ENDBRANCH   2   3
ENDBRANCH   1   2
BRANCH   1  28
ATOM     28  C   UNL A   1      32.774  32.426  26.949  1.00  0.00     0.116 C 
BRANCH  28  29
ATOM     29  N   UNL A   1      32.736  33.719  27.621  1.00  0.00    -0.352 N 
ATOM     30  C   UNL A   1      33.622  34.196  28.556  1.00  0.00     0.251 C 
ATOM     31  H   UNL A   1      31.993  34.317  27.378  1.00  0.00     0.163 HD
ATOM     32  O   UNL A   1      33.427  35.262  29.130  1.00  0.00    -0.269 OA
BRANCH  30  33
ATOM     33  C   UNL A   1      34.791  33.361  28.880  1.00  0.00     0.039 A 
ATOM     34  C   UNL A   1      36.068  33.909  28.753  1.00  0.00     0.014 A 
ATOM     35  C   UNL A   1      34.600  32.092  29.434  1.00  0.00     0.014 A 
ATOM     36  C   UNL A   1      37.162  33.202  29.251  1.00  0.00     0.010 A 
ATOM     37  C   UNL A   1      35.682  31.425  29.993  1.00  0.00     0.010 A 
ATOM     38  C   UNL A   1      36.972  31.975  29.909  1.00  0.00    -0.014 A 
BRANCH  38  39
ATOM     39  C   UNL A   1      38.105  31.261  30.544  1.00  0.00     0.031 A 
ATOM     40  C   UNL A   1      38.491  31.575  31.962  1.00  0.00     0.074 A 
ATOM     41  C   UNL A   1      38.844  30.405  29.810  1.00  0.00     0.049 A 
ATOM     42  N   UNL A   1      39.478  31.093  32.670  1.00  0.00    -0.248 NA
ATOM     43  C   UNL A   1      37.682  32.584  32.665  1.00  0.00     0.031 C 
ATOM     44  C   UNL A   1      38.623  30.093  28.396  1.00  0.00     0.029 A 
ATOM     45  N   UNL A   1      39.948  29.664  30.145  1.00  0.00    -0.354 N 
ATOM     46  C   UNL A   1      39.432  31.764  33.885  1.00  0.00     0.074 A 
ATOM     47  C   UNL A   1      38.344  32.713  33.806  1.00  0.00     0.031 C 
ATOM     48  C   UNL A   1      39.559  29.221  27.987  1.00  0.00     0.029 A 
ATOM     49  C   UNL A   1      40.458  28.930  29.099  1.00  0.00     0.049 A 
ATOM     50  H   UNL A   1      40.339  29.657  31.048  1.00  0.00     0.167 HD
ATOM     51  C   UNL A   1      40.204  31.582  34.982  1.00  0.00     0.034 A 
ATOM     52  C   UNL A   1      41.531  28.116  29.043  1.00  0.00     0.034 A 
ATOM     53  C   UNL A   1      41.253  30.605  35.071  1.00  0.00     0.049 A 
ATOM     54  C   UNL A   1      42.338  27.889  30.293  1.00  0.00     0.074 A 
ATOM     55  C   UNL A   1      42.030  30.272  36.167  1.00  0.00     0.029 A 
ATOM     56  N   UNL A   1      41.679  29.805  34.021  1.00  0.00    -0.354 N 
ATOM     57  N   UNL A   1      42.169  28.402  31.487  1.00  0.00    -0.248 NA
ATOM     58  C   UNL A   1      43.457  26.942  30.199  1.00  0.00     0.031 C 
ATOM     59  C   UNL A   1      42.937  29.283  35.774  1.00  0.00     0.029 A 
ATOM     60  C   UNL A   1      42.711  28.984  34.440  1.00  0.00     0.049 A 
ATOM     61  H   UNL A   1      41.302  29.819  33.112  1.00  0.00     0.167 HD
ATOM     62  C   UNL A   1      43.136  27.815  32.295  1.00  0.00     0.074 A 
ATOM     63  C   UNL A   1      43.875  26.892  31.457  1.00  0.00     0.031 C 
ATOM     64  C   UNL A   1      43.398  28.030  33.607  1.00  0.00     0.034 A 
BRANCH  51  65
ATOM     65  C   UNL A   1      39.898  32.420  36.196  1.00  0.00     0.023 A 
ATOM     66  C   UNL A   1      40.627  33.606  36.420  1.00  0.00     0.012 A 
ATOM     67  C   UNL A   1      38.867  32.063  37.086  1.00  0.00     0.148 A 
ATOM     68  C   UNL A   1      40.361  34.405  37.530  1.00  0.00     0.002 A 
ATOM     69  C   UNL A   1      38.578  32.889  38.167  1.00  0.00     0.091 A 
ATOM     70  F   UNL A   1      38.202  30.920  36.872  1.00  0.00    -0.205 F 
ATOM     71  C   UNL A   1      39.330  34.052  38.397  1.00  0.00     0.022 A 
BRANCH  69  72
ATOM     72  S   UNL A   1      37.219  32.562  39.295  1.00  0.00     0.127 S 
ATOM     73  O   UNL A   1      37.530  31.206  39.745  1.00  0.00    -0.237 OA
ATOM     74  O   UNL A   1      37.405  33.598  40.312  1.00  0.00    -0.237 OA
ATOM     75  O   UNL A   1      36.003  32.699  38.507  1.00  0.00    -0.744 OA
ENDBRANCH  69  72
ENDBRANCH  51  65
BRANCH  52  76
ATOM     76  C   UNL A   1      41.850  27.394  27.780  1.00  0.00     0.023 A 
ATOM     77  C   UNL A   1      42.350  28.117  26.679  1.00  0.00     0.012 A 
ATOM     78  C   UNL A   1      41.701  25.997  27.674  1.00  0.00     0.148 A 
ATOM     79  C   UNL A   1      42.667  27.468  25.485  1.00  0.00     0.002 A 
ATOM     80  C   UNL A   1      42.068  25.351  26.498  1.00  0.00     0.091 A 
ATOM     81  F   UNL A   1      41.214  25.329  28.728  1.00  0.00    -0.205 F 
ATOM     82  C   UNL A   1      42.537  26.085  25.398  1.00  0.00     0.022 A 
BRANCH  80  83
ATOM     83  S   UNL A   1      42.059  23.562  26.341  1.00  0.00     0.127 S 
ATOM     84  O   UNL A   1      42.640  23.375  25.015  1.00  0.00    -0.237 OA
ATOM     85  O   UNL A   1      42.919  23.156  27.454  1.00  0.00    -0.237 OA
ATOM     86  O   UNL A   1      40.664  23.164  26.485  1.00  0.00    -0.744 OA
ENDBRANCH  80  83
ENDBRANCH  52  76
BRANCH  64  87
ATOM     87  C   UNL A   1      44.508  27.232  34.238  1.00  0.00     0.023 A 
ATOM     88  C   UNL A   1      45.825  27.733  34.227  1.00  0.00     0.012 A 
ATOM     89  C   UNL A   1      44.231  26.028  34.917  1.00  0.00     0.148 A 
ATOM     90  C   UNL A   1      46.854  27.033  34.855  1.00  0.00     0.002 A 
ATOM     91  C   UNL A   1      45.252  25.361  35.582  1.00  0.00     0.091 A 
ATOM     92  F   UNL A   1      42.975  25.559  34.900  1.00  0.00    -0.205 F 
ATOM     93  C   UNL A   1      46.566  25.855  35.543  1.00  0.00     0.022 A 
BRANCH  91  94
ATOM     94  S   UNL A   1      44.955  23.893  36.573  1.00  0.00     0.127 S 
ATOM     95  O   UNL A   1      46.317  23.440  36.851  1.00  0.00    -0.237 OA
ATOM     96  O   UNL A   1      44.245  24.437  37.731  1.00  0.00    -0.237 OA
ATOM     97  O   UNL A   1      44.156  23.004  35.740  1.00  0.00    -0.744 OA
ENDBRANCH  91  94
ENDBRANCH  64  87
ENDBRANCH  38  39
ENDBRANCH  30  33
ENDBRANCH  28  29
ENDBRANCH   1  28
TORSDOF 17
ENDMDL
MODEL 3
REMARK VINA RESULT:     -11.8      6.012     11.478
REMARK SMILES Cc1cc(N(C)C2CCC(C)(C)CC2)cc(C(=O)NCCCCNC(=O)c2ccc(-c3c4nc(c(-c5cccc(S(=O)(=O)[O-])c5F)c5ccc([nH]5)c(-c5cccc(S(=O)(=O)[O-])c5F)c5nc(c(-c6cccc(S(=O)(=O)[O-])c6F)c6ccc3[nH]6)C=C5)C=C4)cc2)c1N
REMARK SMILES IDX 22 1 21 2 20 3 19 4 17 5 18 6 16 8 1 9 2 10 3 11 90 12 4 13
REMARK SMILES IDX 15 14 91 15 5 18 6 19 7 20 8 21 14 22 9 23 13 24 10 25 11 26
REMARK SMILES IDX 12 27 23 28 24 29 25 30 26 32 27 33 28 34 89 35 29 36 88 37
REMARK SMILES IDX 30 38 31 39 32 40 82 41 33 42 87 43 81 44 83 45 34 46 86 47
REMARK SMILES IDX 80 48 79 49 35 51 67 52 47 53 66 54 48 55 51 56 65 57 84 58
REMARK SMILES IDX 49 59 50 60 64 62 85 63 52 64 36 65 37 66 45 67 38 68 40 69
REMARK SMILES IDX 46 70 39 71 41 72 42 73 43 74 44 75 68 76 69 77 77 78 70 79
REMARK SMILES IDX 72 80 78 81 71 82 73 83 74 84 75 85 76 86 53 87 54 88 62 89
REMARK SMILES IDX 55 90 57 91 63 92 56 93 58 94 59 95 60 96 61 97
REMARK H PARENT 19 7 91 16 91 17 24 31 83 50 51 61
REMARK Flexibility Score: inf
ROOT
ATOM      1  C   UNL A   1      37.542  19.585  24.805  1.00  0.00     0.023 C 
ENDROOT
BRANCH   1   2
ATOM      2  C   UNL A   1      36.187  20.279  24.953  1.00  0.00     0.023 C 
BRANCH   2   3
ATOM      3  C   UNL A   1      36.241  21.531  25.830  1.00  0.00     0.116 C 
BRANCH   3   4
ATOM      4  N   UNL A   1      35.164  21.478  26.798  1.00  0.00    -0.352 N 
ATOM      5  C   UNL A   1      33.880  21.967  26.741  1.00  0.00     0.253 C 
ATOM      6  O   UNL A   1      33.188  21.892  27.756  1.00  0.00    -0.269 OA
ATOM      7  H   UNL A   1      35.389  21.013  27.637  1.00  0.00     0.163 HD
BRANCH   5   8
ATOM      8  C   UNL A   1      33.293  22.439  25.452  1.00  0.00     0.065 A 
ATOM      9  C   UNL A   1      31.855  21.015  22.242  1.00  0.00     0.046 C 
ATOM     10  C   UNL A   1      32.568  21.889  23.235  1.00  0.00    -0.025 A 
ATOM     11  C   UNL A   1      32.859  23.213  22.866  1.00  0.00     0.031 A 
ATOM     12  C   UNL A   1      32.813  21.476  24.544  1.00  0.00     0.047 A 
ATOM     13  C   UNL A   1      32.970  24.231  23.809  1.00  0.00     0.038 A 
ATOM     14  C   UNL A   1      33.221  23.803  25.117  1.00  0.00     0.042 A 
BRANCH  12  15
ATOM     15  N   UNL A   1      32.496  20.184  24.946  1.00  0.00    -0.398 N 
ATOM     16  H   UNL A   1      32.817  19.414  24.425  1.00  0.00     0.156 HD
ATOM     17  H   UNL A   1      31.950  20.040  25.752  1.00  0.00     0.156 HD
ENDBRANCH  12  15
BRANCH  13  18
ATOM     18  N   UNL A   1      32.764  25.572  23.499  1.00  0.00    -0.372 N 
ATOM     19  C   UNL A   1      33.531  26.111  22.367  1.00  0.00     0.144 C 
BRANCH  18  20
ATOM     20  C   UNL A   1      31.666  26.448  24.034  1.00  0.00     0.082 C 
ATOM     21  C   UNL A   1      31.394  26.444  25.538  1.00  0.00     0.025 C 
ATOM     22  C   UNL A   1      31.835  27.938  23.647  1.00  0.00     0.025 C 
ATOM     23  C   UNL A   1      32.600  26.962  26.312  1.00  0.00     0.008 C 
ATOM     24  C   UNL A   1      32.565  28.890  24.629  1.00  0.00     0.008 C 
ATOM     25  C   UNL A   1      32.784  28.465  26.111  1.00  0.00    -0.035 C 
ATOM     26  C   UNL A   1      34.221  28.842  26.532  1.00  0.00     0.011 C 
ATOM     27  C   UNL A   1      31.814  29.187  27.070  1.00  0.00     0.011 C 
ENDBRANCH  18  20
ENDBRANCH  13  18
ENDBRANCH   5   8
ENDBRANCH   3   4
ENDBRANCH   2   3
ENDBRANCH   1   2
BRANCH   1  28
ATOM     28  C   UNL A   1      38.634  20.161  25.693  1.00  0.00     0.116 C 
BRANCH  28  29
ATOM     29  N   UNL A   1      39.792  19.284  25.813  1.00  0.00    -0.352 N 
ATOM     30  C   UNL A   1      41.060  19.631  26.208  1.00  0.00     0.251 C 
ATOM     31  H   UNL A   1      39.649  18.337  25.585  1.00  0.00     0.163 HD
ATOM     32  O   UNL A   1      41.981  18.822  26.170  1.00  0.00    -0.269 OA
BRANCH  30  33
ATOM     33  C   UNL A   1      41.288  21.022  26.636  1.00  0.00     0.039 A 
ATOM     34  C   UNL A   1      42.013  21.259  27.803  1.00  0.00     0.014 A 
ATOM     35  C   UNL A   1      40.895  22.073  25.803  1.00  0.00     0.014 A 
ATOM     36  C   UNL A   1      42.409  22.562  28.103  1.00  0.00     0.010 A 
ATOM     37  C   UNL A   1      41.351  23.357  26.067  1.00  0.00     0.010 A 
ATOM     38  C   UNL A   1      42.115  23.613  27.218  1.00  0.00    -0.014 A 
BRANCH  38  39
ATOM     39  C   UNL A   1      42.621  24.985  27.460  1.00  0.00     0.031 A 
ATOM     40  C   UNL A   1      41.758  25.989  28.171  1.00  0.00     0.074 A 
ATOM     41  C   UNL A   1      43.814  25.351  26.951  1.00  0.00     0.049 A 
ATOM     42  N   UNL A   1      42.005  27.246  28.431  1.00  0.00    -0.248 NA
ATOM     43  C   UNL A   1      40.433  25.531  28.621  1.00  0.00     0.031 C 
ATOM     44  C   UNL A   1      44.697  24.491  26.160  1.00  0.00     0.029 A 
ATOM     45  N   UNL A   1      44.476  26.552  26.999  1.00  0.00    -0.354 N 
ATOM     46  C   UNL A   1      40.858  27.737  29.041  1.00  0.00     0.074 A 
ATOM     47  C   UNL A   1      39.900  26.654  29.078  1.00  0.00     0.031 C 
ATOM     48  C   UNL A   1      45.786  25.189  25.802  1.00  0.00     0.029 A 
ATOM     49  C   UNL A   1      45.670  26.551  26.315  1.00  0.00     0.049 A 
ATOM     50  H   UNL A   1      44.130  27.339  27.476  1.00  0.00     0.167 HD
ATOM     51  C   UNL A   1      40.633  28.968  29.555  1.00  0.00     0.034 A 
ATOM     52  C   UNL A   1      46.568  27.537  26.123  1.00  0.00     0.034 A 
ATOM     53  C   UNL A   1      41.606  30.026  29.557  1.00  0.00     0.049 A 
ATOM     54  C   UNL A   1      46.319  28.880  26.755  1.00  0.00     0.074 A 
ATOM     55  C   UNL A   1      41.515  31.278  30.139  1.00  0.00     0.029 A 
ATOM     56  N   UNL A   1      42.848  29.958  28.944  1.00  0.00    -0.354 N 
ATOM     57  N   UNL A   1      45.302  29.273  27.482  1.00  0.00    -0.248 NA
ATOM     58  C   UNL A   1      47.359  29.903  26.573  1.00  0.00     0.031 C 
ATOM     59  C   UNL A   1      42.696  31.974  29.861  1.00  0.00     0.029 A 
ATOM     60  C   UNL A   1      43.530  31.148  29.125  1.00  0.00     0.049 A 
ATOM     61  H   UNL A   1      43.192  29.179  28.451  1.00  0.00     0.167 HD
ATOM     62  C   UNL A   1      45.594  30.574  27.874  1.00  0.00     0.074 A 
ATOM     63  C   UNL A   1      46.893  30.896  27.320  1.00  0.00     0.031 C 
ATOM     64  C   UNL A   1      44.848  31.431  28.614  1.00  0.00     0.034 A 
BRANCH  51  65
ATOM     65  C   UNL A   1      39.301  29.216  30.214  1.00  0.00     0.023 A 
ATOM     66  C   UNL A   1      38.978  28.531  31.403  1.00  0.00     0.012 A 
ATOM     67  C   UNL A   1      38.392  30.153  29.687  1.00  0.00     0.148 A 
ATOM     68  C   UNL A   1      37.757  28.746  32.038  1.00  0.00     0.002 A 
ATOM     69  C   UNL A   1      37.195  30.394  30.351  1.00  0.00     0.091 A 
ATOM     70  F   UNL A   1      38.704  30.777  28.542  1.00  0.00    -0.205 F 
ATOM     71  C   UNL A   1      36.870  29.685  31.518  1.00  0.00     0.022 A 
BRANCH  69  72
ATOM     72  S   UNL A   1      36.022  31.641  29.804  1.00  0.00     0.127 S 
ATOM     73  O   UNL A   1      35.136  31.741  30.964  1.00  0.00    -0.237 OA
ATOM     74  O   UNL A   1      36.884  32.805  29.594  1.00  0.00    -0.237 OA
ATOM     75  O   UNL A   1      35.413  31.113  28.592  1.00  0.00    -0.744 OA
ENDBRANCH  69  72
ENDBRANCH  51  65
BRANCH  52  76
ATOM     76  C   UNL A   1      47.823  27.263  25.369  1.00  0.00     0.023 A 
ATOM     77  C   UNL A   1      48.908  26.656  26.032  1.00  0.00     0.012 A 
ATOM     78  C   UNL A   1      47.936  27.560  23.997  1.00  0.00     0.148 A 
ATOM     79  C   UNL A   1      50.093  26.378  25.351  1.00  0.00     0.002 A 
ATOM     80  C   UNL A   1      49.102  27.231  23.313  1.00  0.00     0.091 A 
ATOM     81  F   UNL A   1      46.897  28.146  23.386  1.00  0.00    -0.205 F 
ATOM     82  C   UNL A   1      50.187  26.655  23.991  1.00  0.00     0.022 A 
BRANCH  80  83
ATOM     83  S   UNL A   1      49.262  27.431  21.535  1.00  0.00     0.127 S 
ATOM     84  O   UNL A   1      49.060  28.868  21.376  1.00  0.00    -0.237 OA
ATOM     85  O   UNL A   1      50.633  26.971  21.302  1.00  0.00    -0.237 OA
ATOM     86  O   UNL A   1      48.236  26.577  20.951  1.00  0.00    -0.744 OA
ENDBRANCH  80  83
ENDBRANCH  52  76
BRANCH  64  87
ATOM     87  C   UNL A   1      45.426  32.791  28.904  1.00  0.00     0.023 A 
ATOM     88  C   UNL A   1      46.220  32.984  30.052  1.00  0.00     0.012 A 
ATOM     89  C   UNL A   1      45.253  33.854  27.995  1.00  0.00     0.148 A 
ATOM     90  C   UNL A   1      46.809  34.222  30.305  1.00  0.00     0.002 A 
ATOM     91  C   UNL A   1      45.882  35.070  28.229  1.00  0.00     0.091 A 
ATOM     92  F   UNL A   1      44.477  33.656  26.919  1.00  0.00    -0.205 F 
ATOM     93  C   UNL A   1      46.650  35.260  29.389  1.00  0.00     0.022 A 
BRANCH  91  94
ATOM     94  S   UNL A   1      45.813  36.429  27.056  1.00  0.00     0.127 S 
ATOM     95  O   UNL A   1      46.381  35.816  25.857  1.00  0.00    -0.237 OA
ATOM     96  O   UNL A   1      44.377  36.701  26.979  1.00  0.00    -0.237 OA
ATOM     97  O   UNL A   1      46.599  37.505  27.644  1.00  0.00    -0.744 OA
ENDBRANCH  91  94
ENDBRANCH  64  87
ENDBRANCH  38  39
ENDBRANCH  30  33
ENDBRANCH  28  29
ENDBRANCH   1  28
TORSDOF 17
ENDMDL
