MODEL 1
REMARK VINA RESULT:     -12.4      0.000      0.000
REMARK SMILES O=C(NCCCCNC(=O)[C@H]1CC2(CCN(C(=O)C3CC3)CC2)CN1C(=O)CCn1cccn1)c1ccc(-c2c3nc(c(-c4cccc(S(=O)(=O)[O-])c4F)c4ccc([nH]4)c(-c4cccc(S(=O)(=O)[O-])c4F)c4nc(c(-c5cccc(S(=O)(=O)[O-])c5F)c5ccc2[nH]5)C=C4)C=C3)cc1
REMARK SMILES IDX 6 1 5 2 4 3 3 4 1 5 2 6 35 8 36 9 97 10 37 11 96 12 38 13
REMARK SMILES IDX 39 14 40 15 90 16 41 17 95 18 89 19 91 20 42 21 94 22 88 23
REMARK SMILES IDX 87 24 43 26 75 27 55 28 74 29 56 30 59 31 73 32 92 33 57 34
REMARK SMILES IDX 58 35 72 37 93 38 60 39 44 40 45 41 53 42 46 43 48 44 54 45
REMARK SMILES IDX 47 46 49 47 50 48 51 49 52 50 76 51 77 52 85 53 78 54 80 55
REMARK SMILES IDX 86 56 79 57 81 58 82 59 83 60 84 61 61 62 62 63 70 64 63 65
REMARK SMILES IDX 65 66 71 67 64 68 66 69 67 70 68 71 69 72 7 73 8 74 9 75
REMARK SMILES IDX 10 77 11 78 12 79 25 80 13 81 24 82 14 83 23 84 15 85 22 86
REMARK SMILES IDX 16 87 17 88 18 89 26 90 27 91 28 92 29 93 30 94 31 95 34 96
REMARK SMILES IDX 32 97 33 98 19 99 20 100 21 101
REMARK H PARENT 3 7 91 25 59 36 8 76
REMARK Flexibility Score: inf
ROOT
ATOM      1  C   UNL A   1      33.076  29.532  25.758  1.00  0.00     0.023 C 
ENDROOT
BRANCH   1   2
ATOM      2  C   UNL A   1      33.703  29.766  27.137  1.00  0.00     0.023 C 
BRANCH   2   3
ATOM      3  C   UNL A   1      34.221  31.184  27.380  1.00  0.00     0.116 C 
BRANCH   3   4
ATOM      4  N   UNL A   1      34.249  31.597  28.767  1.00  0.00    -0.352 N 
ATOM      5  O   UNL A   1      34.920  32.133  30.806  1.00  0.00    -0.269 OA
ATOM      6  C   UNL A   1      35.217  31.598  29.736  1.00  0.00     0.251 C 
ATOM      7  H   UNL A   1      33.388  31.955  29.081  1.00  0.00     0.163 HD
BRANCH   6   8
ATOM      8  C   UNL A   1      36.532  30.925  29.594  1.00  0.00     0.039 A 
ATOM      9  C   UNL A   1      36.724  29.541  29.580  1.00  0.00     0.014 A 
ATOM     10  C   UNL A   1      37.653  31.766  29.508  1.00  0.00     0.014 A 
ATOM     11  C   UNL A   1      38.002  29.006  29.644  1.00  0.00     0.010 A 
ATOM     12  C   UNL A   1      38.935  31.237  29.519  1.00  0.00     0.010 A 
ATOM     13  C   UNL A   1      39.103  29.858  29.646  1.00  0.00    -0.014 A 
BRANCH  13  14
ATOM     14  C   UNL A   1      40.429  29.256  29.668  1.00  0.00     0.031 A 
ATOM     15  C   UNL A   1      41.018  29.058  31.025  1.00  0.00     0.074 A 
ATOM     16  C   UNL A   1      40.997  28.760  28.551  1.00  0.00     0.049 A 
ATOM     17  N   UNL A   1      42.166  29.453  31.478  1.00  0.00    -0.248 NA
ATOM     18  C   UNL A   1      40.166  28.413  32.039  1.00  0.00     0.031 C 
ATOM     19  C   UNL A   1      40.382  28.633  27.226  1.00  0.00     0.029 A 
ATOM     20  N   UNL A   1      42.181  28.100  28.411  1.00  0.00    -0.354 N 
ATOM     21  C   UNL A   1      42.265  28.922  32.765  1.00  0.00     0.074 A 
ATOM     22  C   UNL A   1      40.956  28.433  33.111  1.00  0.00     0.031 C 
ATOM     23  C   UNL A   1      41.063  27.708  26.516  1.00  0.00     0.029 A 
ATOM     24  C   UNL A   1      42.218  27.284  27.286  1.00  0.00     0.049 A 
ATOM     25  H   UNL A   1      42.933  28.192  29.040  1.00  0.00     0.167 HD
ATOM     26  C   UNL A   1      43.461  28.710  33.379  1.00  0.00     0.034 A 
ATOM     27  C   UNL A   1      43.064  26.250  27.064  1.00  0.00     0.034 A 
ATOM     28  C   UNL A   1      44.525  29.465  32.779  1.00  0.00     0.049 A 
ATOM     29  C   UNL A   1      44.226  26.416  27.966  1.00  0.00     0.074 A 
ATOM     30  C   UNL A   1      44.788  30.804  32.575  1.00  0.00     0.029 A 
ATOM     31  N   UNL A   1      45.405  28.784  31.976  1.00  0.00    -0.354 N 
ATOM     32  N   UNL A   1      45.085  27.390  27.865  1.00  0.00    -0.248 NA
ATOM     33  C   UNL A   1      44.208  25.723  29.243  1.00  0.00     0.031 C 
ATOM     34  C   UNL A   1      45.458  30.857  31.317  1.00  0.00     0.029 A 
ATOM     35  C   UNL A   1      45.587  29.547  30.853  1.00  0.00     0.049 A 
ATOM     36  H   UNL A   1      45.825  27.916  32.170  1.00  0.00     0.167 HD
ATOM     37  C   UNL A   1      45.393  27.718  29.178  1.00  0.00     0.074 A 
ATOM     38  C   UNL A   1      44.919  26.587  29.972  1.00  0.00     0.031 C 
ATOM     39  C   UNL A   1      45.736  28.995  29.526  1.00  0.00     0.034 A 
BRANCH  26  40
ATOM     40  C   UNL A   1      43.748  27.551  34.309  1.00  0.00     0.023 A 
ATOM     41  C   UNL A   1      44.301  27.847  35.575  1.00  0.00     0.012 A 
ATOM     42  C   UNL A   1      43.772  26.198  33.898  1.00  0.00     0.148 A 
ATOM     43  C   UNL A   1      44.892  26.856  36.367  1.00  0.00     0.002 A 
ATOM     44  C   UNL A   1      44.289  25.206  34.725  1.00  0.00     0.091 A 
ATOM     45  F   UNL A   1      43.428  25.870  32.650  1.00  0.00    -0.205 F 
ATOM     46  C   UNL A   1      44.879  25.533  35.947  1.00  0.00     0.022 A 
BRANCH  44  47
ATOM     47  S   UNL A   1      44.237  23.477  34.239  1.00  0.00     0.127 S 
ATOM     48  O   UNL A   1      44.888  23.525  32.928  1.00  0.00    -0.237 OA
ATOM     49  O   UNL A   1      45.033  22.844  35.296  1.00  0.00    -0.237 OA
ATOM     50  O   UNL A   1      42.834  23.115  34.256  1.00  0.00    -0.744 OA
ENDBRANCH  44  47
ENDBRANCH  26  40
BRANCH  27  51
ATOM     51  C   UNL A   1      42.788  24.981  26.353  1.00  0.00     0.023 A 
ATOM     52  C   UNL A   1      43.661  24.539  25.342  1.00  0.00     0.012 A 
ATOM     53  C   UNL A   1      41.807  24.081  26.830  1.00  0.00     0.148 A 
ATOM     54  C   UNL A   1      43.569  23.237  24.832  1.00  0.00     0.002 A 
ATOM     55  C   UNL A   1      41.707  22.796  26.308  1.00  0.00     0.091 A 
ATOM     56  F   UNL A   1      41.034  24.453  27.859  1.00  0.00    -0.205 F 
ATOM     57  C   UNL A   1      42.594  22.367  25.315  1.00  0.00     0.022 A 
BRANCH  55  58
ATOM     58  S   UNL A   1      40.473  21.624  26.888  1.00  0.00     0.127 S 
ATOM     59  O   UNL A   1      40.799  21.521  28.311  1.00  0.00    -0.237 OA
ATOM     60  O   UNL A   1      39.227  22.327  26.595  1.00  0.00    -0.237 OA
ATOM     61  O   UNL A   1      40.703  20.399  26.133  1.00  0.00    -0.744 OA
ENDBRANCH  55  58
ENDBRANCH  27  51
BRANCH  39  62
ATOM     62  C   UNL A   1      45.985  29.990  28.418  1.00  0.00     0.023 A 
ATOM     63  C   UNL A   1      44.925  30.673  27.784  1.00  0.00     0.012 A 
ATOM     64  C   UNL A   1      47.306  30.383  28.142  1.00  0.00     0.148 A 
ATOM     65  C   UNL A   1      45.174  31.703  26.876  1.00  0.00     0.002 A 
ATOM     66  C   UNL A   1      47.548  31.439  27.270  1.00  0.00     0.091 A 
ATOM     67  F   UNL A   1      48.303  29.738  28.766  1.00  0.00    -0.205 F 
ATOM     68  C   UNL A   1      46.486  32.095  26.627  1.00  0.00     0.022 A 
BRANCH  66  69
ATOM     69  S   UNL A   1      49.202  32.081  27.003  1.00  0.00     0.127 S 
ATOM     70  O   UNL A   1      49.608  32.455  28.357  1.00  0.00    -0.237 OA
ATOM     71  O   UNL A   1      49.905  30.920  26.454  1.00  0.00    -0.237 OA
ATOM     72  O   UNL A   1      49.058  33.186  26.063  1.00  0.00    -0.744 OA
ENDBRANCH  66  69
ENDBRANCH  39  62
ENDBRANCH  13  14
ENDBRANCH   6   8
ENDBRANCH   3   4
ENDBRANCH   2   3
ENDBRANCH   1   2
BRANCH   1  73
ATOM     73  C   UNL A   1      33.257  28.121  25.201  1.00  0.00     0.116 C 
BRANCH  73  74
ATOM     74  N   UNL A   1      33.195  27.132  26.257  1.00  0.00    -0.354 N 
ATOM     75  C   UNL A   1      32.475  25.979  26.174  1.00  0.00     0.242 C 
ATOM     76  H   UNL A   1      33.704  27.303  27.083  1.00  0.00     0.163 HD
ATOM     77  O   UNL A   1      31.518  25.845  26.933  1.00  0.00    -0.273 OA
BRANCH  75  78
ATOM     78  C   UNL A   1      32.835  24.964  25.079  1.00  0.00     0.175 C 
ATOM     79  C   UNL A   1      32.903  23.477  25.451  1.00  0.00     0.044 C 
ATOM     80  N   UNL A   1      32.142  24.882  23.777  1.00  0.00    -0.330 N 
ATOM     81  C   UNL A   1      33.185  22.756  24.099  1.00  0.00    -0.006 C 
ATOM     82  C   UNL A   1      32.836  23.833  23.033  1.00  0.00     0.127 C 
ATOM     83  C   UNL A   1      32.303  21.508  23.894  1.00  0.00     0.030 C 
ATOM     84  C   UNL A   1      34.661  22.324  24.014  1.00  0.00     0.030 C 
ATOM     85  C   UNL A   1      32.674  20.337  24.803  1.00  0.00     0.120 C 
ATOM     86  C   UNL A   1      34.981  21.163  24.962  1.00  0.00     0.120 C 
ATOM     87  N   UNL A   1      34.097  20.017  24.733  1.00  0.00    -0.342 N 
ATOM     88  C   UNL A   1      34.704  18.760  24.639  1.00  0.00     0.225 C 
ATOM     89  O   UNL A   1      35.928  18.651  24.723  1.00  0.00    -0.275 OA
BRANCH  80  90
ATOM     90  C   UNL A   1      30.786  25.052  23.515  1.00  0.00     0.225 C 
ATOM     91  O   UNL A   1      30.101  24.135  23.045  1.00  0.00    -0.275 OA
BRANCH  90  92
ATOM     92  C   UNL A   1      30.110  26.391  23.701  1.00  0.00     0.124 C 
BRANCH  92  93
ATOM     93  C   UNL A   1      30.589  27.458  22.726  1.00  0.00     0.154 C 
BRANCH  93  94
ATOM     94  N   UNL A   1      29.914  28.737  22.792  1.00  0.00    -0.272 N 
ATOM     95  C   UNL A   1      30.118  29.711  23.732  1.00  0.00     0.108 A 
ATOM     96  N   UNL A   1      28.876  29.009  21.975  1.00  0.00    -0.182 NA
ATOM     97  C   UNL A   1      29.186  30.691  23.481  1.00  0.00     0.042 A 
ATOM     98  C   UNL A   1      28.436  30.197  22.401  1.00  0.00     0.135 A 
ENDBRANCH  93  94
ENDBRANCH  92  93
ENDBRANCH  90  92
ENDBRANCH  80  90
BRANCH  88  99
ATOM     99  C   UNL A   1      33.988  17.472  24.386  1.00  0.00     0.079 C 
ATOM    100  C   UNL A   1      34.296  16.068  24.813  1.00  0.00     0.014 C 
ATOM    101  C   UNL A   1      33.157  16.814  25.459  1.00  0.00     0.014 C 
ENDBRANCH  88  99
ENDBRANCH  75  78
ENDBRANCH  73  74
ENDBRANCH   1  73
TORSDOF 19
ENDMDL
MODEL 2
REMARK VINA RESULT:     -12.3      3.344      9.354
REMARK SMILES O=C(NCCCCNC(=O)[C@H]1CC2(CCN(C(=O)C3CC3)CC2)CN1C(=O)CCn1cccn1)c1ccc(-c2c3nc(c(-c4cccc(S(=O)(=O)[O-])c4F)c4ccc([nH]4)c(-c4cccc(S(=O)(=O)[O-])c4F)c4nc(c(-c5cccc(S(=O)(=O)[O-])c5F)c5ccc2[nH]5)C=C4)C=C3)cc1
REMARK SMILES IDX 6 1 5 2 4 3 3 4 1 5 2 6 35 8 36 9 97 10 37 11 96 12 38 13
REMARK SMILES IDX 39 14 40 15 90 16 41 17 95 18 89 19 91 20 42 21 94 22 88 23
REMARK SMILES IDX 87 24 43 26 75 27 55 28 74 29 56 30 59 31 73 32 92 33 57 34
REMARK SMILES IDX 58 35 72 37 93 38 60 39 44 40 45 41 53 42 46 43 48 44 54 45
REMARK SMILES IDX 47 46 49 47 50 48 51 49 52 50 76 51 77 52 85 53 78 54 80 55
REMARK SMILES IDX 86 56 79 57 81 58 82 59 83 60 84 61 61 62 62 63 70 64 63 65
REMARK SMILES IDX 65 66 71 67 64 68 66 69 67 70 68 71 69 72 7 73 8 74 9 75
REMARK SMILES IDX 10 77 11 78 12 79 25 80 13 81 24 82 14 83 23 84 15 85 22 86
REMARK SMILES IDX 16 87 17 88 18 89 26 90 27 91 28 92 29 93 30 94 31 95 34 96
REMARK SMILES IDX 32 97 33 98 19 99 20 100 21 101
REMARK H PARENT 3 7 91 25 59 36 8 76
REMARK Flexibility Score: inf
ROOT
ATOM      1  C   UNL A   1      37.391  23.425  26.066  1.00  0.00     0.023 C 
ENDROOT
BRANCH   1   2
ATOM      2  C   UNL A   1      38.298  22.221  25.793  1.00  0.00     0.023 C 
BRANCH   2   3
ATOM      3  C   UNL A   1      39.519  22.111  26.706  1.00  0.00     0.116 C 
BRANCH   3   4
ATOM      4  N   UNL A   1      40.793  22.340  26.057  1.00  0.00    -0.352 N 
ATOM      5  O   UNL A   1      42.789  23.131  25.525  1.00  0.00    -0.269 OA
ATOM      6  C   UNL A   1      41.755  23.307  26.173  1.00  0.00     0.251 C 
ATOM      7  H   UNL A   1      41.015  21.652  25.389  1.00  0.00     0.163 HD
BRANCH   6   8
ATOM      8  C   UNL A   1      41.580  24.563  26.945  1.00  0.00     0.039 A 
ATOM      9  C   UNL A   1      40.732  25.612  26.582  1.00  0.00     0.014 A 
ATOM     10  C   UNL A   1      42.365  24.693  28.101  1.00  0.00     0.014 A 
ATOM     11  C   UNL A   1      40.782  26.823  27.255  1.00  0.00     0.010 A 
ATOM     12  C   UNL A   1      42.382  25.885  28.812  1.00  0.00     0.010 A 
ATOM     13  C   UNL A   1      41.632  26.966  28.348  1.00  0.00    -0.014 A 
BRANCH  13  14
ATOM     14  C   UNL A   1      41.622  28.239  29.055  1.00  0.00     0.031 A 
ATOM     15  C   UNL A   1      42.614  29.245  28.574  1.00  0.00     0.074 A 
ATOM     16  C   UNL A   1      40.667  28.537  29.959  1.00  0.00     0.049 A 
ATOM     17  N   UNL A   1      43.509  29.892  29.252  1.00  0.00    -0.248 NA
ATOM     18  C   UNL A   1      42.674  29.487  27.122  1.00  0.00     0.031 C 
ATOM     19  C   UNL A   1      39.479  27.742  30.286  1.00  0.00     0.029 A 
ATOM     20  N   UNL A   1      40.467  29.697  30.644  1.00  0.00    -0.354 N 
ATOM     21  C   UNL A   1      44.099  30.776  28.346  1.00  0.00     0.074 A 
ATOM     22  C   UNL A   1      43.663  30.375  27.035  1.00  0.00     0.031 C 
ATOM     23  C   UNL A   1      38.563  28.546  30.868  1.00  0.00     0.029 A 
ATOM     24  C   UNL A   1      39.150  29.859  31.062  1.00  0.00     0.049 A 
ATOM     25  H   UNL A   1      41.179  30.352  30.826  1.00  0.00     0.167 HD
ATOM     26  C   UNL A   1      44.726  31.918  28.742  1.00  0.00     0.034 A 
ATOM     27  C   UNL A   1      38.554  31.020  31.424  1.00  0.00     0.034 A 
ATOM     28  C   UNL A   1      45.088  31.889  30.131  1.00  0.00     0.049 A 
ATOM     29  C   UNL A   1      39.620  31.991  31.756  1.00  0.00     0.074 A 
ATOM     30  C   UNL A   1      45.890  31.093  30.923  1.00  0.00     0.029 A 
ATOM     31  N   UNL A   1      44.322  32.626  30.998  1.00  0.00    -0.354 N 
ATOM     32  N   UNL A   1      40.422  31.864  32.775  1.00  0.00    -0.248 NA
ATOM     33  C   UNL A   1      40.065  32.904  30.717  1.00  0.00     0.031 C 
ATOM     34  C   UNL A   1      45.223  31.038  32.182  1.00  0.00     0.029 A 
ATOM     35  C   UNL A   1      44.077  31.830  32.085  1.00  0.00     0.049 A 
ATOM     36  H   UNL A   1      44.009  33.549  30.865  1.00  0.00     0.167 HD
ATOM     37  C   UNL A   1      41.649  32.320  32.311  1.00  0.00     0.074 A 
ATOM     38  C   UNL A   1      41.340  33.053  31.085  1.00  0.00     0.031 C 
ATOM     39  C   UNL A   1      42.821  31.816  32.800  1.00  0.00     0.034 A 
BRANCH  26  40
ATOM     40  C   UNL A   1      44.706  33.214  27.962  1.00  0.00     0.023 A 
ATOM     41  C   UNL A   1      45.902  33.616  27.327  1.00  0.00     0.012 A 
ATOM     42  C   UNL A   1      43.677  34.180  28.062  1.00  0.00     0.148 A 
ATOM     43  C   UNL A   1      46.083  34.924  26.862  1.00  0.00     0.002 A 
ATOM     44  C   UNL A   1      43.833  35.454  27.527  1.00  0.00     0.091 A 
ATOM     45  F   UNL A   1      42.591  33.928  28.799  1.00  0.00    -0.205 F 
ATOM     46  C   UNL A   1      45.045  35.842  26.954  1.00  0.00     0.022 A 
BRANCH  44  47
ATOM     47  S   UNL A   1      42.493  36.649  27.576  1.00  0.00     0.127 S 
ATOM     48  O   UNL A   1      42.506  37.040  28.988  1.00  0.00    -0.237 OA
ATOM     49  O   UNL A   1      42.974  37.679  26.650  1.00  0.00    -0.237 OA
ATOM     50  O   UNL A   1      41.322  35.933  27.112  1.00  0.00    -0.744 OA
ENDBRANCH  44  47
ENDBRANCH  26  40
BRANCH  27  51
ATOM     51  C   UNL A   1      37.149  31.431  31.206  1.00  0.00     0.023 A 
ATOM     52  C   UNL A   1      36.340  31.780  32.304  1.00  0.00     0.012 A 
ATOM     53  C   UNL A   1      36.670  31.718  29.906  1.00  0.00     0.148 A 
ATOM     54  C   UNL A   1      35.102  32.407  32.115  1.00  0.00     0.002 A 
ATOM     55  C   UNL A   1      35.432  32.323  29.722  1.00  0.00     0.091 A 
ATOM     56  F   UNL A   1      37.468  31.482  28.857  1.00  0.00    -0.205 F 
ATOM     57  C   UNL A   1      34.649  32.679  30.826  1.00  0.00     0.022 A 
BRANCH  55  58
ATOM     58  S   UNL A   1      34.789  32.702  28.086  1.00  0.00     0.127 S 
ATOM     59  O   UNL A   1      34.669  31.370  27.492  1.00  0.00    -0.237 OA
ATOM     60  O   UNL A   1      33.518  33.348  28.403  1.00  0.00    -0.237 OA
ATOM     61  O   UNL A   1      35.791  33.550  27.452  1.00  0.00    -0.744 OA
ENDBRANCH  55  58
ENDBRANCH  27  51
BRANCH  39  62
ATOM     62  C   UNL A   1      42.757  30.914  34.009  1.00  0.00     0.023 A 
ATOM     63  C   UNL A   1      42.802  31.431  35.321  1.00  0.00     0.012 A 
ATOM     64  C   UNL A   1      42.456  29.553  33.827  1.00  0.00     0.148 A 
ATOM     65  C   UNL A   1      42.582  30.609  36.427  1.00  0.00     0.002 A 
ATOM     66  C   UNL A   1      42.194  28.746  34.929  1.00  0.00     0.091 A 
ATOM     67  F   UNL A   1      42.398  29.079  32.573  1.00  0.00    -0.205 F 
ATOM     68  C   UNL A   1      42.266  29.268  36.231  1.00  0.00     0.022 A 
BRANCH  66  69
ATOM     69  S   UNL A   1      41.654  27.045  34.745  1.00  0.00     0.127 S 
ATOM     70  O   UNL A   1      40.510  27.182  33.845  1.00  0.00    -0.237 OA
ATOM     71  O   UNL A   1      42.828  26.405  34.148  1.00  0.00    -0.237 OA
ATOM     72  O   UNL A   1      41.343  26.575  36.089  1.00  0.00    -0.744 OA
ENDBRANCH  66  69
ENDBRANCH  39  62
ENDBRANCH  13  14
ENDBRANCH   6   8
ENDBRANCH   3   4
ENDBRANCH   2   3
ENDBRANCH   1   2
BRANCH   1  73
ATOM     73  C   UNL A   1      35.975  23.303  25.503  1.00  0.00     0.116 C 
BRANCH  73  74
ATOM     74  N   UNL A   1      35.841  24.042  24.265  1.00  0.00    -0.354 N 
ATOM     75  C   UNL A   1      34.699  24.080  23.525  1.00  0.00     0.242 C 
ATOM     76  H   UNL A   1      36.623  24.546  23.939  1.00  0.00     0.163 HD
ATOM     77  O   UNL A   1      34.720  23.561  22.411  1.00  0.00    -0.273 OA
BRANCH  75  78
ATOM     78  C   UNL A   1      33.432  24.675  24.158  1.00  0.00     0.175 C 
ATOM     79  C   UNL A   1      32.804  25.917  23.512  1.00  0.00     0.044 C 
ATOM     80  N   UNL A   1      32.218  23.888  24.457  1.00  0.00    -0.330 N 
ATOM     81  C   UNL A   1      31.509  26.167  24.342  1.00  0.00    -0.006 C 
ATOM     82  C   UNL A   1      31.297  24.824  25.096  1.00  0.00     0.127 C 
ATOM     83  C   UNL A   1      30.285  26.472  23.456  1.00  0.00     0.030 C 
ATOM     84  C   UNL A   1      31.708  27.345  25.314  1.00  0.00     0.030 C 
ATOM     85  C   UNL A   1      30.337  27.846  22.787  1.00  0.00     0.120 C 
ATOM     86  C   UNL A   1      31.777  28.692  24.587  1.00  0.00     0.120 C 
ATOM     87  N   UNL A   1      30.597  28.914  23.747  1.00  0.00    -0.342 N 
ATOM     88  C   UNL A   1      29.973  30.163  23.851  1.00  0.00     0.225 C 
ATOM     89  O   UNL A   1      30.401  31.010  24.636  1.00  0.00    -0.275 OA
BRANCH  80  90
ATOM     90  C   UNL A   1      31.656  22.859  23.708  1.00  0.00     0.225 C 
ATOM     91  O   UNL A   1      30.554  22.989  23.161  1.00  0.00    -0.275 OA
BRANCH  90  92
ATOM     92  C   UNL A   1      32.319  21.504  23.609  1.00  0.00     0.124 C 
BRANCH  92  93
ATOM     93  C   UNL A   1      32.150  20.648  24.856  1.00  0.00     0.154 C 
BRANCH  93  94
ATOM     94  N   UNL A   1      32.798  19.353  24.839  1.00  0.00    -0.272 N 
ATOM     95  C   UNL A   1      34.109  19.110  24.534  1.00  0.00     0.108 A 
ATOM     96  N   UNL A   1      32.077  18.223  24.984  1.00  0.00    -0.182 NA
ATOM     97  C   UNL A   1      34.257  17.742  24.525  1.00  0.00     0.042 A 
ATOM     98  C   UNL A   1      32.969  17.246  24.789  1.00  0.00     0.135 A 
ENDBRANCH  93  94
ENDBRANCH  92  93
ENDBRANCH  90  92
ENDBRANCH  80  90
BRANCH  88  99
ATOM     99  C   UNL A   1      28.749  30.582  23.102  1.00  0.00     0.079 C 
ATOM    100  C   UNL A   1      27.303  30.594  23.495  1.00  0.00     0.014 C 
ATOM    101  C   UNL A   1      28.062  31.892  23.396  1.00  0.00     0.014 C 
ENDBRANCH  88  99
ENDBRANCH  75  78
ENDBRANCH  73  74
ENDBRANCH   1  73
TORSDOF 19
ENDMDL
MODEL 3
REMARK VINA RESULT:     -12.1      1.866      2.377
REMARK SMILES O=C(NCCCCNC(=O)[C@H]1CC2(CCN(C(=O)C3CC3)CC2)CN1C(=O)CCn1cccn1)c1ccc(-c2c3nc(c(-c4cccc(S(=O)(=O)[O-])c4F)c4ccc([nH]4)c(-c4cccc(S(=O)(=O)[O-])c4F)c4nc(c(-c5cccc(S(=O)(=O)[O-])c5F)c5ccc2[nH]5)C=C4)C=C3)cc1
REMARK SMILES IDX 6 1 5 2 4 3 3 4 1 5 2 6 35 8 36 9 97 10 37 11 96 12 38 13
REMARK SMILES IDX 39 14 40 15 90 16 41 17 95 18 89 19 91 20 42 21 94 22 88 23
REMARK SMILES IDX 87 24 43 26 75 27 55 28 74 29 56 30 59 31 73 32 92 33 57 34
REMARK SMILES IDX 58 35 72 37 93 38 60 39 44 40 45 41 53 42 46 43 48 44 54 45
REMARK SMILES IDX 47 46 49 47 50 48 51 49 52 50 76 51 77 52 85 53 78 54 80 55
REMARK SMILES IDX 86 56 79 57 81 58 82 59 83 60 84 61 61 62 62 63 70 64 63 65
REMARK SMILES IDX 65 66 71 67 64 68 66 69 67 70 68 71 69 72 7 73 8 74 9 75
REMARK SMILES IDX 10 77 11 78 12 79 25 80 13 81 24 82 14 83 23 84 15 85 22 86
REMARK SMILES IDX 16 87 17 88 18 89 26 90 27 91 28 92 29 93 30 94 31 95 34 96
REMARK SMILES IDX 32 97 33 98 19 99 20 100 21 101
REMARK H PARENT 3 7 91 25 59 36 8 76
REMARK Flexibility Score: inf
ROOT
ATOM      1  C   UNL A   1      31.575  31.405  26.797  1.00  0.00     0.023 C 
ENDROOT
BRANCH   1   2
ATOM      2  C   UNL A   1      32.046  32.846  27.022  1.00  0.00     0.023 C 
BRANCH   2   3
ATOM      3  C   UNL A   1      33.447  32.983  27.618  1.00  0.00     0.116 C 
BRANCH   3   4
ATOM      4  N   UNL A   1      33.492  33.525  28.960  1.00  0.00    -0.352 N 
ATOM      5  O   UNL A   1      34.179  34.193  30.954  1.00  0.00    -0.269 OA
ATOM      6  C   UNL A   1      34.441  33.531  29.948  1.00  0.00     0.251 C 
ATOM      7  H   UNL A   1      32.664  33.991  29.217  1.00  0.00     0.163 HD
BRANCH   6   8
ATOM      8  C   UNL A   1      35.688  32.727  29.904  1.00  0.00     0.039 A 
ATOM      9  C   UNL A   1      35.745  31.334  29.992  1.00  0.00     0.014 A 
ATOM     10  C   UNL A   1      36.887  33.451  29.803  1.00  0.00     0.014 A 
ATOM     11  C   UNL A   1      36.962  30.686  30.142  1.00  0.00     0.010 A 
ATOM     12  C   UNL A   1      38.111  32.804  29.900  1.00  0.00     0.010 A 
ATOM     13  C   UNL A   1      38.139  31.429  30.129  1.00  0.00    -0.014 A 
BRANCH  13  14
ATOM     14  C   UNL A   1      39.399  30.706  30.243  1.00  0.00     0.031 A 
ATOM     15  C   UNL A   1      40.036  30.743  31.593  1.00  0.00     0.074 A 
ATOM     16  C   UNL A   1      39.857  29.923  29.246  1.00  0.00     0.049 A 
ATOM     17  N   UNL A   1      41.239  31.101  31.914  1.00  0.00    -0.248 NA
ATOM     18  C   UNL A   1      39.179  30.427  32.748  1.00  0.00     0.031 C 
ATOM     19  C   UNL A   1      39.165  29.581  28.000  1.00  0.00     0.029 A 
ATOM     20  N   UNL A   1      40.962  29.126  29.220  1.00  0.00    -0.354 N 
ATOM     21  C   UNL A   1      41.352  30.852  33.283  1.00  0.00     0.074 A 
ATOM     22  C   UNL A   1      40.021  30.593  33.766  1.00  0.00     0.031 C 
ATOM     23  C   UNL A   1      39.713  28.457  27.490  1.00  0.00     0.029 A 
ATOM     24  C   UNL A   1      40.859  28.088  28.301  1.00  0.00     0.049 A 
ATOM     25  H   UNL A   1      41.751  29.270  29.791  1.00  0.00     0.167 HD
ATOM     26  C   UNL A   1      42.552  30.650  33.893  1.00  0.00     0.034 A 
ATOM     27  C   UNL A   1      41.587  26.945  28.287  1.00  0.00     0.034 A 
ATOM     28  C   UNL A   1      43.652  31.139  33.111  1.00  0.00     0.049 A 
ATOM     29  C   UNL A   1      42.805  27.176  29.095  1.00  0.00     0.074 A 
ATOM     30  C   UNL A   1      44.035  32.367  32.610  1.00  0.00     0.029 A 
ATOM     31  N   UNL A   1      44.418  30.212  32.451  1.00  0.00    -0.354 N 
ATOM     32  N   UNL A   1      43.749  28.008  28.758  1.00  0.00    -0.248 NA
ATOM     33  C   UNL A   1      42.786  26.780  30.493  1.00  0.00     0.031 C 
ATOM     34  C   UNL A   1      44.640  32.076  31.352  1.00  0.00     0.029 A 
ATOM     35  C   UNL A   1      44.616  30.691  31.184  1.00  0.00     0.049 A 
ATOM     36  H   UNL A   1      44.761  29.366  32.819  1.00  0.00     0.167 HD
ATOM     37  C   UNL A   1      44.156  28.576  29.957  1.00  0.00     0.074 A 
ATOM     38  C   UNL A   1      43.615  27.700  30.994  1.00  0.00     0.031 C 
ATOM     39  C   UNL A   1      44.640  29.854  30.006  1.00  0.00     0.034 A 
BRANCH  26  40
ATOM     40  C   UNL A   1      42.772  29.695  35.046  1.00  0.00     0.023 A 
ATOM     41  C   UNL A   1      43.607  30.122  36.102  1.00  0.00     0.012 A 
ATOM     42  C   UNL A   1      42.441  28.320  35.005  1.00  0.00     0.148 A 
ATOM     43  C   UNL A   1      44.127  29.219  37.038  1.00  0.00     0.002 A 
ATOM     44  C   UNL A   1      42.895  27.443  35.984  1.00  0.00     0.091 A 
ATOM     45  F   UNL A   1      41.802  27.816  33.946  1.00  0.00    -0.205 F 
ATOM     46  C   UNL A   1      43.764  27.880  36.984  1.00  0.00     0.022 A 
BRANCH  44  47
ATOM     47  S   UNL A   1      42.400  25.716  35.980  1.00  0.00     0.127 S 
ATOM     48  O   UNL A   1      43.027  25.238  34.746  1.00  0.00    -0.237 OA
ATOM     49  O   UNL A   1      43.020  25.223  37.214  1.00  0.00    -0.237 OA
ATOM     50  O   UNL A   1      40.951  25.731  36.009  1.00  0.00    -0.744 OA
ENDBRANCH  44  47
ENDBRANCH  26  40
BRANCH  27  51
ATOM     51  C   UNL A   1      41.152  25.591  27.880  1.00  0.00     0.023 A 
ATOM     52  C   UNL A   1      39.784  25.258  27.893  1.00  0.00     0.012 A 
ATOM     53  C   UNL A   1      42.050  24.700  27.245  1.00  0.00     0.148 A 
ATOM     54  C   UNL A   1      39.324  24.085  27.282  1.00  0.00     0.002 A 
ATOM     55  C   UNL A   1      41.591  23.527  26.657  1.00  0.00     0.091 A 
ATOM     56  F   UNL A   1      43.338  25.049  27.138  1.00  0.00    -0.205 F 
ATOM     57  C   UNL A   1      40.225  23.221  26.664  1.00  0.00     0.022 A 
BRANCH  55  58
ATOM     58  S   UNL A   1      42.701  22.371  25.841  1.00  0.00     0.127 S 
ATOM     59  O   UNL A   1      43.040  23.093  24.614  1.00  0.00    -0.237 OA
ATOM     60  O   UNL A   1      43.789  22.264  26.809  1.00  0.00    -0.237 OA
ATOM     61  O   UNL A   1      41.922  21.159  25.624  1.00  0.00    -0.744 OA
ENDBRANCH  55  58
ENDBRANCH  27  51
BRANCH  39  62
ATOM     62  C   UNL A   1      44.929  30.553  28.700  1.00  0.00     0.023 A 
ATOM     63  C   UNL A   1      43.891  31.041  27.877  1.00  0.00     0.012 A 
ATOM     64  C   UNL A   1      46.256  30.893  28.389  1.00  0.00     0.148 A 
ATOM     65  C   UNL A   1      44.169  31.824  26.756  1.00  0.00     0.002 A 
ATOM     66  C   UNL A   1      46.527  31.710  27.297  1.00  0.00     0.091 A 
ATOM     67  F   UNL A   1      47.231  30.438  29.190  1.00  0.00    -0.205 F 
ATOM     68  C   UNL A   1      45.487  32.169  26.471  1.00  0.00     0.022 A 
BRANCH  66  69
ATOM     69  S   UNL A   1      48.185  32.299  26.947  1.00  0.00     0.127 S 
ATOM     70  O   UNL A   1      48.581  32.879  28.229  1.00  0.00    -0.237 OA
ATOM     71  O   UNL A   1      48.888  31.066  26.590  1.00  0.00    -0.237 OA
ATOM     72  O   UNL A   1      48.051  33.245  25.845  1.00  0.00    -0.744 OA
ENDBRANCH  66  69
ENDBRANCH  39  62
ENDBRANCH  13  14
ENDBRANCH   6   8
ENDBRANCH   3   4
ENDBRANCH   2   3
ENDBRANCH   1   2
BRANCH   1  73
ATOM     73  C   UNL A   1      32.691  30.404  26.500  1.00  0.00     0.116 C 
BRANCH  73  74
ATOM     74  N   UNL A   1      32.701  29.331  27.473  1.00  0.00    -0.354 N 
ATOM     75  C   UNL A   1      32.120  28.117  27.267  1.00  0.00     0.242 C 
ATOM     76  H   UNL A   1      33.155  29.489  28.333  1.00  0.00     0.163 HD
ATOM     77  O   UNL A   1      31.156  27.817  27.968  1.00  0.00    -0.273 OA
BRANCH  75  78
ATOM     78  C   UNL A   1      32.634  27.240  26.115  1.00  0.00     0.175 C 
ATOM     79  C   UNL A   1      32.561  25.715  26.266  1.00  0.00     0.044 C 
ATOM     80  N   UNL A   1      32.198  27.391  24.712  1.00  0.00    -0.330 N 
ATOM     81  C   UNL A   1      33.062  25.171  24.895  1.00  0.00    -0.006 C 
ATOM     82  C   UNL A   1      32.972  26.408  23.958  1.00  0.00     0.127 C 
ATOM     83  C   UNL A   1      32.178  24.032  24.348  1.00  0.00     0.030 C 
ATOM     84  C   UNL A   1      34.506  24.647  25.015  1.00  0.00     0.030 C 
ATOM     85  C   UNL A   1      32.315  22.721  25.123  1.00  0.00     0.120 C 
ATOM     86  C   UNL A   1      34.585  23.345  25.820  1.00  0.00     0.120 C 
ATOM     87  N   UNL A   1      33.709  22.310  25.265  1.00  0.00    -0.342 N 
ATOM     88  C   UNL A   1      34.264  21.038  25.094  1.00  0.00     0.225 C 
ATOM     89  O   UNL A   1      35.443  20.828  25.382  1.00  0.00    -0.275 OA
BRANCH  80  90
ATOM     90  C   UNL A   1      30.927  27.695  24.237  1.00  0.00     0.225 C 
ATOM     91  O   UNL A   1      29.983  26.908  24.374  1.00  0.00    -0.275 OA
BRANCH  90  92
ATOM     92  C   UNL A   1      30.663  28.956  23.446  1.00  0.00     0.124 C 
BRANCH  92  93
ATOM     93  C   UNL A   1      29.189  29.330  23.366  1.00  0.00     0.154 C 
BRANCH  93  94
ATOM     94  N   UNL A   1      28.860  30.471  22.538  1.00  0.00    -0.272 N 
ATOM     95  C   UNL A   1      28.481  31.708  22.981  1.00  0.00     0.108 A 
ATOM     96  N   UNL A   1      28.754  30.341  21.200  1.00  0.00    -0.182 NA
ATOM     97  C   UNL A   1      28.153  32.437  21.861  1.00  0.00     0.042 A 
ATOM     98  C   UNL A   1      28.321  31.538  20.794  1.00  0.00     0.135 A 
ENDBRANCH  93  94
ENDBRANCH  92  93
ENDBRANCH  90  92
ENDBRANCH  80  90
BRANCH  88  99
ATOM     99  C   UNL A   1      33.551  19.853  24.525  1.00  0.00     0.079 C 
ATOM    100  C   UNL A   1      33.931  18.404  24.463  1.00  0.00     0.014 C 
ATOM    101  C   UNL A   1      32.854  18.856  25.416  1.00  0.00     0.014 C 
ENDBRANCH  88  99
ENDBRANCH  75  78
ENDBRANCH  73  74
ENDBRANCH   1  73
TORSDOF 19
ENDMDL
