MODEL 1
REMARK VINA RESULT:     -11.8      0.000      0.000
REMARK SMILES CC1(C)[C@H]2CC[C@]1(C)[C@](O)(CC(=O)NCCCCNC(=O)c1ccc(-c3c4nc(c(-c5cccc(S(=O)(=O)[O-])c5F)c5ccc([nH]5)c(-c5cccc(S(=O)(=O)[O-])c5F)c5nc(c(-c6cccc(S(=O)(=O)[O-])c6F)c6ccc3[nH]6)C=C5)C=C4)cc1)C2
REMARK SMILES IDX 17 1 16 2 15 3 14 4 12 5 13 6 11 8 9 9 1 10 2 11 3 12 4 13
REMARK SMILES IDX 7 14 5 15 85 16 6 17 8 18 10 19 18 21 19 22 20 23 21 25
REMARK SMILES IDX 22 26 23 27 84 28 24 29 83 30 25 31 26 32 27 33 77 34 28 35
REMARK SMILES IDX 82 36 76 37 78 38 29 39 81 40 75 41 74 42 30 44 62 45 42 46
REMARK SMILES IDX 61 47 43 48 46 49 60 50 79 51 44 52 45 53 59 55 80 56 47 57
REMARK SMILES IDX 31 58 32 59 40 60 33 61 35 62 41 63 34 64 36 65 37 66 38 67
REMARK SMILES IDX 39 68 63 69 64 70 72 71 65 72 67 73 73 74 66 75 68 76 69 77
REMARK SMILES IDX 70 78 71 79 48 80 49 81 57 82 50 83 52 84 58 85 51 86 53 87
REMARK SMILES IDX 54 88 55 89 56 90
REMARK H PARENT 14 7 10 20 19 24 78 43 46 54
REMARK Flexibility Score: inf
ROOT
ATOM      1  C   UNL A   1      31.753  28.693  25.340  1.00  0.00     0.023 C 
ENDROOT
BRANCH   1   2
ATOM      2  C   UNL A   1      31.535  27.433  26.168  1.00  0.00     0.023 C 
BRANCH   2   3
ATOM      3  C   UNL A   1      30.616  26.387  25.540  1.00  0.00     0.116 C 
BRANCH   3   4
ATOM      4  N   UNL A   1      30.158  25.394  26.498  1.00  0.00    -0.356 N 
ATOM      5  C   UNL A   1      30.298  24.038  26.470  1.00  0.00     0.222 C 
ATOM      6  O   UNL A   1      29.822  23.367  27.385  1.00  0.00    -0.275 OA
ATOM      7  H   UNL A   1      29.679  25.753  27.280  1.00  0.00     0.163 HD
BRANCH   5   8
ATOM      8  C   UNL A   1      31.053  23.374  25.338  1.00  0.00     0.135 C 
BRANCH   8   9
ATOM      9  C   UNL A   1      32.520  22.978  25.624  1.00  0.00     0.080 C 
ATOM     10  C   UNL A   1      36.014  22.588  23.873  1.00  0.00     0.012 C 
ATOM     11  C   UNL A   1      34.886  22.708  24.919  1.00  0.00    -0.024 C 
ATOM     12  C   UNL A   1      35.280  21.728  26.046  1.00  0.00     0.012 C 
ATOM     13  C   UNL A   1      34.663  24.155  25.402  1.00  0.00    -0.002 C 
ATOM     14  C   UNL A   1      33.414  22.627  24.364  1.00  0.00     0.002 C 
ATOM     15  C   UNL A   1      34.201  24.910  24.141  1.00  0.00     0.005 C 
ATOM     16  C   UNL A   1      33.429  24.032  26.318  1.00  0.00     0.040 C 
ATOM     17  C   UNL A   1      33.376  23.852  23.397  1.00  0.00     0.010 C 
ATOM     18  C   UNL A   1      33.061  21.325  23.661  1.00  0.00     0.015 C 
BRANCH   9  19
ATOM     19  O   UNL A   1      32.436  21.830  26.490  1.00  0.00    -0.389 OA
ATOM     20  H   UNL A   1      32.758  22.067  27.374  1.00  0.00     0.211 HD
ENDBRANCH   9  19
ENDBRANCH   8   9
ENDBRANCH   5   8
ENDBRANCH   3   4
ENDBRANCH   2   3
ENDBRANCH   1   2
BRANCH   1  21
ATOM     21  C   UNL A   1      32.974  29.495  25.744  1.00  0.00     0.116 C 
BRANCH  21  22
ATOM     22  N   UNL A   1      32.632  30.828  26.229  1.00  0.00    -0.352 N 
ATOM     23  C   UNL A   1      33.257  31.579  27.194  1.00  0.00     0.251 C 
ATOM     24  H   UNL A   1      31.847  31.246  25.807  1.00  0.00     0.163 HD
ATOM     25  O   UNL A   1      32.749  32.622  27.596  1.00  0.00    -0.269 OA
BRANCH  23  26
ATOM     26  C   UNL A   1      34.533  31.097  27.756  1.00  0.00     0.039 A 
ATOM     27  C   UNL A   1      35.563  32.009  27.995  1.00  0.00     0.014 A 
ATOM     28  C   UNL A   1      34.678  29.753  28.103  1.00  0.00     0.014 A 
ATOM     29  C   UNL A   1      36.717  31.579  28.653  1.00  0.00     0.010 A 
ATOM     30  C   UNL A   1      35.778  29.353  28.846  1.00  0.00     0.010 A 
ATOM     31  C   UNL A   1      36.816  30.258  29.115  1.00  0.00    -0.014 A 
BRANCH  31  32
ATOM     32  C   UNL A   1      37.997  29.780  29.874  1.00  0.00     0.031 A 
ATOM     33  C   UNL A   1      38.244  30.296  31.265  1.00  0.00     0.074 A 
ATOM     34  C   UNL A   1      38.901  28.980  29.274  1.00  0.00     0.049 A 
ATOM     35  N   UNL A   1      39.265  30.089  32.053  1.00  0.00    -0.248 NA
ATOM     36  C   UNL A   1      37.227  31.202  31.831  1.00  0.00     0.031 C 
ATOM     37  C   UNL A   1      38.820  28.491  27.895  1.00  0.00     0.029 A 
ATOM     38  N   UNL A   1      40.083  28.461  29.740  1.00  0.00    -0.354 N 
ATOM     39  C   UNL A   1      39.039  30.872  33.179  1.00  0.00     0.074 A 
ATOM     40  C   UNL A   1      37.806  31.591  32.957  1.00  0.00     0.031 C 
ATOM     41  C   UNL A   1      39.901  27.739  27.630  1.00  0.00     0.029 A 
ATOM     42  C   UNL A   1      40.763  27.713  28.807  1.00  0.00     0.049 A 
ATOM     43  H   UNL A   1      40.412  28.609  30.655  1.00  0.00     0.167 HD
ATOM     44  C   UNL A   1      39.771  30.956  34.314  1.00  0.00     0.034 A 
ATOM     45  C   UNL A   1      41.948  27.079  28.893  1.00  0.00     0.034 A 
ATOM     46  C   UNL A   1      40.954  30.180  34.559  1.00  0.00     0.049 A 
ATOM     47  C   UNL A   1      42.702  27.123  30.195  1.00  0.00     0.074 A 
ATOM     48  C   UNL A   1      41.709  30.105  35.715  1.00  0.00     0.029 A 
ATOM     49  N   UNL A   1      41.551  29.338  33.633  1.00  0.00    -0.354 N 
ATOM     50  N   UNL A   1      42.387  27.737  31.310  1.00  0.00    -0.248 NA
ATOM     51  C   UNL A   1      43.955  26.359  30.266  1.00  0.00     0.031 C 
ATOM     52  C   UNL A   1      42.770  29.222  35.484  1.00  0.00     0.029 A 
ATOM     53  C   UNL A   1      42.665  28.738  34.190  1.00  0.00     0.049 A 
ATOM     54  H   UNL A   1      41.228  29.189  32.715  1.00  0.00     0.167 HD
ATOM     55  C   UNL A   1      43.381  27.405  32.223  1.00  0.00     0.074 A 
ATOM     56  C   UNL A   1      44.298  26.518  31.537  1.00  0.00     0.031 C 
ATOM     57  C   UNL A   1      43.530  27.810  33.509  1.00  0.00     0.034 A 
BRANCH  44  58
ATOM     58  C   UNL A   1      39.268  31.864  35.404  1.00  0.00     0.023 A 
ATOM     59  C   UNL A   1      38.302  31.386  36.313  1.00  0.00     0.012 A 
ATOM     60  C   UNL A   1      39.776  33.168  35.559  1.00  0.00     0.148 A 
ATOM     61  C   UNL A   1      37.821  32.201  37.336  1.00  0.00     0.002 A 
ATOM     62  C   UNL A   1      39.324  33.961  36.609  1.00  0.00     0.091 A 
ATOM     63  F   UNL A   1      40.675  33.616  34.671  1.00  0.00    -0.205 F 
ATOM     64  C   UNL A   1      38.339  33.483  37.490  1.00  0.00     0.022 A 
BRANCH  62  65
ATOM     65  S   UNL A   1      39.986  35.597  36.939  1.00  0.00     0.127 S 
ATOM     66  O   UNL A   1      39.291  35.953  38.176  1.00  0.00    -0.237 OA
ATOM     67  O   UNL A   1      41.416  35.326  37.100  1.00  0.00    -0.237 OA
ATOM     68  O   UNL A   1      39.651  36.406  35.776  1.00  0.00    -0.744 OA
ENDBRANCH  62  65
ENDBRANCH  44  58
BRANCH  45  69
ATOM     69  C   UNL A   1      42.449  26.276  27.742  1.00  0.00     0.023 A 
ATOM     70  C   UNL A   1      43.392  26.848  26.866  1.00  0.00     0.012 A 
ATOM     71  C   UNL A   1      42.032  24.948  27.528  1.00  0.00     0.148 A 
ATOM     72  C   UNL A   1      43.888  26.125  25.780  1.00  0.00     0.002 A 
ATOM     73  C   UNL A   1      42.568  24.215  26.475  1.00  0.00     0.091 A 
ATOM     74  F   UNL A   1      41.125  24.424  28.364  1.00  0.00    -0.205 F 
ATOM     75  C   UNL A   1      43.484  24.806  25.590  1.00  0.00     0.022 A 
BRANCH  73  76
ATOM     76  S   UNL A   1      42.204  22.473  26.234  1.00  0.00     0.127 S 
ATOM     77  O   UNL A   1      40.749  22.485  26.112  1.00  0.00    -0.237 OA
ATOM     78  O   UNL A   1      42.924  22.180  24.993  1.00  0.00    -0.237 OA
ATOM     79  O   UNL A   1      42.740  21.797  27.408  1.00  0.00    -0.744 OA
ENDBRANCH  73  76
ENDBRANCH  45  69
BRANCH  57  80
ATOM     80  C   UNL A   1      44.711  27.277  34.275  1.00  0.00     0.023 A 
ATOM     81  C   UNL A   1      45.922  27.997  34.278  1.00  0.00     0.012 A 
ATOM     82  C   UNL A   1      44.592  26.117  35.064  1.00  0.00     0.148 A 
ATOM     83  C   UNL A   1      47.005  27.554  35.033  1.00  0.00     0.002 A 
ATOM     84  C   UNL A   1      45.661  25.707  35.850  1.00  0.00     0.091 A 
ATOM     85  F   UNL A   1      43.437  25.436  35.032  1.00  0.00    -0.205 F 
ATOM     86  C   UNL A   1      46.872  26.419  35.828  1.00  0.00     0.022 A 
BRANCH  84  87
ATOM     87  S   UNL A   1      45.544  24.313  36.977  1.00  0.00     0.127 S 
ATOM     88  O   UNL A   1      46.904  24.246  37.510  1.00  0.00    -0.237 OA
ATOM     89  O   UNL A   1      44.535  24.767  37.934  1.00  0.00    -0.237 OA
ATOM     90  O   UNL A   1      45.132  23.176  36.165  1.00  0.00    -0.744 OA
ENDBRANCH  84  87
ENDBRANCH  57  80
ENDBRANCH  31  32
ENDBRANCH  23  26
ENDBRANCH  21  22
ENDBRANCH   1  21
TORSDOF 16
ENDMDL
MODEL 2
REMARK VINA RESULT:     -11.8      1.497      7.842
REMARK SMILES CC1(C)[C@H]2CC[C@]1(C)[C@](O)(CC(=O)NCCCCNC(=O)c1ccc(-c3c4nc(c(-c5cccc(S(=O)(=O)[O-])c5F)c5ccc([nH]5)c(-c5cccc(S(=O)(=O)[O-])c5F)c5nc(c(-c6cccc(S(=O)(=O)[O-])c6F)c6ccc3[nH]6)C=C5)C=C4)cc1)C2
REMARK SMILES IDX 17 1 16 2 15 3 14 4 12 5 13 6 11 8 9 9 1 10 2 11 3 12 4 13
REMARK SMILES IDX 7 14 5 15 85 16 6 17 8 18 10 19 18 21 19 22 20 23 21 25
REMARK SMILES IDX 22 26 23 27 84 28 24 29 83 30 25 31 26 32 27 33 77 34 28 35
REMARK SMILES IDX 82 36 76 37 78 38 29 39 81 40 75 41 74 42 30 44 62 45 42 46
REMARK SMILES IDX 61 47 43 48 46 49 60 50 79 51 44 52 45 53 59 55 80 56 47 57
REMARK SMILES IDX 31 58 32 59 40 60 33 61 35 62 41 63 34 64 36 65 37 66 38 67
REMARK SMILES IDX 39 68 63 69 64 70 72 71 65 72 67 73 73 74 66 75 68 76 69 77
REMARK SMILES IDX 70 78 71 79 48 80 49 81 57 82 50 83 52 84 58 85 51 86 53 87
REMARK SMILES IDX 54 88 55 89 56 90
REMARK H PARENT 14 7 10 20 19 24 78 43 46 54
REMARK Flexibility Score: inf
ROOT
ATOM      1  C   UNL A   1      31.982  28.142  24.813  1.00  0.00     0.023 C 
ENDROOT
BRANCH   1   2
ATOM      2  C   UNL A   1      31.472  27.208  25.901  1.00  0.00     0.023 C 
BRANCH   2   3
ATOM      3  C   UNL A   1      30.317  26.293  25.492  1.00  0.00     0.116 C 
BRANCH   3   4
ATOM      4  N   UNL A   1      30.009  25.294  26.501  1.00  0.00    -0.356 N 
ATOM      5  C   UNL A   1      30.278  23.957  26.503  1.00  0.00     0.222 C 
ATOM      6  O   UNL A   1      29.917  23.274  27.461  1.00  0.00    -0.275 OA
ATOM      7  H   UNL A   1      29.540  25.630  27.299  1.00  0.00     0.163 HD
BRANCH   5   8
ATOM      8  C   UNL A   1      31.032  23.331  25.349  1.00  0.00     0.135 C 
BRANCH   8   9
ATOM      9  C   UNL A   1      32.520  22.991  25.598  1.00  0.00     0.080 C 
ATOM     10  C   UNL A   1      35.997  22.818  23.782  1.00  0.00     0.012 C 
ATOM     11  C   UNL A   1      34.883  22.851  24.848  1.00  0.00    -0.024 C 
ATOM     12  C   UNL A   1      35.339  21.852  25.934  1.00  0.00     0.012 C 
ATOM     13  C   UNL A   1      34.604  24.270  25.384  1.00  0.00    -0.002 C 
ATOM     14  C   UNL A   1      33.406  22.724  24.313  1.00  0.00     0.002 C 
ATOM     15  C   UNL A   1      34.088  25.046  24.159  1.00  0.00     0.005 C 
ATOM     16  C   UNL A   1      33.392  24.060  26.314  1.00  0.00     0.040 C 
ATOM     17  C   UNL A   1      33.298  23.978  23.390  1.00  0.00     0.010 C 
ATOM     18  C   UNL A   1      33.099  21.433  23.571  1.00  0.00     0.015 C 
BRANCH   9  19
ATOM     19  O   UNL A   1      32.500  21.812  26.425  1.00  0.00    -0.389 OA
ATOM     20  H   UNL A   1      33.154  21.904  27.136  1.00  0.00     0.211 HD
ENDBRANCH   9  19
ENDBRANCH   8   9
ENDBRANCH   5   8
ENDBRANCH   3   4
ENDBRANCH   2   3
ENDBRANCH   1   2
BRANCH   1  21
ATOM     21  C   UNL A   1      33.026  29.134  25.288  1.00  0.00     0.116 C 
BRANCH  21  22
ATOM     22  N   UNL A   1      32.435  30.359  25.813  1.00  0.00    -0.352 N 
ATOM     23  C   UNL A   1      32.881  31.160  26.836  1.00  0.00     0.251 C 
ATOM     24  H   UNL A   1      31.604  30.653  25.375  1.00  0.00     0.163 HD
ATOM     25  O   UNL A   1      32.182  32.076  27.259  1.00  0.00    -0.269 OA
BRANCH  23  26
ATOM     26  C   UNL A   1      34.202  30.883  27.433  1.00  0.00     0.039 A 
ATOM     27  C   UNL A   1      35.099  31.935  27.626  1.00  0.00     0.014 A 
ATOM     28  C   UNL A   1      34.517  29.591  27.857  1.00  0.00     0.014 A 
ATOM     29  C   UNL A   1      36.291  31.699  28.314  1.00  0.00     0.010 A 
ATOM     30  C   UNL A   1      35.650  29.382  28.629  1.00  0.00     0.010 A 
ATOM     31  C   UNL A   1      36.556  30.430  28.852  1.00  0.00    -0.014 A 
BRANCH  31  32
ATOM     32  C   UNL A   1      37.779  30.155  29.645  1.00  0.00     0.031 A 
ATOM     33  C   UNL A   1      38.824  29.222  29.097  1.00  0.00     0.074 A 
ATOM     34  C   UNL A   1      37.895  30.651  30.893  1.00  0.00     0.049 A 
ATOM     35  N   UNL A   1      39.908  28.770  29.669  1.00  0.00    -0.248 NA
ATOM     36  C   UNL A   1      38.599  28.690  27.740  1.00  0.00     0.031 C 
ATOM     37  C   UNL A   1      36.902  31.489  31.569  1.00  0.00     0.029 A 
ATOM     38  N   UNL A   1      38.886  30.493  31.828  1.00  0.00    -0.354 N 
ATOM     39  C   UNL A   1      40.463  27.869  28.768  1.00  0.00     0.074 A 
ATOM     40  C   UNL A   1      39.578  27.805  27.629  1.00  0.00     0.031 C 
ATOM     41  C   UNL A   1      37.338  31.778  32.806  1.00  0.00     0.029 A 
ATOM     42  C   UNL A   1      38.626  31.125  33.021  1.00  0.00     0.049 A 
ATOM     43  H   UNL A   1      39.708  29.977  31.659  1.00  0.00     0.167 HD
ATOM     44  C   UNL A   1      41.627  27.185  28.863  1.00  0.00     0.034 A 
ATOM     45  C   UNL A   1      39.345  31.172  34.159  1.00  0.00     0.034 A 
ATOM     46  C   UNL A   1      42.540  27.312  29.964  1.00  0.00     0.049 A 
ATOM     47  C   UNL A   1      40.674  30.467  34.207  1.00  0.00     0.074 A 
ATOM     48  C   UNL A   1      43.796  26.751  30.109  1.00  0.00     0.029 A 
ATOM     49  N   UNL A   1      42.298  28.058  31.107  1.00  0.00    -0.354 N 
ATOM     50  N   UNL A   1      41.263  29.754  33.279  1.00  0.00    -0.248 NA
ATOM     51  C   UNL A   1      41.456  30.604  35.444  1.00  0.00     0.031 C 
ATOM     52  C   UNL A   1      44.309  27.152  31.348  1.00  0.00     0.029 A 
ATOM     53  C   UNL A   1      43.379  27.973  31.965  1.00  0.00     0.049 A 
ATOM     54  H   UNL A   1      41.476  28.572  31.282  1.00  0.00     0.167 HD
ATOM     55  C   UNL A   1      42.496  29.386  33.803  1.00  0.00     0.074 A 
ATOM     56  C   UNL A   1      42.579  29.975  35.124  1.00  0.00     0.031 C 
ATOM     57  C   UNL A   1      43.467  28.618  33.249  1.00  0.00     0.034 A 
BRANCH  44  58
ATOM     58  C   UNL A   1      42.011  26.297  27.709  1.00  0.00     0.023 A 
ATOM     59  C   UNL A   1      42.726  26.844  26.623  1.00  0.00     0.012 A 
ATOM     60  C   UNL A   1      41.708  24.922  27.714  1.00  0.00     0.148 A 
ATOM     61  C   UNL A   1      43.100  26.047  25.543  1.00  0.00     0.002 A 
ATOM     62  C   UNL A   1      42.124  24.124  26.654  1.00  0.00     0.091 A 
ATOM     63  F   UNL A   1      41.006  24.424  28.741  1.00  0.00    -0.205 F 
ATOM     64  C   UNL A   1      42.809  24.686  25.563  1.00  0.00     0.022 A 
BRANCH  62  65
ATOM     65  S   UNL A   1      41.866  22.347  26.623  1.00  0.00     0.127 S 
ATOM     66  O   UNL A   1      40.406  22.261  26.601  1.00  0.00    -0.237 OA
ATOM     67  O   UNL A   1      42.517  21.962  25.369  1.00  0.00    -0.237 OA
ATOM     68  O   UNL A   1      42.508  21.828  27.822  1.00  0.00    -0.744 OA
ENDBRANCH  62  65
ENDBRANCH  44  58
BRANCH  45  69
ATOM     69  C   UNL A   1      38.864  31.985  35.312  1.00  0.00     0.023 A 
ATOM     70  C   UNL A   1      38.954  33.389  35.245  1.00  0.00     0.012 A 
ATOM     71  C   UNL A   1      38.288  31.389  36.450  1.00  0.00     0.148 A 
ATOM     72  C   UNL A   1      38.509  34.184  36.302  1.00  0.00     0.002 A 
ATOM     73  C   UNL A   1      37.799  32.188  37.478  1.00  0.00     0.091 A 
ATOM     74  F   UNL A   1      38.222  30.051  36.501  1.00  0.00    -0.205 F 
ATOM     75  C   UNL A   1      37.923  33.584  37.413  1.00  0.00     0.022 A 
BRANCH  73  76
ATOM     76  S   UNL A   1      36.913  31.507  38.884  1.00  0.00     0.127 S 
ATOM     77  O   UNL A   1      35.726  32.357  38.930  1.00  0.00    -0.237 OA
ATOM     78  O   UNL A   1      36.669  30.130  38.454  1.00  0.00    -0.237 OA
ATOM     79  O   UNL A   1      37.825  31.626  40.014  1.00  0.00    -0.744 OA
ENDBRANCH  73  76
ENDBRANCH  45  69
BRANCH  57  80
ATOM     80  C   UNL A   1      44.719  28.390  34.052  1.00  0.00     0.023 A 
ATOM     81  C   UNL A   1      45.798  29.288  33.930  1.00  0.00     0.012 A 
ATOM     82  C   UNL A   1      44.791  27.342  34.990  1.00  0.00     0.148 A 
ATOM     83  C   UNL A   1      46.940  29.130  34.712  1.00  0.00     0.002 A 
ATOM     84  C   UNL A   1      45.914  27.218  35.799  1.00  0.00     0.091 A 
ATOM     85  F   UNL A   1      43.761  26.487  35.076  1.00  0.00    -0.205 F 
ATOM     86  C   UNL A   1      46.994  28.105  35.654  1.00  0.00     0.022 A 
BRANCH  84  87
ATOM     87  S   UNL A   1      46.026  25.988  37.103  1.00  0.00     0.127 S 
ATOM     88  O   UNL A   1      46.350  24.780  36.346  1.00  0.00    -0.237 OA
ATOM     89  O   UNL A   1      47.120  26.504  37.926  1.00  0.00    -0.237 OA
ATOM     90  O   UNL A   1      44.727  25.987  37.763  1.00  0.00    -0.744 OA
ENDBRANCH  84  87
ENDBRANCH  57  80
ENDBRANCH  31  32
ENDBRANCH  23  26
ENDBRANCH  21  22
ENDBRANCH   1  21
TORSDOF 16
ENDMDL
MODEL 3
REMARK VINA RESULT:     -11.7      1.926      8.015
REMARK SMILES CC1(C)[C@H]2CC[C@]1(C)[C@](O)(CC(=O)NCCCCNC(=O)c1ccc(-c3c4nc(c(-c5cccc(S(=O)(=O)[O-])c5F)c5ccc([nH]5)c(-c5cccc(S(=O)(=O)[O-])c5F)c5nc(c(-c6cccc(S(=O)(=O)[O-])c6F)c6ccc3[nH]6)C=C5)C=C4)cc1)C2
REMARK SMILES IDX 17 1 16 2 15 3 14 4 12 5 13 6 11 8 9 9 1 10 2 11 3 12 4 13
REMARK SMILES IDX 7 14 5 15 85 16 6 17 8 18 10 19 18 21 19 22 20 23 21 25
REMARK SMILES IDX 22 26 23 27 84 28 24 29 83 30 25 31 26 32 27 33 77 34 28 35
REMARK SMILES IDX 82 36 76 37 78 38 29 39 81 40 75 41 74 42 30 44 62 45 42 46
REMARK SMILES IDX 61 47 43 48 46 49 60 50 79 51 44 52 45 53 59 55 80 56 47 57
REMARK SMILES IDX 31 58 32 59 40 60 33 61 35 62 41 63 34 64 36 65 37 66 38 67
REMARK SMILES IDX 39 68 63 69 64 70 72 71 65 72 67 73 73 74 66 75 68 76 69 77
REMARK SMILES IDX 70 78 71 79 48 80 49 81 57 82 50 83 52 84 58 85 51 86 53 87
REMARK SMILES IDX 54 88 55 89 56 90
REMARK H PARENT 14 7 10 20 19 24 78 43 46 54
REMARK Flexibility Score: inf
ROOT
ATOM      1  C   UNL A   1      31.932  28.550  24.874  1.00  0.00     0.023 C 
ENDROOT
BRANCH   1   2
ATOM      2  C   UNL A   1      31.555  28.543  23.399  1.00  0.00     0.023 C 
BRANCH   2   3
ATOM      3  C   UNL A   1      30.998  27.221  22.871  1.00  0.00     0.116 C 
BRANCH   3   4
ATOM      4  N   UNL A   1      31.676  26.767  21.670  1.00  0.00    -0.356 N 
ATOM      5  C   UNL A   1      32.824  26.040  21.547  1.00  0.00     0.222 C 
ATOM      6  O   UNL A   1      33.243  25.766  20.423  1.00  0.00    -0.275 OA
ATOM      7  H   UNL A   1      31.245  27.019  20.821  1.00  0.00     0.163 HD
BRANCH   5   8
ATOM      8  C   UNL A   1      33.555  25.559  22.782  1.00  0.00     0.135 C 
BRANCH   8   9
ATOM      9  C   UNL A   1      33.246  24.119  23.253  1.00  0.00     0.080 C 
ATOM     10  C   UNL A   1      34.489  21.344  25.737  1.00  0.00     0.012 C 
ATOM     11  C   UNL A   1      33.655  22.171  24.738  1.00  0.00    -0.024 C 
ATOM     12  C   UNL A   1      32.969  21.127  23.828  1.00  0.00     0.012 C 
ATOM     13  C   UNL A   1      32.671  23.138  25.428  1.00  0.00    -0.002 C 
ATOM     14  C   UNL A   1      34.400  23.371  24.038  1.00  0.00     0.002 C 
ATOM     15  C   UNL A   1      33.577  24.121  26.193  1.00  0.00     0.005 C 
ATOM     16  C   UNL A   1      32.067  23.924  24.247  1.00  0.00     0.040 C 
ATOM     17  C   UNL A   1      34.792  24.253  25.265  1.00  0.00     0.010 C 
ATOM     18  C   UNL A   1      35.606  22.979  23.200  1.00  0.00     0.015 C 
BRANCH   9  19
ATOM     19  O   UNL A   1      32.932  23.393  22.049  1.00  0.00    -0.389 OA
ATOM     20  H   UNL A   1      32.276  23.888  21.534  1.00  0.00     0.211 HD
ENDBRANCH   9  19
ENDBRANCH   8   9
ENDBRANCH   5   8
ENDBRANCH   3   4
ENDBRANCH   2   3
ENDBRANCH   1   2
BRANCH   1  21
ATOM     21  C   UNL A   1      32.972  29.590  25.242  1.00  0.00     0.116 C 
BRANCH  21  22
ATOM     22  N   UNL A   1      32.386  30.779  25.848  1.00  0.00    -0.352 N 
ATOM     23  C   UNL A   1      32.834  31.509  26.921  1.00  0.00     0.251 C 
ATOM     24  H   UNL A   1      31.555  31.104  25.431  1.00  0.00     0.163 HD
ATOM     25  O   UNL A   1      32.137  32.397  27.405  1.00  0.00    -0.269 OA
BRANCH  23  26
ATOM     26  C   UNL A   1      34.154  31.190  27.498  1.00  0.00     0.039 A 
ATOM     27  C   UNL A   1      35.105  32.204  27.633  1.00  0.00     0.014 A 
ATOM     28  C   UNL A   1      34.419  29.899  27.960  1.00  0.00     0.014 A 
ATOM     29  C   UNL A   1      36.301  31.934  28.301  1.00  0.00     0.010 A 
ATOM     30  C   UNL A   1      35.559  29.663  28.712  1.00  0.00     0.010 A 
ATOM     31  C   UNL A   1      36.519  30.673  28.878  1.00  0.00    -0.014 A 
BRANCH  31  32
ATOM     32  C   UNL A   1      37.747  30.367  29.651  1.00  0.00     0.031 A 
ATOM     33  C   UNL A   1      38.779  29.441  29.068  1.00  0.00     0.074 A 
ATOM     34  C   UNL A   1      37.877  30.827  30.911  1.00  0.00     0.049 A 
ATOM     35  N   UNL A   1      39.865  28.965  29.618  1.00  0.00    -0.248 NA
ATOM     36  C   UNL A   1      38.538  28.949  27.700  1.00  0.00     0.031 C 
ATOM     37  C   UNL A   1      36.898  31.654  31.620  1.00  0.00     0.029 A 
ATOM     38  N   UNL A   1      38.876  30.636  31.833  1.00  0.00    -0.354 N 
ATOM     39  C   UNL A   1      40.405  28.085  28.688  1.00  0.00     0.074 A 
ATOM     40  C   UNL A   1      39.509  28.060  27.556  1.00  0.00     0.031 C 
ATOM     41  C   UNL A   1      37.347  31.905  32.860  1.00  0.00     0.029 A 
ATOM     42  C   UNL A   1      38.631  31.237  33.045  1.00  0.00     0.049 A 
ATOM     43  H   UNL A   1      39.692  30.119  31.643  1.00  0.00     0.167 HD
ATOM     44  C   UNL A   1      41.564  27.390  28.753  1.00  0.00     0.034 A 
ATOM     45  C   UNL A   1      39.361  31.247  34.178  1.00  0.00     0.034 A 
ATOM     46  C   UNL A   1      42.488  27.480  29.849  1.00  0.00     0.049 A 
ATOM     47  C   UNL A   1      40.685  30.531  34.194  1.00  0.00     0.074 A 
ATOM     48  C   UNL A   1      43.740  26.905  29.967  1.00  0.00     0.029 A 
ATOM     49  N   UNL A   1      42.262  28.196  31.014  1.00  0.00    -0.354 N 
ATOM     50  N   UNL A   1      41.260  29.839  33.241  1.00  0.00    -0.248 NA
ATOM     51  C   UNL A   1      41.479  30.627  35.427  1.00  0.00     0.031 C 
ATOM     52  C   UNL A   1      44.268  27.268  31.211  1.00  0.00     0.029 A 
ATOM     53  C   UNL A   1      43.350  28.079  31.859  1.00  0.00     0.049 A 
ATOM     54  H   UNL A   1      41.446  28.711  31.210  1.00  0.00     0.167 HD
ATOM     55  C   UNL A   1      42.495  29.447  33.744  1.00  0.00     0.074 A 
ATOM     56  C   UNL A   1      42.594  29.999  35.080  1.00  0.00     0.031 C 
ATOM     57  C   UNL A   1      43.454  28.687  33.160  1.00  0.00     0.034 A 
BRANCH  44  58
ATOM     58  C   UNL A   1      41.931  26.532  27.572  1.00  0.00     0.023 A 
ATOM     59  C   UNL A   1      42.596  27.114  26.472  1.00  0.00     0.012 A 
ATOM     60  C   UNL A   1      41.661  25.150  27.562  1.00  0.00     0.148 A 
ATOM     61  C   UNL A   1      42.953  26.345  25.367  1.00  0.00     0.002 A 
ATOM     62  C   UNL A   1      42.061  24.380  26.475  1.00  0.00     0.091 A 
ATOM     63  F   UNL A   1      41.006  24.617  28.603  1.00  0.00    -0.205 F 
ATOM     64  C   UNL A   1      42.696  24.977  25.373  1.00  0.00     0.022 A 
BRANCH  62  65
ATOM     65  S   UNL A   1      41.844  22.598  26.421  1.00  0.00     0.127 S 
ATOM     66  O   UNL A   1      40.387  22.478  26.388  1.00  0.00    -0.237 OA
ATOM     67  O   UNL A   1      42.513  22.243  25.167  1.00  0.00    -0.237 OA
ATOM     68  O   UNL A   1      42.491  22.079  27.618  1.00  0.00    -0.744 OA
ENDBRANCH  62  65
ENDBRANCH  44  58
BRANCH  45  69
ATOM     69  C   UNL A   1      38.896  32.032  35.357  1.00  0.00     0.023 A 
ATOM     70  C   UNL A   1      39.008  33.436  35.332  1.00  0.00     0.012 A 
ATOM     71  C   UNL A   1      38.316  31.409  36.478  1.00  0.00     0.148 A 
ATOM     72  C   UNL A   1      38.579  34.204  36.415  1.00  0.00     0.002 A 
ATOM     73  C   UNL A   1      37.843  32.183  37.532  1.00  0.00     0.091 A 
ATOM     74  F   UNL A   1      38.230  30.072  36.489  1.00  0.00    -0.205 F 
ATOM     75  C   UNL A   1      37.987  33.580  37.510  1.00  0.00     0.022 A 
BRANCH  73  76
ATOM     76  S   UNL A   1      36.952  31.474  38.921  1.00  0.00     0.127 S 
ATOM     77  O   UNL A   1      36.753  30.097  38.477  1.00  0.00    -0.237 OA
ATOM     78  O   UNL A   1      37.911  31.637  40.014  1.00  0.00    -0.237 OA
ATOM     79  O   UNL A   1      35.746  32.279  39.062  1.00  0.00    -0.744 OA
ENDBRANCH  73  76
ENDBRANCH  45  69
BRANCH  57  80
ATOM     80  C   UNL A   1      44.712  28.427  33.944  1.00  0.00     0.023 A 
ATOM     81  C   UNL A   1      45.751  29.378  33.930  1.00  0.00     0.012 A 
ATOM     82  C   UNL A   1      44.825  27.289  34.766  1.00  0.00     0.148 A 
ATOM     83  C   UNL A   1      46.896  29.186  34.700  1.00  0.00     0.002 A 
ATOM     84  C   UNL A   1      45.949  27.126  35.566  1.00  0.00     0.091 A 
ATOM     85  F   UNL A   1      43.833  26.387  34.750  1.00  0.00    -0.205 F 
ATOM     86  C   UNL A   1      46.989  28.069  35.527  1.00  0.00     0.022 A 
BRANCH  84  87
ATOM     87  S   UNL A   1      46.108  25.769  36.731  1.00  0.00     0.127 S 
ATOM     88  O   UNL A   1      47.406  26.052  37.342  1.00  0.00    -0.237 OA
ATOM     89  O   UNL A   1      44.960  25.976  37.613  1.00  0.00    -0.237 OA
ATOM     90  O   UNL A   1      46.042  24.550  35.936  1.00  0.00    -0.744 OA
ENDBRANCH  84  87
ENDBRANCH  57  80
ENDBRANCH  31  32
ENDBRANCH  23  26
ENDBRANCH  21  22
ENDBRANCH   1  21
TORSDOF 16
ENDMDL
