MODEL 1
REMARK VINA RESULT:     -11.9      0.000      0.000
REMARK SMILES CC(C)[C@H](/N=C1\C(=O)C(=O)[C@H]1[NH+]1CCCC1)C(=O)NCCCCNC(=O)c1ccc(-c2c3nc(c(-c4cccc(S(=O)(=O)[O-])c4F)c4ccc([nH]4)c(-c4cccc(S(=O)(=O)[O-])c4F)c4nc(c(-c5cccc(S(=O)(=O)[O-])c5F)c5ccc2[nH]5)C=C4)C=C3)cc1
REMARK SMILES IDX 22 1 21 2 20 3 19 4 17 5 18 6 4 8 2 9 1 10 3 11 5 12 6 13
REMARK SMILES IDX 7 14 11 15 8 16 9 17 10 18 12 19 13 20 16 21 14 23 15 24
REMARK SMILES IDX 23 25 24 26 25 27 26 29 27 30 28 31 89 32 29 33 88 34 30 35
REMARK SMILES IDX 31 36 32 37 82 38 33 39 87 40 81 41 83 42 34 43 86 44 80 45
REMARK SMILES IDX 79 46 35 48 67 49 47 50 66 51 48 52 51 53 65 54 84 55 49 56
REMARK SMILES IDX 50 57 64 59 85 60 52 61 36 62 37 63 45 64 38 65 40 66 46 67
REMARK SMILES IDX 39 68 41 69 42 70 43 71 44 72 68 73 69 74 77 75 70 76 72 77
REMARK SMILES IDX 78 78 71 79 73 80 74 81 75 82 76 83 53 84 54 85 62 86 55 87
REMARK SMILES IDX 57 88 63 89 56 90 58 91 59 92 60 93 61 94
REMARK H PARENT 19 7 12 22 24 28 83 47 51 58
REMARK Flexibility Score: inf
ROOT
ATOM      1  C   UNL A   1      37.151  20.458  25.000  1.00  0.00     0.023 C 
ENDROOT
BRANCH   1   2
ATOM      2  C   UNL A   1      35.941  21.330  24.639  1.00  0.00     0.023 C 
BRANCH   2   3
ATOM      3  C   UNL A   1      35.888  22.699  25.312  1.00  0.00     0.116 C 
BRANCH   3   4
ATOM      4  N   UNL A   1      35.390  22.639  26.673  1.00  0.00    -0.354 N 
ATOM      5  C   UNL A   1      34.103  22.642  27.132  1.00  0.00     0.245 C 
ATOM      6  O   UNL A   1      33.928  22.496  28.346  1.00  0.00    -0.273 OA
ATOM      7  H   UNL A   1      36.082  22.589  27.370  1.00  0.00     0.163 HD
BRANCH   5   8
ATOM      8  C   UNL A   1      32.887  22.813  26.186  1.00  0.00     0.197 C 
BRANCH   8   9
ATOM      9  C   UNL A   1      31.731  23.713  26.714  1.00  0.00     0.017 C 
ATOM     10  C   UNL A   1      31.556  25.055  25.996  1.00  0.00     0.010 C 
ATOM     11  C   UNL A   1      30.358  23.043  26.845  1.00  0.00     0.010 C 
ENDBRANCH   8   9
BRANCH   8  12
ATOM     12  N   UNL A   1      32.482  21.459  25.741  1.00  0.00    -0.266 NA
ATOM     13  C   UNL A   1      32.523  21.186  24.491  1.00  0.00     0.153 C 
ATOM     14  C   UNL A   1      32.675  21.987  23.254  1.00  0.00     0.255 C 
ATOM     15  C   UNL A   1      32.219  19.895  23.718  1.00  0.00     0.314 C 
ATOM     16  O   UNL A   1      33.021  23.099  23.013  1.00  0.00    -0.283 OA
ATOM     17  C   UNL A   1      32.108  20.842  22.452  1.00  0.00     0.268 C 
ATOM     18  O   UNL A   1      31.806  20.830  21.289  1.00  0.00    -0.283 OA
BRANCH  15  19
ATOM     19  N   UNL A   1      33.278  18.861  23.624  1.00  0.00    -0.321 N 
ATOM     20  C   UNL A   1      32.902  17.687  22.829  1.00  0.00     0.263 C 
ATOM     21  C   UNL A   1      33.835  18.385  24.889  1.00  0.00     0.263 C 
ATOM     22  H   UNL A   1      34.007  19.391  23.147  1.00  0.00     0.349 HD
ATOM     23  C   UNL A   1      33.705  16.528  23.423  1.00  0.00     0.067 C 
ATOM     24  C   UNL A   1      34.627  17.173  24.442  1.00  0.00     0.067 C 
ENDBRANCH  15  19
ENDBRANCH   8  12
ENDBRANCH   5   8
ENDBRANCH   3   4
ENDBRANCH   2   3
ENDBRANCH   1   2
BRANCH   1  25
ATOM     25  C   UNL A   1      38.445  21.193  25.364  1.00  0.00     0.116 C 
BRANCH  25  26
ATOM     26  N   UNL A   1      39.426  20.351  26.029  1.00  0.00    -0.352 N 
ATOM     27  C   UNL A   1      40.475  20.699  26.847  1.00  0.00     0.251 C 
ATOM     28  H   UNL A   1      39.323  19.385  25.872  1.00  0.00     0.163 HD
ATOM     29  O   UNL A   1      41.228  19.819  27.261  1.00  0.00    -0.269 OA
BRANCH  27  30
ATOM     30  C   UNL A   1      40.736  22.114  27.194  1.00  0.00     0.039 A 
ATOM     31  C   UNL A   1      41.595  22.381  28.268  1.00  0.00     0.014 A 
ATOM     32  C   UNL A   1      40.141  23.171  26.500  1.00  0.00     0.014 A 
ATOM     33  C   UNL A   1      41.921  23.701  28.592  1.00  0.00     0.010 A 
ATOM     34  C   UNL A   1      40.490  24.489  26.806  1.00  0.00     0.010 A 
ATOM     35  C   UNL A   1      41.396  24.762  27.840  1.00  0.00    -0.014 A 
BRANCH  35  36
ATOM     36  C   UNL A   1      41.861  26.152  28.067  1.00  0.00     0.031 A 
ATOM     37  C   UNL A   1      43.244  26.581  27.680  1.00  0.00     0.074 A 
ATOM     38  C   UNL A   1      41.039  27.015  28.695  1.00  0.00     0.049 A 
ATOM     39  N   UNL A   1      43.814  27.747  27.841  1.00  0.00    -0.248 NA
ATOM     40  C   UNL A   1      44.100  25.573  27.036  1.00  0.00     0.031 C 
ATOM     41  C   UNL A   1      39.689  26.701  29.165  1.00  0.00     0.029 A 
ATOM     42  N   UNL A   1      41.224  28.324  29.061  1.00  0.00    -0.354 N 
ATOM     43  C   UNL A   1      45.104  27.610  27.347  1.00  0.00     0.074 A 
ATOM     44  C   UNL A   1      45.232  26.246  26.875  1.00  0.00     0.031 C 
ATOM     45  C   UNL A   1      39.166  27.787  29.755  1.00  0.00     0.029 A 
ATOM     46  C   UNL A   1      40.147  28.868  29.719  1.00  0.00     0.049 A 
ATOM     47  H   UNL A   1      42.050  28.826  28.870  1.00  0.00     0.167 HD
ATOM     48  C   UNL A   1      46.083  28.541  27.271  1.00  0.00     0.034 A 
ATOM     49  C   UNL A   1      39.967  30.099  30.234  1.00  0.00     0.034 A 
ATOM     50  C   UNL A   1      45.943  29.912  27.683  1.00  0.00     0.049 A 
ATOM     51  C   UNL A   1      41.059  31.121  30.108  1.00  0.00     0.074 A 
ATOM     52  C   UNL A   1      46.858  30.945  27.567  1.00  0.00     0.029 A 
ATOM     53  N   UNL A   1      44.818  30.441  28.292  1.00  0.00    -0.354 N 
ATOM     54  N   UNL A   1      42.221  31.010  29.512  1.00  0.00    -0.248 NA
ATOM     55  C   UNL A   1      40.811  32.441  30.707  1.00  0.00     0.031 C 
ATOM     56  C   UNL A   1      46.276  32.106  28.091  1.00  0.00     0.029 A 
ATOM     57  C   UNL A   1      45.012  31.787  28.559  1.00  0.00     0.049 A 
ATOM     58  H   UNL A   1      43.999  29.937  28.505  1.00  0.00     0.167 HD
ATOM     59  C   UNL A   1      42.834  32.249  29.646  1.00  0.00     0.074 A 
ATOM     60  C   UNL A   1      41.911  33.101  30.370  1.00  0.00     0.031 C 
ATOM     61  C   UNL A   1      44.062  32.637  29.225  1.00  0.00     0.034 A 
BRANCH  48  62
ATOM     62  C   UNL A   1      47.378  28.123  26.639  1.00  0.00     0.023 A 
ATOM     63  C   UNL A   1      48.490  27.884  27.469  1.00  0.00     0.012 A 
ATOM     64  C   UNL A   1      47.495  27.932  25.253  1.00  0.00     0.148 A 
ATOM     65  C   UNL A   1      49.702  27.463  26.924  1.00  0.00     0.002 A 
ATOM     66  C   UNL A   1      48.707  27.508  24.717  1.00  0.00     0.091 A 
ATOM     67  F   UNL A   1      46.435  28.183  24.468  1.00  0.00    -0.205 F 
ATOM     68  C   UNL A   1      49.812  27.271  25.549  1.00  0.00     0.022 A 
BRANCH  66  69
ATOM     69  S   UNL A   1      48.860  27.260  22.946  1.00  0.00     0.127 S 
ATOM     70  O   UNL A   1      50.307  27.282  22.751  1.00  0.00    -0.237 OA
ATOM     71  O   UNL A   1      48.244  25.948  22.735  1.00  0.00    -0.237 OA
ATOM     72  O   UNL A   1      48.108  28.371  22.376  1.00  0.00    -0.744 OA
ENDBRANCH  66  69
ENDBRANCH  48  62
BRANCH  49  73
ATOM     73  C   UNL A   1      38.657  30.448  30.843  1.00  0.00     0.023 A 
ATOM     74  C   UNL A   1      38.451  30.188  32.210  1.00  0.00     0.012 A 
ATOM     75  C   UNL A   1      37.651  31.097  30.107  1.00  0.00     0.148 A 
ATOM     76  C   UNL A   1      37.260  30.565  32.833  1.00  0.00     0.002 A 
ATOM     77  C   UNL A   1      36.481  31.500  30.743  1.00  0.00     0.091 A 
ATOM     78  F   UNL A   1      37.856  31.342  28.804  1.00  0.00    -0.205 F 
ATOM     79  C   UNL A   1      36.277  31.228  32.102  1.00  0.00     0.022 A 
BRANCH  77  80
ATOM     80  S   UNL A   1      35.266  32.452  29.829  1.00  0.00     0.127 S 
ATOM     81  O   UNL A   1      34.264  32.753  30.845  1.00  0.00    -0.237 OA
ATOM     82  O   UNL A   1      36.028  33.613  29.363  1.00  0.00    -0.237 OA
ATOM     83  O   UNL A   1      34.867  31.537  28.763  1.00  0.00    -0.744 OA
ENDBRANCH  77  80
ENDBRANCH  49  73
BRANCH  61  84
ATOM     84  C   UNL A   1      44.484  34.043  29.536  1.00  0.00     0.023 A 
ATOM     85  C   UNL A   1      45.085  34.313  30.781  1.00  0.00     0.012 A 
ATOM     86  C   UNL A   1      44.354  35.075  28.591  1.00  0.00     0.148 A 
ATOM     87  C   UNL A   1      45.543  35.595  31.081  1.00  0.00     0.002 A 
ATOM     88  C   UNL A   1      44.826  36.349  28.895  1.00  0.00     0.091 A 
ATOM     89  F   UNL A   1      43.772  34.810  27.411  1.00  0.00    -0.205 F 
ATOM     90  C   UNL A   1      45.419  36.614  30.137  1.00  0.00     0.022 A 
BRANCH  88  91
ATOM     91  S   UNL A   1      44.701  37.656  27.670  1.00  0.00     0.127 S 
ATOM     92  O   UNL A   1      45.594  37.189  26.614  1.00  0.00    -0.237 OA
ATOM     93  O   UNL A   1      43.282  37.645  27.307  1.00  0.00    -0.237 OA
ATOM     94  O   UNL A   1      45.120  38.850  28.396  1.00  0.00    -0.744 OA
ENDBRANCH  88  91
ENDBRANCH  61  84
ENDBRANCH  35  36
ENDBRANCH  27  30
ENDBRANCH  25  26
ENDBRANCH   1  25
TORSDOF 17
ENDMDL
MODEL 2
REMARK VINA RESULT:     -11.8      6.311      9.621
REMARK SMILES CC(C)[C@H](/N=C1\C(=O)C(=O)[C@H]1[NH+]1CCCC1)C(=O)NCCCCNC(=O)c1ccc(-c2c3nc(c(-c4cccc(S(=O)(=O)[O-])c4F)c4ccc([nH]4)c(-c4cccc(S(=O)(=O)[O-])c4F)c4nc(c(-c5cccc(S(=O)(=O)[O-])c5F)c5ccc2[nH]5)C=C4)C=C3)cc1
REMARK SMILES IDX 22 1 21 2 20 3 19 4 17 5 18 6 4 8 2 9 1 10 3 11 5 12 6 13
REMARK SMILES IDX 7 14 11 15 8 16 9 17 10 18 12 19 13 20 16 21 14 23 15 24
REMARK SMILES IDX 23 25 24 26 25 27 26 29 27 30 28 31 89 32 29 33 88 34 30 35
REMARK SMILES IDX 31 36 32 37 82 38 33 39 87 40 81 41 83 42 34 43 86 44 80 45
REMARK SMILES IDX 79 46 35 48 67 49 47 50 66 51 48 52 51 53 65 54 84 55 49 56
REMARK SMILES IDX 50 57 64 59 85 60 52 61 36 62 37 63 45 64 38 65 40 66 46 67
REMARK SMILES IDX 39 68 41 69 42 70 43 71 44 72 68 73 69 74 77 75 70 76 72 77
REMARK SMILES IDX 78 78 71 79 73 80 74 81 75 82 76 83 53 84 54 85 62 86 55 87
REMARK SMILES IDX 57 88 63 89 56 90 58 91 59 92 60 93 61 94
REMARK H PARENT 19 7 12 22 24 28 83 47 51 58
REMARK Flexibility Score: inf
ROOT
ATOM      1  C   UNL A   1      31.884  31.294  26.764  1.00  0.00     0.023 C 
ENDROOT
BRANCH   1   2
ATOM      2  C   UNL A   1      32.099  29.827  27.157  1.00  0.00     0.023 C 
BRANCH   2   3
ATOM      3  C   UNL A   1      32.119  28.829  26.002  1.00  0.00     0.116 C 
BRANCH   3   4
ATOM      4  N   UNL A   1      33.214  29.057  25.079  1.00  0.00    -0.354 N 
ATOM      5  C   UNL A   1      33.480  28.464  23.877  1.00  0.00     0.245 C 
ATOM      6  O   UNL A   1      34.439  28.893  23.227  1.00  0.00    -0.273 OA
ATOM      7  H   UNL A   1      33.864  29.740  25.361  1.00  0.00     0.163 HD
BRANCH   5   8
ATOM      8  C   UNL A   1      32.621  27.300  23.320  1.00  0.00     0.197 C 
BRANCH   8   9
ATOM      9  C   UNL A   1      33.381  26.232  22.479  1.00  0.00     0.017 C 
ATOM     10  C   UNL A   1      33.952  25.051  23.271  1.00  0.00     0.010 C 
ATOM     11  C   UNL A   1      32.643  25.687  21.251  1.00  0.00     0.010 C 
ENDBRANCH   8   9
BRANCH   8  12
ATOM     12  N   UNL A   1      31.439  27.903  22.659  1.00  0.00    -0.266 NA
ATOM     13  C   UNL A   1      30.286  27.724  23.184  1.00  0.00     0.153 C 
ATOM     14  C   UNL A   1      29.746  26.831  24.235  1.00  0.00     0.255 C 
ATOM     15  C   UNL A   1      28.894  28.234  22.786  1.00  0.00     0.314 C 
ATOM     16  O   UNL A   1      30.227  26.148  25.082  1.00  0.00    -0.283 OA
ATOM     17  C   UNL A   1      28.352  27.068  23.711  1.00  0.00     0.268 C 
ATOM     18  O   UNL A   1      27.334  26.519  24.038  1.00  0.00    -0.283 OA
BRANCH  15  19
ATOM     19  N   UNL A   1      28.492  29.597  23.213  1.00  0.00    -0.321 N 
ATOM     20  C   UNL A   1      27.722  30.339  22.208  1.00  0.00     0.263 C 
ATOM     21  C   UNL A   1      29.563  30.470  23.690  1.00  0.00     0.263 C 
ATOM     22  H   UNL A   1      27.901  29.370  24.012  1.00  0.00     0.349 HD
ATOM     23  C   UNL A   1      28.039  31.812  22.469  1.00  0.00     0.067 C 
ATOM     24  C   UNL A   1      28.866  31.814  23.742  1.00  0.00     0.067 C 
ENDBRANCH  15  19
ENDBRANCH   8  12
ENDBRANCH   5   8
ENDBRANCH   3   4
ENDBRANCH   2   3
ENDBRANCH   1   2
BRANCH   1  25
ATOM     25  C   UNL A   1      33.046  32.257  27.031  1.00  0.00     0.116 C 
BRANCH  25  26
ATOM     26  N   UNL A   1      32.622  33.573  27.479  1.00  0.00    -0.352 N 
ATOM     27  C   UNL A   1      33.140  34.375  28.469  1.00  0.00     0.251 C 
ATOM     28  H   UNL A   1      31.847  33.947  27.002  1.00  0.00     0.163 HD
ATOM     29  O   UNL A   1      32.583  35.440  28.727  1.00  0.00    -0.269 OA
BRANCH  27  30
ATOM     30  C   UNL A   1      34.323  33.954  29.252  1.00  0.00     0.039 A 
ATOM     31  C   UNL A   1      34.115  33.140  30.372  1.00  0.00     0.014 A 
ATOM     32  C   UNL A   1      35.618  34.358  28.916  1.00  0.00     0.014 A 
ATOM     33  C   UNL A   1      35.206  32.664  31.104  1.00  0.00     0.010 A 
ATOM     34  C   UNL A   1      36.710  33.860  29.631  1.00  0.00     0.010 A 
ATOM     35  C   UNL A   1      36.513  32.995  30.717  1.00  0.00    -0.014 A 
BRANCH  35  36
ATOM     36  C   UNL A   1      37.681  32.368  31.382  1.00  0.00     0.031 A 
ATOM     37  C   UNL A   1      38.408  31.218  30.752  1.00  0.00     0.074 A 
ATOM     38  C   UNL A   1      38.041  32.804  32.604  1.00  0.00     0.049 A 
ATOM     39  N   UNL A   1      39.424  30.539  31.218  1.00  0.00    -0.248 NA
ATOM     40  C   UNL A   1      37.933  30.769  29.435  1.00  0.00     0.031 C 
ATOM     41  C   UNL A   1      37.380  33.881  33.343  1.00  0.00     0.029 A 
ATOM     42  N   UNL A   1      39.039  32.385  33.448  1.00  0.00    -0.354 N 
ATOM     43  C   UNL A   1      39.694  29.563  30.269  1.00  0.00     0.074 A 
ATOM     44  C   UNL A   1      38.737  29.740  29.196  1.00  0.00     0.031 C 
ATOM     45  C   UNL A   1      37.990  34.040  34.528  1.00  0.00     0.029 A 
ATOM     46  C   UNL A   1      39.074  33.068  34.640  1.00  0.00     0.049 A 
ATOM     47  H   UNL A   1      39.669  31.663  33.221  1.00  0.00     0.167 HD
ATOM     48  C   UNL A   1      40.665  28.620  30.279  1.00  0.00     0.034 A 
ATOM     49  C   UNL A   1      39.889  32.932  35.703  1.00  0.00     0.034 A 
ATOM     50  C   UNL A   1      41.655  28.475  31.313  1.00  0.00     0.049 A 
ATOM     51  C   UNL A   1      40.977  31.898  35.674  1.00  0.00     0.074 A 
ATOM     52  C   UNL A   1      42.727  27.599  31.364  1.00  0.00     0.029 A 
ATOM     53  N   UNL A   1      41.695  29.224  32.477  1.00  0.00    -0.354 N 
ATOM     54  N   UNL A   1      41.302  31.077  34.705  1.00  0.00    -0.248 NA
ATOM     55  C   UNL A   1      41.821  31.783  36.872  1.00  0.00     0.031 C 
ATOM     56  C   UNL A   1      43.426  27.832  32.555  1.00  0.00     0.029 A 
ATOM     57  C   UNL A   1      42.771  28.832  33.255  1.00  0.00     0.049 A 
ATOM     58  H   UNL A   1      41.053  29.931  32.717  1.00  0.00     0.167 HD
ATOM     59  C   UNL A   1      42.399  30.362  35.168  1.00  0.00     0.074 A 
ATOM     60  C   UNL A   1      42.692  30.854  36.499  1.00  0.00     0.031 C 
ATOM     61  C   UNL A   1      43.087  29.372  34.551  1.00  0.00     0.034 A 
BRANCH  48  62
ATOM     62  C   UNL A   1      40.754  27.716  29.085  1.00  0.00     0.023 A 
ATOM     63  C   UNL A   1      39.943  26.567  29.044  1.00  0.00     0.012 A 
ATOM     64  C   UNL A   1      41.597  28.007  28.000  1.00  0.00     0.148 A 
ATOM     65  C   UNL A   1      39.972  25.718  27.938  1.00  0.00     0.002 A 
ATOM     66  C   UNL A   1      41.618  27.158  26.898  1.00  0.00     0.091 A 
ATOM     67  F   UNL A   1      42.383  29.094  28.059  1.00  0.00    -0.205 F 
ATOM     68  C   UNL A   1      40.807  26.014  26.863  1.00  0.00     0.022 A 
BRANCH  66  69
ATOM     69  S   UNL A   1      42.693  27.528  25.509  1.00  0.00     0.127 S 
ATOM     70  O   UNL A   1      42.120  28.768  24.993  1.00  0.00    -0.237 OA
ATOM     71  O   UNL A   1      44.008  27.687  26.134  1.00  0.00    -0.237 OA
ATOM     72  O   UNL A   1      42.575  26.350  24.658  1.00  0.00    -0.744 OA
ENDBRANCH  66  69
ENDBRANCH  48  62
BRANCH  49  73
ATOM     73  C   UNL A   1      39.748  33.864  36.852  1.00  0.00     0.023 A 
ATOM     74  C   UNL A   1      40.135  35.207  36.690  1.00  0.00     0.012 A 
ATOM     75  C   UNL A   1      39.170  33.456  38.066  1.00  0.00     0.148 A 
ATOM     76  C   UNL A   1      39.953  36.127  37.725  1.00  0.00     0.002 A 
ATOM     77  C   UNL A   1      38.960  34.386  39.079  1.00  0.00     0.091 A 
ATOM     78  F   UNL A   1      38.802  32.173  38.211  1.00  0.00    -0.205 F 
ATOM     79  C   UNL A   1      39.358  35.720  38.917  1.00  0.00     0.022 A 
BRANCH  77  80
ATOM     80  S   UNL A   1      38.093  33.886  40.568  1.00  0.00     0.127 S 
ATOM     81  O   UNL A   1      36.892  33.248  40.040  1.00  0.00    -0.237 OA
ATOM     82  O   UNL A   1      39.035  32.971  41.215  1.00  0.00    -0.237 OA
ATOM     83  O   UNL A   1      37.908  35.148  41.279  1.00  0.00    -0.744 OA
ENDBRANCH  77  80
ENDBRANCH  49  73
BRANCH  61  84
ATOM     84  C   UNL A   1      44.224  28.749  35.306  1.00  0.00     0.023 A 
ATOM     85  C   UNL A   1      45.525  29.254  35.117  1.00  0.00     0.012 A 
ATOM     86  C   UNL A   1      44.009  27.723  36.242  1.00  0.00     0.148 A 
ATOM     87  C   UNL A   1      46.597  28.738  35.845  1.00  0.00     0.002 A 
ATOM     88  C   UNL A   1      45.083  27.223  36.974  1.00  0.00     0.091 A 
ATOM     89  F   UNL A   1      42.767  27.242  36.408  1.00  0.00    -0.205 F 
ATOM     90  C   UNL A   1      46.377  27.726  36.778  1.00  0.00     0.022 A 
BRANCH  88  91
ATOM     91  S   UNL A   1      44.801  25.944  38.201  1.00  0.00     0.127 S 
ATOM     92  O   UNL A   1      43.861  26.584  39.118  1.00  0.00    -0.237 OA
ATOM     93  O   UNL A   1      44.225  24.847  37.421  1.00  0.00    -0.237 OA
ATOM     94  O   UNL A   1      46.134  25.668  38.724  1.00  0.00    -0.744 OA
ENDBRANCH  88  91
ENDBRANCH  61  84
ENDBRANCH  35  36
ENDBRANCH  27  30
ENDBRANCH  25  26
ENDBRANCH   1  25
TORSDOF 17
ENDMDL
MODEL 3
REMARK VINA RESULT:     -11.8      6.326     11.404
REMARK SMILES CC(C)[C@H](/N=C1\C(=O)C(=O)[C@H]1[NH+]1CCCC1)C(=O)NCCCCNC(=O)c1ccc(-c2c3nc(c(-c4cccc(S(=O)(=O)[O-])c4F)c4ccc([nH]4)c(-c4cccc(S(=O)(=O)[O-])c4F)c4nc(c(-c5cccc(S(=O)(=O)[O-])c5F)c5ccc2[nH]5)C=C4)C=C3)cc1
REMARK SMILES IDX 22 1 21 2 20 3 19 4 17 5 18 6 4 8 2 9 1 10 3 11 5 12 6 13
REMARK SMILES IDX 7 14 11 15 8 16 9 17 10 18 12 19 13 20 16 21 14 23 15 24
REMARK SMILES IDX 23 25 24 26 25 27 26 29 27 30 28 31 89 32 29 33 88 34 30 35
REMARK SMILES IDX 31 36 32 37 82 38 33 39 87 40 81 41 83 42 34 43 86 44 80 45
REMARK SMILES IDX 79 46 35 48 67 49 47 50 66 51 48 52 51 53 65 54 84 55 49 56
REMARK SMILES IDX 50 57 64 59 85 60 52 61 36 62 37 63 45 64 38 65 40 66 46 67
REMARK SMILES IDX 39 68 41 69 42 70 43 71 44 72 68 73 69 74 77 75 70 76 72 77
REMARK SMILES IDX 78 78 71 79 73 80 74 81 75 82 76 83 53 84 54 85 62 86 55 87
REMARK SMILES IDX 57 88 63 89 56 90 58 91 59 92 60 93 61 94
REMARK H PARENT 19 7 12 22 24 28 83 47 51 58
REMARK Flexibility Score: inf
ROOT
ATOM      1  C   UNL A   1      31.672  31.483  26.936  1.00  0.00     0.023 C 
ENDROOT
BRANCH   1   2
ATOM      2  C   UNL A   1      31.764  30.458  25.798  1.00  0.00     0.023 C 
BRANCH   2   3
ATOM      3  C   UNL A   1      32.895  29.440  25.914  1.00  0.00     0.116 C 
BRANCH   3   4
ATOM      4  N   UNL A   1      33.776  29.441  24.762  1.00  0.00    -0.354 N 
ATOM      5  C   UNL A   1      33.779  28.626  23.665  1.00  0.00     0.245 C 
ATOM      6  O   UNL A   1      34.586  28.882  22.765  1.00  0.00    -0.273 OA
ATOM      7  H   UNL A   1      34.476  30.133  24.772  1.00  0.00     0.163 HD
BRANCH   5   8
ATOM      8  C   UNL A   1      32.813  27.423  23.525  1.00  0.00     0.197 C 
BRANCH   8   9
ATOM      9  C   UNL A   1      33.440  26.101  22.992  1.00  0.00     0.017 C 
ATOM     10  C   UNL A   1      33.991  25.151  24.062  1.00  0.00     0.010 C 
ATOM     11  C   UNL A   1      32.583  25.291  22.012  1.00  0.00     0.010 C 
ENDBRANCH   8   9
BRANCH   8  12
ATOM     12  N   UNL A   1      31.620  27.900  22.786  1.00  0.00    -0.266 NA
ATOM     13  C   UNL A   1      30.463  27.695  23.292  1.00  0.00     0.153 C 
ATOM     14  C   UNL A   1      29.942  26.859  24.398  1.00  0.00     0.255 C 
ATOM     15  C   UNL A   1      29.057  28.090  22.818  1.00  0.00     0.314 C 
ATOM     16  O   UNL A   1      30.434  26.275  25.310  1.00  0.00    -0.283 OA
ATOM     17  C   UNL A   1      28.553  26.970  23.819  1.00  0.00     0.268 C 
ATOM     18  O   UNL A   1      27.558  26.390  24.162  1.00  0.00    -0.283 OA
BRANCH  15  19
ATOM     19  N   UNL A   1      28.566  29.457  23.121  1.00  0.00    -0.321 N 
ATOM     20  C   UNL A   1      27.728  30.042  22.069  1.00  0.00     0.263 C 
ATOM     21  C   UNL A   1      29.579  30.444  23.488  1.00  0.00     0.263 C 
ATOM     22  H   UNL A   1      28.006  29.267  23.953  1.00  0.00     0.349 HD
ATOM     23  C   UNL A   1      27.942  31.552  22.180  1.00  0.00     0.067 C 
ATOM     24  C   UNL A   1      28.789  31.735  23.427  1.00  0.00     0.067 C 
ENDBRANCH  15  19
ENDBRANCH   8  12
ENDBRANCH   5   8
ENDBRANCH   3   4
ENDBRANCH   2   3
ENDBRANCH   1   2
BRANCH   1  25
ATOM     25  C   UNL A   1      32.894  32.382  27.153  1.00  0.00     0.116 C 
BRANCH  25  26
ATOM     26  N   UNL A   1      32.556  33.736  27.561  1.00  0.00    -0.352 N 
ATOM     27  C   UNL A   1      33.130  34.536  28.520  1.00  0.00     0.251 C 
ATOM     28  H   UNL A   1      31.801  34.142  27.077  1.00  0.00     0.163 HD
ATOM     29  O   UNL A   1      32.643  35.641  28.747  1.00  0.00    -0.269 OA
BRANCH  27  30
ATOM     30  C   UNL A   1      34.292  34.068  29.309  1.00  0.00     0.039 A 
ATOM     31  C   UNL A   1      34.044  33.305  30.457  1.00  0.00     0.014 A 
ATOM     32  C   UNL A   1      35.607  34.379  28.952  1.00  0.00     0.014 A 
ATOM     33  C   UNL A   1      35.110  32.786  31.197  1.00  0.00     0.010 A 
ATOM     34  C   UNL A   1      36.673  33.837  29.675  1.00  0.00     0.010 A 
ATOM     35  C   UNL A   1      36.431  33.022  30.790  1.00  0.00    -0.014 A 
BRANCH  35  36
ATOM     36  C   UNL A   1      37.564  32.345  31.468  1.00  0.00     0.031 A 
ATOM     37  C   UNL A   1      38.060  32.814  32.803  1.00  0.00     0.074 A 
ATOM     38  C   UNL A   1      38.191  31.337  30.832  1.00  0.00     0.049 A 
ATOM     39  N   UNL A   1      39.058  32.353  33.512  1.00  0.00    -0.248 NA
ATOM     40  C   UNL A   1      37.351  33.946  33.419  1.00  0.00     0.031 C 
ATOM     41  C   UNL A   1      37.834  30.825  29.509  1.00  0.00     0.029 A 
ATOM     42  N   UNL A   1      39.271  30.577  31.205  1.00  0.00    -0.354 N 
ATOM     43  C   UNL A   1      39.120  33.154  34.644  1.00  0.00     0.074 A 
ATOM     44  C   UNL A   1      38.054  34.129  34.530  1.00  0.00     0.031 C 
ATOM     45  C   UNL A   1      38.676  29.833  29.180  1.00  0.00     0.029 A 
ATOM     46  C   UNL A   1      39.642  29.650  30.260  1.00  0.00     0.049 A 
ATOM     47  H   UNL A   1      39.736  30.685  32.066  1.00  0.00     0.167 HD
ATOM     48  C   UNL A   1      39.970  33.071  35.694  1.00  0.00     0.034 A 
ATOM     49  C   UNL A   1      40.643  28.751  30.263  1.00  0.00     0.034 A 
ATOM     50  C   UNL A   1      40.993  32.070  35.841  1.00  0.00     0.049 A 
ATOM     51  C   UNL A   1      41.554  28.660  31.453  1.00  0.00     0.074 A 
ATOM     52  C   UNL A   1      41.847  31.861  36.910  1.00  0.00     0.029 A 
ATOM     53  N   UNL A   1      41.300  31.111  34.890  1.00  0.00    -0.354 N 
ATOM     54  N   UNL A   1      41.506  29.336  32.575  1.00  0.00    -0.248 NA
ATOM     55  C   UNL A   1      42.641  27.672  31.389  1.00  0.00     0.031 C 
ATOM     56  C   UNL A   1      42.661  30.761  36.612  1.00  0.00     0.029 A 
ATOM     57  C   UNL A   1      42.332  30.306  35.346  1.00  0.00     0.049 A 
ATOM     58  H   UNL A   1      40.853  31.015  34.018  1.00  0.00     0.167 HD
ATOM     59  C   UNL A   1      42.542  28.844  33.357  1.00  0.00     0.074 A 
ATOM     60  C   UNL A   1      43.194  27.803  32.587  1.00  0.00     0.031 C 
ATOM     61  C   UNL A   1      42.930  29.236  34.594  1.00  0.00     0.034 A 
BRANCH  48  62
ATOM     62  C   UNL A   1      39.774  34.050  36.814  1.00  0.00     0.023 A 
ATOM     63  C   UNL A   1      40.151  35.391  36.613  1.00  0.00     0.012 A 
ATOM     64  C   UNL A   1      39.196  33.667  38.035  1.00  0.00     0.148 A 
ATOM     65  C   UNL A   1      39.956  36.339  37.617  1.00  0.00     0.002 A 
ATOM     66  C   UNL A   1      39.001  34.619  39.031  1.00  0.00     0.091 A 
ATOM     67  F   UNL A   1      38.862  32.381  38.223  1.00  0.00    -0.205 F 
ATOM     68  C   UNL A   1      39.378  35.955  38.826  1.00  0.00     0.022 A 
BRANCH  66  69
ATOM     69  S   UNL A   1      38.261  34.135  40.593  1.00  0.00     0.127 S 
ATOM     70  O   UNL A   1      38.069  35.421  41.259  1.00  0.00    -0.237 OA
ATOM     71  O   UNL A   1      37.017  33.478  40.186  1.00  0.00    -0.237 OA
ATOM     72  O   UNL A   1      39.247  33.237  41.178  1.00  0.00    -0.744 OA
ENDBRANCH  66  69
ENDBRANCH  48  62
BRANCH  49  73
ATOM     73  C   UNL A   1      40.778  27.808  29.122  1.00  0.00     0.023 A 
ATOM     74  C   UNL A   1      39.961  26.663  29.084  1.00  0.00     0.012 A 
ATOM     75  C   UNL A   1      41.643  28.071  28.046  1.00  0.00     0.148 A 
ATOM     76  C   UNL A   1      40.011  25.792  27.995  1.00  0.00     0.002 A 
ATOM     77  C   UNL A   1      41.661  27.216  26.948  1.00  0.00     0.091 A 
ATOM     78  F   UNL A   1      42.418  29.166  28.089  1.00  0.00    -0.205 F 
ATOM     79  C   UNL A   1      40.854  26.071  26.922  1.00  0.00     0.022 A 
BRANCH  77  80
ATOM     80  S   UNL A   1      42.664  27.636  25.522  1.00  0.00     0.127 S 
ATOM     81  O   UNL A   1      42.040  28.865  25.042  1.00  0.00    -0.237 OA
ATOM     82  O   UNL A   1      44.002  27.814  26.090  1.00  0.00    -0.237 OA
ATOM     83  O   UNL A   1      42.533  26.458  24.670  1.00  0.00    -0.744 OA
ENDBRANCH  77  80
ENDBRANCH  49  73
BRANCH  61  84
ATOM     84  C   UNL A   1      44.116  28.541  35.196  1.00  0.00     0.023 A 
ATOM     85  C   UNL A   1      45.409  28.954  34.822  1.00  0.00     0.012 A 
ATOM     86  C   UNL A   1      43.965  27.539  36.170  1.00  0.00     0.148 A 
ATOM     87  C   UNL A   1      46.534  28.372  35.404  1.00  0.00     0.002 A 
ATOM     88  C   UNL A   1      45.093  26.972  36.756  1.00  0.00     0.091 A 
ATOM     89  F   UNL A   1      42.728  27.146  36.514  1.00  0.00    -0.205 F 
ATOM     90  C   UNL A   1      46.379  27.384  36.376  1.00  0.00     0.022 A 
BRANCH  88  91
ATOM     91  S   UNL A   1      44.898  25.725  38.032  1.00  0.00     0.127 S 
ATOM     92  O   UNL A   1      46.273  25.495  38.465  1.00  0.00    -0.237 OA
ATOM     93  O   UNL A   1      44.058  26.391  39.030  1.00  0.00    -0.237 OA
ATOM     94  O   UNL A   1      44.240  24.623  37.339  1.00  0.00    -0.744 OA
ENDBRANCH  88  91
ENDBRANCH  61  84
ENDBRANCH  35  36
ENDBRANCH  27  30
ENDBRANCH  25  26
ENDBRANCH   1  25
TORSDOF 17
ENDMDL
