MODEL 1
REMARK VINA RESULT:     -11.9      0.000      0.000
REMARK SMILES CCOc1ccc(-n2ncc(C(=O)NCCCCNC(=O)c3ccc(-c4c5nc(c(-c6cccc(S(=O)(=O)[O-])c6F)c6ccc([nH]6)c(-c6cccc(S(=O)(=O)[O-])c6F)c6nc(c(-c7cccc(S(=O)(=O)[O-])c7F)c7ccc4[nH]7)C=C6)C=C5)cc3)c2C)nn1
REMARK SMILES IDX 16 1 15 2 14 3 12 4 13 5 11 7 8 8 9 9 85 10 10 11 86 12 7 13
REMARK SMILES IDX 4 14 5 15 88 16 6 17 87 18 3 19 2 20 1 21 17 22 18 23 19 24
REMARK SMILES IDX 20 25 21 27 22 28 23 29 84 30 24 31 83 32 25 33 26 34 27 35
REMARK SMILES IDX 77 36 28 37 82 38 76 39 78 40 29 41 81 42 75 43 74 44 30 46
REMARK SMILES IDX 62 47 42 48 61 49 43 50 46 51 60 52 79 53 44 54 45 55 59 57
REMARK SMILES IDX 80 58 47 59 31 60 32 61 40 62 33 63 35 64 41 65 34 66 36 67
REMARK SMILES IDX 37 68 38 69 39 70 63 71 64 72 72 73 65 74 67 75 73 76 66 77
REMARK SMILES IDX 68 78 69 79 70 80 71 81 48 82 49 83 57 84 50 85 52 86 58 87
REMARK SMILES IDX 51 88 53 89 54 90 55 91 56 92
REMARK H PARENT 14 6 19 26 78 45 46 56
REMARK Flexibility Score: inf
ROOT
ATOM      1  C   UNL A   1      36.723  19.384  25.010  1.00  0.00     0.023 C 
ENDROOT
BRANCH   1   2
ATOM      2  C   UNL A   1      35.591  20.415  25.029  1.00  0.00     0.116 C 
BRANCH   2   3
ATOM      3  N   UNL A   1      34.293  19.774  25.084  1.00  0.00    -0.352 N 
ATOM      4  C   UNL A   1      33.004  20.227  25.089  1.00  0.00     0.254 C 
ATOM      5  O   UNL A   1      32.139  19.365  25.303  1.00  0.00    -0.269 OA
ATOM      6  H   UNL A   1      34.354  18.792  25.126  1.00  0.00     0.163 HD
BRANCH   4   7
ATOM      7  C   UNL A   1      32.632  21.620  24.853  1.00  0.00     0.081 A 
ATOM      8  N   UNL A   1      32.215  23.789  25.233  1.00  0.00    -0.217 N 
ATOM      9  N   UNL A   1      31.765  23.550  23.972  1.00  0.00    -0.174 NA
ATOM     10  C   UNL A   1      32.754  22.646  25.800  1.00  0.00     0.056 A 
ATOM     11  C   UNL A   1      32.068  22.276  23.745  1.00  0.00     0.149 A 
ATOM     12  C   UNL A   1      33.224  22.553  27.215  1.00  0.00     0.068 C 
BRANCH   8  13
ATOM     13  C   UNL A   1      32.093  25.110  25.752  1.00  0.00     0.176 A 
ATOM     14  C   UNL A   1      31.968  27.588  26.828  1.00  0.00     0.233 A 
ATOM     15  C   UNL A   1      33.091  27.257  26.100  1.00  0.00     0.074 A 
ATOM     16  N   UNL A   1      30.946  26.732  27.029  1.00  0.00    -0.110 NA
ATOM     17  C   UNL A   1      33.154  25.988  25.547  1.00  0.00     0.057 A 
ATOM     18  N   UNL A   1      31.001  25.478  26.465  1.00  0.00    -0.127 NA
BRANCH  14  19
ATOM     19  O   UNL A   1      31.920  28.807  27.457  1.00  0.00    -0.477 OA
BRANCH  19  20
ATOM     20  C   UNL A   1      32.558  29.807  26.658  1.00  0.00     0.228 C 
ATOM     21  C   UNL A   1      33.535  30.627  27.490  1.00  0.00     0.049 C 
ENDBRANCH  19  20
ENDBRANCH  14  19
ENDBRANCH   8  13
ENDBRANCH   4   7
ENDBRANCH   2   3
ENDBRANCH   1   2
BRANCH   1  22
ATOM     22  C   UNL A   1      38.077  19.921  24.514  1.00  0.00     0.023 C 
BRANCH  22  23
ATOM     23  C   UNL A   1      39.070  20.274  25.619  1.00  0.00     0.116 C 
BRANCH  23  24
ATOM     24  N   UNL A   1      40.102  19.251  25.797  1.00  0.00    -0.352 N 
ATOM     25  C   UNL A   1      41.446  19.437  26.045  1.00  0.00     0.251 C 
ATOM     26  H   UNL A   1      39.800  18.316  25.732  1.00  0.00     0.163 HD
ATOM     27  O   UNL A   1      42.261  18.555  25.782  1.00  0.00    -0.269 OA
BRANCH  25  28
ATOM     28  C   UNL A   1      41.891  20.703  26.651  1.00  0.00     0.039 A 
ATOM     29  C   UNL A   1      42.509  21.698  25.889  1.00  0.00     0.014 A 
ATOM     30  C   UNL A   1      41.650  20.890  28.010  1.00  0.00     0.014 A 
ATOM     31  C   UNL A   1      42.804  22.919  26.491  1.00  0.00     0.010 A 
ATOM     32  C   UNL A   1      41.819  22.131  28.568  1.00  0.00     0.010 A 
ATOM     33  C   UNL A   1      42.436  23.135  27.827  1.00  0.00    -0.014 A 
BRANCH  33  34
ATOM     34  C   UNL A   1      42.519  24.470  28.416  1.00  0.00     0.031 A 
ATOM     35  C   UNL A   1      41.312  25.305  28.156  1.00  0.00     0.074 A 
ATOM     36  C   UNL A   1      43.467  24.807  29.320  1.00  0.00     0.049 A 
ATOM     37  N   UNL A   1      41.229  26.378  27.437  1.00  0.00    -0.248 NA
ATOM     38  C   UNL A   1      40.004  24.788  28.597  1.00  0.00     0.031 C 
ATOM     39  C   UNL A   1      44.498  23.928  29.891  1.00  0.00     0.029 A 
ATOM     40  N   UNL A   1      43.614  25.948  30.051  1.00  0.00    -0.354 N 
ATOM     41  C   UNL A   1      39.912  26.816  27.587  1.00  0.00     0.074 A 
ATOM     42  C   UNL A   1      39.169  25.684  28.068  1.00  0.00     0.031 C 
ATOM     43  C   UNL A   1      44.965  24.466  31.037  1.00  0.00     0.029 A 
ATOM     44  C   UNL A   1      44.398  25.791  31.195  1.00  0.00     0.049 A 
ATOM     45  H   UNL A   1      43.206  26.806  29.794  1.00  0.00     0.167 HD
ATOM     46  C   UNL A   1      39.621  28.146  27.629  1.00  0.00     0.034 A 
ATOM     47  C   UNL A   1      44.529  26.662  32.228  1.00  0.00     0.034 A 
ATOM     48  C   UNL A   1      40.723  28.929  27.118  1.00  0.00     0.049 A 
ATOM     49  C   UNL A   1      44.078  27.981  31.741  1.00  0.00     0.074 A 
ATOM     50  C   UNL A   1      41.444  28.969  25.943  1.00  0.00     0.029 A 
ATOM     51  N   UNL A   1      41.483  29.583  28.055  1.00  0.00    -0.354 N 
ATOM     52  N   UNL A   1      44.704  28.665  30.826  1.00  0.00    -0.248 NA
ATOM     53  C   UNL A   1      42.693  28.353  31.970  1.00  0.00     0.031 C 
ATOM     54  C   UNL A   1      42.786  29.234  26.345  1.00  0.00     0.029 A 
ATOM     55  C   UNL A   1      42.799  29.423  27.728  1.00  0.00     0.049 A 
ATOM     56  H   UNL A   1      41.140  30.082  28.831  1.00  0.00     0.167 HD
ATOM     57  C   UNL A   1      43.685  29.194  30.047  1.00  0.00     0.074 A 
ATOM     58  C   UNL A   1      42.482  29.080  30.870  1.00  0.00     0.031 C 
ATOM     59  C   UNL A   1      43.863  29.386  28.708  1.00  0.00     0.034 A 
BRANCH  46  60
ATOM     60  C   UNL A   1      38.575  28.783  28.537  1.00  0.00     0.023 A 
ATOM     61  C   UNL A   1      37.688  29.708  27.933  1.00  0.00     0.012 A 
ATOM     62  C   UNL A   1      38.603  28.771  29.951  1.00  0.00     0.148 A 
ATOM     63  C   UNL A   1      36.954  30.629  28.687  1.00  0.00     0.002 A 
ATOM     64  C   UNL A   1      37.812  29.635  30.700  1.00  0.00     0.091 A 
ATOM     65  F   UNL A   1      39.486  28.016  30.605  1.00  0.00    -0.205 F 
ATOM     66  C   UNL A   1      37.016  30.594  30.073  1.00  0.00     0.022 A 
BRANCH  64  67
ATOM     67  S   UNL A   1      37.819  29.601  32.499  1.00  0.00     0.127 S 
ATOM     68  O   UNL A   1      36.784  30.582  32.810  1.00  0.00    -0.237 OA
ATOM     69  O   UNL A   1      37.460  28.209  32.768  1.00  0.00    -0.237 OA
ATOM     70  O   UNL A   1      39.176  29.956  32.894  1.00  0.00    -0.744 OA
ENDBRANCH  64  67
ENDBRANCH  46  60
BRANCH  47  71
ATOM     71  C   UNL A   1      44.793  26.425  33.668  1.00  0.00     0.023 A 
ATOM     72  C   UNL A   1      46.090  26.635  34.182  1.00  0.00     0.012 A 
ATOM     73  C   UNL A   1      43.730  26.284  34.588  1.00  0.00     0.148 A 
ATOM     74  C   UNL A   1      46.314  26.746  35.560  1.00  0.00     0.002 A 
ATOM     75  C   UNL A   1      43.959  26.387  35.957  1.00  0.00     0.091 A 
ATOM     76  F   UNL A   1      42.486  26.141  34.114  1.00  0.00    -0.205 F 
ATOM     77  C   UNL A   1      45.248  26.633  36.448  1.00  0.00     0.022 A 
BRANCH  75  78
ATOM     78  S   UNL A   1      42.630  26.277  37.164  1.00  0.00     0.127 S 
ATOM     79  O   UNL A   1      42.096  24.939  36.905  1.00  0.00    -0.237 OA
ATOM     80  O   UNL A   1      43.354  26.414  38.424  1.00  0.00    -0.237 OA
ATOM     81  O   UNL A   1      41.711  27.361  36.840  1.00  0.00    -0.744 OA
ENDBRANCH  75  78
ENDBRANCH  47  71
BRANCH  59  82
ATOM     82  C   UNL A   1      45.265  29.334  28.161  1.00  0.00     0.023 A 
ATOM     83  C   UNL A   1      46.162  30.420  28.235  1.00  0.00     0.012 A 
ATOM     84  C   UNL A   1      45.736  28.091  27.711  1.00  0.00     0.148 A 
ATOM     85  C   UNL A   1      47.498  30.268  27.849  1.00  0.00     0.002 A 
ATOM     86  C   UNL A   1      47.073  27.930  27.377  1.00  0.00     0.091 A 
ATOM     87  F   UNL A   1      44.865  27.072  27.645  1.00  0.00    -0.205 F 
ATOM     88  C   UNL A   1      47.956  29.018  27.435  1.00  0.00     0.022 A 
BRANCH  86  89
ATOM     89  S   UNL A   1      47.741  26.318  26.963  1.00  0.00     0.127 S 
ATOM     90  O   UNL A   1      47.020  25.996  25.733  1.00  0.00    -0.237 OA
ATOM     91  O   UNL A   1      49.165  26.605  26.782  1.00  0.00    -0.237 OA
ATOM     92  O   UNL A   1      47.449  25.458  28.105  1.00  0.00    -0.744 OA
ENDBRANCH  86  89
ENDBRANCH  59  82
ENDBRANCH  33  34
ENDBRANCH  25  28
ENDBRANCH  23  24
ENDBRANCH  22  23
ENDBRANCH   1  22
TORSDOF 17
ENDMDL
MODEL 2
REMARK VINA RESULT:     -11.6      1.979      2.251
REMARK SMILES CCOc1ccc(-n2ncc(C(=O)NCCCCNC(=O)c3ccc(-c4c5nc(c(-c6cccc(S(=O)(=O)[O-])c6F)c6ccc([nH]6)c(-c6cccc(S(=O)(=O)[O-])c6F)c6nc(c(-c7cccc(S(=O)(=O)[O-])c7F)c7ccc4[nH]7)C=C6)C=C5)cc3)c2C)nn1
REMARK SMILES IDX 16 1 15 2 14 3 12 4 13 5 11 7 8 8 9 9 85 10 10 11 86 12 7 13
REMARK SMILES IDX 4 14 5 15 88 16 6 17 87 18 3 19 2 20 1 21 17 22 18 23 19 24
REMARK SMILES IDX 20 25 21 27 22 28 23 29 84 30 24 31 83 32 25 33 26 34 27 35
REMARK SMILES IDX 77 36 28 37 82 38 76 39 78 40 29 41 81 42 75 43 74 44 30 46
REMARK SMILES IDX 62 47 42 48 61 49 43 50 46 51 60 52 79 53 44 54 45 55 59 57
REMARK SMILES IDX 80 58 47 59 31 60 32 61 40 62 33 63 35 64 41 65 34 66 36 67
REMARK SMILES IDX 37 68 38 69 39 70 63 71 64 72 72 73 65 74 67 75 73 76 66 77
REMARK SMILES IDX 68 78 69 79 70 80 71 81 48 82 49 83 57 84 50 85 52 86 58 87
REMARK SMILES IDX 51 88 53 89 54 90 55 91 56 92
REMARK H PARENT 14 6 19 26 78 45 46 56
REMARK Flexibility Score: inf
ROOT
ATOM      1  C   UNL A   1      36.504  19.502  25.025  1.00  0.00     0.023 C 
ENDROOT
BRANCH   1   2
ATOM      2  C   UNL A   1      35.391  20.547  24.909  1.00  0.00     0.116 C 
BRANCH   2   3
ATOM      3  N   UNL A   1      35.093  21.147  26.193  1.00  0.00    -0.352 N 
ATOM      4  C   UNL A   1      34.198  22.086  26.623  1.00  0.00     0.254 C 
ATOM      5  O   UNL A   1      34.346  22.463  27.796  1.00  0.00    -0.269 OA
ATOM      6  H   UNL A   1      35.662  20.801  26.918  1.00  0.00     0.163 HD
BRANCH   4   7
ATOM      7  C   UNL A   1      33.124  22.625  25.793  1.00  0.00     0.081 A 
ATOM      8  N   UNL A   1      31.863  24.089  24.656  1.00  0.00    -0.217 N 
ATOM      9  N   UNL A   1      31.150  22.930  24.669  1.00  0.00    -0.174 NA
ATOM     10  C   UNL A   1      33.069  23.944  25.322  1.00  0.00     0.056 A 
ATOM     11  C   UNL A   1      31.934  22.062  25.300  1.00  0.00     0.149 A 
ATOM     12  C   UNL A   1      34.022  25.064  25.584  1.00  0.00     0.068 C 
BRANCH   8  13
ATOM     13  C   UNL A   1      31.308  25.213  23.982  1.00  0.00     0.176 A 
ATOM     14  C   UNL A   1      30.379  27.416  22.716  1.00  0.00     0.233 A 
ATOM     15  C   UNL A   1      31.351  26.670  22.084  1.00  0.00     0.074 A 
ATOM     16  N   UNL A   1      29.886  27.098  23.930  1.00  0.00    -0.110 NA
ATOM     17  C   UNL A   1      31.826  25.541  22.731  1.00  0.00     0.057 A 
ATOM     18  N   UNL A   1      30.344  25.967  24.565  1.00  0.00    -0.127 NA
BRANCH  14  19
ATOM     19  O   UNL A   1      29.956  28.585  22.134  1.00  0.00    -0.477 OA
BRANCH  19  20
ATOM     20  C   UNL A   1      28.995  29.238  22.969  1.00  0.00     0.228 C 
ATOM     21  C   UNL A   1      29.042  30.747  22.772  1.00  0.00     0.049 C 
ENDBRANCH  19  20
ENDBRANCH  14  19
ENDBRANCH   8  13
ENDBRANCH   4   7
ENDBRANCH   2   3
ENDBRANCH   1   2
BRANCH   1  22
ATOM     22  C   UNL A   1      37.893  19.985  24.573  1.00  0.00     0.023 C 
BRANCH  22  23
ATOM     23  C   UNL A   1      38.870  20.279  25.709  1.00  0.00     0.116 C 
BRANCH  23  24
ATOM     24  N   UNL A   1      39.919  19.263  25.828  1.00  0.00    -0.352 N 
ATOM     25  C   UNL A   1      41.271  19.459  26.010  1.00  0.00     0.251 C 
ATOM     26  H   UNL A   1      39.621  18.327  25.771  1.00  0.00     0.163 HD
ATOM     27  O   UNL A   1      42.080  18.585  25.699  1.00  0.00    -0.269 OA
BRANCH  25  28
ATOM     28  C   UNL A   1      41.736  20.724  26.601  1.00  0.00     0.039 A 
ATOM     29  C   UNL A   1      42.247  21.755  25.808  1.00  0.00     0.014 A 
ATOM     30  C   UNL A   1      41.624  20.873  27.982  1.00  0.00     0.014 A 
ATOM     31  C   UNL A   1      42.564  22.971  26.409  1.00  0.00     0.010 A 
ATOM     32  C   UNL A   1      41.811  22.107  28.552  1.00  0.00     0.010 A 
ATOM     33  C   UNL A   1      42.322  23.146  27.780  1.00  0.00    -0.014 A 
BRANCH  33  34
ATOM     34  C   UNL A   1      42.423  24.469  28.393  1.00  0.00     0.031 A 
ATOM     35  C   UNL A   1      41.246  25.339  28.112  1.00  0.00     0.074 A 
ATOM     36  C   UNL A   1      43.354  24.767  29.327  1.00  0.00     0.049 A 
ATOM     37  N   UNL A   1      41.209  26.425  27.409  1.00  0.00    -0.248 NA
ATOM     38  C   UNL A   1      39.913  24.850  28.511  1.00  0.00     0.031 C 
ATOM     39  C   UNL A   1      44.346  23.853  29.911  1.00  0.00     0.029 A 
ATOM     40  N   UNL A   1      43.511  25.893  30.079  1.00  0.00    -0.354 N 
ATOM     41  C   UNL A   1      39.901  26.894  27.530  1.00  0.00     0.074 A 
ATOM     42  C   UNL A   1      39.116  25.775  27.973  1.00  0.00     0.031 C 
ATOM     43  C   UNL A   1      44.796  24.362  31.078  1.00  0.00     0.029 A 
ATOM     44  C   UNL A   1      44.259  25.699  31.242  1.00  0.00     0.049 A 
ATOM     45  H   UNL A   1      43.132  26.765  29.824  1.00  0.00     0.167 HD
ATOM     46  C   UNL A   1      39.643  28.231  27.586  1.00  0.00     0.034 A 
ATOM     47  C   UNL A   1      44.384  26.550  32.291  1.00  0.00     0.034 A 
ATOM     48  C   UNL A   1      40.777  28.992  27.117  1.00  0.00     0.049 A 
ATOM     49  C   UNL A   1      43.980  27.888  31.812  1.00  0.00     0.074 A 
ATOM     50  C   UNL A   1      41.532  29.031  25.962  1.00  0.00     0.029 A 
ATOM     51  N   UNL A   1      41.529  29.612  28.084  1.00  0.00    -0.354 N 
ATOM     52  N   UNL A   1      44.648  28.569  30.926  1.00  0.00    -0.248 NA
ATOM     53  C   UNL A   1      42.600  28.292  32.010  1.00  0.00     0.031 C 
ATOM     54  C   UNL A   1      42.869  29.255  26.405  1.00  0.00     0.029 A 
ATOM     55  C   UNL A   1      42.849  29.423  27.791  1.00  0.00     0.049 A 
ATOM     56  H   UNL A   1      41.177  30.108  28.858  1.00  0.00     0.167 HD
ATOM     57  C   UNL A   1      43.665  29.136  30.128  1.00  0.00     0.074 A 
ATOM     58  C   UNL A   1      42.437  29.041  30.917  1.00  0.00     0.031 C 
ATOM     59  C   UNL A   1      43.884  29.343  28.797  1.00  0.00     0.034 A 
BRANCH  46  60
ATOM     60  C   UNL A   1      38.589  28.880  28.475  1.00  0.00     0.023 A 
ATOM     61  C   UNL A   1      37.743  29.837  27.862  1.00  0.00     0.012 A 
ATOM     62  C   UNL A   1      38.578  28.846  29.889  1.00  0.00     0.148 A 
ATOM     63  C   UNL A   1      37.013  30.767  28.611  1.00  0.00     0.002 A 
ATOM     64  C   UNL A   1      37.789  29.719  30.630  1.00  0.00     0.091 A 
ATOM     65  F   UNL A   1      39.422  28.059  30.554  1.00  0.00    -0.205 F 
ATOM     66  C   UNL A   1      37.035  30.708  29.997  1.00  0.00     0.022 A 
BRANCH  64  67
ATOM     67  S   UNL A   1      37.746  29.658  32.427  1.00  0.00     0.127 S 
ATOM     68  O   UNL A   1      39.093  30.108  32.764  1.00  0.00    -0.237 OA
ATOM     69  O   UNL A   1      36.677  30.610  32.728  1.00  0.00    -0.237 OA
ATOM     70  O   UNL A   1      37.430  28.277  32.767  1.00  0.00    -0.744 OA
ENDBRANCH  64  67
ENDBRANCH  46  60
BRANCH  47  71
ATOM     71  C   UNL A   1      44.602  26.285  33.734  1.00  0.00     0.023 A 
ATOM     72  C   UNL A   1      45.896  26.425  34.280  1.00  0.00     0.012 A 
ATOM     73  C   UNL A   1      43.513  26.186  34.627  1.00  0.00     0.148 A 
ATOM     74  C   UNL A   1      46.093  26.509  35.663  1.00  0.00     0.002 A 
ATOM     75  C   UNL A   1      43.714  26.263  36.003  1.00  0.00     0.091 A 
ATOM     76  F   UNL A   1      42.274  26.111  34.124  1.00  0.00    -0.205 F 
ATOM     77  C   UNL A   1      45.002  26.439  36.525  1.00  0.00     0.022 A 
BRANCH  75  78
ATOM     78  S   UNL A   1      42.354  26.206  37.178  1.00  0.00     0.127 S 
ATOM     79  O   UNL A   1      41.789  24.880  36.922  1.00  0.00    -0.237 OA
ATOM     80  O   UNL A   1      43.050  26.339  38.453  1.00  0.00    -0.237 OA
ATOM     81  O   UNL A   1      41.474  27.311  36.818  1.00  0.00    -0.744 OA
ENDBRANCH  75  78
ENDBRANCH  47  71
BRANCH  59  82
ATOM     82  C   UNL A   1      45.299  29.263  28.288  1.00  0.00     0.023 A 
ATOM     83  C   UNL A   1      45.893  28.063  27.845  1.00  0.00     0.012 A 
ATOM     84  C   UNL A   1      45.986  30.473  28.101  1.00  0.00     0.148 A 
ATOM     85  C   UNL A   1      47.155  28.073  27.243  1.00  0.00     0.002 A 
ATOM     86  C   UNL A   1      47.215  30.485  27.457  1.00  0.00     0.091 A 
ATOM     87  F   UNL A   1      45.405  31.602  28.533  1.00  0.00    -0.205 F 
ATOM     88  C   UNL A   1      47.809  29.286  27.036  1.00  0.00     0.022 A 
BRANCH  86  89
ATOM     89  S   UNL A   1      48.036  32.026  27.051  1.00  0.00     0.127 S 
ATOM     90  O   UNL A   1      47.100  32.629  26.104  1.00  0.00    -0.237 OA
ATOM     91  O   UNL A   1      48.110  32.696  28.350  1.00  0.00    -0.237 OA
ATOM     92  O   UNL A   1      49.334  31.656  26.500  1.00  0.00    -0.744 OA
ENDBRANCH  86  89
ENDBRANCH  59  82
ENDBRANCH  33  34
ENDBRANCH  25  28
ENDBRANCH  23  24
ENDBRANCH  22  23
ENDBRANCH   1  22
TORSDOF 17
ENDMDL
MODEL 3
REMARK VINA RESULT:     -11.3      1.677      2.136
REMARK SMILES CCOc1ccc(-n2ncc(C(=O)NCCCCNC(=O)c3ccc(-c4c5nc(c(-c6cccc(S(=O)(=O)[O-])c6F)c6ccc([nH]6)c(-c6cccc(S(=O)(=O)[O-])c6F)c6nc(c(-c7cccc(S(=O)(=O)[O-])c7F)c7ccc4[nH]7)C=C6)C=C5)cc3)c2C)nn1
REMARK SMILES IDX 16 1 15 2 14 3 12 4 13 5 11 7 8 8 9 9 85 10 10 11 86 12 7 13
REMARK SMILES IDX 4 14 5 15 88 16 6 17 87 18 3 19 2 20 1 21 17 22 18 23 19 24
REMARK SMILES IDX 20 25 21 27 22 28 23 29 84 30 24 31 83 32 25 33 26 34 27 35
REMARK SMILES IDX 77 36 28 37 82 38 76 39 78 40 29 41 81 42 75 43 74 44 30 46
REMARK SMILES IDX 62 47 42 48 61 49 43 50 46 51 60 52 79 53 44 54 45 55 59 57
REMARK SMILES IDX 80 58 47 59 31 60 32 61 40 62 33 63 35 64 41 65 34 66 36 67
REMARK SMILES IDX 37 68 38 69 39 70 63 71 64 72 72 73 65 74 67 75 73 76 66 77
REMARK SMILES IDX 68 78 69 79 70 80 71 81 48 82 49 83 57 84 50 85 52 86 58 87
REMARK SMILES IDX 51 88 53 89 54 90 55 91 56 92
REMARK H PARENT 14 6 19 26 78 45 46 56
REMARK Flexibility Score: inf
ROOT
ATOM      1  C   UNL A   1      36.547  21.124  24.635  1.00  0.00     0.023 C 
ENDROOT
BRANCH   1   2
ATOM      2  C   UNL A   1      35.603  21.276  25.831  1.00  0.00     0.116 C 
BRANCH   2   3
ATOM      3  N   UNL A   1      34.445  20.414  25.704  1.00  0.00    -0.352 N 
ATOM      4  C   UNL A   1      33.190  20.572  25.187  1.00  0.00     0.254 C 
ATOM      5  O   UNL A   1      32.406  19.636  25.400  1.00  0.00    -0.269 OA
ATOM      6  H   UNL A   1      34.597  19.515  26.072  1.00  0.00     0.163 HD
BRANCH   4   7
ATOM      7  C   UNL A   1      32.768  21.743  24.422  1.00  0.00     0.081 A 
ATOM      8  N   UNL A   1      32.011  23.801  23.953  1.00  0.00    -0.217 N 
ATOM      9  N   UNL A   1      32.042  23.146  22.762  1.00  0.00    -0.174 NA
ATOM     10  C   UNL A   1      32.450  22.987  24.985  1.00  0.00     0.056 A 
ATOM     11  C   UNL A   1      32.541  21.949  23.051  1.00  0.00     0.149 A 
ATOM     12  C   UNL A   1      32.423  23.374  26.428  1.00  0.00     0.068 C 
BRANCH   8  13
ATOM     13  C   UNL A   1      31.577  25.156  23.966  1.00  0.00     0.176 A 
ATOM     14  C   UNL A   1      30.665  27.702  23.880  1.00  0.00     0.233 A 
ATOM     15  C   UNL A   1      29.787  26.714  24.276  1.00  0.00     0.074 A 
ATOM     16  N   UNL A   1      31.942  27.449  23.530  1.00  0.00    -0.110 NA
ATOM     17  C   UNL A   1      30.255  25.411  24.321  1.00  0.00     0.057 A 
ATOM     18  N   UNL A   1      32.412  26.157  23.592  1.00  0.00    -0.127 NA
BRANCH  14  19
ATOM     19  O   UNL A   1      30.202  28.987  23.744  1.00  0.00    -0.477 OA
BRANCH  19  20
ATOM     20  C   UNL A   1      29.329  29.086  22.616  1.00  0.00     0.228 C 
ATOM     21  C   UNL A   1      28.736  30.485  22.509  1.00  0.00     0.049 C 
ENDBRANCH  19  20
ENDBRANCH  14  19
ENDBRANCH   8  13
ENDBRANCH   4   7
ENDBRANCH   2   3
ENDBRANCH   1   2
BRANCH   1  22
ATOM     22  C   UNL A   1      37.632  20.047  24.803  1.00  0.00     0.023 C 
BRANCH  22  23
ATOM     23  C   UNL A   1      38.807  20.453  25.689  1.00  0.00     0.116 C 
BRANCH  23  24
ATOM     24  N   UNL A   1      39.813  19.395  25.812  1.00  0.00    -0.352 N 
ATOM     25  C   UNL A   1      41.170  19.535  26.012  1.00  0.00     0.251 C 
ATOM     26  H   UNL A   1      39.479  18.472  25.745  1.00  0.00     0.163 HD
ATOM     27  O   UNL A   1      41.946  18.632  25.705  1.00  0.00    -0.269 OA
BRANCH  25  28
ATOM     28  C   UNL A   1      41.678  20.776  26.620  1.00  0.00     0.039 A 
ATOM     29  C   UNL A   1      42.349  21.738  25.860  1.00  0.00     0.014 A 
ATOM     30  C   UNL A   1      41.442  20.975  27.978  1.00  0.00     0.014 A 
ATOM     31  C   UNL A   1      42.704  22.942  26.463  1.00  0.00     0.010 A 
ATOM     32  C   UNL A   1      41.673  22.206  28.537  1.00  0.00     0.010 A 
ATOM     33  C   UNL A   1      42.343  23.177  27.798  1.00  0.00    -0.014 A 
BRANCH  33  34
ATOM     34  C   UNL A   1      42.493  24.506  28.388  1.00  0.00     0.031 A 
ATOM     35  C   UNL A   1      41.348  25.414  28.093  1.00  0.00     0.074 A 
ATOM     36  C   UNL A   1      43.435  24.786  29.317  1.00  0.00     0.049 A 
ATOM     37  N   UNL A   1      41.351  26.488  27.372  1.00  0.00    -0.248 NA
ATOM     38  C   UNL A   1      39.999  24.980  28.500  1.00  0.00     0.031 C 
ATOM     39  C   UNL A   1      44.393  23.846  29.917  1.00  0.00     0.029 A 
ATOM     40  N   UNL A   1      43.633  25.917  30.050  1.00  0.00    -0.354 N 
ATOM     41  C   UNL A   1      40.061  27.006  27.485  1.00  0.00     0.074 A 
ATOM     42  C   UNL A   1      39.236  25.925  27.946  1.00  0.00     0.031 C 
ATOM     43  C   UNL A   1      44.862  24.357  31.075  1.00  0.00     0.029 A 
ATOM     44  C   UNL A   1      44.374  25.715  31.216  1.00  0.00     0.049 A 
ATOM     45  H   UNL A   1      43.286  26.798  29.781  1.00  0.00     0.167 HD
ATOM     46  C   UNL A   1      39.852  28.353  27.518  1.00  0.00     0.034 A 
ATOM     47  C   UNL A   1      44.531  26.579  32.251  1.00  0.00     0.034 A 
ATOM     48  C   UNL A   1      41.013  29.064  27.036  1.00  0.00     0.049 A 
ATOM     49  C   UNL A   1      44.176  27.922  31.750  1.00  0.00     0.074 A 
ATOM     50  C   UNL A   1      41.768  29.056  25.881  1.00  0.00     0.029 A 
ATOM     51  N   UNL A   1      41.788  29.672  27.993  1.00  0.00    -0.354 N 
ATOM     52  N   UNL A   1      44.868  28.563  30.852  1.00  0.00    -0.248 NA
ATOM     53  C   UNL A   1      42.812  28.380  31.941  1.00  0.00     0.031 C 
ATOM     54  C   UNL A   1      43.112  29.238  26.320  1.00  0.00     0.029 A 
ATOM     55  C   UNL A   1      43.100  29.430  27.703  1.00  0.00     0.049 A 
ATOM     56  H   UNL A   1      41.454  30.193  28.758  1.00  0.00     0.167 HD
ATOM     57  C   UNL A   1      43.906  29.152  30.045  1.00  0.00     0.074 A 
ATOM     58  C   UNL A   1      42.676  29.116  30.835  1.00  0.00     0.031 C 
ATOM     59  C   UNL A   1      44.131  29.329  28.711  1.00  0.00     0.034 A 
BRANCH  46  60
ATOM     60  C   UNL A   1      38.823  29.055  28.396  1.00  0.00     0.023 A 
ATOM     61  C   UNL A   1      38.766  28.655  29.753  1.00  0.00     0.012 A 
ATOM     62  C   UNL A   1      37.737  29.829  27.923  1.00  0.00     0.148 A 
ATOM     63  C   UNL A   1      37.653  28.921  30.557  1.00  0.00     0.002 A 
ATOM     64  C   UNL A   1      36.668  30.160  28.749  1.00  0.00     0.091 A 
ATOM     65  F   UNL A   1      37.648  30.156  26.634  1.00  0.00    -0.205 F 
ATOM     66  C   UNL A   1      36.601  29.675  30.055  1.00  0.00     0.022 A 
BRANCH  64  67
ATOM     67  S   UNL A   1      35.301  31.172  28.162  1.00  0.00     0.127 S 
ATOM     68  O   UNL A   1      34.628  31.502  29.415  1.00  0.00    -0.237 OA
ATOM     69  O   UNL A   1      36.010  32.282  27.524  1.00  0.00    -0.237 OA
ATOM     70  O   UNL A   1      34.555  30.329  27.238  1.00  0.00    -0.744 OA
ENDBRANCH  64  67
ENDBRANCH  46  60
BRANCH  47  71
ATOM     71  C   UNL A   1      44.740  26.331  33.698  1.00  0.00     0.023 A 
ATOM     72  C   UNL A   1      46.030  26.478  34.251  1.00  0.00     0.012 A 
ATOM     73  C   UNL A   1      43.645  26.241  34.586  1.00  0.00     0.148 A 
ATOM     74  C   UNL A   1      46.218  26.578  35.635  1.00  0.00     0.002 A 
ATOM     75  C   UNL A   1      43.838  26.333  35.961  1.00  0.00     0.091 A 
ATOM     76  F   UNL A   1      42.409  26.158  34.075  1.00  0.00    -0.205 F 
ATOM     77  C   UNL A   1      45.122  26.517  36.490  1.00  0.00     0.022 A 
BRANCH  75  78
ATOM     78  S   UNL A   1      42.470  26.289  37.128  1.00  0.00     0.127 S 
ATOM     79  O   UNL A   1      41.703  27.473  36.739  1.00  0.00    -0.237 OA
ATOM     80  O   UNL A   1      41.836  25.015  36.803  1.00  0.00    -0.237 OA
ATOM     81  O   UNL A   1      43.075  26.376  38.451  1.00  0.00    -0.744 OA
ENDBRANCH  75  78
ENDBRANCH  47  71
BRANCH  59  82
ATOM     82  C   UNL A   1      45.543  29.189  28.203  1.00  0.00     0.023 A 
ATOM     83  C   UNL A   1      46.501  30.219  28.295  1.00  0.00     0.012 A 
ATOM     84  C   UNL A   1      45.949  27.916  27.772  1.00  0.00     0.148 A 
ATOM     85  C   UNL A   1      47.835  29.984  27.946  1.00  0.00     0.002 A 
ATOM     86  C   UNL A   1      47.282  27.672  27.476  1.00  0.00     0.091 A 
ATOM     87  F   UNL A   1      45.020  26.951  27.688  1.00  0.00    -0.205 F 
ATOM     88  C   UNL A   1      48.228  28.706  27.552  1.00  0.00     0.022 A 
BRANCH  86  89
ATOM     89  S   UNL A   1      47.862  26.020  27.089  1.00  0.00     0.127 S 
ATOM     90  O   UNL A   1      47.433  25.265  28.264  1.00  0.00    -0.237 OA
ATOM     91  O   UNL A   1      47.131  25.710  25.860  1.00  0.00    -0.237 OA
ATOM     92  O   UNL A   1      49.305  26.134  26.909  1.00  0.00    -0.744 OA
ENDBRANCH  86  89
ENDBRANCH  59  82
ENDBRANCH  33  34
ENDBRANCH  25  28
ENDBRANCH  23  24
ENDBRANCH  22  23
ENDBRANCH   1  22
TORSDOF 17
ENDMDL
