MODEL 1
REMARK VINA RESULT:     -12.8      0.000      0.000
REMARK SMILES C[C@H]1OCC[C@@H]1C(=O)Nc1sc2c(c1C(=O)NCCCCNC(=O)c1ccc(-c3c4nc(c(-c5cccc(S(=O)(=O)[O-])c5F)c5ccc([nH]5)c(-c5cccc(S(=O)(=O)[O-])c5F)c5nc(c(-c6cccc(S(=O)(=O)[O-])c6F)c6ccc3[nH]6)C=C5)C=C4)cc1)CCC2
REMARK SMILES IDX 20 1 19 2 18 3 17 4 15 5 16 6 14 8 10 9 11 10 12 11 13 12
REMARK SMILES IDX 90 13 88 14 89 15 9 16 7 17 8 18 6 20 1 21 2 22 3 23 4 24
REMARK SMILES IDX 5 25 21 26 22 27 23 28 24 30 25 31 26 32 87 33 27 34 86 35
REMARK SMILES IDX 28 36 29 37 30 38 80 39 31 40 85 41 79 42 81 43 32 44 84 45
REMARK SMILES IDX 78 46 77 47 33 49 65 50 45 51 64 52 46 53 49 54 63 55 82 56
REMARK SMILES IDX 47 57 48 58 62 60 83 61 50 62 34 63 35 64 43 65 36 66 38 67
REMARK SMILES IDX 44 68 37 69 39 70 40 71 41 72 42 73 66 74 67 75 75 76 68 77
REMARK SMILES IDX 70 78 76 79 69 80 71 81 72 82 73 83 74 84 51 85 52 86 60 87
REMARK SMILES IDX 53 88 55 89 61 90 54 91 56 92 57 93 58 94 59 95
REMARK H PARENT 17 7 9 19 22 29 81 48 49 59
REMARK Flexibility Score: inf
ROOT
ATOM      1  C   UNL A   1      31.426  31.974  26.566  1.00  0.00     0.023 C 
ENDROOT
BRANCH   1   2
ATOM      2  C   UNL A   1      31.448  30.440  26.464  1.00  0.00     0.023 C 
BRANCH   2   3
ATOM      3  C   UNL A   1      32.816  29.763  26.599  1.00  0.00     0.116 C 
BRANCH   3   4
ATOM      4  N   UNL A   1      33.559  29.596  25.380  1.00  0.00    -0.352 N 
ATOM      5  C   UNL A   1      33.394  28.834  24.253  1.00  0.00     0.254 C 
ATOM      6  O   UNL A   1      34.076  29.202  23.295  1.00  0.00    -0.269 OA
ATOM      7  H   UNL A   1      34.368  30.154  25.347  1.00  0.00     0.163 HD
BRANCH   5   8
ATOM      8  C   UNL A   1      32.551  27.636  24.132  1.00  0.00     0.078 A 
ATOM      9  C   UNL A   1      31.505  27.626  23.194  1.00  0.00     0.108 A 
ATOM     10  S   UNL A   1      30.296  26.450  23.509  1.00  0.00    -0.122 S 
ATOM     11  C   UNL A   1      31.275  25.750  24.653  1.00  0.00     0.011 A 
ATOM     12  C   UNL A   1      32.454  26.417  24.892  1.00  0.00    -0.019 A 
ATOM     13  C   UNL A   1      31.030  24.572  25.515  1.00  0.00     0.047 C 
ATOM     14  C   UNL A   1      33.176  25.707  25.987  1.00  0.00     0.038 C 
ATOM     15  C   UNL A   1      32.448  24.335  26.079  1.00  0.00     0.010 C 
BRANCH   9  16
ATOM     16  N   UNL A   1      31.116  28.452  22.168  1.00  0.00    -0.317 N 
ATOM     17  C   UNL A   1      30.067  29.308  22.058  1.00  0.00     0.230 C 
ATOM     18  O   UNL A   1      30.034  30.004  21.029  1.00  0.00    -0.274 OA
ATOM     19  H   UNL A   1      31.696  28.418  21.374  1.00  0.00     0.170 HD
BRANCH  17  20
ATOM     20  C   UNL A   1      29.036  29.622  23.140  1.00  0.00     0.110 C 
ATOM     21  C   UNL A   1      26.858  28.451  23.641  1.00  0.00     0.039 C 
ATOM     22  C   UNL A   1      27.593  29.413  22.709  1.00  0.00     0.127 C 
ATOM     23  O   UNL A   1      26.944  30.691  22.782  1.00  0.00    -0.378 OA
ATOM     24  C   UNL A   1      27.673  31.508  23.698  1.00  0.00     0.161 C 
ATOM     25  C   UNL A   1      29.082  30.975  23.795  1.00  0.00     0.044 C 
ENDBRANCH  17  20
ENDBRANCH   9  16
ENDBRANCH   5   8
ENDBRANCH   3   4
ENDBRANCH   2   3
ENDBRANCH   1   2
BRANCH   1  26
ATOM     26  C   UNL A   1      32.630  32.591  27.274  1.00  0.00     0.116 C 
BRANCH  26  27
ATOM     27  N   UNL A   1      32.424  33.999  27.658  1.00  0.00    -0.352 N 
ATOM     28  C   UNL A   1      33.023  34.717  28.687  1.00  0.00     0.251 C 
ATOM     29  H   UNL A   1      31.775  34.498  27.111  1.00  0.00     0.163 HD
ATOM     30  O   UNL A   1      32.539  35.749  29.117  1.00  0.00    -0.269 OA
BRANCH  28  31
ATOM     31  C   UNL A   1      34.301  34.210  29.209  1.00  0.00     0.039 A 
ATOM     32  C   UNL A   1      34.456  33.621  30.467  1.00  0.00     0.014 A 
ATOM     33  C   UNL A   1      35.358  34.282  28.317  1.00  0.00     0.014 A 
ATOM     34  C   UNL A   1      35.683  33.034  30.775  1.00  0.00     0.010 A 
ATOM     35  C   UNL A   1      36.433  33.475  28.504  1.00  0.00     0.010 A 
ATOM     36  C   UNL A   1      36.658  32.965  29.774  1.00  0.00    -0.014 A 
BRANCH  36  37
ATOM     37  C   UNL A   1      37.962  32.355  29.958  1.00  0.00     0.031 A 
ATOM     38  C   UNL A   1      38.097  30.978  29.418  1.00  0.00     0.074 A 
ATOM     39  C   UNL A   1      39.013  33.145  30.283  1.00  0.00     0.049 A 
ATOM     40  N   UNL A   1      38.345  29.898  30.079  1.00  0.00    -0.248 NA
ATOM     41  C   UNL A   1      37.779  30.740  27.999  1.00  0.00     0.031 C 
ATOM     42  C   UNL A   1      39.034  34.609  30.467  1.00  0.00     0.029 A 
ATOM     43  N   UNL A   1      40.331  32.834  30.312  1.00  0.00    -0.354 N 
ATOM     44  C   UNL A   1      38.436  28.879  29.130  1.00  0.00     0.074 A 
ATOM     45  C   UNL A   1      37.865  29.410  27.922  1.00  0.00     0.031 C 
ATOM     46  C   UNL A   1      40.293  35.066  30.294  1.00  0.00     0.029 A 
ATOM     47  C   UNL A   1      41.180  33.927  30.164  1.00  0.00     0.049 A 
ATOM     48  H   UNL A   1      40.660  31.913  30.428  1.00  0.00     0.167 HD
ATOM     49  C   UNL A   1      39.193  27.767  29.353  1.00  0.00     0.034 A 
ATOM     50  C   UNL A   1      42.502  33.881  29.863  1.00  0.00     0.034 A 
ATOM     51  C   UNL A   1      39.637  27.717  30.725  1.00  0.00     0.049 A 
ATOM     52  C   UNL A   1      42.968  32.512  30.193  1.00  0.00     0.074 A 
ATOM     53  C   UNL A   1      39.003  27.655  31.949  1.00  0.00     0.029 A 
ATOM     54  N   UNL A   1      40.912  28.171  30.976  1.00  0.00    -0.354 N 
ATOM     55  N   UNL A   1      42.957  32.033  31.408  1.00  0.00    -0.248 NA
ATOM     56  C   UNL A   1      42.954  31.521  29.129  1.00  0.00     0.031 C 
ATOM     57  C   UNL A   1      39.747  28.542  32.782  1.00  0.00     0.029 A 
ATOM     58  C   UNL A   1      40.838  29.017  32.051  1.00  0.00     0.049 A 
ATOM     59  H   UNL A   1      41.725  27.932  30.476  1.00  0.00     0.167 HD
ATOM     60  C   UNL A   1      42.463  30.743  31.264  1.00  0.00     0.074 A 
ATOM     61  C   UNL A   1      42.578  30.448  29.833  1.00  0.00     0.031 C 
ATOM     62  C   UNL A   1      41.712  30.156  32.244  1.00  0.00     0.034 A 
BRANCH  49  63
ATOM     63  C   UNL A   1      39.840  26.890  28.306  1.00  0.00     0.023 A 
ATOM     64  C   UNL A   1      39.561  25.504  28.372  1.00  0.00     0.012 A 
ATOM     65  C   UNL A   1      40.885  27.289  27.445  1.00  0.00     0.148 A 
ATOM     66  C   UNL A   1      40.322  24.563  27.670  1.00  0.00     0.002 A 
ATOM     67  C   UNL A   1      41.593  26.356  26.693  1.00  0.00     0.091 A 
ATOM     68  F   UNL A   1      41.298  28.558  27.435  1.00  0.00    -0.205 F 
ATOM     69  C   UNL A   1      41.337  24.990  26.826  1.00  0.00     0.022 A 
BRANCH  67  70
ATOM     70  S   UNL A   1      42.891  26.851  25.551  1.00  0.00     0.127 S 
ATOM     71  O   UNL A   1      43.914  27.346  26.468  1.00  0.00    -0.237 OA
ATOM     72  O   UNL A   1      43.211  25.583  24.893  1.00  0.00    -0.237 OA
ATOM     73  O   UNL A   1      42.282  27.842  24.673  1.00  0.00    -0.744 OA
ENDBRANCH  67  70
ENDBRANCH  49  63
BRANCH  50  74
ATOM     74  C   UNL A   1      43.273  34.813  29.005  1.00  0.00     0.023 A 
ATOM     75  C   UNL A   1      43.344  34.616  27.612  1.00  0.00     0.012 A 
ATOM     76  C   UNL A   1      43.729  36.046  29.521  1.00  0.00     0.148 A 
ATOM     77  C   UNL A   1      43.838  35.620  26.765  1.00  0.00     0.002 A 
ATOM     78  C   UNL A   1      44.236  37.031  28.681  1.00  0.00     0.091 A 
ATOM     79  F   UNL A   1      43.568  36.298  30.828  1.00  0.00    -0.205 F 
ATOM     80  C   UNL A   1      44.283  36.828  27.298  1.00  0.00     0.022 A 
BRANCH  78  81
ATOM     81  S   UNL A   1      44.809  38.607  29.326  1.00  0.00     0.127 S 
ATOM     82  O   UNL A   1      43.591  39.148  29.930  1.00  0.00    -0.237 OA
ATOM     83  O   UNL A   1      45.833  38.178  30.273  1.00  0.00    -0.237 OA
ATOM     84  O   UNL A   1      45.277  39.345  28.158  1.00  0.00    -0.744 OA
ENDBRANCH  78  81
ENDBRANCH  50  74
BRANCH  62  85
ATOM     85  C   UNL A   1      41.565  30.875  33.567  1.00  0.00     0.023 A 
ATOM     86  C   UNL A   1      42.600  30.919  34.527  1.00  0.00     0.012 A 
ATOM     87  C   UNL A   1      40.455  31.714  33.740  1.00  0.00     0.148 A 
ATOM     88  C   UNL A   1      42.527  31.770  35.634  1.00  0.00     0.002 A 
ATOM     89  C   UNL A   1      40.407  32.595  34.814  1.00  0.00     0.091 A 
ATOM     90  F   UNL A   1      39.481  31.670  32.819  1.00  0.00    -0.205 F 
ATOM     91  C   UNL A   1      41.435  32.621  35.768  1.00  0.00     0.022 A 
BRANCH  89  92
ATOM     92  S   UNL A   1      39.102  33.818  34.957  1.00  0.00     0.127 S 
ATOM     93  O   UNL A   1      39.293  34.608  33.743  1.00  0.00    -0.237 OA
ATOM     94  O   UNL A   1      37.895  32.989  34.966  1.00  0.00    -0.237 OA
ATOM     95  O   UNL A   1      39.348  34.521  36.210  1.00  0.00    -0.744 OA
ENDBRANCH  89  92
ENDBRANCH  62  85
ENDBRANCH  36  37
ENDBRANCH  28  31
ENDBRANCH  26  27
ENDBRANCH   1  26
TORSDOF 16
ENDMDL
MODEL 2
REMARK VINA RESULT:     -12.5      5.421     10.562
REMARK SMILES C[C@H]1OCC[C@@H]1C(=O)Nc1sc2c(c1C(=O)NCCCCNC(=O)c1ccc(-c3c4nc(c(-c5cccc(S(=O)(=O)[O-])c5F)c5ccc([nH]5)c(-c5cccc(S(=O)(=O)[O-])c5F)c5nc(c(-c6cccc(S(=O)(=O)[O-])c6F)c6ccc3[nH]6)C=C5)C=C4)cc1)CCC2
REMARK SMILES IDX 20 1 19 2 18 3 17 4 15 5 16 6 14 8 10 9 11 10 12 11 13 12
REMARK SMILES IDX 90 13 88 14 89 15 9 16 7 17 8 18 6 20 1 21 2 22 3 23 4 24
REMARK SMILES IDX 5 25 21 26 22 27 23 28 24 30 25 31 26 32 87 33 27 34 86 35
REMARK SMILES IDX 28 36 29 37 30 38 80 39 31 40 85 41 79 42 81 43 32 44 84 45
REMARK SMILES IDX 78 46 77 47 33 49 65 50 45 51 64 52 46 53 49 54 63 55 82 56
REMARK SMILES IDX 47 57 48 58 62 60 83 61 50 62 34 63 35 64 43 65 36 66 38 67
REMARK SMILES IDX 44 68 37 69 39 70 40 71 41 72 42 73 66 74 67 75 75 76 68 77
REMARK SMILES IDX 70 78 76 79 69 80 71 81 72 82 73 83 74 84 51 85 52 86 60 87
REMARK SMILES IDX 53 88 55 89 61 90 54 91 56 92 57 93 58 94 59 95
REMARK H PARENT 17 7 9 19 22 29 81 48 49 59
REMARK Flexibility Score: inf
ROOT
ATOM      1  C   UNL A   1      38.789  19.721  25.035  1.00  0.00     0.023 C 
ENDROOT
BRANCH   1   2
ATOM      2  C   UNL A   1      37.887  20.959  24.907  1.00  0.00     0.023 C 
BRANCH   2   3
ATOM      3  C   UNL A   1      36.432  20.797  25.359  1.00  0.00     0.116 C 
BRANCH   3   4
ATOM      4  N   UNL A   1      35.948  21.783  26.287  1.00  0.00    -0.352 N 
ATOM      5  C   UNL A   1      34.780  22.488  26.415  1.00  0.00     0.254 C 
ATOM      6  O   UNL A   1      34.627  23.008  27.522  1.00  0.00    -0.269 OA
ATOM      7  H   UNL A   1      36.603  22.001  26.988  1.00  0.00     0.163 HD
BRANCH   5   8
ATOM      8  C   UNL A   1      33.779  22.705  25.362  1.00  0.00     0.078 A 
ATOM      9  C   UNL A   1      32.839  21.697  25.092  1.00  0.00     0.108 A 
ATOM     10  S   UNL A   1      32.107  21.821  23.545  1.00  0.00    -0.122 S 
ATOM     11  C   UNL A   1      32.756  23.338  23.360  1.00  0.00     0.011 A 
ATOM     12  C   UNL A   1      33.592  23.738  24.376  1.00  0.00    -0.019 A 
ATOM     13  C   UNL A   1      32.640  24.285  22.228  1.00  0.00     0.047 C 
ATOM     14  C   UNL A   1      34.143  25.078  24.025  1.00  0.00     0.038 C 
ATOM     15  C   UNL A   1      33.221  25.564  22.869  1.00  0.00     0.010 C 
BRANCH   9  16
ATOM     16  N   UNL A   1      32.481  20.518  25.699  1.00  0.00    -0.317 N 
ATOM     17  C   UNL A   1      32.636  19.227  25.306  1.00  0.00     0.230 C 
ATOM     18  O   UNL A   1      32.295  18.360  26.129  1.00  0.00    -0.274 OA
ATOM     19  H   UNL A   1      32.033  20.626  26.569  1.00  0.00     0.170 HD
BRANCH  17  20
ATOM     20  C   UNL A   1      33.344  18.743  24.043  1.00  0.00     0.110 C 
ATOM     21  C   UNL A   1      32.427  18.511  21.703  1.00  0.00     0.039 C 
ATOM     22  C   UNL A   1      32.467  17.919  23.112  1.00  0.00     0.127 C 
ATOM     23  O   UNL A   1      33.052  16.612  23.031  1.00  0.00    -0.378 OA
ATOM     24  C   UNL A   1      34.435  16.722  23.371  1.00  0.00     0.161 C 
ATOM     25  C   UNL A   1      34.625  17.970  24.197  1.00  0.00     0.044 C 
ENDBRANCH  17  20
ENDBRANCH   9  16
ENDBRANCH   5   8
ENDBRANCH   3   4
ENDBRANCH   2   3
ENDBRANCH   1   2
BRANCH   1  26
ATOM     26  C   UNL A   1      39.713  19.716  26.251  1.00  0.00     0.116 C 
BRANCH  26  27
ATOM     27  N   UNL A   1      40.916  18.886  26.070  1.00  0.00    -0.352 N 
ATOM     28  C   UNL A   1      42.227  19.290  25.849  1.00  0.00     0.251 C 
ATOM     29  H   UNL A   1      40.770  17.913  26.109  1.00  0.00     0.163 HD
ATOM     30  O   UNL A   1      43.063  18.535  25.385  1.00  0.00    -0.269 OA
BRANCH  28  31
ATOM     31  C   UNL A   1      42.588  20.658  26.248  1.00  0.00     0.039 A 
ATOM     32  C   UNL A   1      43.000  21.652  25.356  1.00  0.00     0.014 A 
ATOM     33  C   UNL A   1      42.412  20.933  27.594  1.00  0.00     0.014 A 
ATOM     34  C   UNL A   1      43.154  22.952  25.840  1.00  0.00     0.010 A 
ATOM     35  C   UNL A   1      42.285  22.225  27.991  1.00  0.00     0.010 A 
ATOM     36  C   UNL A   1      42.783  23.219  27.162  1.00  0.00    -0.014 A 
BRANCH  36  37
ATOM     37  C   UNL A   1      42.867  24.531  27.775  1.00  0.00     0.031 A 
ATOM     38  C   UNL A   1      41.581  25.271  27.862  1.00  0.00     0.074 A 
ATOM     39  C   UNL A   1      43.970  24.848  28.494  1.00  0.00     0.049 A 
ATOM     40  N   UNL A   1      41.284  26.393  27.298  1.00  0.00    -0.248 NA
ATOM     41  C   UNL A   1      40.438  24.627  28.531  1.00  0.00     0.031 C 
ATOM     42  C   UNL A   1      45.149  24.007  28.778  1.00  0.00     0.029 A 
ATOM     43  N   UNL A   1      44.179  25.916  29.301  1.00  0.00    -0.354 N 
ATOM     44  C   UNL A   1      39.993  26.707  27.726  1.00  0.00     0.074 A 
ATOM     45  C   UNL A   1      39.456  25.497  28.286  1.00  0.00     0.031 C 
ATOM     46  C   UNL A   1      45.771  24.464  29.886  1.00  0.00     0.029 A 
ATOM     47  C   UNL A   1      45.148  25.711  30.279  1.00  0.00     0.049 A 
ATOM     48  H   UNL A   1      43.688  26.763  29.203  1.00  0.00     0.167 HD
ATOM     49  C   UNL A   1      39.564  27.999  27.801  1.00  0.00     0.034 A 
ATOM     50  C   UNL A   1      45.348  26.476  31.382  1.00  0.00     0.034 A 
ATOM     51  C   UNL A   1      40.510  28.889  27.172  1.00  0.00     0.049 A 
ATOM     52  C   UNL A   1      44.707  27.786  31.115  1.00  0.00     0.074 A 
ATOM     53  C   UNL A   1      41.016  29.024  25.895  1.00  0.00     0.029 A 
ATOM     54  N   UNL A   1      41.396  29.535  28.005  1.00  0.00    -0.354 N 
ATOM     55  N   UNL A   1      45.102  28.588  30.162  1.00  0.00    -0.248 NA
ATOM     56  C   UNL A   1      43.332  27.967  31.554  1.00  0.00     0.031 C 
ATOM     57  C   UNL A   1      42.404  29.289  26.086  1.00  0.00     0.029 A 
ATOM     58  C   UNL A   1      42.645  29.394  27.459  1.00  0.00     0.049 A 
ATOM     59  H   UNL A   1      41.173  30.008  28.838  1.00  0.00     0.167 HD
ATOM     60  C   UNL A   1      43.924  29.028  29.571  1.00  0.00     0.074 A 
ATOM     61  C   UNL A   1      42.869  28.697  30.534  1.00  0.00     0.031 C 
ATOM     62  C   UNL A   1      43.863  29.318  28.237  1.00  0.00     0.034 A 
BRANCH  49  63
ATOM     63  C   UNL A   1      38.492  28.544  28.716  1.00  0.00     0.023 A 
ATOM     64  C   UNL A   1      37.413  29.225  28.102  1.00  0.00     0.012 A 
ATOM     65  C   UNL A   1      38.602  28.659  30.119  1.00  0.00     0.148 A 
ATOM     66  C   UNL A   1      36.532  30.026  28.836  1.00  0.00     0.002 A 
ATOM     67  C   UNL A   1      37.682  29.400  30.854  1.00  0.00     0.091 A 
ATOM     68  F   UNL A   1      39.669  28.164  30.750  1.00  0.00    -0.205 F 
ATOM     69  C   UNL A   1      36.664  30.112  30.214  1.00  0.00     0.022 A 
BRANCH  67  70
ATOM     70  S   UNL A   1      37.775  29.514  32.646  1.00  0.00     0.127 S 
ATOM     71  O   UNL A   1      37.518  28.132  33.041  1.00  0.00    -0.237 OA
ATOM     72  O   UNL A   1      39.152  29.969  32.846  1.00  0.00    -0.237 OA
ATOM     73  O   UNL A   1      36.763  30.490  33.029  1.00  0.00    -0.744 OA
ENDBRANCH  67  70
ENDBRANCH  49  63
BRANCH  50  74
ATOM     74  C   UNL A   1      45.739  26.030  32.741  1.00  0.00     0.023 A 
ATOM     75  C   UNL A   1      46.884  26.557  33.370  1.00  0.00     0.012 A 
ATOM     76  C   UNL A   1      44.842  25.274  33.528  1.00  0.00     0.148 A 
ATOM     77  C   UNL A   1      47.117  26.348  34.738  1.00  0.00     0.002 A 
ATOM     78  C   UNL A   1      45.086  25.054  34.879  1.00  0.00     0.091 A 
ATOM     79  F   UNL A   1      43.693  24.858  32.978  1.00  0.00    -0.205 F 
ATOM     80  C   UNL A   1      46.218  25.599  35.494  1.00  0.00     0.022 A 
BRANCH  78  81
ATOM     81  S   UNL A   1      43.946  24.102  35.892  1.00  0.00     0.127 S 
ATOM     82  O   UNL A   1      43.801  22.874  35.111  1.00  0.00    -0.237 OA
ATOM     83  O   UNL A   1      44.704  23.964  37.131  1.00  0.00    -0.237 OA
ATOM     84  O   UNL A   1      42.736  24.914  35.961  1.00  0.00    -0.744 OA
ENDBRANCH  78  81
ENDBRANCH  50  74
BRANCH  62  85
ATOM     85  C   UNL A   1      45.149  29.314  27.440  1.00  0.00     0.023 A 
ATOM     86  C   UNL A   1      46.103  30.350  27.533  1.00  0.00     0.012 A 
ATOM     87  C   UNL A   1      45.503  28.135  26.769  1.00  0.00     0.148 A 
ATOM     88  C   UNL A   1      47.375  30.218  26.965  1.00  0.00     0.002 A 
ATOM     89  C   UNL A   1      46.783  27.985  26.249  1.00  0.00     0.091 A 
ATOM     90  F   UNL A   1      44.591  27.154  26.692  1.00  0.00    -0.205 F 
ATOM     91  C   UNL A   1      47.720  29.026  26.336  1.00  0.00     0.022 A 
BRANCH  89  92
ATOM     92  S   UNL A   1      47.332  26.422  25.562  1.00  0.00     0.127 S 
ATOM     93  O   UNL A   1      47.276  25.543  26.728  1.00  0.00    -0.237 OA
ATOM     94  O   UNL A   1      46.317  26.154  24.541  1.00  0.00    -0.237 OA
ATOM     95  O   UNL A   1      48.664  26.667  25.023  1.00  0.00    -0.744 OA
ENDBRANCH  89  92
ENDBRANCH  62  85
ENDBRANCH  36  37
ENDBRANCH  28  31
ENDBRANCH  26  27
ENDBRANCH   1  26
TORSDOF 16
ENDMDL
MODEL 3
REMARK VINA RESULT:     -12.3      4.208      8.606
REMARK SMILES C[C@H]1OCC[C@@H]1C(=O)Nc1sc2c(c1C(=O)NCCCCNC(=O)c1ccc(-c3c4nc(c(-c5cccc(S(=O)(=O)[O-])c5F)c5ccc([nH]5)c(-c5cccc(S(=O)(=O)[O-])c5F)c5nc(c(-c6cccc(S(=O)(=O)[O-])c6F)c6ccc3[nH]6)C=C5)C=C4)cc1)CCC2
REMARK SMILES IDX 20 1 19 2 18 3 17 4 15 5 16 6 14 8 10 9 11 10 12 11 13 12
REMARK SMILES IDX 90 13 88 14 89 15 9 16 7 17 8 18 6 20 1 21 2 22 3 23 4 24
REMARK SMILES IDX 5 25 21 26 22 27 23 28 24 30 25 31 26 32 87 33 27 34 86 35
REMARK SMILES IDX 28 36 29 37 30 38 80 39 31 40 85 41 79 42 81 43 32 44 84 45
REMARK SMILES IDX 78 46 77 47 33 49 65 50 45 51 64 52 46 53 49 54 63 55 82 56
REMARK SMILES IDX 47 57 48 58 62 60 83 61 50 62 34 63 35 64 43 65 36 66 38 67
REMARK SMILES IDX 44 68 37 69 39 70 40 71 41 72 42 73 66 74 67 75 75 76 68 77
REMARK SMILES IDX 70 78 76 79 69 80 71 81 72 82 73 83 74 84 51 85 52 86 60 87
REMARK SMILES IDX 53 88 55 89 61 90 54 91 56 92 57 93 58 94 59 95
REMARK H PARENT 17 7 9 19 22 29 81 48 49 59
REMARK Flexibility Score: inf
ROOT
ATOM      1  C   UNL A   1      32.801  29.613  27.160  1.00  0.00     0.023 C 
ENDROOT
BRANCH   1   2
ATOM      2  C   UNL A   1      32.734  28.104  26.871  1.00  0.00     0.023 C 
BRANCH   2   3
ATOM      3  C   UNL A   1      31.344  27.520  26.598  1.00  0.00     0.116 C 
BRANCH   3   4
ATOM      4  N   UNL A   1      31.172  26.129  26.918  1.00  0.00    -0.352 N 
ATOM      5  C   UNL A   1      31.685  24.960  26.421  1.00  0.00     0.254 C 
ATOM      6  O   UNL A   1      31.535  23.990  27.165  1.00  0.00    -0.269 OA
ATOM      7  H   UNL A   1      30.544  25.983  27.660  1.00  0.00     0.163 HD
BRANCH   5   8
ATOM      8  C   UNL A   1      32.314  24.780  25.105  1.00  0.00     0.078 A 
ATOM      9  C   UNL A   1      33.482  24.006  25.004  1.00  0.00     0.108 A 
ATOM     10  S   UNL A   1      34.399  24.307  23.585  1.00  0.00    -0.122 S 
ATOM     11  C   UNL A   1      33.138  25.185  22.957  1.00  0.00     0.011 A 
ATOM     12  C   UNL A   1      32.070  25.354  23.807  1.00  0.00    -0.019 A 
ATOM     13  C   UNL A   1      33.028  25.886  21.658  1.00  0.00     0.047 C 
ATOM     14  C   UNL A   1      31.065  26.219  23.125  1.00  0.00     0.038 C 
ATOM     15  C   UNL A   1      31.517  26.204  21.636  1.00  0.00     0.010 C 
BRANCH   9  16
ATOM     16  N   UNL A   1      34.174  23.180  25.856  1.00  0.00    -0.317 N 
ATOM     17  C   UNL A   1      34.407  21.842  25.812  1.00  0.00     0.230 C 
ATOM     18  O   UNL A   1      35.165  21.390  26.688  1.00  0.00    -0.274 OA
ATOM     19  H   UNL A   1      34.568  23.635  26.635  1.00  0.00     0.170 HD
BRANCH  17  20
ATOM     20  C   UNL A   1      33.980  20.885  24.702  1.00  0.00     0.110 C 
ATOM     21  C   UNL A   1      32.131  21.149  23.005  1.00  0.00     0.039 C 
ATOM     22  C   UNL A   1      32.479  20.837  24.461  1.00  0.00     0.127 C 
ATOM     23  O   UNL A   1      32.049  19.499  24.747  1.00  0.00    -0.378 OA
ATOM     24  C   UNL A   1      33.177  18.632  24.613  1.00  0.00     0.161 C 
ATOM     25  C   UNL A   1      34.432  19.452  24.786  1.00  0.00     0.044 C 
ENDBRANCH  17  20
ENDBRANCH   9  16
ENDBRANCH   5   8
ENDBRANCH   3   4
ENDBRANCH   2   3
ENDBRANCH   1   2
BRANCH   1  26
ATOM     26  C   UNL A   1      34.210  30.200  27.209  1.00  0.00     0.116 C 
BRANCH  26  27
ATOM     27  N   UNL A   1      34.287  31.477  27.939  1.00  0.00    -0.352 N 
ATOM     28  C   UNL A   1      35.103  31.817  29.013  1.00  0.00     0.251 C 
ATOM     29  H   UNL A   1      33.678  32.184  27.626  1.00  0.00     0.163 HD
ATOM     30  O   UNL A   1      34.848  32.761  29.739  1.00  0.00    -0.269 OA
BRANCH  28  31
ATOM     31  C   UNL A   1      36.324  31.022  29.211  1.00  0.00     0.039 A 
ATOM     32  C   UNL A   1      36.449  29.675  28.860  1.00  0.00     0.014 A 
ATOM     33  C   UNL A   1      37.402  31.735  29.709  1.00  0.00     0.014 A 
ATOM     34  C   UNL A   1      37.708  29.083  28.948  1.00  0.00     0.010 A 
ATOM     35  C   UNL A   1      38.656  31.248  29.523  1.00  0.00     0.010 A 
ATOM     36  C   UNL A   1      38.803  29.891  29.275  1.00  0.00    -0.014 A 
BRANCH  36  37
ATOM     37  C   UNL A   1      40.166  29.404  29.371  1.00  0.00     0.031 A 
ATOM     38  C   UNL A   1      40.657  29.169  30.754  1.00  0.00     0.074 A 
ATOM     39  C   UNL A   1      40.761  28.902  28.263  1.00  0.00     0.049 A 
ATOM     40  N   UNL A   1      41.635  29.763  31.350  1.00  0.00    -0.248 NA
ATOM     41  C   UNL A   1      39.887  28.274  31.635  1.00  0.00     0.031 C 
ATOM     42  C   UNL A   1      40.193  28.748  26.910  1.00  0.00     0.029 A 
ATOM     43  N   UNL A   1      41.931  28.227  28.161  1.00  0.00    -0.354 N 
ATOM     44  C   UNL A   1      41.746  29.157  32.602  1.00  0.00     0.074 A 
ATOM     45  C   UNL A   1      40.525  28.424  32.797  1.00  0.00     0.031 C 
ATOM     46  C   UNL A   1      40.877  27.796  26.241  1.00  0.00     0.029 A 
ATOM     47  C   UNL A   1      42.021  27.406  27.040  1.00  0.00     0.049 A 
ATOM     48  H   UNL A   1      42.656  28.310  28.822  1.00  0.00     0.167 HD
ATOM     49  C   UNL A   1      42.934  29.117  33.269  1.00  0.00     0.034 A 
ATOM     50  C   UNL A   1      42.925  26.414  26.843  1.00  0.00     0.034 A 
ATOM     51  C   UNL A   1      43.912  29.959  32.623  1.00  0.00     0.049 A 
ATOM     52  C   UNL A   1      44.055  26.676  27.767  1.00  0.00     0.074 A 
ATOM     53  C   UNL A   1      43.999  31.307  32.344  1.00  0.00     0.029 A 
ATOM     54  N   UNL A   1      44.799  29.335  31.776  1.00  0.00    -0.354 N 
ATOM     55  N   UNL A   1      44.807  27.740  27.684  1.00  0.00    -0.248 NA
ATOM     56  C   UNL A   1      44.021  26.035  29.073  1.00  0.00     0.031 C 
ATOM     57  C   UNL A   1      44.540  31.366  31.026  1.00  0.00     0.029 A 
ATOM     58  C   UNL A   1      44.837  30.064  30.616  1.00  0.00     0.049 A 
ATOM     59  H   UNL A   1      45.311  28.516  31.967  1.00  0.00     0.167 HD
ATOM     60  C   UNL A   1      44.950  28.165  28.999  1.00  0.00     0.074 A 
ATOM     61  C   UNL A   1      44.535  27.021  29.816  1.00  0.00     0.031 C 
ATOM     62  C   UNL A   1      45.077  29.490  29.308  1.00  0.00     0.034 A 
BRANCH  49  63
ATOM     63  C   UNL A   1      43.365  28.085  34.286  1.00  0.00     0.023 A 
ATOM     64  C   UNL A   1      43.811  28.570  35.539  1.00  0.00     0.012 A 
ATOM     65  C   UNL A   1      43.603  26.721  34.010  1.00  0.00     0.148 A 
ATOM     66  C   UNL A   1      44.512  27.760  36.438  1.00  0.00     0.002 A 
ATOM     67  C   UNL A   1      44.238  25.900  34.937  1.00  0.00     0.091 A 
ATOM     68  F   UNL A   1      43.339  26.227  32.799  1.00  0.00    -0.205 F 
ATOM     69  C   UNL A   1      44.723  26.422  36.139  1.00  0.00     0.022 A 
BRANCH  67  70
ATOM     70  S   UNL A   1      44.502  24.149  34.625  1.00  0.00     0.127 S 
ATOM     71  O   UNL A   1      45.410  24.190  33.481  1.00  0.00    -0.237 OA
ATOM     72  O   UNL A   1      45.109  23.708  35.882  1.00  0.00    -0.237 OA
ATOM     73  O   UNL A   1      43.179  23.593  34.374  1.00  0.00    -0.744 OA
ENDBRANCH  67  70
ENDBRANCH  49  63
BRANCH  50  74
ATOM     74  C   UNL A   1      42.711  25.106  26.178  1.00  0.00     0.023 A 
ATOM     75  C   UNL A   1      43.593  24.655  25.177  1.00  0.00     0.012 A 
ATOM     76  C   UNL A   1      41.786  24.180  26.709  1.00  0.00     0.148 A 
ATOM     77  C   UNL A   1      43.562  23.324  24.732  1.00  0.00     0.002 A 
ATOM     78  C   UNL A   1      41.744  22.867  26.252  1.00  0.00     0.091 A 
ATOM     79  F   UNL A   1      41.015  24.556  27.738  1.00  0.00    -0.205 F 
ATOM     80  C   UNL A   1      42.639  22.429  25.270  1.00  0.00     0.022 A 
BRANCH  78  81
ATOM     81  S   UNL A   1      40.577  21.679  26.927  1.00  0.00     0.127 S 
ATOM     82  O   UNL A   1      39.294  22.249  26.516  1.00  0.00    -0.237 OA
ATOM     83  O   UNL A   1      40.967  20.459  26.228  1.00  0.00    -0.237 OA
ATOM     84  O   UNL A   1      40.808  21.701  28.367  1.00  0.00    -0.744 OA
ENDBRANCH  78  81
ENDBRANCH  50  74
BRANCH  62  85
ATOM     85  C   UNL A   1      45.227  30.482  28.177  1.00  0.00     0.023 A 
ATOM     86  C   UNL A   1      44.119  31.091  27.548  1.00  0.00     0.012 A 
ATOM     87  C   UNL A   1      46.508  30.982  27.906  1.00  0.00     0.148 A 
ATOM     88  C   UNL A   1      44.284  32.164  26.667  1.00  0.00     0.002 A 
ATOM     89  C   UNL A   1      46.667  32.081  27.069  1.00  0.00     0.091 A 
ATOM     90  F   UNL A   1      47.554  30.402  28.513  1.00  0.00    -0.205 F 
ATOM     91  C   UNL A   1      45.559  32.670  26.440  1.00  0.00     0.022 A 
BRANCH  89  92
ATOM     92  S   UNL A   1      48.265  32.868  26.857  1.00  0.00     0.127 S 
ATOM     93  O   UNL A   1      47.978  33.862  25.825  1.00  0.00    -0.237 OA
ATOM     94  O   UNL A   1      48.520  33.422  28.188  1.00  0.00    -0.237 OA
ATOM     95  O   UNL A   1      49.185  31.807  26.469  1.00  0.00    -0.744 OA
ENDBRANCH  89  92
ENDBRANCH  62  85
ENDBRANCH  36  37
ENDBRANCH  28  31
ENDBRANCH  26  27
ENDBRANCH   1  26
TORSDOF 16
ENDMDL
