MODEL 1
REMARK VINA RESULT:     -12.3      0.000      0.000
REMARK SMILES O=C(NCCCCNC(=O)c1ccccc1/N=C/c1coc2ccccc2c1=O)c1ccc(-c2c3nc(c(-c4cccc(S(=O)(=O)[O-])c4F)c4ccc([nH]4)c(-c4cccc(S(=O)(=O)[O-])c4F)c4nc(c(-c5cccc(S(=O)(=O)[O-])c5F)c5ccc2[nH]5)C=C4)C=C3)cc1
REMARK SMILES IDX 5 1 4 2 3 3 1 4 2 5 30 7 31 8 92 9 32 10 91 11 33 12 34 13
REMARK SMILES IDX 35 14 85 15 36 16 90 17 84 18 86 19 37 20 89 21 83 22 82 23
REMARK SMILES IDX 38 25 70 26 50 27 69 28 51 29 54 30 68 31 87 32 52 33 53 34
REMARK SMILES IDX 67 36 88 37 55 38 39 39 40 40 48 41 41 42 43 43 49 44 42 45
REMARK SMILES IDX 44 46 45 47 46 48 47 49 71 50 72 51 80 52 73 53 75 54 81 55
REMARK SMILES IDX 74 56 76 57 77 58 78 59 79 60 56 61 57 62 65 63 58 64 60 65
REMARK SMILES IDX 66 66 59 67 61 68 62 69 63 70 64 71 6 72 7 73 8 74 9 75
REMARK SMILES IDX 10 77 11 78 12 79 16 80 13 81 15 82 14 83 17 84 18 85 19 86
REMARK SMILES IDX 20 87 28 88 21 89 27 90 29 91 22 92 26 93 23 94 25 95 24 96
REMARK H PARENT 3 6 86 24 54 35 8 76
REMARK Flexibility Score: inf
ROOT
ATOM      1  C   UNL A   1      31.789  31.236  26.998  1.00  0.00     0.023 C 
ENDROOT
BRANCH   1   2
ATOM      2  C   UNL A   1      32.853  32.272  26.634  1.00  0.00     0.116 C 
BRANCH   2   3
ATOM      3  N   UNL A   1      32.593  33.580  27.206  1.00  0.00    -0.352 N 
ATOM      4  O   UNL A   1      32.655  35.240  28.733  1.00  0.00    -0.269 OA
ATOM      5  C   UNL A   1      33.142  34.198  28.305  1.00  0.00     0.251 C 
ATOM      6  H   UNL A   1      31.915  34.112  26.730  1.00  0.00     0.163 HD
BRANCH   5   7
ATOM      7  C   UNL A   1      34.326  33.616  28.979  1.00  0.00     0.039 A 
ATOM      8  C   UNL A   1      35.617  34.076  28.696  1.00  0.00     0.014 A 
ATOM      9  C   UNL A   1      34.138  32.637  29.959  1.00  0.00     0.014 A 
ATOM     10  C   UNL A   1      36.723  33.469  29.293  1.00  0.00     0.010 A 
ATOM     11  C   UNL A   1      35.244  32.060  30.591  1.00  0.00     0.010 A 
ATOM     12  C   UNL A   1      36.546  32.441  30.231  1.00  0.00    -0.014 A 
BRANCH  12  13
ATOM     13  C   UNL A   1      37.723  31.748  30.810  1.00  0.00     0.031 A 
ATOM     14  C   UNL A   1      38.169  32.062  32.213  1.00  0.00     0.074 A 
ATOM     15  C   UNL A   1      38.399  30.840  30.080  1.00  0.00     0.049 A 
ATOM     16  N   UNL A   1      39.160  31.550  32.896  1.00  0.00    -0.248 NA
ATOM     17  C   UNL A   1      37.402  33.085  32.943  1.00  0.00     0.031 C 
ATOM     18  C   UNL A   1      38.089  30.472  28.699  1.00  0.00     0.029 A 
ATOM     19  N   UNL A   1      39.492  30.073  30.397  1.00  0.00    -0.354 N 
ATOM     20  C   UNL A   1      39.156  32.205  34.120  1.00  0.00     0.074 A 
ATOM     21  C   UNL A   1      38.068  33.159  34.087  1.00  0.00     0.031 C 
ATOM     22  C   UNL A   1      38.972  29.549  28.285  1.00  0.00     0.029 A 
ATOM     23  C   UNL A   1      39.918  29.271  29.364  1.00  0.00     0.049 A 
ATOM     24  H   UNL A   1      39.929  30.095  31.278  1.00  0.00     0.167 HD
ATOM     25  C   UNL A   1      39.963  32.011  35.189  1.00  0.00     0.034 A 
ATOM     26  C   UNL A   1      40.953  28.410  29.294  1.00  0.00     0.034 A 
ATOM     27  C   UNL A   1      41.010  31.028  35.251  1.00  0.00     0.049 A 
ATOM     28  C   UNL A   1      41.820  28.195  30.503  1.00  0.00     0.074 A 
ATOM     29  C   UNL A   1      41.836  30.717  36.316  1.00  0.00     0.029 A 
ATOM     30  N   UNL A   1      41.375  30.197  34.204  1.00  0.00    -0.354 N 
ATOM     31  N   UNL A   1      41.712  28.725  31.697  1.00  0.00    -0.248 NA
ATOM     32  C   UNL A   1      42.935  27.245  30.365  1.00  0.00     0.031 C 
ATOM     33  C   UNL A   1      42.697  29.687  35.916  1.00  0.00     0.029 A 
ATOM     34  C   UNL A   1      42.414  29.371  34.597  1.00  0.00     0.049 A 
ATOM     35  H   UNL A   1      40.957  30.193  33.313  1.00  0.00     0.167 HD
ATOM     36  C   UNL A   1      42.730  28.159  32.458  1.00  0.00     0.074 A 
ATOM     37  C   UNL A   1      43.432  27.231  31.596  1.00  0.00     0.031 C 
ATOM     38  C   UNL A   1      43.064  28.406  33.748  1.00  0.00     0.034 A 
BRANCH  25  39
ATOM     39  C   UNL A   1      39.691  32.831  36.418  1.00  0.00     0.023 A 
ATOM     40  C   UNL A   1      40.349  34.068  36.567  1.00  0.00     0.012 A 
ATOM     41  C   UNL A   1      38.767  32.415  37.392  1.00  0.00     0.148 A 
ATOM     42  C   UNL A   1      40.099  34.873  37.677  1.00  0.00     0.002 A 
ATOM     43  C   UNL A   1      38.508  33.234  38.487  1.00  0.00     0.091 A 
ATOM     44  F   UNL A   1      38.174  31.220  37.254  1.00  0.00    -0.205 F 
ATOM     45  C   UNL A   1      39.172  34.462  38.632  1.00  0.00     0.022 A 
BRANCH  43  46
ATOM     46  S   UNL A   1      37.290  32.761  39.720  1.00  0.00     0.127 S 
ATOM     47  O   UNL A   1      36.069  32.678  38.924  1.00  0.00    -0.237 OA
ATOM     48  O   UNL A   1      37.791  31.470  40.197  1.00  0.00    -0.237 OA
ATOM     49  O   UNL A   1      37.344  33.823  40.716  1.00  0.00    -0.744 OA
ENDBRANCH  43  46
ENDBRANCH  25  39
BRANCH  26  50
ATOM     50  C   UNL A   1      41.165  27.628  28.046  1.00  0.00     0.023 A 
ATOM     51  C   UNL A   1      41.758  28.258  26.935  1.00  0.00     0.012 A 
ATOM     52  C   UNL A   1      40.853  26.257  27.974  1.00  0.00     0.148 A 
ATOM     53  C   UNL A   1      42.031  27.537  25.773  1.00  0.00     0.002 A 
ATOM     54  C   UNL A   1      41.170  25.534  26.829  1.00  0.00     0.091 A 
ATOM     55  F   UNL A   1      40.262  25.680  29.030  1.00  0.00    -0.205 F 
ATOM     56  C   UNL A   1      41.751  26.173  25.724  1.00  0.00     0.022 A 
BRANCH  54  57
ATOM     57  S   UNL A   1      40.953  23.752  26.758  1.00  0.00     0.127 S 
ATOM     58  O   UNL A   1      41.881  23.377  25.695  1.00  0.00    -0.237 OA
ATOM     59  O   UNL A   1      41.356  23.331  28.101  1.00  0.00    -0.237 OA
ATOM     60  O   UNL A   1      39.537  23.559  26.478  1.00  0.00    -0.744 OA
ENDBRANCH  54  57
ENDBRANCH  26  50
BRANCH  38  61
ATOM     61  C   UNL A   1      44.242  27.669  34.318  1.00  0.00     0.023 A 
ATOM     62  C   UNL A   1      45.520  28.255  34.232  1.00  0.00     0.012 A 
ATOM     63  C   UNL A   1      44.081  26.457  35.015  1.00  0.00     0.148 A 
ATOM     64  C   UNL A   1      46.622  27.640  34.825  1.00  0.00     0.002 A 
ATOM     65  C   UNL A   1      45.181  25.863  35.627  1.00  0.00     0.091 A 
ATOM     66  F   UNL A   1      42.862  25.899  35.065  1.00  0.00    -0.205 F 
ATOM     67  C   UNL A   1      46.451  26.451  35.531  1.00  0.00     0.022 A 
BRANCH  65  68
ATOM     68  S   UNL A   1      45.004  24.369  36.611  1.00  0.00     0.127 S 
ATOM     69  O   UNL A   1      46.388  24.086  36.983  1.00  0.00    -0.237 OA
ATOM     70  O   UNL A   1      44.154  24.808  37.718  1.00  0.00    -0.237 OA
ATOM     71  O   UNL A   1      44.369  23.404  35.722  1.00  0.00    -0.744 OA
ENDBRANCH  65  68
ENDBRANCH  38  61
ENDBRANCH  12  13
ENDBRANCH   5   7
ENDBRANCH   2   3
ENDBRANCH   1   2
BRANCH   1  72
ATOM     72  C   UNL A   1      32.275  29.801  27.240  1.00  0.00     0.023 C 
BRANCH  72  73
ATOM     73  C   UNL A   1      31.672  28.715  26.351  1.00  0.00     0.116 C 
BRANCH  73  74
ATOM     74  N   UNL A   1      32.414  28.479  25.126  1.00  0.00    -0.352 N 
ATOM     75  C   UNL A   1      31.941  28.405  23.842  1.00  0.00     0.253 C 
ATOM     76  H   UNL A   1      33.386  28.357  25.232  1.00  0.00     0.163 HD
ATOM     77  O   UNL A   1      32.721  28.304  22.899  1.00  0.00    -0.269 OA
BRANCH  75  78
ATOM     78  C   UNL A   1      30.497  28.389  23.561  1.00  0.00     0.065 A 
ATOM     79  C   UNL A   1      29.946  29.581  23.060  1.00  0.00     0.016 A 
ATOM     80  C   UNL A   1      29.675  27.288  23.814  1.00  0.00     0.076 A 
ATOM     81  C   UNL A   1      28.582  29.670  22.779  1.00  0.00     0.001 A 
ATOM     82  C   UNL A   1      28.301  27.407  23.538  1.00  0.00     0.029 A 
ATOM     83  C   UNL A   1      27.755  28.582  23.024  1.00  0.00     0.002 A 
BRANCH  80  84
ATOM     84  N   UNL A   1      30.073  25.998  24.135  1.00  0.00    -0.255 NA
ATOM     85  C   UNL A   1      30.328  25.536  25.314  1.00  0.00     0.127 C 
BRANCH  85  86
ATOM     86  C   UNL A   1      30.668  24.091  25.329  1.00  0.00     0.076 A 
ATOM     87  C   UNL A   1      30.793  23.620  24.075  1.00  0.00     0.209 A 
ATOM     88  C   UNL A   1      31.748  23.665  26.262  1.00  0.00     0.201 A 
ATOM     89  O   UNL A   1      31.903  22.911  23.627  1.00  0.00    -0.463 OA
ATOM     90  C   UNL A   1      33.065  23.608  25.618  1.00  0.00     0.065 A 
ATOM     91  O   UNL A   1      31.593  23.554  27.469  1.00  0.00    -0.288 OA
ATOM     92  C   UNL A   1      33.077  23.272  24.263  1.00  0.00     0.137 A 
ATOM     93  C   UNL A   1      34.202  24.091  26.261  1.00  0.00     0.016 A 
ATOM     94  C   UNL A   1      34.248  23.411  23.529  1.00  0.00     0.048 A 
ATOM     95  C   UNL A   1      35.365  24.268  25.516  1.00  0.00     0.001 A 
ATOM     96  C   UNL A   1      35.387  23.930  24.157  1.00  0.00     0.004 A 
ENDBRANCH  85  86
ENDBRANCH  80  84
ENDBRANCH  75  78
ENDBRANCH  73  74
ENDBRANCH  72  73
ENDBRANCH   1  72
TORSDOF 16
ENDMDL
MODEL 2
REMARK VINA RESULT:     -12.3      1.782      7.759
REMARK SMILES O=C(NCCCCNC(=O)c1ccccc1/N=C/c1coc2ccccc2c1=O)c1ccc(-c2c3nc(c(-c4cccc(S(=O)(=O)[O-])c4F)c4ccc([nH]4)c(-c4cccc(S(=O)(=O)[O-])c4F)c4nc(c(-c5cccc(S(=O)(=O)[O-])c5F)c5ccc2[nH]5)C=C4)C=C3)cc1
REMARK SMILES IDX 5 1 4 2 3 3 1 4 2 5 30 7 31 8 92 9 32 10 91 11 33 12 34 13
REMARK SMILES IDX 35 14 85 15 36 16 90 17 84 18 86 19 37 20 89 21 83 22 82 23
REMARK SMILES IDX 38 25 70 26 50 27 69 28 51 29 54 30 68 31 87 32 52 33 53 34
REMARK SMILES IDX 67 36 88 37 55 38 39 39 40 40 48 41 41 42 43 43 49 44 42 45
REMARK SMILES IDX 44 46 45 47 46 48 47 49 71 50 72 51 80 52 73 53 75 54 81 55
REMARK SMILES IDX 74 56 76 57 77 58 78 59 79 60 56 61 57 62 65 63 58 64 60 65
REMARK SMILES IDX 66 66 59 67 61 68 62 69 63 70 64 71 6 72 7 73 8 74 9 75
REMARK SMILES IDX 10 77 11 78 12 79 16 80 13 81 15 82 14 83 17 84 18 85 19 86
REMARK SMILES IDX 20 87 28 88 21 89 27 90 29 91 22 92 26 93 23 94 25 95 24 96
REMARK H PARENT 3 6 86 24 54 35 8 76
REMARK Flexibility Score: inf
ROOT
ATOM      1  C   UNL A   1      31.394  31.962  26.879  1.00  0.00     0.023 C 
ENDROOT
BRANCH   1   2
ATOM      2  C   UNL A   1      32.700  32.659  27.259  1.00  0.00     0.116 C 
BRANCH   2   3
ATOM      3  N   UNL A   1      32.521  34.058  27.601  1.00  0.00    -0.352 N 
ATOM      4  O   UNL A   1      32.684  35.945  28.827  1.00  0.00    -0.269 OA
ATOM      5  C   UNL A   1      33.108  34.818  28.584  1.00  0.00     0.251 C 
ATOM      6  H   UNL A   1      31.875  34.541  27.036  1.00  0.00     0.163 HD
BRANCH   5   7
ATOM      7  C   UNL A   1      34.256  34.289  29.357  1.00  0.00     0.039 A 
ATOM      8  C   UNL A   1      35.572  34.496  28.927  1.00  0.00     0.014 A 
ATOM      9  C   UNL A   1      34.016  33.629  30.566  1.00  0.00     0.014 A 
ATOM     10  C   UNL A   1      36.635  33.932  29.634  1.00  0.00     0.010 A 
ATOM     11  C   UNL A   1      35.085  33.104  31.298  1.00  0.00     0.010 A 
ATOM     12  C   UNL A   1      36.399  33.214  30.815  1.00  0.00    -0.014 A 
BRANCH  12  13
ATOM     13  C   UNL A   1      37.522  32.554  31.525  1.00  0.00     0.031 A 
ATOM     14  C   UNL A   1      38.248  31.402  30.883  1.00  0.00     0.074 A 
ATOM     15  C   UNL A   1      37.893  32.981  32.747  1.00  0.00     0.049 A 
ATOM     16  N   UNL A   1      39.261  30.711  31.338  1.00  0.00    -0.248 NA
ATOM     17  C   UNL A   1      37.772  30.969  29.559  1.00  0.00     0.031 C 
ATOM     18  C   UNL A   1      37.250  34.064  33.491  1.00  0.00     0.029 A 
ATOM     19  N   UNL A   1      38.893  32.547  33.581  1.00  0.00    -0.354 N 
ATOM     20  C   UNL A   1      39.526  29.747  30.374  1.00  0.00     0.074 A 
ATOM     21  C   UNL A   1      38.563  29.934  29.311  1.00  0.00     0.031 C 
ATOM     22  C   UNL A   1      37.871  34.210  34.672  1.00  0.00     0.029 A 
ATOM     23  C   UNL A   1      38.944  33.224  34.777  1.00  0.00     0.049 A 
ATOM     24  H   UNL A   1      39.514  31.820  33.346  1.00  0.00     0.167 HD
ATOM     25  C   UNL A   1      40.502  28.809  30.359  1.00  0.00     0.034 A 
ATOM     26  C   UNL A   1      39.763  33.069  35.836  1.00  0.00     0.034 A 
ATOM     27  C   UNL A   1      41.497  28.651  31.384  1.00  0.00     0.049 A 
ATOM     28  C   UNL A   1      40.854  32.035  35.784  1.00  0.00     0.074 A 
ATOM     29  C   UNL A   1      42.562  27.770  31.420  1.00  0.00     0.029 A 
ATOM     30  N   UNL A   1      41.549  29.393  32.553  1.00  0.00    -0.354 N 
ATOM     31  N   UNL A   1      41.173  31.226  34.804  1.00  0.00    -0.248 NA
ATOM     32  C   UNL A   1      41.714  31.910  36.971  1.00  0.00     0.031 C 
ATOM     33  C   UNL A   1      43.268  27.986  32.611  1.00  0.00     0.029 A 
ATOM     34  C   UNL A   1      42.629  28.991  33.319  1.00  0.00     0.049 A 
ATOM     35  H   UNL A   1      40.912  30.102  32.802  1.00  0.00     0.167 HD
ATOM     36  C   UNL A   1      42.281  30.511  35.245  1.00  0.00     0.074 A 
ATOM     37  C   UNL A   1      42.590  30.996  36.575  1.00  0.00     0.031 C 
ATOM     38  C   UNL A   1      42.964  29.526  34.614  1.00  0.00     0.034 A 
BRANCH  25  39
ATOM     39  C   UNL A   1      40.589  27.924  29.148  1.00  0.00     0.023 A 
ATOM     40  C   UNL A   1      39.740  26.804  29.063  1.00  0.00     0.012 A 
ATOM     41  C   UNL A   1      41.463  28.214  28.085  1.00  0.00     0.148 A 
ATOM     42  C   UNL A   1      39.768  25.977  27.941  1.00  0.00     0.002 A 
ATOM     43  C   UNL A   1      41.470  27.395  26.960  1.00  0.00     0.091 A 
ATOM     44  F   UNL A   1      42.290  29.264  28.194  1.00  0.00    -0.205 F 
ATOM     45  C   UNL A   1      40.626  26.277  26.886  1.00  0.00     0.022 A 
BRANCH  43  46
ATOM     46  S   UNL A   1      42.531  27.770  25.559  1.00  0.00     0.127 S 
ATOM     47  O   UNL A   1      41.972  29.032  25.084  1.00  0.00    -0.237 OA
ATOM     48  O   UNL A   1      43.856  27.887  26.172  1.00  0.00    -0.237 OA
ATOM     49  O   UNL A   1      42.387  26.623  24.672  1.00  0.00    -0.744 OA
ENDBRANCH  43  46
ENDBRANCH  25  39
BRANCH  26  50
ATOM     50  C   UNL A   1      39.622  33.980  37.004  1.00  0.00     0.023 A 
ATOM     51  C   UNL A   1      40.013  35.326  36.874  1.00  0.00     0.012 A 
ATOM     52  C   UNL A   1      39.043  33.545  38.211  1.00  0.00     0.148 A 
ATOM     53  C   UNL A   1      39.835  36.222  37.928  1.00  0.00     0.002 A 
ATOM     54  C   UNL A   1      38.825  34.454  39.241  1.00  0.00     0.091 A 
ATOM     55  F   UNL A   1      38.703  32.253  38.328  1.00  0.00    -0.205 F 
ATOM     56  C   UNL A   1      39.228  35.791  39.106  1.00  0.00     0.022 A 
BRANCH  54  57
ATOM     57  S   UNL A   1      37.930  33.987  40.728  1.00  0.00     0.127 S 
ATOM     58  O   UNL A   1      37.734  35.278  41.381  1.00  0.00    -0.237 OA
ATOM     59  O   UNL A   1      36.711  33.383  40.186  1.00  0.00    -0.237 OA
ATOM     60  O   UNL A   1      38.805  33.044  41.409  1.00  0.00    -0.744 OA
ENDBRANCH  54  57
ENDBRANCH  26  50
BRANCH  38  61
ATOM     61  C   UNL A   1      44.116  28.895  35.343  1.00  0.00     0.023 A 
ATOM     62  C   UNL A   1      45.402  29.452  35.200  1.00  0.00     0.012 A 
ATOM     63  C   UNL A   1      43.921  27.823  36.234  1.00  0.00     0.148 A 
ATOM     64  C   UNL A   1      46.477  28.946  35.928  1.00  0.00     0.002 A 
ATOM     65  C   UNL A   1      44.995  27.340  36.976  1.00  0.00     0.091 A 
ATOM     66  F   UNL A   1      42.695  27.286  36.339  1.00  0.00    -0.205 F 
ATOM     67  C   UNL A   1      46.272  27.899  36.824  1.00  0.00     0.022 A 
BRANCH  65  68
ATOM     68  S   UNL A   1      44.771  26.041  38.198  1.00  0.00     0.127 S 
ATOM     69  O   UNL A   1      46.028  26.103  38.939  1.00  0.00    -0.237 OA
ATOM     70  O   UNL A   1      43.600  26.497  38.948  1.00  0.00    -0.237 OA
ATOM     71  O   UNL A   1      44.544  24.828  37.423  1.00  0.00    -0.744 OA
ENDBRANCH  65  68
ENDBRANCH  38  61
ENDBRANCH  12  13
ENDBRANCH   5   7
ENDBRANCH   2   3
ENDBRANCH   1   2
BRANCH   1  72
ATOM     72  C   UNL A   1      31.497  30.788  25.897  1.00  0.00     0.023 C 
BRANCH  72  73
ATOM     73  C   UNL A   1      32.717  29.880  26.040  1.00  0.00     0.116 C 
BRANCH  73  74
ATOM     74  N   UNL A   1      33.436  29.661  24.798  1.00  0.00    -0.352 N 
ATOM     75  C   UNL A   1      33.035  28.958  23.692  1.00  0.00     0.253 C 
ATOM     76  H   UNL A   1      34.329  30.073  24.743  1.00  0.00     0.163 HD
ATOM     77  O   UNL A   1      33.723  28.956  22.676  1.00  0.00    -0.269 OA
BRANCH  75  78
ATOM     78  C   UNL A   1      31.808  28.146  23.709  1.00  0.00     0.065 A 
ATOM     79  C   UNL A   1      30.610  28.822  23.419  1.00  0.00     0.016 A 
ATOM     80  C   UNL A   1      31.786  26.788  24.039  1.00  0.00     0.076 A 
ATOM     81  C   UNL A   1      29.391  28.141  23.426  1.00  0.00     0.001 A 
ATOM     82  C   UNL A   1      30.544  26.128  24.055  1.00  0.00     0.029 A 
ATOM     83  C   UNL A   1      29.357  26.791  23.752  1.00  0.00     0.002 A 
BRANCH  80  84
ATOM     84  N   UNL A   1      32.875  25.939  24.176  1.00  0.00    -0.255 NA
ATOM     85  C   UNL A   1      33.328  25.429  25.273  1.00  0.00     0.127 C 
BRANCH  85  86
ATOM     86  C   UNL A   1      34.472  24.505  25.076  1.00  0.00     0.076 A 
ATOM     87  C   UNL A   1      34.731  23.821  26.206  1.00  0.00     0.209 A 
ATOM     88  C   UNL A   1      34.460  23.676  23.838  1.00  0.00     0.201 A 
ATOM     89  O   UNL A   1      34.839  22.435  26.258  1.00  0.00    -0.463 OA
ATOM     90  C   UNL A   1      33.878  22.346  24.052  1.00  0.00     0.065 A 
ATOM     91  O   UNL A   1      34.731  24.112  22.730  1.00  0.00    -0.288 OA
ATOM     92  C   UNL A   1      34.056  21.789  25.319  1.00  0.00     0.137 A 
ATOM     93  C   UNL A   1      33.002  21.787  23.124  1.00  0.00     0.016 A 
ATOM     94  C   UNL A   1      33.355  20.643  25.672  1.00  0.00     0.048 A 
ATOM     95  C   UNL A   1      32.269  20.662  23.492  1.00  0.00     0.001 A 
ATOM     96  C   UNL A   1      32.444  20.093  24.761  1.00  0.00     0.004 A 
ENDBRANCH  85  86
ENDBRANCH  80  84
ENDBRANCH  75  78
ENDBRANCH  73  74
ENDBRANCH  72  73
ENDBRANCH   1  72
TORSDOF 16
ENDMDL
MODEL 3
REMARK VINA RESULT:     -12.3      1.530      7.602
REMARK SMILES O=C(NCCCCNC(=O)c1ccccc1/N=C/c1coc2ccccc2c1=O)c1ccc(-c2c3nc(c(-c4cccc(S(=O)(=O)[O-])c4F)c4ccc([nH]4)c(-c4cccc(S(=O)(=O)[O-])c4F)c4nc(c(-c5cccc(S(=O)(=O)[O-])c5F)c5ccc2[nH]5)C=C4)C=C3)cc1
REMARK SMILES IDX 5 1 4 2 3 3 1 4 2 5 30 7 31 8 92 9 32 10 91 11 33 12 34 13
REMARK SMILES IDX 35 14 85 15 36 16 90 17 84 18 86 19 37 20 89 21 83 22 82 23
REMARK SMILES IDX 38 25 70 26 50 27 69 28 51 29 54 30 68 31 87 32 52 33 53 34
REMARK SMILES IDX 67 36 88 37 55 38 39 39 40 40 48 41 41 42 43 43 49 44 42 45
REMARK SMILES IDX 44 46 45 47 46 48 47 49 71 50 72 51 80 52 73 53 75 54 81 55
REMARK SMILES IDX 74 56 76 57 77 58 78 59 79 60 56 61 57 62 65 63 58 64 60 65
REMARK SMILES IDX 66 66 59 67 61 68 62 69 63 70 64 71 6 72 7 73 8 74 9 75
REMARK SMILES IDX 10 77 11 78 12 79 16 80 13 81 15 82 14 83 17 84 18 85 19 86
REMARK SMILES IDX 20 87 28 88 21 89 27 90 29 91 22 92 26 93 23 94 25 95 24 96
REMARK H PARENT 3 6 86 24 54 35 8 76
REMARK Flexibility Score: inf
ROOT
ATOM      1  C   UNL A   1      31.442  31.919  26.960  1.00  0.00     0.023 C 
ENDROOT
BRANCH   1   2
ATOM      2  C   UNL A   1      32.749  32.657  27.248  1.00  0.00     0.116 C 
BRANCH   2   3
ATOM      3  N   UNL A   1      32.551  34.046  27.617  1.00  0.00    -0.352 N 
ATOM      4  O   UNL A   1      32.682  35.907  28.886  1.00  0.00    -0.269 OA
ATOM      5  C   UNL A   1      33.119  34.790  28.624  1.00  0.00     0.251 C 
ATOM      6  H   UNL A   1      31.906  34.534  27.057  1.00  0.00     0.163 HD
BRANCH   5   7
ATOM      7  C   UNL A   1      34.266  34.257  29.397  1.00  0.00     0.039 A 
ATOM      8  C   UNL A   1      35.582  34.447  28.961  1.00  0.00     0.014 A 
ATOM      9  C   UNL A   1      34.023  33.610  30.612  1.00  0.00     0.014 A 
ATOM     10  C   UNL A   1      36.642  33.879  29.669  1.00  0.00     0.010 A 
ATOM     11  C   UNL A   1      35.090  33.081  31.345  1.00  0.00     0.010 A 
ATOM     12  C   UNL A   1      36.403  33.173  30.857  1.00  0.00    -0.014 A 
BRANCH  12  13
ATOM     13  C   UNL A   1      37.523  32.509  31.569  1.00  0.00     0.031 A 
ATOM     14  C   UNL A   1      38.248  31.358  30.926  1.00  0.00     0.074 A 
ATOM     15  C   UNL A   1      37.890  32.932  32.793  1.00  0.00     0.049 A 
ATOM     16  N   UNL A   1      39.258  30.663  31.382  1.00  0.00    -0.248 NA
ATOM     17  C   UNL A   1      37.775  30.929  29.599  1.00  0.00     0.031 C 
ATOM     18  C   UNL A   1      37.247  34.014  33.538  1.00  0.00     0.029 A 
ATOM     19  N   UNL A   1      38.886  32.493  33.630  1.00  0.00    -0.354 N 
ATOM     20  C   UNL A   1      39.524  29.701  30.416  1.00  0.00     0.074 A 
ATOM     21  C   UNL A   1      38.565  29.893  29.350  1.00  0.00     0.031 C 
ATOM     22  C   UNL A   1      37.864  34.155  34.722  1.00  0.00     0.029 A 
ATOM     23  C   UNL A   1      38.935  33.166  34.827  1.00  0.00     0.049 A 
ATOM     24  H   UNL A   1      39.506  31.765  33.394  1.00  0.00     0.167 HD
ATOM     25  C   UNL A   1      40.498  28.761  30.401  1.00  0.00     0.034 A 
ATOM     26  C   UNL A   1      39.749  33.006  35.889  1.00  0.00     0.034 A 
ATOM     27  C   UNL A   1      41.489  28.598  31.429  1.00  0.00     0.049 A 
ATOM     28  C   UNL A   1      40.838  31.970  35.837  1.00  0.00     0.074 A 
ATOM     29  C   UNL A   1      42.552  27.714  31.466  1.00  0.00     0.029 A 
ATOM     30  N   UNL A   1      41.539  29.336  32.601  1.00  0.00    -0.354 N 
ATOM     31  N   UNL A   1      41.159  31.163  34.856  1.00  0.00    -0.248 NA
ATOM     32  C   UNL A   1      41.694  31.839  37.027  1.00  0.00     0.031 C 
ATOM     33  C   UNL A   1      43.254  27.925  32.660  1.00  0.00     0.029 A 
ATOM     34  C   UNL A   1      42.616  28.929  33.369  1.00  0.00     0.049 A 
ATOM     35  H   UNL A   1      40.903  30.045  32.850  1.00  0.00     0.167 HD
ATOM     36  C   UNL A   1      42.264  30.444  35.299  1.00  0.00     0.074 A 
ATOM     37  C   UNL A   1      42.570  30.924  36.631  1.00  0.00     0.031 C 
ATOM     38  C   UNL A   1      42.947  29.459  34.666  1.00  0.00     0.034 A 
BRANCH  25  39
ATOM     39  C   UNL A   1      40.588  27.880  29.187  1.00  0.00     0.023 A 
ATOM     40  C   UNL A   1      39.744  26.756  29.101  1.00  0.00     0.012 A 
ATOM     41  C   UNL A   1      41.458  28.177  28.124  1.00  0.00     0.148 A 
ATOM     42  C   UNL A   1      39.774  25.932  27.977  1.00  0.00     0.002 A 
ATOM     43  C   UNL A   1      41.467  27.361  26.996  1.00  0.00     0.091 A 
ATOM     44  F   UNL A   1      42.279  29.231  28.234  1.00  0.00    -0.205 F 
ATOM     45  C   UNL A   1      40.628  26.239  26.921  1.00  0.00     0.022 A 
BRANCH  43  46
ATOM     46  S   UNL A   1      42.524  27.745  25.595  1.00  0.00     0.127 S 
ATOM     47  O   UNL A   1      43.840  27.832  26.222  1.00  0.00    -0.237 OA
ATOM     48  O   UNL A   1      42.345  26.584  24.721  1.00  0.00    -0.237 OA
ATOM     49  O   UNL A   1      41.981  28.985  25.054  1.00  0.00    -0.744 OA
ENDBRANCH  43  46
ENDBRANCH  25  39
BRANCH  26  50
ATOM     50  C   UNL A   1      39.607  33.913  37.059  1.00  0.00     0.023 A 
ATOM     51  C   UNL A   1      40.007  35.257  36.937  1.00  0.00     0.012 A 
ATOM     52  C   UNL A   1      39.016  33.478  38.261  1.00  0.00     0.148 A 
ATOM     53  C   UNL A   1      39.827  36.151  37.993  1.00  0.00     0.002 A 
ATOM     54  C   UNL A   1      38.797  34.385  39.292  1.00  0.00     0.091 A 
ATOM     55  F   UNL A   1      38.667  32.188  38.371  1.00  0.00    -0.205 F 
ATOM     56  C   UNL A   1      39.209  35.719  39.165  1.00  0.00     0.022 A 
BRANCH  54  57
ATOM     57  S   UNL A   1      37.889  33.918  40.772  1.00  0.00     0.127 S 
ATOM     58  O   UNL A   1      37.678  35.210  41.417  1.00  0.00    -0.237 OA
ATOM     59  O   UNL A   1      36.681  33.303  40.219  1.00  0.00    -0.237 OA
ATOM     60  O   UNL A   1      38.764  32.983  41.467  1.00  0.00    -0.744 OA
ENDBRANCH  54  57
ENDBRANCH  26  50
BRANCH  38  61
ATOM     61  C   UNL A   1      44.095  28.824  35.398  1.00  0.00     0.023 A 
ATOM     62  C   UNL A   1      45.389  29.353  35.228  1.00  0.00     0.012 A 
ATOM     63  C   UNL A   1      43.890  27.777  36.316  1.00  0.00     0.148 A 
ATOM     64  C   UNL A   1      46.464  28.843  35.956  1.00  0.00     0.002 A 
ATOM     65  C   UNL A   1      44.963  27.291  37.058  1.00  0.00     0.091 A 
ATOM     66  F   UNL A   1      42.656  27.267  36.447  1.00  0.00    -0.205 F 
ATOM     67  C   UNL A   1      46.249  27.821  36.878  1.00  0.00     0.022 A 
BRANCH  65  68
ATOM     68  S   UNL A   1      44.728  26.026  38.313  1.00  0.00     0.127 S 
ATOM     69  O   UNL A   1      46.089  25.837  38.810  1.00  0.00    -0.237 OA
ATOM     70  O   UNL A   1      43.819  26.671  39.261  1.00  0.00    -0.237 OA
ATOM     71  O   UNL A   1      44.142  24.895  37.605  1.00  0.00    -0.744 OA
ENDBRANCH  65  68
ENDBRANCH  38  61
ENDBRANCH  12  13
ENDBRANCH   5   7
ENDBRANCH   2   3
ENDBRANCH   1   2
BRANCH   1  72
ATOM     72  C   UNL A   1      31.409  31.029  25.711  1.00  0.00     0.023 C 
BRANCH  72  73
ATOM     73  C   UNL A   1      31.708  29.546  25.919  1.00  0.00     0.116 C 
BRANCH  73  74
ATOM     74  N   UNL A   1      32.399  28.923  24.805  1.00  0.00    -0.352 N 
ATOM     75  C   UNL A   1      31.893  28.547  23.589  1.00  0.00     0.253 C 
ATOM     76  H   UNL A   1      33.359  28.749  24.942  1.00  0.00     0.163 HD
ATOM     77  O   UNL A   1      32.640  28.126  22.710  1.00  0.00    -0.269 OA
BRANCH  75  78
ATOM     78  C   UNL A   1      30.447  28.584  23.320  1.00  0.00     0.065 A 
ATOM     79  C   UNL A   1      29.968  29.716  22.639  1.00  0.00     0.016 A 
ATOM     80  C   UNL A   1      29.559  27.593  23.747  1.00  0.00     0.076 A 
ATOM     81  C   UNL A   1      28.608  29.850  22.354  1.00  0.00     0.001 A 
ATOM     82  C   UNL A   1      28.192  27.758  23.461  1.00  0.00     0.029 A 
ATOM     83  C   UNL A   1      27.715  28.872  22.771  1.00  0.00     0.002 A 
BRANCH  80  84
ATOM     84  N   UNL A   1      29.877  26.346  24.265  1.00  0.00    -0.255 NA
ATOM     85  C   UNL A   1      30.632  25.450  23.721  1.00  0.00     0.127 C 
BRANCH  85  86
ATOM     86  C   UNL A   1      30.828  24.242  24.561  1.00  0.00     0.076 A 
ATOM     87  C   UNL A   1      31.015  23.154  23.792  1.00  0.00     0.209 A 
ATOM     88  C   UNL A   1      31.775  24.365  25.704  1.00  0.00     0.201 A 
ATOM     89  O   UNL A   1      32.086  22.279  23.945  1.00  0.00    -0.463 OA
ATOM     90  C   UNL A   1      33.132  23.918  25.367  1.00  0.00     0.065 A 
ATOM     91  O   UNL A   1      31.505  24.942  26.746  1.00  0.00    -0.288 OA
ATOM     92  C   UNL A   1      33.229  22.892  24.427  1.00  0.00     0.137 A 
ATOM     93  C   UNL A   1      34.249  24.639  25.783  1.00  0.00     0.016 A 
ATOM     94  C   UNL A   1      34.468  22.564  23.891  1.00  0.00     0.048 A 
ATOM     95  C   UNL A   1      35.485  24.337  25.216  1.00  0.00     0.001 A 
ATOM     96  C   UNL A   1      35.593  23.305  24.274  1.00  0.00     0.004 A 
ENDBRANCH  85  86
ENDBRANCH  80  84
ENDBRANCH  75  78
ENDBRANCH  73  74
ENDBRANCH  72  73
ENDBRANCH   1  72
TORSDOF 16
ENDMDL
