MODEL 1
REMARK VINA RESULT:     -12.4      0.000      0.000
REMARK SMILES O=C(N[C@@H]1C=C[C@@H](C(=O)NCCCCNC(=O)c2ccc(-c3c4nc(c(-c5cccc(S(=O)(=O)[O-])c5F)c5ccc([nH]5)c(-c5cccc(S(=O)(=O)[O-])c5F)c5nc(c(-c6cccc(S(=O)(=O)[O-])c6F)c6ccc3[nH]6)C=C5)C=C4)cc2)C1)Oc1ccccc1
REMARK SMILES IDX 12 1 11 2 10 3 8 4 9 5 7 7 4 8 5 9 81 10 6 11 3 12 1 13 2 14
REMARK SMILES IDX 82 16 83 17 84 18 88 19 85 20 87 21 86 22 13 23 14 24 15 25
REMARK SMILES IDX 16 26 17 28 18 29 19 30 80 31 20 32 79 33 21 34 22 35 23 36
REMARK SMILES IDX 73 37 24 38 78 39 72 40 74 41 25 42 77 43 71 44 70 45 26 47
REMARK SMILES IDX 58 48 38 49 57 50 39 51 42 52 56 53 75 54 40 55 41 56 55 58
REMARK SMILES IDX 76 59 43 60 27 61 28 62 36 63 29 64 31 65 37 66 30 67 32 68
REMARK SMILES IDX 33 69 34 70 35 71 59 72 60 73 68 74 61 75 63 76 69 77 62 78
REMARK SMILES IDX 64 79 65 80 66 81 67 82 44 83 45 84 53 85 46 86 48 87 54 88
REMARK SMILES IDX 47 89 49 90 50 91 51 92 52 93
REMARK H PARENT 10 6 3 15 15 27 74 46 42 57
REMARK Flexibility Score: inf
ROOT
ATOM      1  C   UNL A   1      32.022  30.422  26.492  1.00  0.00     0.023 C 
ENDROOT
BRANCH   1   2
ATOM      2  C   UNL A   1      31.545  29.936  25.125  1.00  0.00     0.116 C 
BRANCH   2   3
ATOM      3  N   UNL A   1      30.406  30.694  24.651  1.00  0.00    -0.356 N 
ATOM      4  C   UNL A   1      29.542  30.495  23.624  1.00  0.00     0.227 C 
ATOM      5  O   UNL A   1      28.610  31.302  23.522  1.00  0.00    -0.274 OA
ATOM      6  H   UNL A   1      30.224  31.508  25.174  1.00  0.00     0.163 HD
BRANCH   4   7
ATOM      7  C   UNL A   1      29.626  29.325  22.636  1.00  0.00     0.103 C 
ATOM      8  C   UNL A   1      31.422  27.646  22.459  1.00  0.00     0.109 C 
ATOM      9  C   UNL A   1      30.193  27.102  23.115  1.00  0.00    -0.006 C 
ATOM     10  C   UNL A   1      30.978  29.037  21.971  1.00  0.00     0.047 C 
ATOM     11  C   UNL A   1      29.228  28.017  23.237  1.00  0.00    -0.016 C 
BRANCH   8  12
ATOM     12  N   UNL A   1      31.797  26.740  21.406  1.00  0.00    -0.315 N 
ATOM     13  O   UNL A   1      32.966  25.240  20.229  1.00  0.00    -0.224 OA
ATOM     14  C   UNL A   1      32.875  25.910  21.258  1.00  0.00     0.413 C 
ATOM     15  H   UNL A   1      31.162  26.713  20.654  1.00  0.00     0.167 HD
BRANCH  14  16
ATOM     16  O   UNL A   1      33.898  25.843  22.228  1.00  0.00    -0.410 OA
BRANCH  16  17
ATOM     17  C   UNL A   1      34.081  25.006  23.356  1.00  0.00     0.132 A 
ATOM     18  C   UNL A   1      33.977  25.590  24.617  1.00  0.00     0.047 A 
ATOM     19  C   UNL A   1      34.384  23.657  23.199  1.00  0.00     0.047 A 
ATOM     20  C   UNL A   1      34.107  24.784  25.748  1.00  0.00     0.004 A 
ATOM     21  C   UNL A   1      34.480  22.852  24.335  1.00  0.00     0.004 A 
ATOM     22  C   UNL A   1      34.335  23.412  25.606  1.00  0.00     0.000 A 
ENDBRANCH  16  17
ENDBRANCH  14  16
ENDBRANCH   8  12
ENDBRANCH   4   7
ENDBRANCH   2   3
ENDBRANCH   1   2
BRANCH   1  23
ATOM     23  C   UNL A   1      31.736  31.899  26.779  1.00  0.00     0.023 C 
BRANCH  23  24
ATOM     24  C   UNL A   1      32.897  32.692  27.374  1.00  0.00     0.116 C 
BRANCH  24  25
ATOM     25  N   UNL A   1      32.548  34.066  27.704  1.00  0.00    -0.352 N 
ATOM     26  C   UNL A   1      33.100  34.900  28.651  1.00  0.00     0.251 C 
ATOM     27  H   UNL A   1      31.813  34.454  27.177  1.00  0.00     0.163 HD
ATOM     28  O   UNL A   1      32.605  35.998  28.857  1.00  0.00    -0.269 OA
BRANCH  26  29
ATOM     29  C   UNL A   1      34.270  34.444  29.440  1.00  0.00     0.039 A 
ATOM     30  C   UNL A   1      34.052  33.826  30.674  1.00  0.00     0.014 A 
ATOM     31  C   UNL A   1      35.571  34.595  28.953  1.00  0.00     0.014 A 
ATOM     32  C   UNL A   1      35.133  33.292  31.384  1.00  0.00     0.010 A 
ATOM     33  C   UNL A   1      36.637  33.998  29.625  1.00  0.00     0.010 A 
ATOM     34  C   UNL A   1      36.430  33.337  30.845  1.00  0.00    -0.014 A 
BRANCH  34  35
ATOM     35  C   UNL A   1      37.571  32.668  31.525  1.00  0.00     0.031 A 
ATOM     36  C   UNL A   1      38.266  31.497  30.887  1.00  0.00     0.074 A 
ATOM     37  C   UNL A   1      37.920  33.054  32.769  1.00  0.00     0.049 A 
ATOM     38  N   UNL A   1      39.250  30.769  31.351  1.00  0.00    -0.248 NA
ATOM     39  C   UNL A   1      37.771  31.066  29.571  1.00  0.00     0.031 C 
ATOM     40  C   UNL A   1      37.258  34.105  33.544  1.00  0.00     0.029 A 
ATOM     41  N   UNL A   1      38.895  32.584  33.613  1.00  0.00    -0.354 N 
ATOM     42  C   UNL A   1      39.472  29.779  30.402  1.00  0.00     0.074 A 
ATOM     43  C   UNL A   1      38.489  29.973  29.357  1.00  0.00     0.031 C 
ATOM     44  C   UNL A   1      37.843  34.199  34.747  1.00  0.00     0.029 A 
ATOM     45  C   UNL A   1      38.907  33.204  34.841  1.00  0.00     0.049 A 
ATOM     46  H   UNL A   1      39.527  31.872  33.363  1.00  0.00     0.167 HD
ATOM     47  C   UNL A   1      40.426  28.816  30.382  1.00  0.00     0.034 A 
ATOM     48  C   UNL A   1      39.682  32.994  35.923  1.00  0.00     0.034 A 
ATOM     49  C   UNL A   1      41.424  28.647  31.403  1.00  0.00     0.049 A 
ATOM     50  C   UNL A   1      40.774  31.963  35.856  1.00  0.00     0.074 A 
ATOM     51  C   UNL A   1      42.492  27.767  31.427  1.00  0.00     0.029 A 
ATOM     52  N   UNL A   1      41.471  29.362  32.590  1.00  0.00    -0.354 N 
ATOM     53  N   UNL A   1      41.086  31.157  34.871  1.00  0.00    -0.248 NA
ATOM     54  C   UNL A   1      41.646  31.839  37.033  1.00  0.00     0.031 C 
ATOM     55  C   UNL A   1      43.175  27.939  32.637  1.00  0.00     0.029 A 
ATOM     56  C   UNL A   1      42.543  28.939  33.359  1.00  0.00     0.049 A 
ATOM     57  H   UNL A   1      40.836  30.068  32.849  1.00  0.00     0.167 HD
ATOM     58  C   UNL A   1      42.203  30.446  35.297  1.00  0.00     0.074 A 
ATOM     59  C   UNL A   1      42.530  30.941  36.620  1.00  0.00     0.031 C 
ATOM     60  C   UNL A   1      42.883  29.461  34.659  1.00  0.00     0.034 A 
BRANCH  47  61
ATOM     61  C   UNL A   1      40.464  27.910  29.177  1.00  0.00     0.023 A 
ATOM     62  C   UNL A   1      39.566  26.826  29.098  1.00  0.00     0.012 A 
ATOM     63  C   UNL A   1      41.363  28.138  28.117  1.00  0.00     0.148 A 
ATOM     64  C   UNL A   1      39.593  25.953  28.011  1.00  0.00     0.002 A 
ATOM     65  C   UNL A   1      41.354  27.291  27.014  1.00  0.00     0.091 A 
ATOM     66  F   UNL A   1      42.227  29.158  28.216  1.00  0.00    -0.205 F 
ATOM     67  C   UNL A   1      40.481  26.191  26.966  1.00  0.00     0.022 A 
BRANCH  65  68
ATOM     68  S   UNL A   1      42.408  27.560  25.584  1.00  0.00     0.127 S 
ATOM     69  O   UNL A   1      43.738  27.561  26.194  1.00  0.00    -0.237 OA
ATOM     70  O   UNL A   1      42.117  26.389  24.758  1.00  0.00    -0.237 OA
ATOM     71  O   UNL A   1      41.977  28.826  25.009  1.00  0.00    -0.744 OA
ENDBRANCH  65  68
ENDBRANCH  47  61
BRANCH  48  72
ATOM     72  C   UNL A   1      39.489  33.838  37.135  1.00  0.00     0.023 A 
ATOM     73  C   UNL A   1      39.891  35.188  37.111  1.00  0.00     0.012 A 
ATOM     74  C   UNL A   1      38.849  33.331  38.283  1.00  0.00     0.148 A 
ATOM     75  C   UNL A   1      39.679  36.013  38.216  1.00  0.00     0.002 A 
ATOM     76  C   UNL A   1      38.590  34.173  39.358  1.00  0.00     0.091 A 
ATOM     77  F   UNL A   1      38.482  32.043  38.286  1.00  0.00    -0.205 F 
ATOM     78  C   UNL A   1      39.018  35.510  39.334  1.00  0.00     0.022 A 
BRANCH  76  79
ATOM     79  S   UNL A   1      37.622  33.653  40.780  1.00  0.00     0.127 S 
ATOM     80  O   UNL A   1      36.418  33.122  40.146  1.00  0.00    -0.237 OA
ATOM     81  O   UNL A   1      38.497  32.647  41.384  1.00  0.00    -0.237 OA
ATOM     82  O   UNL A   1      37.435  34.850  41.590  1.00  0.00    -0.744 OA
ENDBRANCH  76  79
ENDBRANCH  48  72
BRANCH  60  83
ATOM     83  C   UNL A   1      44.059  28.850  35.378  1.00  0.00     0.023 A 
ATOM     84  C   UNL A   1      45.350  29.375  35.172  1.00  0.00     0.012 A 
ATOM     85  C   UNL A   1      43.881  27.800  36.300  1.00  0.00     0.148 A 
ATOM     86  C   UNL A   1      46.450  28.842  35.845  1.00  0.00     0.002 A 
ATOM     87  C   UNL A   1      44.974  27.306  37.003  1.00  0.00     0.091 A 
ATOM     88  F   UNL A   1      42.649  27.298  36.468  1.00  0.00    -0.205 F 
ATOM     89  C   UNL A   1      46.260  27.817  36.768  1.00  0.00     0.022 A 
BRANCH  87  90
ATOM     90  S   UNL A   1      44.807  26.049  38.276  1.00  0.00     0.127 S 
ATOM     91  O   UNL A   1      46.200  25.830  38.664  1.00  0.00    -0.237 OA
ATOM     92  O   UNL A   1      43.994  26.732  39.285  1.00  0.00    -0.237 OA
ATOM     93  O   UNL A   1      44.146  24.919  37.637  1.00  0.00    -0.744 OA
ENDBRANCH  87  90
ENDBRANCH  60  83
ENDBRANCH  34  35
ENDBRANCH  26  29
ENDBRANCH  24  25
ENDBRANCH  23  24
ENDBRANCH   1  23
TORSDOF 17
ENDMDL
MODEL 2
REMARK VINA RESULT:     -12.1      2.624      8.130
REMARK SMILES O=C(N[C@@H]1C=C[C@@H](C(=O)NCCCCNC(=O)c2ccc(-c3c4nc(c(-c5cccc(S(=O)(=O)[O-])c5F)c5ccc([nH]5)c(-c5cccc(S(=O)(=O)[O-])c5F)c5nc(c(-c6cccc(S(=O)(=O)[O-])c6F)c6ccc3[nH]6)C=C5)C=C4)cc2)C1)Oc1ccccc1
REMARK SMILES IDX 12 1 11 2 10 3 8 4 9 5 7 7 4 8 5 9 81 10 6 11 3 12 1 13 2 14
REMARK SMILES IDX 82 16 83 17 84 18 88 19 85 20 87 21 86 22 13 23 14 24 15 25
REMARK SMILES IDX 16 26 17 28 18 29 19 30 80 31 20 32 79 33 21 34 22 35 23 36
REMARK SMILES IDX 73 37 24 38 78 39 72 40 74 41 25 42 77 43 71 44 70 45 26 47
REMARK SMILES IDX 58 48 38 49 57 50 39 51 42 52 56 53 75 54 40 55 41 56 55 58
REMARK SMILES IDX 76 59 43 60 27 61 28 62 36 63 29 64 31 65 37 66 30 67 32 68
REMARK SMILES IDX 33 69 34 70 35 71 59 72 60 73 68 74 61 75 63 76 69 77 62 78
REMARK SMILES IDX 64 79 65 80 66 81 67 82 44 83 45 84 53 85 46 86 48 87 54 88
REMARK SMILES IDX 47 89 49 90 50 91 51 92 52 93
REMARK H PARENT 10 6 3 15 15 27 74 46 42 57
REMARK Flexibility Score: inf
ROOT
ATOM      1  C   UNL A   1      33.305  28.270  24.776  1.00  0.00     0.023 C 
ENDROOT
BRANCH   1   2
ATOM      2  C   UNL A   1      33.158  27.627  23.398  1.00  0.00     0.116 C 
BRANCH   2   3
ATOM      3  N   UNL A   1      31.985  28.111  22.701  1.00  0.00    -0.356 N 
ATOM      4  C   UNL A   1      30.708  27.656  22.640  1.00  0.00     0.227 C 
ATOM      5  O   UNL A   1      29.905  28.347  22.003  1.00  0.00    -0.274 OA
ATOM      6  H   UNL A   1      32.144  28.925  22.172  1.00  0.00     0.163 HD
BRANCH   4   7
ATOM      7  C   UNL A   1      30.206  26.387  23.343  1.00  0.00     0.103 C 
ATOM      8  C   UNL A   1      31.515  24.843  24.750  1.00  0.00     0.109 C 
ATOM      9  C   UNL A   1      30.621  25.733  25.555  1.00  0.00    -0.006 C 
ATOM     10  C   UNL A   1      31.095  25.137  23.298  1.00  0.00     0.047 C 
ATOM     11  C   UNL A   1      29.932  26.590  24.797  1.00  0.00    -0.016 C 
BRANCH   8  12
ATOM     12  N   UNL A   1      31.281  23.487  25.170  1.00  0.00    -0.315 N 
ATOM     13  O   UNL A   1      31.500  21.269  25.362  1.00  0.00    -0.224 OA
ATOM     14  C   UNL A   1      31.923  22.316  24.870  1.00  0.00     0.413 C 
ATOM     15  H   UNL A   1      30.519  23.382  25.786  1.00  0.00     0.167 HD
BRANCH  14  16
ATOM     16  O   UNL A   1      33.019  22.278  23.982  1.00  0.00    -0.410 OA
BRANCH  16  17
ATOM     17  C   UNL A   1      34.407  22.082  24.196  1.00  0.00     0.132 A 
ATOM     18  C   UNL A   1      35.290  22.859  23.450  1.00  0.00     0.047 A 
ATOM     19  C   UNL A   1      34.859  21.124  25.098  1.00  0.00     0.047 A 
ATOM     20  C   UNL A   1      36.661  22.722  23.670  1.00  0.00     0.004 A 
ATOM     21  C   UNL A   1      36.229  21.015  25.334  1.00  0.00     0.004 A 
ATOM     22  C   UNL A   1      37.128  21.818  24.627  1.00  0.00     0.000 A 
ENDBRANCH  16  17
ENDBRANCH  14  16
ENDBRANCH   8  12
ENDBRANCH   4   7
ENDBRANCH   2   3
ENDBRANCH   1   2
BRANCH   1  23
ATOM     23  C   UNL A   1      32.461  29.531  24.985  1.00  0.00     0.023 C 
BRANCH  23  24
ATOM     24  C   UNL A   1      32.245  29.947  26.438  1.00  0.00     0.116 C 
BRANCH  24  25
ATOM     25  N   UNL A   1      32.205  31.390  26.625  1.00  0.00    -0.352 N 
ATOM     26  C   UNL A   1      33.109  32.209  27.263  1.00  0.00     0.251 C 
ATOM     27  H   UNL A   1      31.420  31.844  26.243  1.00  0.00     0.163 HD
ATOM     28  O   UNL A   1      32.855  33.396  27.411  1.00  0.00    -0.269 OA
BRANCH  26  29
ATOM     29  C   UNL A   1      34.369  31.638  27.798  1.00  0.00     0.039 A 
ATOM     30  C   UNL A   1      35.455  32.489  28.018  1.00  0.00     0.014 A 
ATOM     31  C   UNL A   1      34.469  30.280  28.111  1.00  0.00     0.014 A 
ATOM     32  C   UNL A   1      36.614  31.992  28.623  1.00  0.00     0.010 A 
ATOM     33  C   UNL A   1      35.596  29.804  28.780  1.00  0.00     0.010 A 
ATOM     34  C   UNL A   1      36.679  30.654  29.046  1.00  0.00    -0.014 A 
BRANCH  34  35
ATOM     35  C   UNL A   1      37.853  30.140  29.800  1.00  0.00     0.031 A 
ATOM     36  C   UNL A   1      38.143  30.621  31.195  1.00  0.00     0.074 A 
ATOM     37  C   UNL A   1      38.721  29.308  29.188  1.00  0.00     0.049 A 
ATOM     38  N   UNL A   1      39.140  30.312  31.984  1.00  0.00    -0.248 NA
ATOM     39  C   UNL A   1      37.208  31.603  31.767  1.00  0.00     0.031 C 
ATOM     40  C   UNL A   1      38.615  28.848  27.802  1.00  0.00     0.029 A 
ATOM     41  N   UNL A   1      39.880  28.729  29.643  1.00  0.00    -0.354 N 
ATOM     42  C   UNL A   1      38.972  31.080  33.129  1.00  0.00     0.074 A 
ATOM     43  C   UNL A   1      37.801  31.904  32.914  1.00  0.00     0.031 C 
ATOM     44  C   UNL A   1      39.664  28.061  27.519  1.00  0.00     0.029 A 
ATOM     45  C   UNL A   1      40.529  27.976  28.692  1.00  0.00     0.049 A 
ATOM     46  H   UNL A   1      40.214  28.842  30.561  1.00  0.00     0.167 HD
ATOM     47  C   UNL A   1      39.702  31.079  34.271  1.00  0.00     0.034 A 
ATOM     48  C   UNL A   1      41.691  27.297  28.754  1.00  0.00     0.034 A 
ATOM     49  C   UNL A   1      40.844  30.235  34.499  1.00  0.00     0.049 A 
ATOM     50  C   UNL A   1      42.453  27.259  30.049  1.00  0.00     0.074 A 
ATOM     51  C   UNL A   1      41.589  30.087  35.655  1.00  0.00     0.029 A 
ATOM     52  N   UNL A   1      41.415  29.403  33.547  1.00  0.00    -0.354 N 
ATOM     53  N   UNL A   1      42.175  27.850  31.185  1.00  0.00    -0.248 NA
ATOM     54  C   UNL A   1      43.665  26.429  30.084  1.00  0.00     0.031 C 
ATOM     55  C   UNL A   1      42.624  29.178  35.397  1.00  0.00     0.029 A 
ATOM     56  C   UNL A   1      42.510  28.746  34.085  1.00  0.00     0.049 A 
ATOM     57  H   UNL A   1      41.090  29.295  32.624  1.00  0.00     0.167 HD
ATOM     58  C   UNL A   1      43.163  27.448  32.077  1.00  0.00     0.074 A 
ATOM     59  C   UNL A   1      44.029  26.537  31.355  1.00  0.00     0.031 C 
ATOM     60  C   UNL A   1      43.346  27.815  33.370  1.00  0.00     0.034 A 
BRANCH  47  61
ATOM     61  C   UNL A   1      39.239  31.985  35.385  1.00  0.00     0.023 A 
ATOM     62  C   UNL A   1      38.260  31.524  36.290  1.00  0.00     0.012 A 
ATOM     63  C   UNL A   1      39.781  33.273  35.554  1.00  0.00     0.148 A 
ATOM     64  C   UNL A   1      37.791  32.346  37.313  1.00  0.00     0.002 A 
ATOM     65  C   UNL A   1      39.342  34.071  36.605  1.00  0.00     0.091 A 
ATOM     66  F   UNL A   1      40.693  33.707  34.673  1.00  0.00    -0.205 F 
ATOM     67  C   UNL A   1      38.337  33.615  37.476  1.00  0.00     0.022 A 
BRANCH  65  68
ATOM     68  S   UNL A   1      40.041  35.692  36.942  1.00  0.00     0.127 S 
ATOM     69  O   UNL A   1      41.468  35.385  37.028  1.00  0.00    -0.237 OA
ATOM     70  O   UNL A   1      39.651  36.451  35.753  1.00  0.00    -0.237 OA
ATOM     71  O   UNL A   1      39.416  36.143  38.177  1.00  0.00    -0.744 OA
ENDBRANCH  65  68
ENDBRANCH  47  61
BRANCH  48  72
ATOM     72  C   UNL A   1      42.157  26.537  27.560  1.00  0.00     0.023 A 
ATOM     73  C   UNL A   1      42.958  27.183  26.597  1.00  0.00     0.012 A 
ATOM     74  C   UNL A   1      41.869  25.167  27.408  1.00  0.00     0.148 A 
ATOM     75  C   UNL A   1      43.446  26.483  25.493  1.00  0.00     0.002 A 
ATOM     76  C   UNL A   1      42.406  24.462  26.337  1.00  0.00     0.091 A 
ATOM     77  F   UNL A   1      41.099  24.576  28.332  1.00  0.00    -0.205 F 
ATOM     78  C   UNL A   1      43.181  25.121  25.369  1.00  0.00     0.022 A 
BRANCH  76  79
ATOM     79  S   UNL A   1      42.236  22.682  26.170  1.00  0.00     0.127 S 
ATOM     80  O   UNL A   1      42.939  22.429  24.915  1.00  0.00    -0.237 OA
ATOM     81  O   UNL A   1      42.924  22.202  27.370  1.00  0.00    -0.237 OA
ATOM     82  O   UNL A   1      40.803  22.421  26.155  1.00  0.00    -0.744 OA
ENDBRANCH  76  79
ENDBRANCH  48  72
BRANCH  60  83
ATOM     83  C   UNL A   1      44.528  27.226  34.099  1.00  0.00     0.023 A 
ATOM     84  C   UNL A   1      45.763  27.904  34.085  1.00  0.00     0.012 A 
ATOM     85  C   UNL A   1      44.402  26.038  34.845  1.00  0.00     0.148 A 
ATOM     86  C   UNL A   1      46.863  27.391  34.773  1.00  0.00     0.002 A 
ATOM     87  C   UNL A   1      45.489  25.558  35.566  1.00  0.00     0.091 A 
ATOM     88  F   UNL A   1      43.226  25.393  34.830  1.00  0.00    -0.205 F 
ATOM     89  C   UNL A   1      46.723  26.226  35.522  1.00  0.00     0.022 A 
BRANCH  87  90
ATOM     90  S   UNL A   1      45.372  24.115  36.631  1.00  0.00     0.127 S 
ATOM     91  O   UNL A   1      44.621  23.184  35.791  1.00  0.00    -0.237 OA
ATOM     92  O   UNL A   1      46.778  23.758  36.831  1.00  0.00    -0.237 OA
ATOM     93  O   UNL A   1      44.689  24.564  37.838  1.00  0.00    -0.744 OA
ENDBRANCH  87  90
ENDBRANCH  60  83
ENDBRANCH  34  35
ENDBRANCH  26  29
ENDBRANCH  24  25
ENDBRANCH  23  24
ENDBRANCH   1  23
TORSDOF 17
ENDMDL
MODEL 3
REMARK VINA RESULT:     -12.0      3.635      8.862
REMARK SMILES O=C(N[C@@H]1C=C[C@@H](C(=O)NCCCCNC(=O)c2ccc(-c3c4nc(c(-c5cccc(S(=O)(=O)[O-])c5F)c5ccc([nH]5)c(-c5cccc(S(=O)(=O)[O-])c5F)c5nc(c(-c6cccc(S(=O)(=O)[O-])c6F)c6ccc3[nH]6)C=C5)C=C4)cc2)C1)Oc1ccccc1
REMARK SMILES IDX 12 1 11 2 10 3 8 4 9 5 7 7 4 8 5 9 81 10 6 11 3 12 1 13 2 14
REMARK SMILES IDX 82 16 83 17 84 18 88 19 85 20 87 21 86 22 13 23 14 24 15 25
REMARK SMILES IDX 16 26 17 28 18 29 19 30 80 31 20 32 79 33 21 34 22 35 23 36
REMARK SMILES IDX 73 37 24 38 78 39 72 40 74 41 25 42 77 43 71 44 70 45 26 47
REMARK SMILES IDX 58 48 38 49 57 50 39 51 42 52 56 53 75 54 40 55 41 56 55 58
REMARK SMILES IDX 76 59 43 60 27 61 28 62 36 63 29 64 31 65 37 66 30 67 32 68
REMARK SMILES IDX 33 69 34 70 35 71 59 72 60 73 68 74 61 75 63 76 69 77 62 78
REMARK SMILES IDX 64 79 65 80 66 81 67 82 44 83 45 84 53 85 46 86 48 87 54 88
REMARK SMILES IDX 47 89 49 90 50 91 51 92 52 93
REMARK H PARENT 10 6 3 15 15 27 74 46 42 57
REMARK Flexibility Score: inf
ROOT
ATOM      1  C   UNL A   1      31.476  28.908  25.845  1.00  0.00     0.023 C 
ENDROOT
BRANCH   1   2
ATOM      2  C   UNL A   1      32.250  28.742  24.539  1.00  0.00     0.116 C 
BRANCH   2   3
ATOM      3  N   UNL A   1      31.593  29.410  23.435  1.00  0.00    -0.356 N 
ATOM      4  C   UNL A   1      30.759  28.960  22.464  1.00  0.00     0.227 C 
ATOM      5  O   UNL A   1      30.298  29.811  21.694  1.00  0.00    -0.274 OA
ATOM      6  H   UNL A   1      31.787  30.374  23.380  1.00  0.00     0.163 HD
BRANCH   4   7
ATOM      7  C   UNL A   1      30.328  27.497  22.302  1.00  0.00     0.103 C 
ATOM      8  C   UNL A   1      31.476  25.497  23.172  1.00  0.00     0.109 C 
ATOM      9  C   UNL A   1      30.257  25.847  23.966  1.00  0.00    -0.006 C 
ATOM     10  C   UNL A   1      31.406  26.458  21.971  1.00  0.00     0.047 C 
ATOM     11  C   UNL A   1      29.648  26.946  23.514  1.00  0.00    -0.016 C 
BRANCH   8  12
ATOM     12  N   UNL A   1      31.388  24.104  22.821  1.00  0.00    -0.315 N 
ATOM     13  O   UNL A   1      31.813  21.909  22.774  1.00  0.00    -0.224 OA
ATOM     14  C   UNL A   1      32.080  23.008  23.262  1.00  0.00     0.413 C 
ATOM     15  H   UNL A   1      30.707  23.903  22.140  1.00  0.00     0.167 HD
BRANCH  14  16
ATOM     16  O   UNL A   1      33.112  23.117  24.218  1.00  0.00    -0.410 OA
BRANCH  16  17
ATOM     17  C   UNL A   1      34.440  22.625  24.239  1.00  0.00     0.132 A 
ATOM     18  C   UNL A   1      35.387  23.291  23.463  1.00  0.00     0.047 A 
ATOM     19  C   UNL A   1      34.770  21.498  24.985  1.00  0.00     0.047 A 
ATOM     20  C   UNL A   1      36.713  22.859  23.497  1.00  0.00     0.004 A 
ATOM     21  C   UNL A   1      36.104  21.092  25.038  1.00  0.00     0.004 A 
ATOM     22  C   UNL A   1      37.075  21.775  24.302  1.00  0.00     0.000 A 
ENDBRANCH  16  17
ENDBRANCH  14  16
ENDBRANCH   8  12
ENDBRANCH   4   7
ENDBRANCH   2   3
ENDBRANCH   1   2
BRANCH   1  23
ATOM     23  C   UNL A   1      32.146  28.277  27.068  1.00  0.00     0.023 C 
BRANCH  23  24
ATOM     24  C   UNL A   1      33.567  28.752  27.361  1.00  0.00     0.116 C 
BRANCH  24  25
ATOM     25  N   UNL A   1      33.653  30.178  27.640  1.00  0.00    -0.352 N 
ATOM     26  C   UNL A   1      34.688  30.894  28.198  1.00  0.00     0.251 C 
ATOM     27  H   UNL A   1      32.858  30.705  27.397  1.00  0.00     0.163 HD
ATOM     28  O   UNL A   1      34.539  32.081  28.451  1.00  0.00    -0.269 OA
BRANCH  26  29
ATOM     29  C   UNL A   1      35.965  30.211  28.521  1.00  0.00     0.039 A 
ATOM     30  C   UNL A   1      37.020  30.289  27.609  1.00  0.00     0.014 A 
ATOM     31  C   UNL A   1      36.130  29.525  29.727  1.00  0.00     0.014 A 
ATOM     32  C   UNL A   1      38.266  29.745  27.941  1.00  0.00     0.010 A 
ATOM     33  C   UNL A   1      37.390  29.050  30.087  1.00  0.00     0.010 A 
ATOM     34  C   UNL A   1      38.472  29.157  29.200  1.00  0.00    -0.014 A 
BRANCH  34  35
ATOM     35  C   UNL A   1      39.819  28.684  29.619  1.00  0.00     0.031 A 
ATOM     36  C   UNL A   1      40.590  29.407  30.689  1.00  0.00     0.074 A 
ATOM     37  C   UNL A   1      40.394  27.656  28.962  1.00  0.00     0.049 A 
ATOM     38  N   UNL A   1      41.789  29.160  31.151  1.00  0.00    -0.248 NA
ATOM     39  C   UNL A   1      39.943  30.581  31.296  1.00  0.00     0.031 C 
ATOM     40  C   UNL A   1      39.799  26.936  27.834  1.00  0.00     0.029 A 
ATOM     41  N   UNL A   1      41.620  27.061  29.127  1.00  0.00    -0.354 N 
ATOM     42  C   UNL A   1      42.053  30.161  32.078  1.00  0.00     0.074 A 
ATOM     43  C   UNL A   1      40.906  31.044  32.080  1.00  0.00     0.031 C 
ATOM     44  C   UNL A   1      40.660  25.999  27.408  1.00  0.00     0.029 A 
ATOM     45  C   UNL A   1      41.875  26.064  28.215  1.00  0.00     0.049 A 
ATOM     46  H   UNL A   1      42.256  27.323  29.831  1.00  0.00     0.167 HD
ATOM     47  C   UNL A   1      43.134  30.315  32.882  1.00  0.00     0.034 A 
ATOM     48  C   UNL A   1      42.964  25.290  28.042  1.00  0.00     0.034 A 
ATOM     49  C   UNL A   1      44.257  29.416  32.905  1.00  0.00     0.049 A 
ATOM     50  C   UNL A   1      44.127  25.436  28.983  1.00  0.00     0.074 A 
ATOM     51  C   UNL A   1      45.353  29.429  33.750  1.00  0.00     0.029 A 
ATOM     52  N   UNL A   1      44.437  28.351  32.036  1.00  0.00    -0.354 N 
ATOM     53  N   UNL A   1      44.280  26.274  29.979  1.00  0.00    -0.248 NA
ATOM     54  C   UNL A   1      45.250  24.505  28.804  1.00  0.00     0.031 C 
ATOM     55  C   UNL A   1      46.204  28.381  33.379  1.00  0.00     0.029 A 
ATOM     56  C   UNL A   1      45.629  27.704  32.316  1.00  0.00     0.049 A 
ATOM     57  H   UNL A   1      43.808  28.092  31.324  1.00  0.00     0.167 HD
ATOM     58  C   UNL A   1      45.503  25.959  30.560  1.00  0.00     0.074 A 
ATOM     59  C   UNL A   1      46.035  24.832  29.821  1.00  0.00     0.031 C 
ATOM     60  C   UNL A   1      46.135  26.561  31.598  1.00  0.00     0.034 A 
BRANCH  47  61
ATOM     61  C   UNL A   1      43.115  31.474  33.846  1.00  0.00     0.023 A 
ATOM     62  C   UNL A   1      43.641  32.719  33.441  1.00  0.00     0.012 A 
ATOM     63  C   UNL A   1      42.563  31.345  35.135  1.00  0.00     0.148 A 
ATOM     64  C   UNL A   1      43.664  33.802  34.318  1.00  0.00     0.002 A 
ATOM     65  C   UNL A   1      42.548  32.444  35.989  1.00  0.00     0.091 A 
ATOM     66  F   UNL A   1      42.089  30.151  35.515  1.00  0.00    -0.205 F 
ATOM     67  C   UNL A   1      43.111  33.668  35.588  1.00  0.00     0.022 A 
BRANCH  65  68
ATOM     68  S   UNL A   1      41.788  32.388  37.616  1.00  0.00     0.127 S 
ATOM     69  O   UNL A   1      40.397  32.088  37.281  1.00  0.00    -0.237 OA
ATOM     70  O   UNL A   1      42.510  31.291  38.260  1.00  0.00    -0.237 OA
ATOM     71  O   UNL A   1      42.027  33.697  38.209  1.00  0.00    -0.744 OA
ENDBRANCH  65  68
ENDBRANCH  47  61
BRANCH  48  72
ATOM     72  C   UNL A   1      42.963  24.256  26.969  1.00  0.00     0.023 A 
ATOM     73  C   UNL A   1      43.706  24.477  25.792  1.00  0.00     0.012 A 
ATOM     74  C   UNL A   1      42.287  23.031  27.136  1.00  0.00     0.148 A 
ATOM     75  C   UNL A   1      43.759  23.506  24.792  1.00  0.00     0.002 A 
ATOM     76  C   UNL A   1      42.391  22.046  26.161  1.00  0.00     0.091 A 
ATOM     77  F   UNL A   1      41.581  22.846  28.259  1.00  0.00    -0.205 F 
ATOM     78  C   UNL A   1      43.113  22.286  24.981  1.00  0.00     0.022 A 
BRANCH  76  79
ATOM     79  S   UNL A   1      41.711  20.397  26.378  1.00  0.00     0.127 S 
ATOM     80  O   UNL A   1      42.298  19.679  25.249  1.00  0.00    -0.237 OA
ATOM     81  O   UNL A   1      42.244  20.025  27.690  1.00  0.00    -0.237 OA
ATOM     82  O   UNL A   1      40.264  20.558  26.342  1.00  0.00    -0.744 OA
ENDBRANCH  76  79
ENDBRANCH  48  72
BRANCH  60  83
ATOM     83  C   UNL A   1      47.478  26.010  32.008  1.00  0.00     0.023 A 
ATOM     84  C   UNL A   1      48.641  26.443  31.342  1.00  0.00     0.012 A 
ATOM     85  C   UNL A   1      47.595  25.113  33.089  1.00  0.00     0.148 A 
ATOM     86  C   UNL A   1      49.896  25.966  31.721  1.00  0.00     0.002 A 
ATOM     87  C   UNL A   1      48.853  24.678  33.491  1.00  0.00     0.091 A 
ATOM     88  F   UNL A   1      46.476  24.694  33.697  1.00  0.00    -0.205 F 
ATOM     89  C   UNL A   1      50.003  25.094  32.801  1.00  0.00     0.022 A 
BRANCH  87  90
ATOM     90  S   UNL A   1      49.089  23.627  34.929  1.00  0.00     0.127 S 
ATOM     91  O   UNL A   1      50.545  23.498  34.967  1.00  0.00    -0.237 OA
ATOM     92  O   UNL A   1      48.521  24.439  36.007  1.00  0.00    -0.237 OA
ATOM     93  O   UNL A   1      48.356  22.400  34.651  1.00  0.00    -0.744 OA
ENDBRANCH  87  90
ENDBRANCH  60  83
ENDBRANCH  34  35
ENDBRANCH  26  29
ENDBRANCH  24  25
ENDBRANCH  23  24
ENDBRANCH   1  23
TORSDOF 17
ENDMDL
