MODEL 1
REMARK VINA RESULT:     -11.4      0.000      0.000
REMARK SMILES Cc1cc(C(=O)N[C@H](C(=O)NCCCCNC(=O)c2ccc(-c3c4nc(c(-c5cccc(S(=O)(=O)[O-])c5F)c5ccc([nH]5)c(-c5cccc(S(=O)(=O)[O-])c5F)c5nc(c(-c6cccc(S(=O)(=O)[O-])c6F)c6ccc3[nH]6)C=C5)C=C4)cc2)C(C)C)c(C)s1
REMARK SMILES IDX 14 1 13 2 12 3 11 4 9 5 10 6 8 8 7 9 5 10 6 11 4 13 1 14
REMARK SMILES IDX 2 15 3 16 87 17 85 18 86 19 82 20 83 21 84 22 15 23 16 24
REMARK SMILES IDX 17 25 18 27 19 28 20 29 81 30 21 31 80 32 22 33 23 34 24 35
REMARK SMILES IDX 74 36 25 37 79 38 73 39 75 40 26 41 78 42 72 43 71 44 27 46
REMARK SMILES IDX 59 47 39 48 58 49 40 50 43 51 57 52 76 53 41 54 42 55 56 57
REMARK SMILES IDX 77 58 44 59 28 60 29 61 37 62 30 63 32 64 38 65 31 66 33 67
REMARK SMILES IDX 34 68 35 69 36 70 60 71 61 72 69 73 62 74 64 75 70 76 63 77
REMARK SMILES IDX 65 78 66 79 67 80 68 81 45 82 46 83 54 84 47 85 49 86 55 87
REMARK SMILES IDX 48 88 50 89 51 90 52 91 53 92
REMARK H PARENT 11 7 7 12 16 26 75 45 43 56
REMARK Flexibility Score: inf
ROOT
ATOM      1  C   UNL A   1      31.848  28.587  25.187  1.00  0.00     0.023 C 
ENDROOT
BRANCH   1   2
ATOM      2  C   UNL A   1      31.245  28.920  23.823  1.00  0.00     0.023 C 
BRANCH   2   3
ATOM      3  C   UNL A   1      30.881  27.716  22.957  1.00  0.00     0.116 C 
BRANCH   3   4
ATOM      4  N   UNL A   1      32.051  27.070  22.391  1.00  0.00    -0.354 N 
ATOM      5  C   UNL A   1      32.510  25.788  22.545  1.00  0.00     0.242 C 
ATOM      6  O   UNL A   1      33.622  25.542  22.076  1.00  0.00    -0.273 OA
ATOM      7  H   UNL A   1      32.600  27.640  21.806  1.00  0.00     0.163 HD
BRANCH   5   8
ATOM      8  C   UNL A   1      31.703  24.773  23.407  1.00  0.00     0.174 C 
BRANCH   8   9
ATOM      9  N   UNL A   1      31.682  23.457  22.746  1.00  0.00    -0.340 N 
ATOM     10  C   UNL A   1      32.496  22.354  22.732  1.00  0.00     0.253 C 
ATOM     11  O   UNL A   1      32.154  21.488  21.923  1.00  0.00    -0.269 OA
ATOM     12  H   UNL A   1      30.889  23.341  22.174  1.00  0.00     0.164 HD
BRANCH  10  13
ATOM     13  C   UNL A   1      33.634  22.174  23.644  1.00  0.00     0.053 A 
ATOM     14  C   UNL A   1      37.086  23.125  24.908  1.00  0.00     0.056 C 
ATOM     15  C   UNL A   1      35.744  22.538  24.641  1.00  0.00     0.003 A 
ATOM     16  C   UNL A   1      34.973  22.677  23.511  1.00  0.00     0.029 A 
ATOM     17  S   UNL A   1      34.975  21.553  25.785  1.00  0.00    -0.145 S 
ATOM     18  C   UNL A   1      33.559  21.416  24.816  1.00  0.00     0.014 A 
ATOM     19  C   UNL A   1      32.462  20.554  25.363  1.00  0.00     0.057 C 
ENDBRANCH  10  13
ENDBRANCH   8   9
BRANCH   8  20
ATOM     20  C   UNL A   1      31.944  24.681  24.940  1.00  0.00     0.015 C 
ATOM     21  C   UNL A   1      33.212  25.383  25.434  1.00  0.00     0.010 C 
ATOM     22  C   UNL A   1      30.739  25.266  25.695  1.00  0.00     0.010 C 
ENDBRANCH   8  20
ENDBRANCH   5   8
ENDBRANCH   3   4
ENDBRANCH   2   3
ENDBRANCH   1   2
BRANCH   1  23
ATOM     23  C   UNL A   1      33.000  29.487  25.623  1.00  0.00     0.116 C 
BRANCH  23  24
ATOM     24  N   UNL A   1      32.547  30.789  26.095  1.00  0.00    -0.352 N 
ATOM     25  C   UNL A   1      33.115  31.616  27.040  1.00  0.00     0.251 C 
ATOM     26  H   UNL A   1      31.720  31.124  25.680  1.00  0.00     0.163 HD
ATOM     27  O   UNL A   1      32.519  32.605  27.435  1.00  0.00    -0.269 OA
BRANCH  25  28
ATOM     28  C   UNL A   1      34.446  31.274  27.588  1.00  0.00     0.039 A 
ATOM     29  C   UNL A   1      35.404  32.282  27.735  1.00  0.00     0.014 A 
ATOM     30  C   UNL A   1      34.728  29.967  27.990  1.00  0.00     0.014 A 
ATOM     31  C   UNL A   1      36.617  31.995  28.368  1.00  0.00     0.010 A 
ATOM     32  C   UNL A   1      35.905  29.700  28.678  1.00  0.00     0.010 A 
ATOM     33  C   UNL A   1      36.858  30.711  28.881  1.00  0.00    -0.014 A 
BRANCH  33  34
ATOM     34  C   UNL A   1      38.085  30.381  29.651  1.00  0.00     0.031 A 
ATOM     35  C   UNL A   1      39.089  29.424  29.071  1.00  0.00     0.074 A 
ATOM     36  C   UNL A   1      38.222  30.824  30.917  1.00  0.00     0.049 A 
ATOM     37  N   UNL A   1      40.113  28.851  29.647  1.00  0.00    -0.248 NA
ATOM     38  C   UNL A   1      38.892  29.031  27.665  1.00  0.00     0.031 C 
ATOM     39  C   UNL A   1      37.286  31.709  31.612  1.00  0.00     0.029 A 
ATOM     40  N   UNL A   1      39.182  30.550  31.861  1.00  0.00    -0.354 N 
ATOM     41  C   UNL A   1      40.649  27.992  28.695  1.00  0.00     0.074 A 
ATOM     42  C   UNL A   1      39.827  28.106  27.509  1.00  0.00     0.031 C 
ATOM     43  C   UNL A   1      37.710  31.895  32.873  1.00  0.00     0.029 A 
ATOM     44  C   UNL A   1      38.924  31.114  33.090  1.00  0.00     0.049 A 
ATOM     45  H   UNL A   1      39.978  30.001  31.676  1.00  0.00     0.167 HD
ATOM     46  C   UNL A   1      41.741  27.199  28.791  1.00  0.00     0.034 A 
ATOM     47  C   UNL A   1      39.579  30.998  34.262  1.00  0.00     0.034 A 
ATOM     48  C   UNL A   1      42.590  27.137  29.949  1.00  0.00     0.049 A 
ATOM     49  C   UNL A   1      40.820  30.148  34.327  1.00  0.00     0.074 A 
ATOM     50  C   UNL A   1      43.765  26.424  30.116  1.00  0.00     0.029 A 
ATOM     51  N   UNL A   1      42.361  27.819  31.133  1.00  0.00    -0.354 N 
ATOM     52  N   UNL A   1      41.386  29.444  33.377  1.00  0.00    -0.248 NA
ATOM     53  C   UNL A   1      41.529  30.096  35.614  1.00  0.00     0.031 C 
ATOM     54  C   UNL A   1      44.245  26.675  31.406  1.00  0.00     0.029 A 
ATOM     55  C   UNL A   1      43.375  27.552  32.035  1.00  0.00     0.049 A 
ATOM     56  H   UNL A   1      41.591  28.408  31.306  1.00  0.00     0.167 HD
ATOM     57  C   UNL A   1      42.538  28.905  33.936  1.00  0.00     0.074 A 
ATOM     58  C   UNL A   1      42.595  29.368  35.306  1.00  0.00     0.031 C 
ATOM     59  C   UNL A   1      43.459  28.088  33.369  1.00  0.00     0.034 A 
BRANCH  46  60
ATOM     60  C   UNL A   1      42.117  26.376  27.589  1.00  0.00     0.023 A 
ATOM     61  C   UNL A   1      42.829  26.982  26.534  1.00  0.00     0.012 A 
ATOM     62  C   UNL A   1      41.819  25.001  27.523  1.00  0.00     0.148 A 
ATOM     63  C   UNL A   1      43.213  26.241  25.418  1.00  0.00     0.002 A 
ATOM     64  C   UNL A   1      42.241  24.259  26.425  1.00  0.00     0.091 A 
ATOM     65  F   UNL A   1      41.119  24.448  28.523  1.00  0.00    -0.205 F 
ATOM     66  C   UNL A   1      42.929  24.878  25.368  1.00  0.00     0.022 A 
BRANCH  64  67
ATOM     67  S   UNL A   1      41.989  22.484  26.306  1.00  0.00     0.127 S 
ATOM     68  O   UNL A   1      40.530  22.395  26.267  1.00  0.00    -0.237 OA
ATOM     69  O   UNL A   1      42.655  22.158  25.045  1.00  0.00    -0.237 OA
ATOM     70  O   UNL A   1      42.623  21.913  27.487  1.00  0.00    -0.744 OA
ENDBRANCH  64  67
ENDBRANCH  46  60
BRANCH  47  71
ATOM     71  C   UNL A   1      39.115  31.766  35.453  1.00  0.00     0.023 A 
ATOM     72  C   UNL A   1      38.217  31.156  36.350  1.00  0.00     0.012 A 
ATOM     73  C   UNL A   1      39.574  33.069  35.722  1.00  0.00     0.148 A 
ATOM     74  C   UNL A   1      37.764  31.839  37.479  1.00  0.00     0.002 A 
ATOM     75  C   UNL A   1      39.158  33.725  36.876  1.00  0.00     0.091 A 
ATOM     76  F   UNL A   1      40.416  33.640  34.849  1.00  0.00    -0.205 F 
ATOM     77  C   UNL A   1      38.241  33.119  37.747  1.00  0.00     0.022 A 
BRANCH  75  78
ATOM     78  S   UNL A   1      39.824  35.321  37.365  1.00  0.00     0.127 S 
ATOM     79  O   UNL A   1      39.097  35.583  38.604  1.00  0.00    -0.237 OA
ATOM     80  O   UNL A   1      41.246  35.020  37.535  1.00  0.00    -0.237 OA
ATOM     81  O   UNL A   1      39.535  36.218  36.253  1.00  0.00    -0.744 OA
ENDBRANCH  75  78
ENDBRANCH  47  71
BRANCH  59  82
ATOM     82  C   UNL A   1      44.647  27.678  34.196  1.00  0.00     0.023 A 
ATOM     83  C   UNL A   1      45.793  28.495  34.224  1.00  0.00     0.012 A 
ATOM     84  C   UNL A   1      44.576  26.548  35.036  1.00  0.00     0.148 A 
ATOM     85  C   UNL A   1      46.859  28.185  35.068  1.00  0.00     0.002 A 
ATOM     86  C   UNL A   1      45.623  26.271  35.904  1.00  0.00     0.091 A 
ATOM     87  F   UNL A   1      43.481  25.776  34.978  1.00  0.00    -0.205 F 
ATOM     88  C   UNL A   1      46.769  27.084  35.916  1.00  0.00     0.022 A 
BRANCH  86  89
ATOM     89  S   UNL A   1      45.557  24.930  37.099  1.00  0.00     0.127 S 
ATOM     90  O   UNL A   1      45.456  23.760  36.228  1.00  0.00    -0.237 OA
ATOM     91  O   UNL A   1      46.838  25.068  37.792  1.00  0.00    -0.237 OA
ATOM     92  O   UNL A   1      44.389  25.191  37.931  1.00  0.00    -0.744 OA
ENDBRANCH  86  89
ENDBRANCH  59  82
ENDBRANCH  33  34
ENDBRANCH  25  28
ENDBRANCH  23  24
ENDBRANCH   1  23
TORSDOF 17
ENDMDL
MODEL 2
REMARK VINA RESULT:     -11.2      5.234     10.007
REMARK SMILES Cc1cc(C(=O)N[C@H](C(=O)NCCCCNC(=O)c2ccc(-c3c4nc(c(-c5cccc(S(=O)(=O)[O-])c5F)c5ccc([nH]5)c(-c5cccc(S(=O)(=O)[O-])c5F)c5nc(c(-c6cccc(S(=O)(=O)[O-])c6F)c6ccc3[nH]6)C=C5)C=C4)cc2)C(C)C)c(C)s1
REMARK SMILES IDX 14 1 13 2 12 3 11 4 9 5 10 6 8 8 7 9 5 10 6 11 4 13 1 14
REMARK SMILES IDX 2 15 3 16 87 17 85 18 86 19 82 20 83 21 84 22 15 23 16 24
REMARK SMILES IDX 17 25 18 27 19 28 20 29 81 30 21 31 80 32 22 33 23 34 24 35
REMARK SMILES IDX 74 36 25 37 79 38 73 39 75 40 26 41 78 42 72 43 71 44 27 46
REMARK SMILES IDX 59 47 39 48 58 49 40 50 43 51 57 52 76 53 41 54 42 55 56 57
REMARK SMILES IDX 77 58 44 59 28 60 29 61 37 62 30 63 32 64 38 65 31 66 33 67
REMARK SMILES IDX 34 68 35 69 36 70 60 71 61 72 69 73 62 74 64 75 70 76 63 77
REMARK SMILES IDX 65 78 66 79 67 80 68 81 45 82 46 83 54 84 47 85 49 86 55 87
REMARK SMILES IDX 48 88 50 89 51 90 52 91 53 92
REMARK H PARENT 11 7 7 12 16 26 75 45 43 56
REMARK Flexibility Score: inf
ROOT
ATOM      1  C   UNL A   1      36.754  22.159  23.860  1.00  0.00     0.023 C 
ENDROOT
BRANCH   1   2
ATOM      2  C   UNL A   1      36.165  23.519  23.488  1.00  0.00     0.023 C 
BRANCH   2   3
ATOM      3  C   UNL A   1      34.780  23.812  24.061  1.00  0.00     0.116 C 
BRANCH   3   4
ATOM      4  N   UNL A   1      34.782  24.959  24.949  1.00  0.00    -0.354 N 
ATOM      5  C   UNL A   1      33.739  25.723  25.402  1.00  0.00     0.242 C 
ATOM      6  O   UNL A   1      34.036  26.742  26.027  1.00  0.00    -0.273 OA
ATOM      7  H   UNL A   1      35.670  25.230  25.277  1.00  0.00     0.163 HD
BRANCH   5   8
ATOM      8  C   UNL A   1      32.280  25.367  24.994  1.00  0.00     0.174 C 
BRANCH   8   9
ATOM      9  N   UNL A   1      31.571  24.764  26.136  1.00  0.00    -0.340 N 
ATOM     10  C   UNL A   1      31.327  23.489  26.575  1.00  0.00     0.253 C 
ATOM     11  O   UNL A   1      30.566  23.428  27.544  1.00  0.00    -0.269 OA
ATOM     12  H   UNL A   1      31.177  25.443  26.729  1.00  0.00     0.164 HD
BRANCH  10  13
ATOM     13  C   UNL A   1      31.964  22.296  25.999  1.00  0.00     0.053 A 
ATOM     14  C   UNL A   1      32.382  19.745  23.218  1.00  0.00     0.056 C 
ATOM     15  C   UNL A   1      32.446  20.580  24.448  1.00  0.00     0.003 A 
ATOM     16  C   UNL A   1      31.514  21.486  24.901  1.00  0.00     0.029 A 
ATOM     17  S   UNL A   1      33.768  20.488  25.503  1.00  0.00    -0.145 S 
ATOM     18  C   UNL A   1      33.149  21.748  26.499  1.00  0.00     0.014 A 
ATOM     19  C   UNL A   1      33.959  22.094  27.711  1.00  0.00     0.057 C 
ENDBRANCH  10  13
ENDBRANCH   8   9
BRANCH   8  20
ATOM     20  C   UNL A   1      31.413  26.391  24.211  1.00  0.00     0.015 C 
ATOM     21  C   UNL A   1      30.086  25.838  23.684  1.00  0.00     0.010 C 
ATOM     22  C   UNL A   1      31.113  27.611  25.097  1.00  0.00     0.010 C 
ENDBRANCH   8  20
ENDBRANCH   5   8
ENDBRANCH   3   4
ENDBRANCH   2   3
ENDBRANCH   1   2
BRANCH   1  23
ATOM     23  C   UNL A   1      37.092  21.982  25.338  1.00  0.00     0.116 C 
BRANCH  23  24
ATOM     24  N   UNL A   1      38.001  20.869  25.575  1.00  0.00    -0.352 N 
ATOM     25  C   UNL A   1      39.273  20.884  26.106  1.00  0.00     0.251 C 
ATOM     26  H   UNL A   1      37.659  19.982  25.321  1.00  0.00     0.163 HD
ATOM     27  O   UNL A   1      39.963  19.878  26.090  1.00  0.00    -0.269 OA
BRANCH  25  28
ATOM     28  C   UNL A   1      39.800  22.145  26.674  1.00  0.00     0.039 A 
ATOM     29  C   UNL A   1      40.758  22.089  27.690  1.00  0.00     0.014 A 
ATOM     30  C   UNL A   1      39.373  23.376  26.172  1.00  0.00     0.014 A 
ATOM     31  C   UNL A   1      41.354  23.270  28.143  1.00  0.00     0.010 A 
ATOM     32  C   UNL A   1      40.014  24.540  26.576  1.00  0.00     0.010 A 
ATOM     33  C   UNL A   1      41.015  24.500  27.560  1.00  0.00    -0.014 A 
BRANCH  33  34
ATOM     34  C   UNL A   1      41.691  25.769  27.932  1.00  0.00     0.031 A 
ATOM     35  C   UNL A   1      40.921  26.833  28.663  1.00  0.00     0.074 A 
ATOM     36  C   UNL A   1      42.940  26.019  27.489  1.00  0.00     0.049 A 
ATOM     37  N   UNL A   1      41.251  28.074  28.904  1.00  0.00    -0.248 NA
ATOM     38  C   UNL A   1      39.584  26.459  29.156  1.00  0.00     0.031 C 
ATOM     39  C   UNL A   1      43.770  25.090  26.720  1.00  0.00     0.029 A 
ATOM     40  N   UNL A   1      43.714  27.151  27.585  1.00  0.00    -0.354 N 
ATOM     41  C   UNL A   1      40.147  28.644  29.527  1.00  0.00     0.074 A 
ATOM     42  C   UNL A   1      39.130  27.617  29.612  1.00  0.00     0.031 C 
ATOM     43  C   UNL A   1      44.927  25.692  26.403  1.00  0.00     0.029 A 
ATOM     44  C   UNL A   1      44.910  27.060  26.911  1.00  0.00     0.049 A 
ATOM     45  H   UNL A   1      43.437  27.951  28.088  1.00  0.00     0.167 HD
ATOM     46  C   UNL A   1      40.001  29.901  30.006  1.00  0.00     0.034 A 
ATOM     47  C   UNL A   1      45.873  27.981  26.709  1.00  0.00     0.034 A 
ATOM     48  C   UNL A   1      41.037  30.897  29.977  1.00  0.00     0.049 A 
ATOM     49  C   UNL A   1      45.706  29.357  27.297  1.00  0.00     0.074 A 
ATOM     50  C   UNL A   1      41.015  32.175  30.508  1.00  0.00     0.029 A 
ATOM     51  N   UNL A   1      42.281  30.726  29.392  1.00  0.00    -0.354 N 
ATOM     52  N   UNL A   1      44.708  29.837  27.997  1.00  0.00    -0.248 NA
ATOM     53  C   UNL A   1      46.809  30.309  27.094  1.00  0.00     0.031 C 
ATOM     54  C   UNL A   1      42.249  32.777  30.241  1.00  0.00     0.029 A 
ATOM     55  C   UNL A   1      43.040  31.870  29.554  1.00  0.00     0.049 A 
ATOM     56  H   UNL A   1      42.580  29.909  28.929  1.00  0.00     0.167 HD
ATOM     57  C   UNL A   1      45.079  31.128  28.356  1.00  0.00     0.074 A 
ATOM     58  C   UNL A   1      46.398  31.353  27.803  1.00  0.00     0.031 C 
ATOM     59  C   UNL A   1      44.384  32.048  29.067  1.00  0.00     0.034 A 
BRANCH  46  60
ATOM     60  C   UNL A   1      38.693  30.253  30.661  1.00  0.00     0.023 A 
ATOM     61  C   UNL A   1      38.473  29.884  32.004  1.00  0.00     0.012 A 
ATOM     62  C   UNL A   1      37.710  30.992  29.976  1.00  0.00     0.148 A 
ATOM     63  C   UNL A   1      37.282  30.217  32.646  1.00  0.00     0.002 A 
ATOM     64  C   UNL A   1      36.541  31.356  30.636  1.00  0.00     0.091 A 
ATOM     65  F   UNL A   1      37.926  31.312  28.693  1.00  0.00    -0.205 F 
ATOM     66  C   UNL A   1      36.321  30.962  31.966  1.00  0.00     0.022 A 
BRANCH  64  67
ATOM     67  S   UNL A   1      35.279  32.380  29.869  1.00  0.00     0.127 S 
ATOM     68  O   UNL A   1      36.062  33.535  29.432  1.00  0.00    -0.237 OA
ATOM     69  O   UNL A   1      34.799  31.523  28.784  1.00  0.00    -0.237 OA
ATOM     70  O   UNL A   1      34.295  32.644  30.909  1.00  0.00    -0.744 OA
ENDBRANCH  64  67
ENDBRANCH  46  60
BRANCH  47  71
ATOM     71  C   UNL A   1      47.116  27.608  25.974  1.00  0.00     0.023 A 
ATOM     72  C   UNL A   1      48.161  26.978  26.677  1.00  0.00     0.012 A 
ATOM     73  C   UNL A   1      47.259  27.839  24.593  1.00  0.00     0.148 A 
ATOM     74  C   UNL A   1      49.338  26.610  26.024  1.00  0.00     0.002 A 
ATOM     75  C   UNL A   1      48.414  27.422  23.938  1.00  0.00     0.091 A 
ATOM     76  F   UNL A   1      46.261  28.454  23.943  1.00  0.00    -0.205 F 
ATOM     77  C   UNL A   1      49.460  26.822  24.654  1.00  0.00     0.022 A 
BRANCH  75  78
ATOM     78  S   UNL A   1      48.599  27.539  22.154  1.00  0.00     0.127 S 
ATOM     79  O   UNL A   1      48.772  26.138  21.778  1.00  0.00    -0.237 OA
ATOM     80  O   UNL A   1      47.323  28.133  21.752  1.00  0.00    -0.237 OA
ATOM     81  O   UNL A   1      49.752  28.404  21.940  1.00  0.00    -0.744 OA
ENDBRANCH  75  78
ENDBRANCH  47  71
BRANCH  59  82
ATOM     82  C   UNL A   1      45.043  33.370  29.350  1.00  0.00     0.023 A 
ATOM     83  C   UNL A   1      45.872  33.509  30.479  1.00  0.00     0.012 A 
ATOM     84  C   UNL A   1      44.934  34.433  28.431  1.00  0.00     0.148 A 
ATOM     85  C   UNL A   1      46.576  34.694  30.696  1.00  0.00     0.002 A 
ATOM     86  C   UNL A   1      45.670  35.593  28.632  1.00  0.00     0.091 A 
ATOM     87  F   UNL A   1      44.123  34.283  27.373  1.00  0.00    -0.205 F 
ATOM     88  C   UNL A   1      46.486  35.728  29.767  1.00  0.00     0.022 A 
BRANCH  86  89
ATOM     89  S   UNL A   1      45.691  36.940  27.443  1.00  0.00     0.127 S 
ATOM     90  O   UNL A   1      46.414  36.338  26.324  1.00  0.00    -0.237 OA
ATOM     91  O   UNL A   1      44.266  37.163  27.201  1.00  0.00    -0.237 OA
ATOM     92  O   UNL A   1      46.372  38.048  28.102  1.00  0.00    -0.744 OA
ENDBRANCH  86  89
ENDBRANCH  59  82
ENDBRANCH  33  34
ENDBRANCH  25  28
ENDBRANCH  23  24
ENDBRANCH   1  23
TORSDOF 17
ENDMDL
MODEL 3
REMARK VINA RESULT:     -11.0      1.242      7.754
REMARK SMILES Cc1cc(C(=O)N[C@H](C(=O)NCCCCNC(=O)c2ccc(-c3c4nc(c(-c5cccc(S(=O)(=O)[O-])c5F)c5ccc([nH]5)c(-c5cccc(S(=O)(=O)[O-])c5F)c5nc(c(-c6cccc(S(=O)(=O)[O-])c6F)c6ccc3[nH]6)C=C5)C=C4)cc2)C(C)C)c(C)s1
REMARK SMILES IDX 14 1 13 2 12 3 11 4 9 5 10 6 8 8 7 9 5 10 6 11 4 13 1 14
REMARK SMILES IDX 2 15 3 16 87 17 85 18 86 19 82 20 83 21 84 22 15 23 16 24
REMARK SMILES IDX 17 25 18 27 19 28 20 29 81 30 21 31 80 32 22 33 23 34 24 35
REMARK SMILES IDX 74 36 25 37 79 38 73 39 75 40 26 41 78 42 72 43 71 44 27 46
REMARK SMILES IDX 59 47 39 48 58 49 40 50 43 51 57 52 76 53 41 54 42 55 56 57
REMARK SMILES IDX 77 58 44 59 28 60 29 61 37 62 30 63 32 64 38 65 31 66 33 67
REMARK SMILES IDX 34 68 35 69 36 70 60 71 61 72 69 73 62 74 64 75 70 76 63 77
REMARK SMILES IDX 65 78 66 79 67 80 68 81 45 82 46 83 54 84 47 85 49 86 55 87
REMARK SMILES IDX 48 88 50 89 51 90 52 91 53 92
REMARK H PARENT 11 7 7 12 16 26 75 45 43 56
REMARK Flexibility Score: inf
ROOT
ATOM      1  C   UNL A   1      32.413  29.286  25.187  1.00  0.00     0.023 C 
ENDROOT
BRANCH   1   2
ATOM      2  C   UNL A   1      31.190  29.352  24.272  1.00  0.00     0.023 C 
BRANCH   2   3
ATOM      3  C   UNL A   1      30.860  28.060  23.527  1.00  0.00     0.116 C 
BRANCH   3   4
ATOM      4  N   UNL A   1      32.011  27.517  22.829  1.00  0.00    -0.354 N 
ATOM      5  C   UNL A   1      32.516  26.243  22.823  1.00  0.00     0.242 C 
ATOM      6  O   UNL A   1      33.603  26.086  22.266  1.00  0.00    -0.273 OA
ATOM      7  H   UNL A   1      32.505  28.163  22.274  1.00  0.00     0.163 HD
BRANCH   5   8
ATOM      8  C   UNL A   1      31.795  25.118  23.622  1.00  0.00     0.174 C 
BRANCH   8   9
ATOM      9  N   UNL A   1      31.833  23.857  22.861  1.00  0.00    -0.340 N 
ATOM     10  C   UNL A   1      32.681  22.784  22.786  1.00  0.00     0.253 C 
ATOM     11  O   UNL A   1      32.388  21.973  21.904  1.00  0.00    -0.269 OA
ATOM     12  H   UNL A   1      31.060  23.764  22.259  1.00  0.00     0.164 HD
BRANCH  10  13
ATOM     13  C   UNL A   1      33.800  22.566  23.715  1.00  0.00     0.053 A 
ATOM     14  C   UNL A   1      37.135  23.576  25.223  1.00  0.00     0.056 C 
ATOM     15  C   UNL A   1      35.846  22.940  24.833  1.00  0.00     0.003 A 
ATOM     16  C   UNL A   1      35.103  23.167  23.698  1.00  0.00     0.029 A 
ATOM     17  S   UNL A   1      35.111  21.774  25.817  1.00  0.00    -0.145 S 
ATOM     18  C   UNL A   1      33.739  21.665  24.783  1.00  0.00     0.014 A 
ATOM     19  C   UNL A   1      32.688  20.673  25.176  1.00  0.00     0.057 C 
ENDBRANCH  10  13
ENDBRANCH   8   9
BRANCH   8  20
ATOM     20  C   UNL A   1      32.084  24.925  25.137  1.00  0.00     0.015 C 
ATOM     21  C   UNL A   1      33.289  25.707  25.666  1.00  0.00     0.010 C 
ATOM     22  C   UNL A   1      30.848  25.322  25.961  1.00  0.00     0.010 C 
ENDBRANCH   8  20
ENDBRANCH   5   8
ENDBRANCH   3   4
ENDBRANCH   2   3
ENDBRANCH   1   2
BRANCH   1  23
ATOM     23  C   UNL A   1      32.187  29.796  26.607  1.00  0.00     0.116 C 
BRANCH  23  24
ATOM     24  N   UNL A   1      32.187  31.251  26.687  1.00  0.00    -0.352 N 
ATOM     25  C   UNL A   1      33.100  32.088  27.291  1.00  0.00     0.251 C 
ATOM     26  H   UNL A   1      31.428  31.698  26.248  1.00  0.00     0.163 HD
ATOM     27  O   UNL A   1      32.867  33.280  27.403  1.00  0.00    -0.269 OA
BRANCH  25  28
ATOM     28  C   UNL A   1      34.358  31.516  27.823  1.00  0.00     0.039 A 
ATOM     29  C   UNL A   1      35.454  32.357  28.034  1.00  0.00     0.014 A 
ATOM     30  C   UNL A   1      34.433  30.160  28.145  1.00  0.00     0.014 A 
ATOM     31  C   UNL A   1      36.602  31.852  28.653  1.00  0.00     0.010 A 
ATOM     32  C   UNL A   1      35.547  29.678  28.820  1.00  0.00     0.010 A 
ATOM     33  C   UNL A   1      36.640  30.518  29.089  1.00  0.00    -0.014 A 
BRANCH  33  34
ATOM     34  C   UNL A   1      37.792  29.961  29.842  1.00  0.00     0.031 A 
ATOM     35  C   UNL A   1      38.075  30.452  31.234  1.00  0.00     0.074 A 
ATOM     36  C   UNL A   1      38.657  29.129  29.227  1.00  0.00     0.049 A 
ATOM     37  N   UNL A   1      39.126  30.252  31.984  1.00  0.00    -0.248 NA
ATOM     38  C   UNL A   1      37.053  31.316  31.851  1.00  0.00     0.031 C 
ATOM     39  C   UNL A   1      38.523  28.626  27.859  1.00  0.00     0.029 A 
ATOM     40  N   UNL A   1      39.847  28.596  29.661  1.00  0.00    -0.354 N 
ATOM     41  C   UNL A   1      38.920  31.005  33.133  1.00  0.00     0.074 A 
ATOM     42  C   UNL A   1      37.649  31.680  32.976  1.00  0.00     0.031 C 
ATOM     43  C   UNL A   1      39.592  27.871  27.561  1.00  0.00     0.029 A 
ATOM     44  C   UNL A   1      40.506  27.865  28.700  1.00  0.00     0.049 A 
ATOM     45  H   UNL A   1      40.195  28.726  30.573  1.00  0.00     0.167 HD
ATOM     46  C   UNL A   1      39.705  31.106  34.231  1.00  0.00     0.034 A 
ATOM     47  C   UNL A   1      41.718  27.275  28.726  1.00  0.00     0.034 A 
ATOM     48  C   UNL A   1      40.935  30.384  34.409  1.00  0.00     0.049 A 
ATOM     49  C   UNL A   1      42.548  27.362  29.978  1.00  0.00     0.074 A 
ATOM     50  C   UNL A   1      41.763  30.356  35.517  1.00  0.00     0.029 A 
ATOM     51  N   UNL A   1      41.508  29.556  33.457  1.00  0.00    -0.354 N 
ATOM     52  N   UNL A   1      42.275  27.972  31.106  1.00  0.00    -0.248 NA
ATOM     53  C   UNL A   1      43.839  26.657  29.976  1.00  0.00     0.031 C 
ATOM     54  C   UNL A   1      42.840  29.511  35.234  1.00  0.00     0.029 A 
ATOM     55  C   UNL A   1      42.677  29.006  33.953  1.00  0.00     0.049 A 
ATOM     56  H   UNL A   1      41.139  29.384  32.560  1.00  0.00     0.167 HD
ATOM     57  C   UNL A   1      43.335  27.688  31.960  1.00  0.00     0.074 A 
ATOM     58  C   UNL A   1      44.252  26.845  31.223  1.00  0.00     0.031 C 
ATOM     59  C   UNL A   1      43.536  28.101  33.234  1.00  0.00     0.034 A 
BRANCH  46  60
ATOM     60  C   UNL A   1      39.227  31.985  35.355  1.00  0.00     0.023 A 
ATOM     61  C   UNL A   1      39.424  33.379  35.272  1.00  0.00     0.012 A 
ATOM     62  C   UNL A   1      38.538  31.448  36.459  1.00  0.00     0.148 A 
ATOM     63  C   UNL A   1      38.971  34.221  36.285  1.00  0.00     0.002 A 
ATOM     64  C   UNL A   1      38.053  32.299  37.446  1.00  0.00     0.091 A 
ATOM     65  F   UNL A   1      38.382  30.118  36.533  1.00  0.00    -0.205 F 
ATOM     66  C   UNL A   1      38.277  33.683  37.366  1.00  0.00     0.022 A 
BRANCH  64  67
ATOM     67  S   UNL A   1      37.080  31.708  38.837  1.00  0.00     0.127 S 
ATOM     68  O   UNL A   1      36.854  30.312  38.466  1.00  0.00    -0.237 OA
ATOM     69  O   UNL A   1      37.996  31.900  39.961  1.00  0.00    -0.237 OA
ATOM     70  O   UNL A   1      35.892  32.549  38.876  1.00  0.00    -0.744 OA
ENDBRANCH  64  67
ENDBRANCH  46  60
BRANCH  47  71
ATOM     71  C   UNL A   1      42.187  26.487  27.550  1.00  0.00     0.023 A 
ATOM     72  C   UNL A   1      42.975  27.124  26.572  1.00  0.00     0.012 A 
ATOM     73  C   UNL A   1      41.892  25.117  27.408  1.00  0.00     0.148 A 
ATOM     74  C   UNL A   1      43.437  26.420  25.460  1.00  0.00     0.002 A 
ATOM     75  C   UNL A   1      42.400  24.409  26.324  1.00  0.00     0.091 A 
ATOM     76  F   UNL A   1      41.128  24.531  28.341  1.00  0.00    -0.205 F 
ATOM     77  C   UNL A   1      43.159  25.061  25.341  1.00  0.00     0.022 A 
BRANCH  75  78
ATOM     78  S   UNL A   1      42.199  22.631  26.162  1.00  0.00     0.127 S 
ATOM     79  O   UNL A   1      40.746  22.496  26.106  1.00  0.00    -0.237 OA
ATOM     80  O   UNL A   1      42.893  22.358  24.902  1.00  0.00    -0.237 OA
ATOM     81  O   UNL A   1      42.848  22.059  27.335  1.00  0.00    -0.744 OA
ENDBRANCH  75  78
ENDBRANCH  47  71
BRANCH  59  82
ATOM     82  C   UNL A   1      44.763  27.609  33.953  1.00  0.00     0.023 A 
ATOM     83  C   UNL A   1      45.938  28.384  33.937  1.00  0.00     0.012 A 
ATOM     84  C   UNL A   1      44.709  26.441  34.740  1.00  0.00     0.148 A 
ATOM     85  C   UNL A   1      47.049  27.996  34.686  1.00  0.00     0.002 A 
ATOM     86  C   UNL A   1      45.804  26.085  35.516  1.00  0.00     0.091 A 
ATOM     87  F   UNL A   1      43.584  25.711  34.724  1.00  0.00    -0.205 F 
ATOM     88  C   UNL A   1      46.977  26.857  35.485  1.00  0.00     0.022 A 
BRANCH  86  89
ATOM     89  S   UNL A   1      45.772  24.688  36.646  1.00  0.00     0.127 S 
ATOM     90  O   UNL A   1      47.070  24.811  37.307  1.00  0.00    -0.237 OA
ATOM     91  O   UNL A   1      44.622  25.001  37.494  1.00  0.00    -0.237 OA
ATOM     92  O   UNL A   1      45.604  23.503  35.815  1.00  0.00    -0.744 OA
ENDBRANCH  86  89
ENDBRANCH  59  82
ENDBRANCH  33  34
ENDBRANCH  25  28
ENDBRANCH  23  24
ENDBRANCH   1  23
TORSDOF 17
ENDMDL
