MODEL 1
REMARK VINA RESULT:     -13.0      0.000      0.000
REMARK SMILES Cc1ccccc1OC1(C(=O)NCCCCNC(=O)c2ccc(-c3c4nc(c(-c5cccc(S(=O)(=O)[O-])c5F)c5ccc([nH]5)c(-c5cccc(S(=O)(=O)[O-])c5F)c5nc(c(-c6cccc(S(=O)(=O)[O-])c6F)c6ccc3[nH]6)C=C5)C=C4)cc2)CCN(C(=O)[C@H]2CCCCO2)CC1
REMARK SMILES IDX 15 1 14 2 13 3 12 4 10 5 11 6 9 8 83 9 95 10 84 11 94 12
REMARK SMILES IDX 85 13 86 14 87 15 8 16 7 17 1 18 2 19 3 20 4 21 6 22 5 23
REMARK SMILES IDX 88 24 89 25 93 26 90 27 92 28 91 29 16 30 17 31 18 32 19 34
REMARK SMILES IDX 20 35 21 36 82 37 22 38 81 39 23 40 24 41 25 42 75 43 26 44
REMARK SMILES IDX 80 45 74 46 76 47 27 48 79 49 73 50 72 51 28 53 60 54 40 55
REMARK SMILES IDX 59 56 41 57 44 58 58 59 77 60 42 61 43 62 57 64 78 65 45 66
REMARK SMILES IDX 29 67 30 68 38 69 31 70 33 71 39 72 32 73 34 74 35 75 36 76
REMARK SMILES IDX 37 77 61 78 62 79 70 80 63 81 65 82 71 83 64 84 66 85 67 86
REMARK SMILES IDX 68 87 69 88 46 89 47 90 55 91 48 92 50 93 56 94 49 95 51 96
REMARK SMILES IDX 52 97 53 98 54 99
REMARK H PARENT 12 7 17 33 76 52 44 63
REMARK Flexibility Score: inf
ROOT
ATOM      1  C   UNL A   1      32.940  30.848  27.012  1.00  0.00     0.023 C 
ENDROOT
BRANCH   1   2
ATOM      2  C   UNL A   1      33.028  29.331  27.094  1.00  0.00     0.023 C 
BRANCH   2   3
ATOM      3  C   UNL A   1      34.254  28.695  26.421  1.00  0.00     0.116 C 
BRANCH   3   4
ATOM      4  N   UNL A   1      34.321  28.951  24.993  1.00  0.00    -0.353 N 
ATOM      5  C   UNL A   1      33.700  28.378  23.914  1.00  0.00     0.264 C 
ATOM      6  O   UNL A   1      33.956  28.906  22.824  1.00  0.00    -0.270 OA
ATOM      7  H   UNL A   1      34.936  29.681  24.752  1.00  0.00     0.163 HD
BRANCH   5   8
ATOM      8  C   UNL A   1      32.731  27.133  24.039  1.00  0.00     0.190 C 
ATOM      9  C   UNL A   1      32.479  26.619  22.627  1.00  0.00     0.080 C 
ATOM     10  C   UNL A   1      33.333  26.203  25.097  1.00  0.00     0.080 C 
ATOM     11  C   UNL A   1      33.093  25.277  22.278  1.00  0.00     0.124 C 
ATOM     12  C   UNL A   1      33.686  24.779  24.684  1.00  0.00     0.124 C 
ATOM     13  N   UNL A   1      33.256  24.323  23.365  1.00  0.00    -0.340 N 
ATOM     14  C   UNL A   1      33.216  22.971  22.995  1.00  0.00     0.251 C 
ATOM     15  O   UNL A   1      33.035  22.646  21.817  1.00  0.00    -0.272 OA
BRANCH   8  16
ATOM     16  O   UNL A   1      31.516  27.750  24.564  1.00  0.00    -0.477 OA
BRANCH  16  17
ATOM     17  C   UNL A   1      30.351  28.170  23.996  1.00  0.00     0.123 A 
ATOM     18  C   UNL A   1      28.829  26.079  23.837  1.00  0.00     0.048 C 
ATOM     19  C   UNL A   1      29.157  27.516  23.655  1.00  0.00    -0.009 A 
ATOM     20  C   UNL A   1      28.111  28.234  23.020  1.00  0.00     0.007 A 
ATOM     21  C   UNL A   1      28.217  29.585  22.739  1.00  0.00     0.001 A 
ATOM     22  C   UNL A   1      30.428  29.545  23.695  1.00  0.00     0.047 A 
ATOM     23  C   UNL A   1      29.382  30.246  23.080  1.00  0.00     0.004 A 
ENDBRANCH  16  17
ENDBRANCH   8  16
BRANCH  14  24
ATOM     24  C   UNL A   1      33.320  21.897  24.102  1.00  0.00     0.207 C 
ATOM     25  C   UNL A   1      32.413  20.720  23.712  1.00  0.00     0.042 C 
ATOM     26  O   UNL A   1      34.690  21.486  24.186  1.00  0.00    -0.368 OA
ATOM     27  C   UNL A   1      32.682  19.463  24.528  1.00  0.00     0.006 C 
ATOM     28  C   UNL A   1      34.911  20.404  25.077  1.00  0.00     0.161 C 
ATOM     29  C   UNL A   1      34.172  19.172  24.585  1.00  0.00     0.029 C 
ENDBRANCH  14  24
ENDBRANCH   5   8
ENDBRANCH   3   4
ENDBRANCH   2   3
ENDBRANCH   1   2
BRANCH   1  30
ATOM     30  C   UNL A   1      33.525  31.553  28.221  1.00  0.00     0.116 C 
BRANCH  30  31
ATOM     31  N   UNL A   1      34.599  32.474  27.914  1.00  0.00    -0.352 N 
ATOM     32  C   UNL A   1      35.946  32.370  28.211  1.00  0.00     0.251 C 
ATOM     33  H   UNL A   1      34.333  33.287  27.425  1.00  0.00     0.163 HD
ATOM     34  O   UNL A   1      36.626  33.398  28.164  1.00  0.00    -0.269 OA
BRANCH  32  35
ATOM     35  C   UNL A   1      36.588  31.040  28.400  1.00  0.00     0.039 A 
ATOM     36  C   UNL A   1      36.709  30.576  29.719  1.00  0.00     0.014 A 
ATOM     37  C   UNL A   1      37.321  30.425  27.393  1.00  0.00     0.014 A 
ATOM     38  C   UNL A   1      37.777  29.754  30.069  1.00  0.00     0.010 A 
ATOM     39  C   UNL A   1      38.433  29.698  27.739  1.00  0.00     0.010 A 
ATOM     40  C   UNL A   1      38.706  29.451  29.088  1.00  0.00    -0.014 A 
BRANCH  40  41
ATOM     41  C   UNL A   1      40.038  28.930  29.322  1.00  0.00     0.031 A 
ATOM     42  C   UNL A   1      40.295  27.497  29.133  1.00  0.00     0.074 A 
ATOM     43  C   UNL A   1      41.036  29.843  29.300  1.00  0.00     0.049 A 
ATOM     44  N   UNL A   1      41.431  26.932  29.344  1.00  0.00    -0.248 NA
ATOM     45  C   UNL A   1      39.251  26.567  28.713  1.00  0.00     0.031 C 
ATOM     46  C   UNL A   1      42.413  29.642  28.879  1.00  0.00     0.029 A 
ATOM     47  N   UNL A   1      41.025  31.143  29.823  1.00  0.00    -0.354 N 
ATOM     48  C   UNL A   1      41.368  25.684  28.761  1.00  0.00     0.074 A 
ATOM     49  C   UNL A   1      39.964  25.449  28.550  1.00  0.00     0.031 C 
ATOM     50  C   UNL A   1      43.166  30.637  29.375  1.00  0.00     0.029 A 
ATOM     51  C   UNL A   1      42.325  31.378  30.301  1.00  0.00     0.049 A 
ATOM     52  H   UNL A   1      40.262  31.764  29.851  1.00  0.00     0.167 HD
ATOM     53  C   UNL A   1      42.533  25.098  28.367  1.00  0.00     0.034 A 
ATOM     54  C   UNL A   1      42.613  31.587  31.620  1.00  0.00     0.034 A 
ATOM     55  C   UNL A   1      43.688  25.837  28.912  1.00  0.00     0.049 A 
ATOM     56  C   UNL A   1      43.530  30.520  32.203  1.00  0.00     0.074 A 
ATOM     57  C   UNL A   1      44.611  26.708  28.361  1.00  0.00     0.029 A 
ATOM     58  N   UNL A   1      43.832  25.945  30.294  1.00  0.00    -0.354 N 
ATOM     59  N   UNL A   1      43.948  29.470  31.547  1.00  0.00    -0.248 NA
ATOM     60  C   UNL A   1      44.031  30.537  33.575  1.00  0.00     0.031 C 
ATOM     61  C   UNL A   1      45.212  27.440  29.427  1.00  0.00     0.029 A 
ATOM     62  C   UNL A   1      44.694  26.980  30.626  1.00  0.00     0.049 A 
ATOM     63  H   UNL A   1      43.381  25.363  30.948  1.00  0.00     0.167 HD
ATOM     64  C   UNL A   1      44.595  28.611  32.395  1.00  0.00     0.074 A 
ATOM     65  C   UNL A   1      44.708  29.375  33.628  1.00  0.00     0.031 C 
ATOM     66  C   UNL A   1      44.911  27.327  32.033  1.00  0.00     0.034 A 
BRANCH  53  67
ATOM     67  C   UNL A   1      42.676  24.014  27.298  1.00  0.00     0.023 A 
ATOM     68  C   UNL A   1      43.233  24.410  26.059  1.00  0.00     0.012 A 
ATOM     69  C   UNL A   1      42.219  22.672  27.357  1.00  0.00     0.148 A 
ATOM     70  C   UNL A   1      43.291  23.558  24.947  1.00  0.00     0.002 A 
ATOM     71  C   UNL A   1      42.307  21.809  26.257  1.00  0.00     0.091 A 
ATOM     72  F   UNL A   1      41.643  22.201  28.459  1.00  0.00    -0.205 F 
ATOM     73  C   UNL A   1      42.828  22.255  25.045  1.00  0.00     0.022 A 
BRANCH  71  74
ATOM     74  S   UNL A   1      41.738  20.095  26.319  1.00  0.00     0.127 S 
ATOM     75  O   UNL A   1      40.287  20.250  26.219  1.00  0.00    -0.237 OA
ATOM     76  O   UNL A   1      42.371  19.515  25.133  1.00  0.00    -0.237 OA
ATOM     77  O   UNL A   1      42.206  19.544  27.585  1.00  0.00    -0.744 OA
ENDBRANCH  71  74
ENDBRANCH  53  67
BRANCH  54  78
ATOM     78  C   UNL A   1      41.529  32.311  32.351  1.00  0.00     0.023 A 
ATOM     79  C   UNL A   1      41.267  33.639  31.935  1.00  0.00     0.012 A 
ATOM     80  C   UNL A   1      40.534  31.610  33.055  1.00  0.00     0.148 A 
ATOM     81  C   UNL A   1      39.997  34.200  32.085  1.00  0.00     0.002 A 
ATOM     82  C   UNL A   1      39.263  32.171  33.186  1.00  0.00     0.091 A 
ATOM     83  F   UNL A   1      40.810  30.372  33.484  1.00  0.00    -0.205 F 
ATOM     84  C   UNL A   1      38.984  33.448  32.671  1.00  0.00     0.022 A 
BRANCH  82  85
ATOM     85  S   UNL A   1      37.877  31.237  33.853  1.00  0.00     0.127 S 
ATOM     86  O   UNL A   1      38.317  29.862  33.638  1.00  0.00    -0.237 OA
ATOM     87  O   UNL A   1      37.857  31.667  35.251  1.00  0.00    -0.237 OA
ATOM     88  O   UNL A   1      36.723  31.672  33.080  1.00  0.00    -0.744 OA
ENDBRANCH  82  85
ENDBRANCH  54  78
BRANCH  66  89
ATOM     89  C   UNL A   1      45.418  26.249  32.980  1.00  0.00     0.023 A 
ATOM     90  C   UNL A   1      46.744  25.773  32.951  1.00  0.00     0.012 A 
ATOM     91  C   UNL A   1      44.605  25.785  34.047  1.00  0.00     0.148 A 
ATOM     92  C   UNL A   1      47.221  24.845  33.885  1.00  0.00     0.002 A 
ATOM     93  C   UNL A   1      45.121  24.960  35.045  1.00  0.00     0.091 A 
ATOM     94  F   UNL A   1      43.309  26.128  34.100  1.00  0.00    -0.205 F 
ATOM     95  C   UNL A   1      46.419  24.458  34.948  1.00  0.00     0.022 A 
BRANCH  93  96
ATOM     96  S   UNL A   1      44.200  24.672  36.563  1.00  0.00     0.127 S 
ATOM     97  O   UNL A   1      43.836  26.029  36.963  1.00  0.00    -0.237 OA
ATOM     98  O   UNL A   1      43.078  23.852  36.103  1.00  0.00    -0.237 OA
ATOM     99  O   UNL A   1      45.132  23.967  37.433  1.00  0.00    -0.744 OA
ENDBRANCH  93  96
ENDBRANCH  66  89
ENDBRANCH  40  41
ENDBRANCH  32  35
ENDBRANCH  30  31
ENDBRANCH   1  30
TORSDOF 17
ENDMDL
MODEL 2
REMARK VINA RESULT:     -12.8      3.754      9.470
REMARK SMILES Cc1ccccc1OC1(C(=O)NCCCCNC(=O)c2ccc(-c3c4nc(c(-c5cccc(S(=O)(=O)[O-])c5F)c5ccc([nH]5)c(-c5cccc(S(=O)(=O)[O-])c5F)c5nc(c(-c6cccc(S(=O)(=O)[O-])c6F)c6ccc3[nH]6)C=C5)C=C4)cc2)CCN(C(=O)[C@H]2CCCCO2)CC1
REMARK SMILES IDX 15 1 14 2 13 3 12 4 10 5 11 6 9 8 83 9 95 10 84 11 94 12
REMARK SMILES IDX 85 13 86 14 87 15 8 16 7 17 1 18 2 19 3 20 4 21 6 22 5 23
REMARK SMILES IDX 88 24 89 25 93 26 90 27 92 28 91 29 16 30 17 31 18 32 19 34
REMARK SMILES IDX 20 35 21 36 82 37 22 38 81 39 23 40 24 41 25 42 75 43 26 44
REMARK SMILES IDX 80 45 74 46 76 47 27 48 79 49 73 50 72 51 28 53 60 54 40 55
REMARK SMILES IDX 59 56 41 57 44 58 58 59 77 60 42 61 43 62 57 64 78 65 45 66
REMARK SMILES IDX 29 67 30 68 38 69 31 70 33 71 39 72 32 73 34 74 35 75 36 76
REMARK SMILES IDX 37 77 61 78 62 79 70 80 63 81 65 82 71 83 64 84 66 85 67 86
REMARK SMILES IDX 68 87 69 88 46 89 47 90 55 91 48 92 50 93 56 94 49 95 51 96
REMARK SMILES IDX 52 97 53 98 54 99
REMARK H PARENT 12 7 17 33 76 52 44 63
REMARK Flexibility Score: inf
ROOT
ATOM      1  C   UNL A   1      37.996  20.837  25.036  1.00  0.00     0.023 C 
ENDROOT
BRANCH   1   2
ATOM      2  C   UNL A   1      36.527  21.014  25.396  1.00  0.00     0.023 C 
BRANCH   2   3
ATOM      3  C   UNL A   1      36.145  22.379  25.987  1.00  0.00     0.116 C 
BRANCH   3   4
ATOM      4  N   UNL A   1      35.117  22.294  27.011  1.00  0.00    -0.353 N 
ATOM      5  C   UNL A   1      33.757  22.460  26.981  1.00  0.00     0.264 C 
ATOM      6  O   UNL A   1      33.182  22.243  28.056  1.00  0.00    -0.270 OA
ATOM      7  H   UNL A   1      35.468  22.073  27.904  1.00  0.00     0.163 HD
BRANCH   5   8
ATOM      8  C   UNL A   1      32.971  22.899  25.680  1.00  0.00     0.190 C 
ATOM      9  C   UNL A   1      31.488  22.705  25.966  1.00  0.00     0.080 C 
ATOM     10  C   UNL A   1      33.501  24.280  25.283  1.00  0.00     0.080 C 
ATOM     11  C   UNL A   1      30.655  23.966  26.101  1.00  0.00     0.124 C 
ATOM     12  C   UNL A   1      32.510  25.436  25.212  1.00  0.00     0.124 C 
ATOM     13  N   UNL A   1      31.087  25.126  25.335  1.00  0.00    -0.340 N 
ATOM     14  C   UNL A   1      30.072  26.018  24.962  1.00  0.00     0.251 C 
ATOM     15  O   UNL A   1      28.895  25.793  25.264  1.00  0.00    -0.272 OA
BRANCH   8  16
ATOM     16  O   UNL A   1      33.421  21.906  24.708  1.00  0.00    -0.477 OA
BRANCH  16  17
ATOM     17  C   UNL A   1      33.001  20.652  24.379  1.00  0.00     0.123 A 
ATOM     18  C   UNL A   1      31.988  20.829  22.001  1.00  0.00     0.048 C 
ATOM     19  C   UNL A   1      32.381  20.113  23.241  1.00  0.00    -0.009 A 
ATOM     20  C   UNL A   1      32.017  18.742  23.213  1.00  0.00     0.007 A 
ATOM     21  C   UNL A   1      32.276  17.895  24.276  1.00  0.00     0.001 A 
ATOM     22  C   UNL A   1      33.248  19.763  25.445  1.00  0.00     0.047 A 
ATOM     23  C   UNL A   1      32.897  18.407  25.399  1.00  0.00     0.004 A 
ENDBRANCH  16  17
ENDBRANCH   8  16
BRANCH  14  24
ATOM     24  C   UNL A   1      30.444  27.243  24.095  1.00  0.00     0.207 C 
ATOM     25  C   UNL A   1      29.214  27.624  23.256  1.00  0.00     0.042 C 
ATOM     26  O   UNL A   1      30.814  28.308  24.978  1.00  0.00    -0.368 OA
ATOM     27  C   UNL A   1      29.327  29.003  22.622  1.00  0.00     0.006 C 
ATOM     28  C   UNL A   1      31.055  29.542  24.320  1.00  0.00     0.161 C 
ATOM     29  C   UNL A   1      29.782  30.026  23.650  1.00  0.00     0.029 C 
ENDBRANCH  14  24
ENDBRANCH   5   8
ENDBRANCH   3   4
ENDBRANCH   2   3
ENDBRANCH   1   2
BRANCH   1  30
ATOM     30  C   UNL A   1      38.854  22.035  25.396  1.00  0.00     0.116 C 
BRANCH  30  31
ATOM     31  N   UNL A   1      39.662  21.854  26.583  1.00  0.00    -0.352 N 
ATOM     32  C   UNL A   1      40.363  22.799  27.310  1.00  0.00     0.251 C 
ATOM     33  H   UNL A   1      39.721  20.930  26.920  1.00  0.00     0.163 HD
ATOM     34  O   UNL A   1      41.247  22.399  28.073  1.00  0.00    -0.269 OA
BRANCH  32  35
ATOM     35  C   UNL A   1      39.946  24.229  27.312  1.00  0.00     0.039 A 
ATOM     36  C   UNL A   1      40.716  25.115  26.544  1.00  0.00     0.014 A 
ATOM     37  C   UNL A   1      39.062  24.738  28.256  1.00  0.00     0.014 A 
ATOM     38  C   UNL A   1      40.846  26.443  26.940  1.00  0.00     0.010 A 
ATOM     39  C   UNL A   1      39.257  26.016  28.716  1.00  0.00     0.010 A 
ATOM     40  C   UNL A   1      40.222  26.829  28.114  1.00  0.00    -0.014 A 
BRANCH  40  41
ATOM     41  C   UNL A   1      40.520  28.030  28.871  1.00  0.00     0.031 A 
ATOM     42  C   UNL A   1      39.650  29.205  28.730  1.00  0.00     0.074 A 
ATOM     43  C   UNL A   1      41.321  27.860  29.947  1.00  0.00     0.049 A 
ATOM     44  N   UNL A   1      39.845  30.324  29.331  1.00  0.00    -0.248 NA
ATOM     45  C   UNL A   1      38.485  29.210  27.850  1.00  0.00     0.031 C 
ATOM     46  C   UNL A   1      41.308  28.613  31.191  1.00  0.00     0.029 A 
ATOM     47  N   UNL A   1      42.448  27.035  30.059  1.00  0.00    -0.354 N 
ATOM     48  C   UNL A   1      38.679  31.049  29.209  1.00  0.00     0.074 A 
ATOM     49  C   UNL A   1      37.953  30.398  28.149  1.00  0.00     0.031 C 
ATOM     50  C   UNL A   1      42.478  28.427  31.821  1.00  0.00     0.029 A 
ATOM     51  C   UNL A   1      43.347  27.721  30.893  1.00  0.00     0.049 A 
ATOM     52  H   UNL A   1      42.584  26.155  29.638  1.00  0.00     0.167 HD
ATOM     53  C   UNL A   1      38.405  31.992  30.152  1.00  0.00     0.034 A 
ATOM     54  C   UNL A   1      44.567  28.169  30.473  1.00  0.00     0.034 A 
ATOM     55  C   UNL A   1      39.594  32.237  30.992  1.00  0.00     0.049 A 
ATOM     56  C   UNL A   1      44.699  29.685  30.546  1.00  0.00     0.074 A 
ATOM     57  C   UNL A   1      39.941  31.876  32.283  1.00  0.00     0.029 A 
ATOM     58  N   UNL A   1      40.760  32.706  30.394  1.00  0.00    -0.354 N 
ATOM     59  N   UNL A   1      43.736  30.492  30.902  1.00  0.00    -0.248 NA
ATOM     60  C   UNL A   1      45.919  30.414  30.205  1.00  0.00     0.031 C 
ATOM     61  C   UNL A   1      41.356  32.005  32.406  1.00  0.00     0.029 A 
ATOM     62  C   UNL A   1      41.861  32.491  31.211  1.00  0.00     0.049 A 
ATOM     63  H   UNL A   1      40.799  33.134  29.508  1.00  0.00     0.167 HD
ATOM     64  C   UNL A   1      44.105  31.792  30.685  1.00  0.00     0.074 A 
ATOM     65  C   UNL A   1      45.517  31.690  30.347  1.00  0.00     0.031 C 
ATOM     66  C   UNL A   1      43.205  32.825  30.730  1.00  0.00     0.034 A 
BRANCH  53  67
ATOM     67  C   UNL A   1      37.020  32.535  30.504  1.00  0.00     0.023 A 
ATOM     68  C   UNL A   1      36.514  32.211  31.785  1.00  0.00     0.012 A 
ATOM     69  C   UNL A   1      36.124  33.241  29.660  1.00  0.00     0.148 A 
ATOM     70  C   UNL A   1      35.207  32.520  32.186  1.00  0.00     0.002 A 
ATOM     71  C   UNL A   1      34.828  33.581  30.070  1.00  0.00     0.091 A 
ATOM     72  F   UNL A   1      36.477  33.565  28.419  1.00  0.00    -0.205 F 
ATOM     73  C   UNL A   1      34.361  33.206  31.328  1.00  0.00     0.022 A 
BRANCH  71  74
ATOM     74  S   UNL A   1      33.679  34.487  29.011  1.00  0.00     0.127 S 
ATOM     75  O   UNL A   1      32.644  34.895  29.961  1.00  0.00    -0.237 OA
ATOM     76  O   UNL A   1      34.513  35.582  28.513  1.00  0.00    -0.237 OA
ATOM     77  O   UNL A   1      33.230  33.554  27.985  1.00  0.00    -0.744 OA
ENDBRANCH  71  74
ENDBRANCH  53  67
BRANCH  54  78
ATOM     78  C   UNL A   1      45.202  27.279  29.454  1.00  0.00     0.023 A 
ATOM     79  C   UNL A   1      45.502  25.959  29.870  1.00  0.00     0.012 A 
ATOM     80  C   UNL A   1      45.083  27.547  28.078  1.00  0.00     0.148 A 
ATOM     81  C   UNL A   1      45.534  24.908  28.952  1.00  0.00     0.002 A 
ATOM     82  C   UNL A   1      45.100  26.489  27.169  1.00  0.00     0.091 A 
ATOM     83  F   UNL A   1      44.846  28.808  27.695  1.00  0.00    -0.205 F 
ATOM     84  C   UNL A   1      45.289  25.168  27.608  1.00  0.00     0.022 A 
BRANCH  82  85
ATOM     85  S   UNL A   1      44.709  26.727  25.429  1.00  0.00     0.127 S 
ATOM     86  O   UNL A   1      43.770  27.841  25.487  1.00  0.00    -0.237 OA
ATOM     87  O   UNL A   1      46.016  27.050  24.859  1.00  0.00    -0.237 OA
ATOM     88  O   UNL A   1      44.166  25.450  24.988  1.00  0.00    -0.744 OA
ENDBRANCH  82  85
ENDBRANCH  54  78
BRANCH  66  89
ATOM     89  C   UNL A   1      43.485  34.253  30.283  1.00  0.00     0.023 A 
ATOM     90  C   UNL A   1      43.579  35.328  31.188  1.00  0.00     0.012 A 
ATOM     91  C   UNL A   1      43.820  34.533  28.932  1.00  0.00     0.148 A 
ATOM     92  C   UNL A   1      43.924  36.621  30.773  1.00  0.00     0.002 A 
ATOM     93  C   UNL A   1      44.284  35.790  28.548  1.00  0.00     0.091 A 
ATOM     94  F   UNL A   1      43.679  33.583  27.996  1.00  0.00    -0.205 F 
ATOM     95  C   UNL A   1      44.303  36.847  29.458  1.00  0.00     0.022 A 
BRANCH  93  96
ATOM     96  S   UNL A   1      45.037  36.034  26.933  1.00  0.00     0.127 S 
ATOM     97  O   UNL A   1      45.162  37.488  26.870  1.00  0.00    -0.237 OA
ATOM     98  O   UNL A   1      46.308  35.320  27.063  1.00  0.00    -0.237 OA
ATOM     99  O   UNL A   1      44.106  35.422  25.994  1.00  0.00    -0.744 OA
ENDBRANCH  93  96
ENDBRANCH  66  89
ENDBRANCH  40  41
ENDBRANCH  32  35
ENDBRANCH  30  31
ENDBRANCH   1  30
TORSDOF 17
ENDMDL
MODEL 3
REMARK VINA RESULT:     -12.7      2.579      3.466
REMARK SMILES Cc1ccccc1OC1(C(=O)NCCCCNC(=O)c2ccc(-c3c4nc(c(-c5cccc(S(=O)(=O)[O-])c5F)c5ccc([nH]5)c(-c5cccc(S(=O)(=O)[O-])c5F)c5nc(c(-c6cccc(S(=O)(=O)[O-])c6F)c6ccc3[nH]6)C=C5)C=C4)cc2)CCN(C(=O)[C@H]2CCCCO2)CC1
REMARK SMILES IDX 15 1 14 2 13 3 12 4 10 5 11 6 9 8 83 9 95 10 84 11 94 12
REMARK SMILES IDX 85 13 86 14 87 15 8 16 7 17 1 18 2 19 3 20 4 21 6 22 5 23
REMARK SMILES IDX 88 24 89 25 93 26 90 27 92 28 91 29 16 30 17 31 18 32 19 34
REMARK SMILES IDX 20 35 21 36 82 37 22 38 81 39 23 40 24 41 25 42 75 43 26 44
REMARK SMILES IDX 80 45 74 46 76 47 27 48 79 49 73 50 72 51 28 53 60 54 40 55
REMARK SMILES IDX 59 56 41 57 44 58 58 59 77 60 42 61 43 62 57 64 78 65 45 66
REMARK SMILES IDX 29 67 30 68 38 69 31 70 33 71 39 72 32 73 34 74 35 75 36 76
REMARK SMILES IDX 37 77 61 78 62 79 70 80 63 81 65 82 71 83 64 84 66 85 67 86
REMARK SMILES IDX 68 87 69 88 46 89 47 90 55 91 48 92 50 93 56 94 49 95 51 96
REMARK SMILES IDX 52 97 53 98 54 99
REMARK H PARENT 12 7 17 33 76 52 44 63
REMARK Flexibility Score: inf
ROOT
ATOM      1  C   UNL A   1      33.948  29.558  27.521  1.00  0.00     0.023 C 
ENDROOT
BRANCH   1   2
ATOM      2  C   UNL A   1      33.929  28.925  26.136  1.00  0.00     0.023 C 
BRANCH   2   3
ATOM      3  C   UNL A   1      33.728  27.402  26.101  1.00  0.00     0.116 C 
BRANCH   3   4
ATOM      4  N   UNL A   1      32.386  26.992  26.477  1.00  0.00    -0.353 N 
ATOM      5  C   UNL A   1      31.593  25.941  26.096  1.00  0.00     0.264 C 
ATOM      6  O   UNL A   1      30.505  25.869  26.683  1.00  0.00    -0.270 OA
ATOM      7  H   UNL A   1      31.961  27.588  27.135  1.00  0.00     0.163 HD
BRANCH   5   8
ATOM      8  C   UNL A   1      32.022  24.894  24.990  1.00  0.00     0.190 C 
ATOM      9  C   UNL A   1      33.521  24.669  25.145  1.00  0.00     0.080 C 
ATOM     10  C   UNL A   1      31.055  23.712  25.094  1.00  0.00     0.080 C 
ATOM     11  C   UNL A   1      33.949  23.309  25.664  1.00  0.00     0.124 C 
ATOM     12  C   UNL A   1      31.635  22.331  25.378  1.00  0.00     0.124 C 
ATOM     13  N   UNL A   1      33.088  22.180  25.343  1.00  0.00    -0.340 N 
ATOM     14  C   UNL A   1      33.728  20.936  25.254  1.00  0.00     0.251 C 
ATOM     15  O   UNL A   1      34.949  20.844  25.425  1.00  0.00    -0.272 OA
BRANCH   8  16
ATOM     16  O   UNL A   1      31.759  25.634  23.759  1.00  0.00    -0.477 OA
BRANCH  16  17
ATOM     17  C   UNL A   1      31.085  26.784  23.476  1.00  0.00     0.123 A 
ATOM     18  C   UNL A   1      28.582  26.283  23.918  1.00  0.00     0.048 C 
ATOM     19  C   UNL A   1      29.728  27.140  23.521  1.00  0.00    -0.009 A 
ATOM     20  C   UNL A   1      29.320  28.436  23.113  1.00  0.00     0.007 A 
ATOM     21  C   UNL A   1      30.229  29.389  22.686  1.00  0.00     0.001 A 
ATOM     22  C   UNL A   1      31.984  27.776  23.035  1.00  0.00     0.047 A 
ATOM     23  C   UNL A   1      31.570  29.058  22.648  1.00  0.00     0.004 A 
ENDBRANCH  16  17
ENDBRANCH   8  16
BRANCH  14  24
ATOM     24  C   UNL A   1      32.891  19.699  24.858  1.00  0.00     0.207 C 
ATOM     25  C   UNL A   1      32.698  19.721  23.334  1.00  0.00     0.042 C 
ATOM     26  O   UNL A   1      33.613  18.532  25.269  1.00  0.00    -0.368 OA
ATOM     27  C   UNL A   1      32.194  18.397  22.776  1.00  0.00     0.006 C 
ATOM     28  C   UNL A   1      33.020  17.313  24.849  1.00  0.00     0.161 C 
ATOM     29  C   UNL A   1      33.007  17.240  23.333  1.00  0.00     0.029 C 
ENDBRANCH  14  24
ENDBRANCH   5   8
ENDBRANCH   3   4
ENDBRANCH   2   3
ENDBRANCH   1   2
BRANCH   1  30
ATOM     30  C   UNL A   1      34.944  30.694  27.651  1.00  0.00     0.116 C 
BRANCH  30  31
ATOM     31  N   UNL A   1      34.347  32.013  27.667  1.00  0.00    -0.352 N 
ATOM     32  C   UNL A   1      34.472  33.013  28.613  1.00  0.00     0.251 C 
ATOM     33  H   UNL A   1      33.772  32.228  26.896  1.00  0.00     0.163 HD
ATOM     34  O   UNL A   1      33.630  33.915  28.613  1.00  0.00    -0.269 OA
BRANCH  32  35
ATOM     35  C   UNL A   1      35.679  33.099  29.482  1.00  0.00     0.039 A 
ATOM     36  C   UNL A   1      36.868  33.531  28.875  1.00  0.00     0.014 A 
ATOM     37  C   UNL A   1      35.735  32.488  30.729  1.00  0.00     0.014 A 
ATOM     38  C   UNL A   1      38.094  33.065  29.342  1.00  0.00     0.010 A 
ATOM     39  C   UNL A   1      36.925  31.941  31.140  1.00  0.00     0.010 A 
ATOM     40  C   UNL A   1      38.082  32.154  30.384  1.00  0.00    -0.014 A 
BRANCH  40  41
ATOM     41  C   UNL A   1      39.187  31.297  30.767  1.00  0.00     0.031 A 
ATOM     42  C   UNL A   1      39.291  29.953  30.185  1.00  0.00     0.074 A 
ATOM     43  C   UNL A   1      40.256  31.926  31.306  1.00  0.00     0.049 A 
ATOM     44  N   UNL A   1      40.213  29.106  30.481  1.00  0.00    -0.248 NA
ATOM     45  C   UNL A   1      38.316  29.441  29.226  1.00  0.00     0.031 C 
ATOM     46  C   UNL A   1      41.655  31.538  31.212  1.00  0.00     0.029 A 
ATOM     47  N   UNL A   1      40.259  32.997  32.210  1.00  0.00    -0.354 N 
ATOM     48  C   UNL A   1      40.166  28.117  29.522  1.00  0.00     0.074 A 
ATOM     49  C   UNL A   1      38.882  28.279  28.891  1.00  0.00     0.031 C 
ATOM     50  C   UNL A   1      42.341  32.156  32.186  1.00  0.00     0.029 A 
ATOM     51  C   UNL A   1      41.361  32.785  33.056  1.00  0.00     0.049 A 
ATOM     52  H   UNL A   1      39.620  33.745  32.245  1.00  0.00     0.167 HD
ATOM     53  C   UNL A   1      41.303  27.412  29.269  1.00  0.00     0.034 A 
ATOM     54  C   UNL A   1      41.242  32.550  34.397  1.00  0.00     0.034 A 
ATOM     55  C   UNL A   1      42.317  27.684  30.307  1.00  0.00     0.049 A 
ATOM     56  C   UNL A   1      41.771  31.182  34.807  1.00  0.00     0.074 A 
ATOM     57  C   UNL A   1      43.478  28.437  30.334  1.00  0.00     0.029 A 
ATOM     58  N   UNL A   1      42.029  27.370  31.634  1.00  0.00    -0.354 N 
ATOM     59  N   UNL A   1      42.226  30.287  33.971  1.00  0.00    -0.248 NA
ATOM     60  C   UNL A   1      41.810  30.704  36.187  1.00  0.00     0.031 C 
ATOM     61  C   UNL A   1      43.805  28.688  31.699  1.00  0.00     0.029 A 
ATOM     62  C   UNL A   1      42.875  28.047  32.501  1.00  0.00     0.049 A 
ATOM     63  H   UNL A   1      41.318  26.751  31.918  1.00  0.00     0.167 HD
ATOM     64  C   UNL A   1      42.447  29.103  34.622  1.00  0.00     0.074 A 
ATOM     65  C   UNL A   1      42.268  29.449  36.024  1.00  0.00     0.031 C 
ATOM     66  C   UNL A   1      42.682  27.931  33.949  1.00  0.00     0.034 A 
BRANCH  53  67
ATOM     67  C   UNL A   1      41.627  26.662  27.977  1.00  0.00     0.023 A 
ATOM     68  C   UNL A   1      41.486  27.384  26.768  1.00  0.00     0.012 A 
ATOM     69  C   UNL A   1      41.952  25.289  27.828  1.00  0.00     0.148 A 
ATOM     70  C   UNL A   1      41.611  26.785  25.507  1.00  0.00     0.002 A 
ATOM     71  C   UNL A   1      42.110  24.695  26.570  1.00  0.00     0.091 A 
ATOM     72  F   UNL A   1      42.071  24.503  28.894  1.00  0.00    -0.205 F 
ATOM     73  C   UNL A   1      41.924  25.438  25.406  1.00  0.00     0.022 A 
BRANCH  71  74
ATOM     74  S   UNL A   1      42.533  22.950  26.364  1.00  0.00     0.127 S 
ATOM     75  O   UNL A   1      43.760  22.837  27.153  1.00  0.00    -0.237 OA
ATOM     76  O   UNL A   1      41.371  22.278  26.946  1.00  0.00    -0.237 OA
ATOM     77  O   UNL A   1      42.707  22.728  24.933  1.00  0.00    -0.744 OA
ENDBRANCH  71  74
ENDBRANCH  53  67
BRANCH  54  78
ATOM     78  C   UNL A   1      40.093  33.273  35.021  1.00  0.00     0.023 A 
ATOM     79  C   UNL A   1      38.837  32.622  34.973  1.00  0.00     0.012 A 
ATOM     80  C   UNL A   1      40.302  34.274  35.987  1.00  0.00     0.148 A 
ATOM     81  C   UNL A   1      37.870  32.853  35.952  1.00  0.00     0.002 A 
ATOM     82  C   UNL A   1      39.338  34.488  36.972  1.00  0.00     0.091 A 
ATOM     83  F   UNL A   1      41.477  34.916  35.994  1.00  0.00    -0.205 F 
ATOM     84  C   UNL A   1      38.139  33.755  36.976  1.00  0.00     0.022 A 
BRANCH  82  85
ATOM     85  S   UNL A   1      39.640  35.571  38.377  1.00  0.00     0.127 S 
ATOM     86  O   UNL A   1      38.528  35.229  39.258  1.00  0.00    -0.237 OA
ATOM     87  O   UNL A   1      40.953  35.122  38.838  1.00  0.00    -0.237 OA
ATOM     88  O   UNL A   1      39.631  36.917  37.824  1.00  0.00    -0.744 OA
ENDBRANCH  82  85
ENDBRANCH  54  78
BRANCH  66  89
ATOM     89  C   UNL A   1      42.709  26.547  34.581  1.00  0.00     0.023 A 
ATOM     90  C   UNL A   1      41.603  26.000  35.261  1.00  0.00     0.012 A 
ATOM     91  C   UNL A   1      43.814  25.680  34.373  1.00  0.00     0.148 A 
ATOM     92  C   UNL A   1      41.611  24.692  35.761  1.00  0.00     0.002 A 
ATOM     93  C   UNL A   1      43.767  24.343  34.761  1.00  0.00     0.091 A 
ATOM     94  F   UNL A   1      44.935  26.149  33.805  1.00  0.00    -0.205 F 
ATOM     95  C   UNL A   1      42.682  23.853  35.489  1.00  0.00     0.022 A 
BRANCH  93  96
ATOM     96  S   UNL A   1      45.008  23.177  34.182  1.00  0.00     0.127 S 
ATOM     97  O   UNL A   1      44.540  21.920  34.760  1.00  0.00    -0.237 OA
ATOM     98  O   UNL A   1      44.873  23.265  32.727  1.00  0.00    -0.237 OA
ATOM     99  O   UNL A   1      46.270  23.696  34.694  1.00  0.00    -0.744 OA
ENDBRANCH  93  96
ENDBRANCH  66  89
ENDBRANCH  40  41
ENDBRANCH  32  35
ENDBRANCH  30  31
ENDBRANCH   1  30
TORSDOF 17
ENDMDL
