MODEL 1
REMARK VINA RESULT:     -11.5      0.000      0.000
REMARK SMILES Cc1cc(Br)cc(C(=O)NCCCCNC(=O)c2ccc(-c3c4nc(c(-c5cccc(S(=O)(=O)[O-])c5F)c5ccc([nH]5)c(-c5cccc(S(=O)(=O)[O-])c5F)c5nc(c(-c6cccc(S(=O)(=O)[O-])c6F)c6ccc3[nH]6)C=C5)C=C4)cc2)n1
REMARK SMILES IDX 14 1 13 2 12 3 11 4 10 5 8 6 9 7 7 9 1 10 2 11 3 12 81 13
REMARK SMILES IDX 4 14 5 15 6 16 15 17 16 18 17 20 18 21 19 22 80 23 20 24
REMARK SMILES IDX 79 25 21 26 22 27 23 28 73 29 24 30 78 31 72 32 74 33 25 34
REMARK SMILES IDX 77 35 71 36 70 37 26 39 58 40 38 41 57 42 39 43 42 44 56 45
REMARK SMILES IDX 75 46 40 47 41 48 55 50 76 51 43 52 27 53 28 54 36 55 29 56
REMARK SMILES IDX 31 57 37 58 30 59 32 60 33 61 34 62 35 63 59 64 60 65 68 66
REMARK SMILES IDX 61 67 63 68 69 69 62 70 64 71 65 72 66 73 67 74 44 75 45 76
REMARK SMILES IDX 53 77 46 78 48 79 54 80 47 81 49 82 50 83 51 84 52 85
REMARK H PARENT 10 8 15 19 74 38 42 49
REMARK Flexibility Score: inf
ROOT
ATOM      1  C   UNL A   1      32.658  29.850  25.993  1.00  0.00     0.116 C 
ENDROOT
BRANCH   1   2
ATOM      2  C   UNL A   1      31.529  28.861  26.273  1.00  0.00     0.023 C 
BRANCH   2   3
ATOM      3  C   UNL A   1      31.967  27.453  26.695  1.00  0.00     0.023 C 
BRANCH   3   4
ATOM      4  C   UNL A   1      31.205  26.321  26.009  1.00  0.00     0.116 C 
BRANCH   4   5
ATOM      5  N   UNL A   1      31.166  25.124  26.829  1.00  0.00    -0.351 N 
ATOM      6  C   UNL A   1      31.904  23.963  26.776  1.00  0.00     0.269 C 
ATOM      7  O   UNL A   1      31.667  23.100  27.625  1.00  0.00    -0.268 OA
ATOM      8  H   UNL A   1      30.493  25.146  27.548  1.00  0.00     0.163 HD
BRANCH   6   9
ATOM      9  C   UNL A   1      32.985  23.712  25.765  1.00  0.00     0.129 A 
ATOM     10  C   UNL A   1      33.224  22.989  22.160  1.00  0.00     0.067 C 
ATOM     11  C   UNL A   1      33.632  23.256  23.577  1.00  0.00     0.039 A 
ATOM     12  C   UNL A   1      34.975  23.326  23.918  1.00  0.00     0.039 A 
ATOM     13  N   UNL A   1      32.642  23.433  24.483  1.00  0.00    -0.248 NA
ATOM     14  C   UNL A   1      35.302  23.593  25.241  1.00  0.00     0.022 A 
ATOM     15  Br  UNL A   1      37.118  23.702  25.752  1.00  0.00    -0.051 Br
ATOM     16  C   UNL A   1      34.306  23.791  26.186  1.00  0.00     0.050 A 
ENDBRANCH   6   9
ENDBRANCH   4   5
ENDBRANCH   3   4
ENDBRANCH   2   3
ENDBRANCH   1   2
BRANCH   1  17
ATOM     17  N   UNL A   1      32.385  31.200  26.465  1.00  0.00    -0.352 N 
ATOM     18  C   UNL A   1      33.180  32.006  27.251  1.00  0.00     0.251 C 
ATOM     19  H   UNL A   1      31.523  31.586  26.188  1.00  0.00     0.163 HD
ATOM     20  O   UNL A   1      32.768  33.098  27.632  1.00  0.00    -0.269 OA
BRANCH  18  21
ATOM     21  C   UNL A   1      34.510  31.514  27.669  1.00  0.00     0.039 A 
ATOM     22  C   UNL A   1      34.697  30.169  27.992  1.00  0.00     0.014 A 
ATOM     23  C   UNL A   1      35.558  32.428  27.811  1.00  0.00     0.014 A 
ATOM     24  C   UNL A   1      35.876  29.771  28.614  1.00  0.00     0.010 A 
ATOM     25  C   UNL A   1      36.766  32.011  28.376  1.00  0.00     0.010 A 
ATOM     26  C   UNL A   1      36.912  30.693  28.837  1.00  0.00    -0.014 A 
BRANCH  26  27
ATOM     27  C   UNL A   1      38.121  30.265  29.587  1.00  0.00     0.031 A 
ATOM     28  C   UNL A   1      38.342  30.709  31.010  1.00  0.00     0.074 A 
ATOM     29  C   UNL A   1      38.999  29.427  29.003  1.00  0.00     0.049 A 
ATOM     30  N   UNL A   1      39.317  30.396  31.825  1.00  0.00    -0.248 NA
ATOM     31  C   UNL A   1      37.343  31.619  31.596  1.00  0.00     0.031 C 
ATOM     32  C   UNL A   1      38.905  28.936  27.626  1.00  0.00     0.029 A 
ATOM     33  N   UNL A   1      40.130  28.827  29.495  1.00  0.00    -0.354 N 
ATOM     34  C   UNL A   1      39.074  31.099  32.999  1.00  0.00     0.074 A 
ATOM     35  C   UNL A   1      37.859  31.857  32.795  1.00  0.00     0.031 C 
ATOM     36  C   UNL A   1      39.909  28.076  27.398  1.00  0.00     0.029 A 
ATOM     37  C   UNL A   1      40.740  27.984  28.596  1.00  0.00     0.049 A 
ATOM     38  H   UNL A   1      40.472  28.984  30.405  1.00  0.00     0.167 HD
ATOM     39  C   UNL A   1      39.784  31.095  34.151  1.00  0.00     0.034 A 
ATOM     40  C   UNL A   1      41.841  27.218  28.719  1.00  0.00     0.034 A 
ATOM     41  C   UNL A   1      40.953  30.291  34.382  1.00  0.00     0.049 A 
ATOM     42  C   UNL A   1      42.594  27.211  30.018  1.00  0.00     0.074 A 
ATOM     43  C   UNL A   1      41.709  30.191  35.538  1.00  0.00     0.029 A 
ATOM     44  N   UNL A   1      41.529  29.444  33.451  1.00  0.00    -0.354 N 
ATOM     45  N   UNL A   1      42.304  27.826  31.138  1.00  0.00    -0.248 NA
ATOM     46  C   UNL A   1      43.815  26.395  30.076  1.00  0.00     0.031 C 
ATOM     47  C   UNL A   1      42.740  29.277  35.306  1.00  0.00     0.029 A 
ATOM     48  C   UNL A   1      42.629  28.813  34.005  1.00  0.00     0.049 A 
ATOM     49  H   UNL A   1      41.204  29.311  32.532  1.00  0.00     0.167 HD
ATOM     50  C   UNL A   1      43.303  27.471  32.035  1.00  0.00     0.074 A 
ATOM     51  C   UNL A   1      44.193  26.564  31.338  1.00  0.00     0.031 C 
ATOM     52  C   UNL A   1      43.478  27.880  33.314  1.00  0.00     0.034 A 
BRANCH  39  53
ATOM     53  C   UNL A   1      39.285  31.940  35.290  1.00  0.00     0.023 A 
ATOM     54  C   UNL A   1      38.370  31.384  36.205  1.00  0.00     0.012 A 
ATOM     55  C   UNL A   1      39.794  33.234  35.512  1.00  0.00     0.148 A 
ATOM     56  C   UNL A   1      37.960  32.106  37.323  1.00  0.00     0.002 A 
ATOM     57  C   UNL A   1      39.399  33.940  36.643  1.00  0.00     0.091 A 
ATOM     58  F   UNL A   1      40.650  33.746  34.618  1.00  0.00    -0.205 F 
ATOM     59  C   UNL A   1      38.481  33.379  37.548  1.00  0.00     0.022 A 
BRANCH  57  60
ATOM     60  S   UNL A   1      40.046  35.566  37.052  1.00  0.00     0.127 S 
ATOM     61  O   UNL A   1      39.653  36.343  35.877  1.00  0.00    -0.237 OA
ATOM     62  O   UNL A   1      39.311  35.892  38.273  1.00  0.00    -0.237 OA
ATOM     63  O   UNL A   1      41.480  35.393  37.231  1.00  0.00    -0.744 OA
ENDBRANCH  57  60
ENDBRANCH  39  53
BRANCH  40  64
ATOM     64  C   UNL A   1      42.246  26.347  27.584  1.00  0.00     0.023 A 
ATOM     65  C   UNL A   1      43.151  26.846  26.628  1.00  0.00     0.012 A 
ATOM     66  C   UNL A   1      41.815  25.010  27.500  1.00  0.00     0.148 A 
ATOM     67  C   UNL A   1      43.622  26.023  25.604  1.00  0.00     0.002 A 
ATOM     68  C   UNL A   1      42.322  24.185  26.504  1.00  0.00     0.091 A 
ATOM     69  F   UNL A   1      40.943  24.567  28.417  1.00  0.00    -0.205 F 
ATOM     70  C   UNL A   1      43.219  24.692  25.550  1.00  0.00     0.022 A 
BRANCH  68  71
ATOM     71  S   UNL A   1      41.957  22.428  26.428  1.00  0.00     0.127 S 
ATOM     72  O   UNL A   1      40.500  22.430  26.323  1.00  0.00    -0.237 OA
ATOM     73  O   UNL A   1      42.662  22.026  25.210  1.00  0.00    -0.237 OA
ATOM     74  O   UNL A   1      42.499  21.859  27.654  1.00  0.00    -0.744 OA
ENDBRANCH  68  71
ENDBRANCH  40  64
BRANCH  52  75
ATOM     75  C   UNL A   1      44.680  27.370  34.057  1.00  0.00     0.023 A 
ATOM     76  C   UNL A   1      45.858  28.141  34.057  1.00  0.00     0.012 A 
ATOM     77  C   UNL A   1      44.610  26.202  34.841  1.00  0.00     0.148 A 
ATOM     78  C   UNL A   1      46.955  27.754  34.824  1.00  0.00     0.002 A 
ATOM     79  C   UNL A   1      45.698  25.837  35.625  1.00  0.00     0.091 A 
ATOM     80  F   UNL A   1      43.480  25.480  34.811  1.00  0.00    -0.205 F 
ATOM     81  C   UNL A   1      46.871  26.610  35.616  1.00  0.00     0.022 A 
BRANCH  79  82
ATOM     82  S   UNL A   1      45.662  24.421  36.729  1.00  0.00     0.127 S 
ATOM     83  O   UNL A   1      45.550  23.310  35.783  1.00  0.00    -0.237 OA
ATOM     84  O   UNL A   1      46.957  24.519  37.403  1.00  0.00    -0.237 OA
ATOM     85  O   UNL A   1      44.510  24.617  37.598  1.00  0.00    -0.744 OA
ENDBRANCH  79  82
ENDBRANCH  52  75
ENDBRANCH  26  27
ENDBRANCH  18  21
ENDBRANCH   1  17
TORSDOF 14
ENDMDL
MODEL 2
REMARK VINA RESULT:     -11.4      1.377      1.698
REMARK SMILES Cc1cc(Br)cc(C(=O)NCCCCNC(=O)c2ccc(-c3c4nc(c(-c5cccc(S(=O)(=O)[O-])c5F)c5ccc([nH]5)c(-c5cccc(S(=O)(=O)[O-])c5F)c5nc(c(-c6cccc(S(=O)(=O)[O-])c6F)c6ccc3[nH]6)C=C5)C=C4)cc2)n1
REMARK SMILES IDX 14 1 13 2 12 3 11 4 10 5 8 6 9 7 7 9 1 10 2 11 3 12 81 13
REMARK SMILES IDX 4 14 5 15 6 16 15 17 16 18 17 20 18 21 19 22 80 23 20 24
REMARK SMILES IDX 79 25 21 26 22 27 23 28 73 29 24 30 78 31 72 32 74 33 25 34
REMARK SMILES IDX 77 35 71 36 70 37 26 39 58 40 38 41 57 42 39 43 42 44 56 45
REMARK SMILES IDX 75 46 40 47 41 48 55 50 76 51 43 52 27 53 28 54 36 55 29 56
REMARK SMILES IDX 31 57 37 58 30 59 32 60 33 61 34 62 35 63 59 64 60 65 68 66
REMARK SMILES IDX 61 67 63 68 69 69 62 70 64 71 65 72 66 73 67 74 44 75 45 76
REMARK SMILES IDX 53 77 46 78 48 79 54 80 47 81 49 82 50 83 51 84 52 85
REMARK H PARENT 10 8 15 19 74 38 42 49
REMARK Flexibility Score: inf
ROOT
ATOM      1  C   UNL A   1      32.600  30.699  26.439  1.00  0.00     0.116 C 
ENDROOT
BRANCH   1   2
ATOM      2  C   UNL A   1      31.717  29.684  27.160  1.00  0.00     0.023 C 
BRANCH   2   3
ATOM      3  C   UNL A   1      32.224  28.236  27.152  1.00  0.00     0.023 C 
BRANCH   3   4
ATOM      4  C   UNL A   1      31.471  27.308  26.200  1.00  0.00     0.116 C 
BRANCH   4   5
ATOM      5  N   UNL A   1      31.167  26.031  26.821  1.00  0.00    -0.351 N 
ATOM      6  C   UNL A   1      31.681  24.772  26.605  1.00  0.00     0.269 C 
ATOM      7  O   UNL A   1      31.244  23.853  27.302  1.00  0.00    -0.268 OA
ATOM      8  H   UNL A   1      30.474  26.073  27.519  1.00  0.00     0.163 HD
BRANCH   6   9
ATOM      9  C   UNL A   1      32.749  24.474  25.593  1.00  0.00     0.129 A 
ATOM     10  C   UNL A   1      33.051  24.300  21.925  1.00  0.00     0.067 C 
ATOM     11  C   UNL A   1      33.421  24.252  23.377  1.00  0.00     0.039 A 
ATOM     12  C   UNL A   1      34.730  23.996  23.758  1.00  0.00     0.039 A 
ATOM     13  N   UNL A   1      32.433  24.476  24.274  1.00  0.00    -0.248 NA
ATOM     14  C   UNL A   1      35.026  23.979  25.114  1.00  0.00     0.022 A 
ATOM     15  Br  UNL A   1      36.797  23.641  25.681  1.00  0.00    -0.051 Br
ATOM     16  C   UNL A   1      34.034  24.220  26.054  1.00  0.00     0.050 A 
ENDBRANCH   6   9
ENDBRANCH   4   5
ENDBRANCH   3   4
ENDBRANCH   2   3
ENDBRANCH   1   2
BRANCH   1  17
ATOM     17  N   UNL A   1      32.469  32.057  26.947  1.00  0.00    -0.352 N 
ATOM     18  C   UNL A   1      33.368  32.773  27.708  1.00  0.00     0.251 C 
ATOM     19  H   UNL A   1      31.633  32.522  26.719  1.00  0.00     0.163 HD
ATOM     20  O   UNL A   1      33.071  33.888  28.128  1.00  0.00    -0.269 OA
BRANCH  18  21
ATOM     21  C   UNL A   1      34.668  32.159  28.053  1.00  0.00     0.039 A 
ATOM     22  C   UNL A   1      34.733  30.825  28.458  1.00  0.00     0.014 A 
ATOM     23  C   UNL A   1      35.818  32.953  28.041  1.00  0.00     0.014 A 
ATOM     24  C   UNL A   1      35.912  30.334  29.011  1.00  0.00     0.010 A 
ATOM     25  C   UNL A   1      37.018  32.435  28.536  1.00  0.00     0.010 A 
ATOM     26  C   UNL A   1      37.059  31.142  29.081  1.00  0.00    -0.014 A 
BRANCH  26  27
ATOM     27  C   UNL A   1      38.275  30.627  29.760  1.00  0.00     0.031 A 
ATOM     28  C   UNL A   1      38.580  31.006  31.186  1.00  0.00     0.074 A 
ATOM     29  C   UNL A   1      39.083  29.768  29.108  1.00  0.00     0.049 A 
ATOM     30  N   UNL A   1      39.571  30.615  31.945  1.00  0.00    -0.248 NA
ATOM     31  C   UNL A   1      37.655  31.943  31.848  1.00  0.00     0.031 C 
ATOM     32  C   UNL A   1      38.904  29.334  27.721  1.00  0.00     0.029 A 
ATOM     33  N   UNL A   1      40.201  29.094  29.528  1.00  0.00    -0.354 N 
ATOM     34  C   UNL A   1      39.416  31.285  33.153  1.00  0.00     0.074 A 
ATOM     35  C   UNL A   1      38.234  32.110  33.030  1.00  0.00     0.031 C 
ATOM     36  C   UNL A   1      39.851  28.434  27.419  1.00  0.00     0.029 A 
ATOM     37  C   UNL A   1      40.727  28.255  28.574  1.00  0.00     0.049 A 
ATOM     38  H   UNL A   1      40.589  29.200  30.426  1.00  0.00     0.167 HD
ATOM     39  C   UNL A   1      40.174  31.202  34.271  1.00  0.00     0.034 A 
ATOM     40  C   UNL A   1      41.791  27.431  28.620  1.00  0.00     0.034 A 
ATOM     41  C   UNL A   1      41.309  30.333  34.421  1.00  0.00     0.049 A 
ATOM     42  C   UNL A   1      42.598  27.338  29.883  1.00  0.00     0.074 A 
ATOM     43  C   UNL A   1      42.108  30.152  35.538  1.00  0.00     0.029 A 
ATOM     44  N   UNL A   1      41.799  29.493  33.436  1.00  0.00    -0.354 N 
ATOM     45  N   UNL A   1      42.389  27.925  31.035  1.00  0.00    -0.248 NA
ATOM     46  C   UNL A   1      43.777  26.460  29.858  1.00  0.00     0.031 C 
ATOM     47  C   UNL A   1      43.079  29.196  35.228  1.00  0.00     0.029 A 
ATOM     48  C   UNL A   1      42.888  28.787  33.918  1.00  0.00     0.049 A 
ATOM     49  H   UNL A   1      41.428  29.410  32.528  1.00  0.00     0.167 HD
ATOM     50  C   UNL A   1      43.406  27.486  31.874  1.00  0.00     0.074 A 
ATOM     51  C   UNL A   1      44.217  26.563  31.106  1.00  0.00     0.031 C 
ATOM     52  C   UNL A   1      43.657  27.839  33.157  1.00  0.00     0.034 A 
BRANCH  39  53
ATOM     53  C   UNL A   1      39.770  32.028  35.459  1.00  0.00     0.023 A 
ATOM     54  C   UNL A   1      40.211  33.363  35.547  1.00  0.00     0.012 A 
ATOM     55  C   UNL A   1      38.879  31.524  36.427  1.00  0.00     0.148 A 
ATOM     56  C   UNL A   1      39.779  34.184  36.586  1.00  0.00     0.002 A 
ATOM     57  C   UNL A   1      38.433  32.356  37.447  1.00  0.00     0.091 A 
ATOM     58  F   UNL A   1      38.487  30.246  36.329  1.00  0.00    -0.205 F 
ATOM     59  C   UNL A   1      38.883  33.686  37.529  1.00  0.00     0.022 A 
BRANCH  57  60
ATOM     60  S   UNL A   1      37.240  31.829  38.684  1.00  0.00     0.127 S 
ATOM     61  O   UNL A   1      36.984  30.449  38.274  1.00  0.00    -0.237 OA
ATOM     62  O   UNL A   1      38.003  31.966  39.924  1.00  0.00    -0.237 OA
ATOM     63  O   UNL A   1      36.107  32.735  38.561  1.00  0.00    -0.744 OA
ENDBRANCH  57  60
ENDBRANCH  39  53
BRANCH  40  64
ATOM     64  C   UNL A   1      42.101  26.583  27.439  1.00  0.00     0.023 A 
ATOM     65  C   UNL A   1      42.829  27.139  26.369  1.00  0.00     0.012 A 
ATOM     66  C   UNL A   1      41.763  25.218  27.410  1.00  0.00     0.148 A 
ATOM     67  C   UNL A   1      43.215  26.346  25.289  1.00  0.00     0.002 A 
ATOM     68  C   UNL A   1      42.189  24.424  26.353  1.00  0.00     0.091 A 
ATOM     69  F   UNL A   1      41.058  24.718  28.437  1.00  0.00    -0.205 F 
ATOM     70  C   UNL A   1      42.907  24.988  25.287  1.00  0.00     0.022 A 
BRANCH  68  71
ATOM     71  S   UNL A   1      41.947  22.644  26.323  1.00  0.00     0.127 S 
ATOM     72  O   UNL A   1      42.610  22.233  27.558  1.00  0.00    -0.237 OA
ATOM     73  O   UNL A   1      40.488  22.539  26.343  1.00  0.00    -0.237 OA
ATOM     74  O   UNL A   1      42.569  22.182  25.090  1.00  0.00    -0.744 OA
ENDBRANCH  68  71
ENDBRANCH  40  64
BRANCH  52  75
ATOM     75  C   UNL A   1      44.862  27.241  33.827  1.00  0.00     0.023 A 
ATOM     76  C   UNL A   1      46.084  27.939  33.778  1.00  0.00     0.012 A 
ATOM     77  C   UNL A   1      44.760  26.066  34.594  1.00  0.00     0.148 A 
ATOM     78  C   UNL A   1      47.193  27.471  34.479  1.00  0.00     0.002 A 
ATOM     79  C   UNL A   1      45.863  25.619  35.313  1.00  0.00     0.091 A 
ATOM     80  F   UNL A   1      43.588  25.414  34.612  1.00  0.00    -0.205 F 
ATOM     81  C   UNL A   1      47.080  26.319  35.256  1.00  0.00     0.022 A 
BRANCH  79  82
ATOM     82  S   UNL A   1      45.796  24.186  36.395  1.00  0.00     0.127 S 
ATOM     83  O   UNL A   1      47.167  24.131  36.899  1.00  0.00    -0.237 OA
ATOM     84  O   UNL A   1      44.797  24.591  37.385  1.00  0.00    -0.237 OA
ATOM     85  O   UNL A   1      45.396  23.066  35.554  1.00  0.00    -0.744 OA
ENDBRANCH  79  82
ENDBRANCH  52  75
ENDBRANCH  26  27
ENDBRANCH  18  21
ENDBRANCH   1  17
TORSDOF 14
ENDMDL
MODEL 3
REMARK VINA RESULT:     -11.2      4.983     10.201
REMARK SMILES Cc1cc(Br)cc(C(=O)NCCCCNC(=O)c2ccc(-c3c4nc(c(-c5cccc(S(=O)(=O)[O-])c5F)c5ccc([nH]5)c(-c5cccc(S(=O)(=O)[O-])c5F)c5nc(c(-c6cccc(S(=O)(=O)[O-])c6F)c6ccc3[nH]6)C=C5)C=C4)cc2)n1
REMARK SMILES IDX 14 1 13 2 12 3 11 4 10 5 8 6 9 7 7 9 1 10 2 11 3 12 81 13
REMARK SMILES IDX 4 14 5 15 6 16 15 17 16 18 17 20 18 21 19 22 80 23 20 24
REMARK SMILES IDX 79 25 21 26 22 27 23 28 73 29 24 30 78 31 72 32 74 33 25 34
REMARK SMILES IDX 77 35 71 36 70 37 26 39 58 40 38 41 57 42 39 43 42 44 56 45
REMARK SMILES IDX 75 46 40 47 41 48 55 50 76 51 43 52 27 53 28 54 36 55 29 56
REMARK SMILES IDX 31 57 37 58 30 59 32 60 33 61 34 62 35 63 59 64 60 65 68 66
REMARK SMILES IDX 61 67 63 68 69 69 62 70 64 71 65 72 66 73 67 74 44 75 45 76
REMARK SMILES IDX 53 77 46 78 48 79 54 80 47 81 49 82 50 83 51 84 52 85
REMARK H PARENT 10 8 15 19 74 38 42 49
REMARK Flexibility Score: inf
ROOT
ATOM      1  C   UNL A   1      36.637  21.692  25.667  1.00  0.00     0.116 C 
ENDROOT
BRANCH   1   2
ATOM      2  C   UNL A   1      35.781  21.793  24.407  1.00  0.00     0.023 C 
BRANCH   2   3
ATOM      3  C   UNL A   1      35.371  23.213  23.994  1.00  0.00     0.023 C 
BRANCH   3   4
ATOM      4  C   UNL A   1      34.015  23.301  23.297  1.00  0.00     0.116 C 
BRANCH   4   5
ATOM      5  N   UNL A   1      33.958  24.415  22.368  1.00  0.00    -0.351 N 
ATOM      6  C   UNL A   1      33.503  25.705  22.525  1.00  0.00     0.269 C 
ATOM      7  O   UNL A   1      33.593  26.461  21.554  1.00  0.00    -0.268 OA
ATOM      8  H   UNL A   1      34.305  24.213  21.469  1.00  0.00     0.163 HD
BRANCH   6   9
ATOM      9  C   UNL A   1      32.934  26.233  23.810  1.00  0.00     0.129 A 
ATOM     10  C   UNL A   1      29.891  25.767  25.835  1.00  0.00     0.067 C 
ATOM     11  C   UNL A   1      31.233  26.273  25.396  1.00  0.00     0.039 A 
ATOM     12  C   UNL A   1      31.942  27.157  26.194  1.00  0.00     0.039 A 
ATOM     13  N   UNL A   1      31.707  25.820  24.212  1.00  0.00    -0.248 NA
ATOM     14  C   UNL A   1      33.188  27.582  25.752  1.00  0.00     0.022 A 
ATOM     15  Br  UNL A   1      34.195  28.784  26.808  1.00  0.00    -0.051 Br
ATOM     16  C   UNL A   1      33.703  27.124  24.549  1.00  0.00     0.050 A 
ENDBRANCH   6   9
ENDBRANCH   4   5
ENDBRANCH   3   4
ENDBRANCH   2   3
ENDBRANCH   1   2
BRANCH   1  17
ATOM     17  N   UNL A   1      37.732  20.739  25.558  1.00  0.00    -0.352 N 
ATOM     18  C   UNL A   1      39.049  20.907  25.926  1.00  0.00     0.251 C 
ATOM     19  H   UNL A   1      37.502  19.863  25.171  1.00  0.00     0.163 HD
ATOM     20  O   UNL A   1      39.874  20.027  25.692  1.00  0.00    -0.269 OA
BRANCH  18  21
ATOM     21  C   UNL A   1      39.463  22.178  26.556  1.00  0.00     0.039 A 
ATOM     22  C   UNL A   1      38.937  23.392  26.110  1.00  0.00     0.014 A 
ATOM     23  C   UNL A   1      40.443  22.155  27.552  1.00  0.00     0.014 A 
ATOM     24  C   UNL A   1      39.510  24.585  26.537  1.00  0.00     0.010 A 
ATOM     25  C   UNL A   1      40.971  23.358  28.028  1.00  0.00     0.010 A 
ATOM     26  C   UNL A   1      40.552  24.581  27.480  1.00  0.00    -0.014 A 
BRANCH  26  27
ATOM     27  C   UNL A   1      41.209  25.861  27.848  1.00  0.00     0.031 A 
ATOM     28  C   UNL A   1      42.600  26.178  27.364  1.00  0.00     0.074 A 
ATOM     29  C   UNL A   1      40.530  26.767  28.578  1.00  0.00     0.049 A 
ATOM     30  N   UNL A   1      43.307  27.263  27.553  1.00  0.00    -0.248 NA
ATOM     31  C   UNL A   1      43.288  25.150  26.563  1.00  0.00     0.031 C 
ATOM     32  C   UNL A   1      39.183  26.572  29.118  1.00  0.00     0.029 A 
ATOM     33  N   UNL A   1      40.870  28.035  28.975  1.00  0.00    -0.354 N 
ATOM     34  C   UNL A   1      44.531  27.035  26.937  1.00  0.00     0.074 A 
ATOM     35  C   UNL A   1      44.476  25.708  26.364  1.00  0.00     0.031 C 
ATOM     36  C   UNL A   1      38.794  27.696  29.738  1.00  0.00     0.029 A 
ATOM     37  C   UNL A   1      39.875  28.677  29.674  1.00  0.00     0.049 A 
ATOM     38  H   UNL A   1      41.743  28.446  28.778  1.00  0.00     0.167 HD
ATOM     39  C   UNL A   1      45.596  27.865  26.834  1.00  0.00     0.034 A 
ATOM     40  C   UNL A   1      39.832  29.914  30.202  1.00  0.00     0.034 A 
ATOM     41  C   UNL A   1      45.630  29.209  27.341  1.00  0.00     0.049 A 
ATOM     42  C   UNL A   1      41.016  30.824  30.049  1.00  0.00     0.074 A 
ATOM     43  C   UNL A   1      46.654  30.136  27.241  1.00  0.00     0.029 A 
ATOM     44  N   UNL A   1      44.599  29.822  28.031  1.00  0.00    -0.354 N 
ATOM     45  N   UNL A   1      42.134  30.613  29.399  1.00  0.00    -0.248 NA
ATOM     46  C   UNL A   1      40.931  32.145  30.689  1.00  0.00     0.031 C 
ATOM     47  C   UNL A   1      46.237  31.315  27.867  1.00  0.00     0.029 A 
ATOM     48  C   UNL A   1      44.957  31.118  28.360  1.00  0.00     0.049 A 
ATOM     49  H   UNL A   1      43.738  29.400  28.253  1.00  0.00     0.167 HD
ATOM     50  C   UNL A   1      42.883  31.773  29.547  1.00  0.00     0.074 A 
ATOM     51  C   UNL A   1      42.083  32.696  30.327  1.00  0.00     0.031 C 
ATOM     52  C   UNL A   1      44.133  32.039  29.097  1.00  0.00     0.034 A 
BRANCH  39  53
ATOM     53  C   UNL A   1      46.803  27.373  26.087  1.00  0.00     0.023 A 
ATOM     54  C   UNL A   1      46.914  27.646  24.709  1.00  0.00     0.012 A 
ATOM     55  C   UNL A   1      47.865  26.737  26.759  1.00  0.00     0.148 A 
ATOM     56  C   UNL A   1      48.062  27.287  24.006  1.00  0.00     0.002 A 
ATOM     57  C   UNL A   1      49.018  26.403  26.056  1.00  0.00     0.091 A 
ATOM     58  F   UNL A   1      47.728  26.474  28.065  1.00  0.00    -0.205 F 
ATOM     59  C   UNL A   1      49.117  26.675  24.681  1.00  0.00     0.022 A 
BRANCH  57  60
ATOM     60  S   UNL A   1      50.454  25.658  26.838  1.00  0.00     0.127 S 
ATOM     61  O   UNL A   1      51.350  25.478  25.695  1.00  0.00    -0.237 OA
ATOM     62  O   UNL A   1      50.867  26.698  27.779  1.00  0.00    -0.237 OA
ATOM     63  O   UNL A   1      49.982  24.428  27.456  1.00  0.00    -0.744 OA
ENDBRANCH  57  60
ENDBRANCH  39  53
BRANCH  40  64
ATOM     64  C   UNL A   1      38.584  30.374  30.867  1.00  0.00     0.023 A 
ATOM     65  C   UNL A   1      38.450  30.210  32.259  1.00  0.00     0.012 A 
ATOM     66  C   UNL A   1      37.579  31.048  30.149  1.00  0.00     0.148 A 
ATOM     67  C   UNL A   1      37.333  30.713  32.926  1.00  0.00     0.002 A 
ATOM     68  C   UNL A   1      36.491  31.585  30.826  1.00  0.00     0.091 A 
ATOM     69  F   UNL A   1      37.727  31.178  28.823  1.00  0.00    -0.205 F 
ATOM     70  C   UNL A   1      36.362  31.410  32.213  1.00  0.00     0.022 A 
BRANCH  68  71
ATOM     71  S   UNL A   1      35.256  32.604  30.013  1.00  0.00     0.127 S 
ATOM     72  O   UNL A   1      36.061  33.725  29.536  1.00  0.00    -0.237 OA
ATOM     73  O   UNL A   1      34.768  31.705  28.966  1.00  0.00    -0.237 OA
ATOM     74  O   UNL A   1      34.272  32.925  31.038  1.00  0.00    -0.744 OA
ENDBRANCH  68  71
ENDBRANCH  40  64
BRANCH  52  75
ATOM     75  C   UNL A   1      44.734  33.373  29.437  1.00  0.00     0.023 A 
ATOM     76  C   UNL A   1      45.486  33.498  30.622  1.00  0.00     0.012 A 
ATOM     77  C   UNL A   1      44.657  34.456  28.542  1.00  0.00     0.148 A 
ATOM     78  C   UNL A   1      46.149  34.688  30.914  1.00  0.00     0.002 A 
ATOM     79  C   UNL A   1      45.343  35.631  28.826  1.00  0.00     0.091 A 
ATOM     80  F   UNL A   1      43.923  34.313  27.428  1.00  0.00    -0.205 F 
ATOM     81  C   UNL A   1      46.088  35.749  30.012  1.00  0.00     0.022 A 
BRANCH  79  82
ATOM     82  S   UNL A   1      45.381  37.026  27.696  1.00  0.00     0.127 S 
ATOM     83  O   UNL A   1      43.957  37.324  27.544  1.00  0.00    -0.237 OA
ATOM     84  O   UNL A   1      46.135  38.022  28.457  1.00  0.00    -0.237 OA
ATOM     85  O   UNL A   1      46.049  36.552  26.492  1.00  0.00    -0.744 OA
ENDBRANCH  79  82
ENDBRANCH  52  75
ENDBRANCH  26  27
ENDBRANCH  18  21
ENDBRANCH   1  17
TORSDOF 14
ENDMDL
