MODEL 1
REMARK VINA RESULT:     -11.7      0.000      0.000
REMARK SMILES C[C@@H]1CC[C@H]([N@@H+](CC(=O)NCCCCNC(=O)c2ccc(-c3c4nc(c(-c5cccc(S(=O)(=O)[O-])c5F)c5ccc([nH]5)c(-c5cccc(S(=O)(=O)[O-])c5F)c5nc(c(-c6cccc(S(=O)(=O)[O-])c6F)c6ccc3[nH]6)C=C5)C=C4)cc2)CC(F)(F)F)C[C@@H]1C
REMARK SMILES IDX 12 1 11 2 10 3 8 4 9 5 7 7 6 8 5 10 1 11 2 12 3 13 87 14
REMARK SMILES IDX 4 15 86 16 88 17 81 18 82 19 83 20 84 21 85 22 13 23 14 24
REMARK SMILES IDX 15 25 16 26 17 28 18 29 19 30 80 31 20 32 79 33 21 34 22 35
REMARK SMILES IDX 23 36 73 37 24 38 78 39 72 40 74 41 25 42 77 43 71 44 70 45
REMARK SMILES IDX 26 47 58 48 38 49 57 50 39 51 42 52 56 53 75 54 40 55 41 56
REMARK SMILES IDX 55 58 76 59 43 60 27 61 28 62 36 63 29 64 31 65 37 66 30 67
REMARK SMILES IDX 32 68 33 69 34 70 35 71 59 72 60 73 68 74 61 75 63 76 69 77
REMARK SMILES IDX 62 78 64 79 65 80 66 81 67 82 44 83 45 84 53 85 46 86 48 87
REMARK SMILES IDX 54 88 47 89 49 90 50 91 51 92 52 93
REMARK H PARENT 10 6 6 9 15 27 74 46 42 57
REMARK Flexibility Score: inf
ROOT
ATOM      1  C   UNL A   1      34.845  20.455  25.094  1.00  0.00     0.023 C 
ENDROOT
BRANCH   1   2
ATOM      2  C   UNL A   1      33.353  20.766  25.303  1.00  0.00     0.116 C 
BRANCH   2   3
ATOM      3  N   UNL A   1      33.022  21.620  26.436  1.00  0.00    -0.351 N 
ATOM      4  C   UNL A   1      31.992  22.498  26.649  1.00  0.00     0.275 C 
ATOM      5  O   UNL A   1      31.757  22.804  27.820  1.00  0.00    -0.269 OA
ATOM      6  H   UNL A   1      33.656  21.554  27.187  1.00  0.00     0.163 HD
BRANCH   4   7
ATOM      7  C   UNL A   1      31.198  23.133  25.488  1.00  0.00     0.364 C 
BRANCH   7   8
ATOM      8  N   UNL A   1      31.958  24.110  24.650  1.00  0.00    -0.317 N 
ATOM      9  H   UNL A   1      32.936  23.993  24.916  1.00  0.00     0.349 HD
BRANCH   8  10
ATOM     10  C   UNL A   1      31.694  25.501  25.007  1.00  0.00     0.184 C 
ATOM     11  C   UNL A   1      32.524  29.336  24.765  1.00  0.00     0.008 C 
ATOM     12  C   UNL A   1      31.472  28.435  25.407  1.00  0.00    -0.011 C 
ATOM     13  C   UNL A   1      32.106  27.504  26.480  1.00  0.00     0.010 C 
ATOM     14  C   UNL A   1      30.648  27.631  24.385  1.00  0.00    -0.006 C 
ATOM     15  C   UNL A   1      32.708  26.182  25.940  1.00  0.00     0.065 C 
ATOM     16  C   UNL A   1      31.430  26.451  23.835  1.00  0.00     0.068 C 
ATOM     17  C   UNL A   1      29.949  28.415  23.283  1.00  0.00     0.008 C 
ENDBRANCH   8  10
BRANCH   8  18
ATOM     18  C   UNL A   1      32.085  23.774  23.213  1.00  0.00     0.379 C 
BRANCH  18  19
ATOM     19  C   UNL A   1      33.390  23.796  22.375  1.00  0.00     0.438 C 
ATOM     20  F   UNL A   1      34.024  24.984  22.415  1.00  0.00    -0.165 F 
ATOM     21  F   UNL A   1      34.260  22.888  22.896  1.00  0.00    -0.165 F 
ATOM     22  F   UNL A   1      33.193  23.446  21.093  1.00  0.00    -0.165 F 
ENDBRANCH  18  19
ENDBRANCH   8  18
ENDBRANCH   7   8
ENDBRANCH   4   7
ENDBRANCH   2   3
ENDBRANCH   1   2
BRANCH   1  23
ATOM     23  C   UNL A   1      35.835  21.532  25.545  1.00  0.00     0.023 C 
BRANCH  23  24
ATOM     24  C   UNL A   1      37.158  21.586  24.806  1.00  0.00     0.116 C 
BRANCH  24  25
ATOM     25  N   UNL A   1      38.102  20.620  25.332  1.00  0.00    -0.352 N 
ATOM     26  C   UNL A   1      39.310  20.818  25.961  1.00  0.00     0.251 C 
ATOM     27  H   UNL A   1      37.838  19.678  25.223  1.00  0.00     0.163 HD
ATOM     28  O   UNL A   1      40.087  19.866  26.041  1.00  0.00    -0.269 OA
BRANCH  26  29
ATOM     29  C   UNL A   1      39.690  22.127  26.563  1.00  0.00     0.039 A 
ATOM     30  C   UNL A   1      39.064  23.291  26.096  1.00  0.00     0.014 A 
ATOM     31  C   UNL A   1      40.734  22.248  27.484  1.00  0.00     0.014 A 
ATOM     32  C   UNL A   1      39.499  24.552  26.523  1.00  0.00     0.010 A 
ATOM     33  C   UNL A   1      41.091  23.493  27.997  1.00  0.00     0.010 A 
ATOM     34  C   UNL A   1      40.530  24.663  27.468  1.00  0.00    -0.014 A 
BRANCH  34  35
ATOM     35  C   UNL A   1      41.144  25.974  27.807  1.00  0.00     0.031 A 
ATOM     36  C   UNL A   1      42.575  26.246  27.394  1.00  0.00     0.074 A 
ATOM     37  C   UNL A   1      40.460  26.892  28.515  1.00  0.00     0.049 A 
ATOM     38  N   UNL A   1      43.330  27.283  27.649  1.00  0.00    -0.248 NA
ATOM     39  C   UNL A   1      43.259  25.192  26.621  1.00  0.00     0.031 C 
ATOM     40  C   UNL A   1      39.097  26.726  29.024  1.00  0.00     0.029 A 
ATOM     41  N   UNL A   1      40.826  28.142  28.947  1.00  0.00    -0.354 N 
ATOM     42  C   UNL A   1      44.579  26.987  27.110  1.00  0.00     0.074 A 
ATOM     43  C   UNL A   1      44.498  25.655  26.559  1.00  0.00     0.031 C 
ATOM     44  C   UNL A   1      38.739  27.836  29.692  1.00  0.00     0.029 A 
ATOM     45  C   UNL A   1      39.851  28.782  29.678  1.00  0.00     0.049 A 
ATOM     46  H   UNL A   1      41.704  28.544  28.753  1.00  0.00     0.167 HD
ATOM     47  C   UNL A   1      45.684  27.767  27.037  1.00  0.00     0.034 A 
ATOM     48  C   UNL A   1      39.857  29.996  30.264  1.00  0.00     0.034 A 
ATOM     49  C   UNL A   1      45.736  29.119  27.518  1.00  0.00     0.049 A 
ATOM     50  C   UNL A   1      41.077  30.868  30.115  1.00  0.00     0.074 A 
ATOM     51  C   UNL A   1      46.778  30.025  27.433  1.00  0.00     0.029 A 
ATOM     52  N   UNL A   1      44.692  29.765  28.159  1.00  0.00    -0.354 N 
ATOM     53  N   UNL A   1      42.202  30.616  29.490  1.00  0.00    -0.248 NA
ATOM     54  C   UNL A   1      41.013  32.209  30.714  1.00  0.00     0.031 C 
ATOM     55  C   UNL A   1      46.363  31.221  28.029  1.00  0.00     0.029 A 
ATOM     56  C   UNL A   1      45.058  31.063  28.468  1.00  0.00     0.049 A 
ATOM     57  H   UNL A   1      43.818  29.361  28.366  1.00  0.00     0.167 HD
ATOM     58  C   UNL A   1      42.960  31.778  29.582  1.00  0.00     0.074 A 
ATOM     59  C   UNL A   1      42.157  32.742  30.307  1.00  0.00     0.031 C 
ATOM     60  C   UNL A   1      44.213  32.025  29.127  1.00  0.00     0.034 A 
BRANCH  47  61
ATOM     61  C   UNL A   1      46.899  27.203  26.342  1.00  0.00     0.023 A 
ATOM     62  C   UNL A   1      47.046  27.379  24.951  1.00  0.00     0.012 A 
ATOM     63  C   UNL A   1      47.918  26.549  27.065  1.00  0.00     0.148 A 
ATOM     64  C   UNL A   1      48.163  26.882  24.282  1.00  0.00     0.002 A 
ATOM     65  C   UNL A   1      49.053  26.097  26.397  1.00  0.00     0.091 A 
ATOM     66  F   UNL A   1      47.757  26.374  28.384  1.00  0.00    -0.205 F 
ATOM     67  C   UNL A   1      49.170  26.251  25.006  1.00  0.00     0.022 A 
BRANCH  65  68
ATOM     68  S   UNL A   1      50.444  25.339  27.244  1.00  0.00     0.127 S 
ATOM     69  O   UNL A   1      50.853  26.407  28.154  1.00  0.00    -0.237 OA
ATOM     70  O   UNL A   1      49.816  24.189  27.896  1.00  0.00    -0.237 OA
ATOM     71  O   UNL A   1      51.410  24.998  26.208  1.00  0.00    -0.744 OA
ENDBRANCH  65  68
ENDBRANCH  47  61
BRANCH  48  72
ATOM     72  C   UNL A   1      38.640  30.499  30.966  1.00  0.00     0.023 A 
ATOM     73  C   UNL A   1      38.527  30.316  32.359  1.00  0.00     0.012 A 
ATOM     74  C   UNL A   1      37.610  31.164  30.277  1.00  0.00     0.148 A 
ATOM     75  C   UNL A   1      37.392  30.750  33.045  1.00  0.00     0.002 A 
ATOM     76  C   UNL A   1      36.505  31.643  30.977  1.00  0.00     0.091 A 
ATOM     77  F   UNL A   1      37.725  31.316  28.950  1.00  0.00    -0.205 F 
ATOM     78  C   UNL A   1      36.387  31.422  32.357  1.00  0.00     0.022 A 
BRANCH  76  79
ATOM     79  S   UNL A   1      35.231  32.633  30.185  1.00  0.00     0.127 S 
ATOM     80  O   UNL A   1      34.312  32.879  31.296  1.00  0.00    -0.237 OA
ATOM     81  O   UNL A   1      35.988  33.809  29.745  1.00  0.00    -0.237 OA
ATOM     82  O   UNL A   1      34.720  31.813  29.102  1.00  0.00    -0.744 OA
ENDBRANCH  76  79
ENDBRANCH  48  72
BRANCH  60  83
ATOM     83  C   UNL A   1      44.778  33.402  29.348  1.00  0.00     0.023 A 
ATOM     84  C   UNL A   1      45.505  33.681  30.521  1.00  0.00     0.012 A 
ATOM     85  C   UNL A   1      44.654  34.393  28.354  1.00  0.00     0.148 A 
ATOM     86  C   UNL A   1      46.072  34.939  30.718  1.00  0.00     0.002 A 
ATOM     87  C   UNL A   1      45.263  35.629  28.536  1.00  0.00     0.091 A 
ATOM     88  F   UNL A   1      43.941  34.113  27.253  1.00  0.00    -0.205 F 
ATOM     89  C   UNL A   1      45.962  35.907  29.722  1.00  0.00     0.022 A 
BRANCH  87  90
ATOM     90  S   UNL A   1      45.255  36.898  27.265  1.00  0.00     0.127 S 
ATOM     91  O   UNL A   1      45.973  37.987  27.926  1.00  0.00    -0.237 OA
ATOM     92  O   UNL A   1      45.992  36.254  26.178  1.00  0.00    -0.237 OA
ATOM     93  O   UNL A   1      43.853  37.158  26.970  1.00  0.00    -0.744 OA
ENDBRANCH  87  90
ENDBRANCH  60  83
ENDBRANCH  34  35
ENDBRANCH  26  29
ENDBRANCH  24  25
ENDBRANCH  23  24
ENDBRANCH   1  23
TORSDOF 18
ENDMDL
MODEL 2
REMARK VINA RESULT:     -11.5      1.498      1.771
REMARK SMILES C[C@@H]1CC[C@H]([N@@H+](CC(=O)NCCCCNC(=O)c2ccc(-c3c4nc(c(-c5cccc(S(=O)(=O)[O-])c5F)c5ccc([nH]5)c(-c5cccc(S(=O)(=O)[O-])c5F)c5nc(c(-c6cccc(S(=O)(=O)[O-])c6F)c6ccc3[nH]6)C=C5)C=C4)cc2)CC(F)(F)F)C[C@@H]1C
REMARK SMILES IDX 12 1 11 2 10 3 8 4 9 5 7 7 6 8 5 10 1 11 2 12 3 13 87 14
REMARK SMILES IDX 4 15 86 16 88 17 81 18 82 19 83 20 84 21 85 22 13 23 14 24
REMARK SMILES IDX 15 25 16 26 17 28 18 29 19 30 80 31 20 32 79 33 21 34 22 35
REMARK SMILES IDX 23 36 73 37 24 38 78 39 72 40 74 41 25 42 77 43 71 44 70 45
REMARK SMILES IDX 26 47 58 48 38 49 57 50 39 51 42 52 56 53 75 54 40 55 41 56
REMARK SMILES IDX 55 58 76 59 43 60 27 61 28 62 36 63 29 64 31 65 37 66 30 67
REMARK SMILES IDX 32 68 33 69 34 70 35 71 59 72 60 73 68 74 61 75 63 76 69 77
REMARK SMILES IDX 62 78 64 79 65 80 66 81 67 82 44 83 45 84 53 85 46 86 48 87
REMARK SMILES IDX 54 88 47 89 49 90 50 91 51 92 52 93
REMARK H PARENT 10 6 6 9 15 27 74 46 42 57
REMARK Flexibility Score: inf
ROOT
ATOM      1  C   UNL A   1      34.909  21.463  26.176  1.00  0.00     0.023 C 
ENDROOT
BRANCH   1   2
ATOM      2  C   UNL A   1      34.247  22.849  26.099  1.00  0.00     0.116 C 
BRANCH   2   3
ATOM      3  N   UNL A   1      33.106  23.070  26.980  1.00  0.00    -0.351 N 
ATOM      4  C   UNL A   1      31.791  23.352  26.718  1.00  0.00     0.275 C 
ATOM      5  O   UNL A   1      30.985  23.126  27.624  1.00  0.00    -0.269 OA
ATOM      6  H   UNL A   1      33.320  23.005  27.938  1.00  0.00     0.163 HD
BRANCH   4   7
ATOM      7  C   UNL A   1      31.332  23.982  25.386  1.00  0.00     0.364 C 
BRANCH   7   8
ATOM      8  N   UNL A   1      32.415  24.599  24.562  1.00  0.00    -0.317 N 
ATOM      9  H   UNL A   1      33.269  24.107  24.823  1.00  0.00     0.349 HD
BRANCH   8  10
ATOM     10  C   UNL A   1      32.711  25.977  24.943  1.00  0.00     0.184 C 
ATOM     11  C   UNL A   1      31.822  29.807  24.980  1.00  0.00     0.008 C 
ATOM     12  C   UNL A   1      32.886  28.877  25.559  1.00  0.00    -0.011 C 
ATOM     13  C   UNL A   1      33.735  28.223  24.431  1.00  0.00     0.010 C 
ATOM     14  C   UNL A   1      32.317  27.817  26.518  1.00  0.00    -0.006 C 
ATOM     15  C   UNL A   1      33.140  26.932  23.816  1.00  0.00     0.065 C 
ATOM     16  C   UNL A   1      31.633  26.688  25.767  1.00  0.00     0.068 C 
ATOM     17  C   UNL A   1      31.479  28.314  27.688  1.00  0.00     0.008 C 
ENDBRANCH   8  10
BRANCH   8  18
ATOM     18  C   UNL A   1      32.407  24.265  23.119  1.00  0.00     0.379 C 
BRANCH  18  19
ATOM     19  C   UNL A   1      33.319  23.231  22.409  1.00  0.00     0.438 C 
ATOM     20  F   UNL A   1      34.605  23.303  22.803  1.00  0.00    -0.165 F 
ATOM     21  F   UNL A   1      32.896  21.978  22.734  1.00  0.00    -0.165 F 
ATOM     22  F   UNL A   1      33.264  23.318  21.070  1.00  0.00    -0.165 F 
ENDBRANCH  18  19
ENDBRANCH   8  18
ENDBRANCH   7   8
ENDBRANCH   4   7
ENDBRANCH   2   3
ENDBRANCH   1   2
BRANCH   1  23
ATOM     23  C   UNL A   1      35.782  21.058  24.985  1.00  0.00     0.023 C 
BRANCH  23  24
ATOM     24  C   UNL A   1      37.185  21.629  24.949  1.00  0.00     0.116 C 
BRANCH  24  25
ATOM     25  N   UNL A   1      38.160  20.683  25.454  1.00  0.00    -0.352 N 
ATOM     26  C   UNL A   1      39.378  20.905  26.055  1.00  0.00     0.251 C 
ATOM     27  H   UNL A   1      37.912  19.735  25.352  1.00  0.00     0.163 HD
ATOM     28  O   UNL A   1      40.175  19.969  26.118  1.00  0.00    -0.269 OA
BRANCH  26  29
ATOM     29  C   UNL A   1      39.746  22.222  26.646  1.00  0.00     0.039 A 
ATOM     30  C   UNL A   1      39.133  23.380  26.148  1.00  0.00     0.014 A 
ATOM     31  C   UNL A   1      40.768  22.355  27.590  1.00  0.00     0.014 A 
ATOM     32  C   UNL A   1      39.561  24.647  26.567  1.00  0.00     0.010 A 
ATOM     33  C   UNL A   1      41.116  23.607  28.093  1.00  0.00     0.010 A 
ATOM     34  C   UNL A   1      40.569  24.770  27.534  1.00  0.00    -0.014 A 
BRANCH  34  35
ATOM     35  C   UNL A   1      41.178  26.085  27.868  1.00  0.00     0.031 A 
ATOM     36  C   UNL A   1      42.591  26.380  27.412  1.00  0.00     0.074 A 
ATOM     37  C   UNL A   1      40.506  26.986  28.609  1.00  0.00     0.049 A 
ATOM     38  N   UNL A   1      43.341  27.423  27.654  1.00  0.00    -0.248 NA
ATOM     39  C   UNL A   1      43.263  25.344  26.604  1.00  0.00     0.031 C 
ATOM     40  C   UNL A   1      39.163  26.796  29.161  1.00  0.00     0.029 A 
ATOM     41  N   UNL A   1      40.870  28.235  29.044  1.00  0.00    -0.354 N 
ATOM     42  C   UNL A   1      44.575  27.150  27.071  1.00  0.00     0.074 A 
ATOM     43  C   UNL A   1      44.493  25.823  26.507  1.00  0.00     0.031 C 
ATOM     44  C   UNL A   1      38.813  27.894  29.853  1.00  0.00     0.029 A 
ATOM     45  C   UNL A   1      39.912  28.854  29.813  1.00  0.00     0.049 A 
ATOM     46  H   UNL A   1      41.736  28.650  28.826  1.00  0.00     0.167 HD
ATOM     47  C   UNL A   1      45.667  27.945  26.970  1.00  0.00     0.034 A 
ATOM     48  C   UNL A   1      39.922  30.062  30.413  1.00  0.00     0.034 A 
ATOM     49  C   UNL A   1      45.718  29.292  27.466  1.00  0.00     0.049 A 
ATOM     50  C   UNL A   1      41.125  30.951  30.235  1.00  0.00     0.074 A 
ATOM     51  C   UNL A   1      46.745  30.213  27.358  1.00  0.00     0.029 A 
ATOM     52  N   UNL A   1      44.687  29.917  28.149  1.00  0.00    -0.354 N 
ATOM     53  N   UNL A   1      42.233  30.720  29.571  1.00  0.00    -0.248 NA
ATOM     54  C   UNL A   1      41.064  32.284  30.852  1.00  0.00     0.031 C 
ATOM     55  C   UNL A   1      46.335  31.396  27.981  1.00  0.00     0.029 A 
ATOM     56  C   UNL A   1      45.047  31.216  28.461  1.00  0.00     0.049 A 
ATOM     57  H   UNL A   1      43.826  29.499  28.379  1.00  0.00     0.167 HD
ATOM     58  C   UNL A   1      42.979  31.891  29.652  1.00  0.00     0.074 A 
ATOM     59  C   UNL A   1      42.187  32.836  30.413  1.00  0.00     0.031 C 
ATOM     60  C   UNL A   1      44.212  32.159  29.158  1.00  0.00     0.034 A 
BRANCH  47  61
ATOM     61  C   UNL A   1      46.866  27.405  26.230  1.00  0.00     0.023 A 
ATOM     62  C   UNL A   1      47.719  26.483  26.872  1.00  0.00     0.012 A 
ATOM     63  C   UNL A   1      47.122  27.763  24.891  1.00  0.00     0.148 A 
ATOM     64  C   UNL A   1      48.827  25.956  26.211  1.00  0.00     0.002 A 
ATOM     65  C   UNL A   1      48.204  27.196  24.223  1.00  0.00     0.091 A 
ATOM     66  F   UNL A   1      46.313  28.653  24.300  1.00  0.00    -0.205 F 
ATOM     67  C   UNL A   1      49.063  26.304  24.885  1.00  0.00     0.022 A 
BRANCH  65  68
ATOM     68  S   UNL A   1      48.555  27.516  22.490  1.00  0.00     0.127 S 
ATOM     69  O   UNL A   1      47.384  28.296  22.091  1.00  0.00    -0.237 OA
ATOM     70  O   UNL A   1      49.800  28.282  22.566  1.00  0.00    -0.237 OA
ATOM     71  O   UNL A   1      48.680  26.211  21.856  1.00  0.00    -0.744 OA
ENDBRANCH  65  68
ENDBRANCH  47  61
BRANCH  48  72
ATOM     72  C   UNL A   1      38.723  30.540  31.161  1.00  0.00     0.023 A 
ATOM     73  C   UNL A   1      38.664  30.354  32.557  1.00  0.00     0.012 A 
ATOM     74  C   UNL A   1      37.655  31.186  30.512  1.00  0.00     0.148 A 
ATOM     75  C   UNL A   1      37.548  30.766  33.285  1.00  0.00     0.002 A 
ATOM     76  C   UNL A   1      36.568  31.644  31.252  1.00  0.00     0.091 A 
ATOM     77  F   UNL A   1      37.718  31.341  29.182  1.00  0.00    -0.205 F 
ATOM     78  C   UNL A   1      36.505  31.419  32.636  1.00  0.00     0.022 A 
BRANCH  76  79
ATOM     79  S   UNL A   1      35.247  32.609  30.510  1.00  0.00     0.127 S 
ATOM     80  O   UNL A   1      34.254  32.630  31.584  1.00  0.00    -0.237 OA
ATOM     81  O   UNL A   1      35.909  33.894  30.264  1.00  0.00    -0.237 OA
ATOM     82  O   UNL A   1      34.871  31.891  29.306  1.00  0.00    -0.744 OA
ENDBRANCH  76  79
ENDBRANCH  48  72
BRANCH  60  83
ATOM     83  C   UNL A   1      44.767  33.541  29.377  1.00  0.00     0.023 A 
ATOM     84  C   UNL A   1      45.460  33.838  30.566  1.00  0.00     0.012 A 
ATOM     85  C   UNL A   1      44.668  34.519  28.367  1.00  0.00     0.148 A 
ATOM     86  C   UNL A   1      46.017  35.100  30.762  1.00  0.00     0.002 A 
ATOM     87  C   UNL A   1      45.269  35.758  28.550  1.00  0.00     0.091 A 
ATOM     88  F   UNL A   1      43.988  34.221  27.250  1.00  0.00    -0.205 F 
ATOM     89  C   UNL A   1      45.933  36.054  29.751  1.00  0.00     0.022 A 
BRANCH  87  90
ATOM     90  S   UNL A   1      45.294  37.011  27.262  1.00  0.00     0.127 S 
ATOM     91  O   UNL A   1      46.053  38.083  27.903  1.00  0.00    -0.237 OA
ATOM     92  O   UNL A   1      46.000  36.328  26.178  1.00  0.00    -0.237 OA
ATOM     93  O   UNL A   1      43.899  37.315  26.975  1.00  0.00    -0.744 OA
ENDBRANCH  87  90
ENDBRANCH  60  83
ENDBRANCH  34  35
ENDBRANCH  26  29
ENDBRANCH  24  25
ENDBRANCH  23  24
ENDBRANCH   1  23
TORSDOF 18
ENDMDL
MODEL 3
REMARK VINA RESULT:     -11.5      4.934     10.212
REMARK SMILES C[C@@H]1CC[C@H]([N@@H+](CC(=O)NCCCCNC(=O)c2ccc(-c3c4nc(c(-c5cccc(S(=O)(=O)[O-])c5F)c5ccc([nH]5)c(-c5cccc(S(=O)(=O)[O-])c5F)c5nc(c(-c6cccc(S(=O)(=O)[O-])c6F)c6ccc3[nH]6)C=C5)C=C4)cc2)CC(F)(F)F)C[C@@H]1C
REMARK SMILES IDX 12 1 11 2 10 3 8 4 9 5 7 7 6 8 5 10 1 11 2 12 3 13 87 14
REMARK SMILES IDX 4 15 86 16 88 17 81 18 82 19 83 20 84 21 85 22 13 23 14 24
REMARK SMILES IDX 15 25 16 26 17 28 18 29 19 30 80 31 20 32 79 33 21 34 22 35
REMARK SMILES IDX 23 36 73 37 24 38 78 39 72 40 74 41 25 42 77 43 71 44 70 45
REMARK SMILES IDX 26 47 58 48 38 49 57 50 39 51 42 52 56 53 75 54 40 55 41 56
REMARK SMILES IDX 55 58 76 59 43 60 27 61 28 62 36 63 29 64 31 65 37 66 30 67
REMARK SMILES IDX 32 68 33 69 34 70 35 71 59 72 60 73 68 74 61 75 63 76 69 77
REMARK SMILES IDX 62 78 64 79 65 80 66 81 67 82 44 83 45 84 53 85 46 86 48 87
REMARK SMILES IDX 54 88 47 89 49 90 50 91 51 92 52 93
REMARK H PARENT 10 6 6 9 15 27 74 46 42 57
REMARK Flexibility Score: inf
ROOT
ATOM      1  C   UNL A   1      31.620  29.291  24.803  1.00  0.00     0.023 C 
ENDROOT
BRANCH   1   2
ATOM      2  C   UNL A   1      33.001  28.660  25.050  1.00  0.00     0.116 C 
BRANCH   2   3
ATOM      3  N   UNL A   1      33.864  28.516  23.885  1.00  0.00    -0.351 N 
ATOM      4  C   UNL A   1      33.795  27.692  22.792  1.00  0.00     0.275 C 
ATOM      5  O   UNL A   1      34.441  28.033  21.799  1.00  0.00    -0.269 OA
ATOM      6  H   UNL A   1      34.639  29.123  23.883  1.00  0.00     0.163 HD
BRANCH   4   7
ATOM      7  C   UNL A   1      33.006  26.366  22.809  1.00  0.00     0.364 C 
BRANCH   7   8
ATOM      8  N   UNL A   1      32.767  25.779  24.162  1.00  0.00    -0.317 N 
ATOM      9  H   UNL A   1      32.773  26.570  24.807  1.00  0.00     0.349 HD
BRANCH   8  10
ATOM     10  C   UNL A   1      33.882  24.967  24.642  1.00  0.00     0.184 C 
ATOM     11  C   UNL A   1      35.500  21.478  25.459  1.00  0.00     0.008 C 
ATOM     12  C   UNL A   1      35.902  22.952  25.463  1.00  0.00    -0.011 C 
ATOM     13  C   UNL A   1      35.073  23.758  26.505  1.00  0.00     0.010 C 
ATOM     14  C   UNL A   1      35.843  23.607  24.072  1.00  0.00    -0.006 C 
ATOM     15  C   UNL A   1      33.702  24.277  26.004  1.00  0.00     0.065 C 
ATOM     16  C   UNL A   1      34.416  23.921  23.658  1.00  0.00     0.068 C 
ATOM     17  C   UNL A   1      36.627  22.937  22.952  1.00  0.00     0.008 C 
ENDBRANCH   8  10
BRANCH   8  18
ATOM     18  C   UNL A   1      31.392  25.296  24.429  1.00  0.00     0.379 C 
BRANCH  18  19
ATOM     19  C   UNL A   1      30.439  25.804  25.542  1.00  0.00     0.438 C 
ATOM     20  F   UNL A   1      29.815  24.807  26.199  1.00  0.00    -0.165 F 
ATOM     21  F   UNL A   1      31.173  26.468  26.477  1.00  0.00    -0.165 F 
ATOM     22  F   UNL A   1      29.521  26.673  25.087  1.00  0.00    -0.165 F 
ENDBRANCH  18  19
ENDBRANCH   8  18
ENDBRANCH   7   8
ENDBRANCH   4   7
ENDBRANCH   2   3
ENDBRANCH   1   2
BRANCH   1  23
ATOM     23  C   UNL A   1      31.314  30.582  25.567  1.00  0.00     0.023 C 
BRANCH  23  24
ATOM     24  C   UNL A   1      32.173  30.869  26.783  1.00  0.00     0.116 C 
BRANCH  24  25
ATOM     25  N   UNL A   1      32.382  32.291  26.964  1.00  0.00    -0.352 N 
ATOM     26  C   UNL A   1      33.366  32.958  27.658  1.00  0.00     0.251 C 
ATOM     27  H   UNL A   1      31.718  32.869  26.524  1.00  0.00     0.163 HD
ATOM     28  O   UNL A   1      33.178  34.140  27.944  1.00  0.00    -0.269 OA
BRANCH  26  29
ATOM     29  C   UNL A   1      34.649  32.305  28.045  1.00  0.00     0.039 A 
ATOM     30  C   UNL A   1      34.641  30.940  28.367  1.00  0.00     0.014 A 
ATOM     31  C   UNL A   1      35.830  33.030  28.221  1.00  0.00     0.014 A 
ATOM     32  C   UNL A   1      35.789  30.325  28.882  1.00  0.00     0.010 A 
ATOM     33  C   UNL A   1      37.003  32.395  28.624  1.00  0.00     0.010 A 
ATOM     34  C   UNL A   1      36.978  31.055  29.030  1.00  0.00    -0.014 A 
BRANCH  34  35
ATOM     35  C   UNL A   1      38.158  30.495  29.741  1.00  0.00     0.031 A 
ATOM     36  C   UNL A   1      38.434  30.929  31.165  1.00  0.00     0.074 A 
ATOM     37  C   UNL A   1      39.001  29.652  29.117  1.00  0.00     0.049 A 
ATOM     38  N   UNL A   1      39.440  30.629  31.945  1.00  0.00    -0.248 NA
ATOM     39  C   UNL A   1      37.464  31.854  31.782  1.00  0.00     0.031 C 
ATOM     40  C   UNL A   1      38.879  29.206  27.727  1.00  0.00     0.029 A 
ATOM     41  N   UNL A   1      40.142  29.035  29.565  1.00  0.00    -0.354 N 
ATOM     42  C   UNL A   1      39.247  31.358  33.115  1.00  0.00     0.074 A 
ATOM     43  C   UNL A   1      38.058  32.154  32.926  1.00  0.00     0.031 C 
ATOM     44  C   UNL A   1      39.899  28.379  27.440  1.00  0.00     0.029 A 
ATOM     45  C   UNL A   1      40.758  28.254  28.614  1.00  0.00     0.049 A 
ATOM     46  H   UNL A   1      40.487  29.140  30.481  1.00  0.00     0.167 HD
ATOM     47  C   UNL A   1      39.966  31.337  34.262  1.00  0.00     0.034 A 
ATOM     48  C   UNL A   1      41.886  27.519  28.688  1.00  0.00     0.034 A 
ATOM     49  C   UNL A   1      41.104  30.485  34.472  1.00  0.00     0.049 A 
ATOM     50  C   UNL A   1      42.634  27.464  29.995  1.00  0.00     0.074 A 
ATOM     51  C   UNL A   1      41.864  30.328  35.616  1.00  0.00     0.029 A 
ATOM     52  N   UNL A   1      41.633  29.633  33.517  1.00  0.00    -0.354 N 
ATOM     53  N   UNL A   1      42.361  28.064  31.129  1.00  0.00    -0.248 NA
ATOM     54  C   UNL A   1      43.821  26.598  30.046  1.00  0.00     0.031 C 
ATOM     55  C   UNL A   1      42.859  29.382  35.351  1.00  0.00     0.029 A 
ATOM     56  C   UNL A   1      42.705  28.938  34.047  1.00  0.00     0.049 A 
ATOM     57  H   UNL A   1      41.297  29.536  32.597  1.00  0.00     0.167 HD
ATOM     58  C   UNL A   1      43.312  27.615  32.038  1.00  0.00     0.074 A 
ATOM     59  C   UNL A   1      44.156  26.677  31.327  1.00  0.00     0.031 C 
ATOM     60  C   UNL A   1      43.485  27.957  33.338  1.00  0.00     0.034 A 
BRANCH  47  61
ATOM     61  C   UNL A   1      39.494  32.202  35.405  1.00  0.00     0.023 A 
ATOM     62  C   UNL A   1      38.618  31.660  36.367  1.00  0.00     0.012 A 
ATOM     63  C   UNL A   1      39.954  33.525  35.560  1.00  0.00     0.148 A 
ATOM     64  C   UNL A   1      38.174  32.429  37.443  1.00  0.00     0.002 A 
ATOM     65  C   UNL A   1      39.543  34.271  36.661  1.00  0.00     0.091 A 
ATOM     66  F   UNL A   1      40.773  34.032  34.627  1.00  0.00    -0.205 F 
ATOM     67  C   UNL A   1      38.645  33.729  37.594  1.00  0.00     0.022 A 
BRANCH  65  68
ATOM     68  S   UNL A   1      40.148  35.930  36.994  1.00  0.00     0.127 S 
ATOM     69  O   UNL A   1      41.587  35.702  37.108  1.00  0.00    -0.237 OA
ATOM     70  O   UNL A   1      39.739  36.653  35.789  1.00  0.00    -0.237 OA
ATOM     71  O   UNL A   1      39.486  36.362  38.217  1.00  0.00    -0.744 OA
ENDBRANCH  65  68
ENDBRANCH  47  61
BRANCH  48  72
ATOM     72  C   UNL A   1      42.330  26.703  27.519  1.00  0.00     0.023 A 
ATOM     73  C   UNL A   1      43.093  27.314  26.505  1.00  0.00     0.012 A 
ATOM     74  C   UNL A   1      42.019  25.335  27.411  1.00  0.00     0.148 A 
ATOM     75  C   UNL A   1      43.504  26.588  25.386  1.00  0.00     0.002 A 
ATOM     76  C   UNL A   1      42.478  24.604  26.320  1.00  0.00     0.091 A 
ATOM     77  F   UNL A   1      41.279  24.772  28.377  1.00  0.00    -0.205 F 
ATOM     78  C   UNL A   1      43.206  25.232  25.298  1.00  0.00     0.022 A 
BRANCH  76  79
ATOM     79  S   UNL A   1      42.249  22.826  26.197  1.00  0.00     0.127 S 
ATOM     80  O   UNL A   1      40.794  22.707  26.290  1.00  0.00    -0.237 OA
ATOM     81  O   UNL A   1      42.803  22.537  24.871  1.00  0.00    -0.237 OA
ATOM     82  O   UNL A   1      43.008  22.260  27.297  1.00  0.00    -0.744 OA
ENDBRANCH  76  79
ENDBRANCH  48  72
BRANCH  60  83
ATOM     83  C   UNL A   1      44.596  27.280  34.096  1.00  0.00     0.023 A 
ATOM     84  C   UNL A   1      45.891  27.831  34.083  1.00  0.00     0.012 A 
ATOM     85  C   UNL A   1      44.332  26.142  34.885  1.00  0.00     0.148 A 
ATOM     86  C   UNL A   1      46.918  27.239  34.816  1.00  0.00     0.002 A 
ATOM     87  C   UNL A   1      45.350  25.587  35.652  1.00  0.00     0.091 A 
ATOM     88  F   UNL A   1      43.096  25.622  34.869  1.00  0.00    -0.205 F 
ATOM     89  C   UNL A   1      46.645  26.127  35.609  1.00  0.00     0.022 A 
BRANCH  87  90
ATOM     90  S   UNL A   1      45.063  24.215  36.776  1.00  0.00     0.127 S 
ATOM     91  O   UNL A   1      46.393  24.017  37.349  1.00  0.00    -0.237 OA
ATOM     92  O   UNL A   1      44.077  24.773  37.702  1.00  0.00    -0.237 OA
ATOM     93  O   UNL A   1      44.565  23.122  35.952  1.00  0.00    -0.744 OA
ENDBRANCH  87  90
ENDBRANCH  60  83
ENDBRANCH  34  35
ENDBRANCH  26  29
ENDBRANCH  24  25
ENDBRANCH  23  24
ENDBRANCH   1  23
TORSDOF 18
ENDMDL
