MODEL 1
REMARK VINA RESULT:     -11.8      0.000      0.000
REMARK SMILES O=C(CCNC(=O)CSc1nc2[nH]cnc2c(=O)[nH]1)NCCCCNC(=O)c1ccc(-c2c3nc(c(-c4cccc(S(=O)(=O)[O-])c4F)c4ccc([nH]4)c(-c4cccc(S(=O)(=O)[O-])c4F)c4nc(c(-c5cccc(S(=O)(=O)[O-])c5F)c5ccc2[nH]5)C=C4)C=C3)cc1
REMARK SMILES IDX 21 1 20 2 1 3 2 4 3 6 4 7 5 8 6 9 7 11 8 12 9 13 10 14 11 15
REMARK SMILES IDX 19 16 12 17 17 18 13 20 16 21 18 22 14 23 15 25 22 26 23 27
REMARK SMILES IDX 24 28 25 29 26 30 27 32 28 33 29 34 90 35 30 36 89 37 31 38
REMARK SMILES IDX 32 39 33 40 83 41 34 42 88 43 82 44 84 45 35 46 87 47 81 48
REMARK SMILES IDX 80 49 36 51 68 52 48 53 67 54 49 55 52 56 66 57 85 58 50 59
REMARK SMILES IDX 51 60 65 62 86 63 53 64 37 65 38 66 46 67 39 68 41 69 47 70
REMARK SMILES IDX 40 71 42 72 43 73 44 74 45 75 69 76 70 77 78 78 71 79 73 80
REMARK SMILES IDX 79 81 72 82 74 83 75 84 76 85 77 86 54 87 55 88 63 89 56 90
REMARK SMILES IDX 58 91 64 92 57 93 59 94 60 95 61 96 62 97
REMARK H PARENT 20 5 5 10 19 19 13 24 25 31 84 50 52 61
REMARK Flexibility Score: inf
ROOT
ATOM      1  C   UNL A   1      33.205  29.944  26.471  1.00  0.00     0.116 C 
ENDROOT
BRANCH   1   2
ATOM      2  N   UNL A   1      33.649  29.041  25.428  1.00  0.00    -0.356 N 
ATOM      3  O   UNL A   1      32.097  27.390  25.834  1.00  0.00    -0.275 OA
ATOM      4  C   UNL A   1      33.038  27.831  25.182  1.00  0.00     0.221 C 
ATOM      5  H   UNL A   1      34.420  29.302  24.874  1.00  0.00     0.163 HD
BRANCH   4   6
ATOM      6  C   UNL A   1      33.604  27.093  23.988  1.00  0.00     0.121 C 
BRANCH   6   7
ATOM      7  C   UNL A   1      33.205  25.621  24.036  1.00  0.00     0.125 C 
BRANCH   7   8
ATOM      8  N   UNL A   1      34.226  24.769  23.447  1.00  0.00    -0.355 N 
ATOM      9  C   UNL A   1      34.191  23.456  23.081  1.00  0.00     0.230 C 
ATOM     10  H   UNL A   1      35.087  25.216  23.284  1.00  0.00     0.163 HD
ATOM     11  O   UNL A   1      35.256  22.965  22.698  1.00  0.00    -0.274 OA
BRANCH   9  12
ATOM     12  C   UNL A   1      32.888  22.682  23.004  1.00  0.00     0.178 C 
BRANCH  12  13
ATOM     13  S   UNL A   1      32.367  21.847  24.515  1.00  0.00    -0.078 SA
BRANCH  13  14
ATOM     14  C   UNL A   1      32.874  20.215  24.227  1.00  0.00     0.170 A 
ATOM     15  N   UNL A   1      33.561  19.522  25.084  1.00  0.00    -0.204 NA
ATOM     16  N   UNL A   1      32.387  19.754  23.024  1.00  0.00    -0.299 N 
ATOM     17  C   UNL A   1      33.776  18.257  24.648  1.00  0.00     0.165 A 
ATOM     18  C   UNL A   1      32.531  18.450  22.581  1.00  0.00     0.279 A 
ATOM     19  H   UNL A   1      31.907  20.388  22.445  1.00  0.00     0.172 HD
ATOM     20  N   UNL A   1      34.551  17.310  25.253  1.00  0.00    -0.329 N 
ATOM     21  C   UNL A   1      33.307  17.651  23.502  1.00  0.00     0.172 A 
ATOM     22  O   UNL A   1      32.015  18.070  21.534  1.00  0.00    -0.267 OA
ATOM     23  C   UNL A   1      34.469  16.174  24.486  1.00  0.00     0.199 A 
ATOM     24  H   UNL A   1      35.070  17.420  26.082  1.00  0.00     0.169 HD
ATOM     25  N   UNL A   1      33.676  16.338  23.447  1.00  0.00    -0.229 NA
ENDBRANCH  13  14
ENDBRANCH  12  13
ENDBRANCH   9  12
ENDBRANCH   7   8
ENDBRANCH   6   7
ENDBRANCH   4   6
ENDBRANCH   1   2
BRANCH   1  26
ATOM     26  C   UNL A   1      31.800  30.484  26.212  1.00  0.00     0.023 C 
BRANCH  26  27
ATOM     27  C   UNL A   1      31.573  31.937  26.636  1.00  0.00     0.023 C 
BRANCH  27  28
ATOM     28  C   UNL A   1      32.745  32.604  27.350  1.00  0.00     0.116 C 
BRANCH  28  29
ATOM     29  N   UNL A   1      32.492  34.002  27.664  1.00  0.00    -0.352 N 
ATOM     30  C   UNL A   1      33.088  34.810  28.604  1.00  0.00     0.251 C 
ATOM     31  H   UNL A   1      31.790  34.433  27.126  1.00  0.00     0.163 HD
ATOM     32  O   UNL A   1      32.628  35.927  28.823  1.00  0.00    -0.269 OA
BRANCH  30  33
ATOM     33  C   UNL A   1      34.261  34.330  29.371  1.00  0.00     0.039 A 
ATOM     34  C   UNL A   1      34.051  33.709  30.607  1.00  0.00     0.014 A 
ATOM     35  C   UNL A   1      35.562  34.490  28.886  1.00  0.00     0.014 A 
ATOM     36  C   UNL A   1      35.136  33.189  31.318  1.00  0.00     0.010 A 
ATOM     37  C   UNL A   1      36.632  33.903  29.559  1.00  0.00     0.010 A 
ATOM     38  C   UNL A   1      36.434  33.247  30.783  1.00  0.00    -0.014 A 
BRANCH  38  39
ATOM     39  C   UNL A   1      37.585  32.609  31.475  1.00  0.00     0.031 A 
ATOM     40  C   UNL A   1      38.313  31.452  30.845  1.00  0.00     0.074 A 
ATOM     41  C   UNL A   1      37.927  33.018  32.715  1.00  0.00     0.049 A 
ATOM     42  N   UNL A   1      39.302  30.741  31.323  1.00  0.00    -0.248 NA
ATOM     43  C   UNL A   1      37.857  31.022  29.512  1.00  0.00     0.031 C 
ATOM     44  C   UNL A   1      37.260  34.082  33.469  1.00  0.00     0.029 A 
ATOM     45  N   UNL A   1      38.904  32.570  33.569  1.00  0.00    -0.354 N 
ATOM     46  C   UNL A   1      39.560  29.758  30.374  1.00  0.00     0.074 A 
ATOM     47  C   UNL A   1      38.606  29.948  29.303  1.00  0.00     0.031 C 
ATOM     48  C   UNL A   1      37.852  34.209  34.667  1.00  0.00     0.029 A 
ATOM     49  C   UNL A   1      38.914  33.215  34.785  1.00  0.00     0.049 A 
ATOM     50  H   UNL A   1      39.538  31.854  33.335  1.00  0.00     0.167 HD
ATOM     51  C   UNL A   1      40.519  28.801  30.379  1.00  0.00     0.034 A 
ATOM     52  C   UNL A   1      39.680  33.022  35.877  1.00  0.00     0.034 A 
ATOM     53  C   UNL A   1      41.491  28.636  31.426  1.00  0.00     0.049 A 
ATOM     54  C   UNL A   1      40.748  31.962  35.848  1.00  0.00     0.074 A 
ATOM     55  C   UNL A   1      42.559  27.756  31.476  1.00  0.00     0.029 A 
ATOM     56  N   UNL A   1      41.509  29.352  32.613  1.00  0.00    -0.354 N 
ATOM     57  N   UNL A   1      41.078  31.150  34.874  1.00  0.00    -0.248 NA
ATOM     58  C   UNL A   1      41.571  31.815  37.057  1.00  0.00     0.031 C 
ATOM     59  C   UNL A   1      43.198  27.914  32.709  1.00  0.00     0.029 A 
ATOM     60  C   UNL A   1      42.556  28.922  33.410  1.00  0.00     0.049 A 
ATOM     61  H   UNL A   1      40.870  30.063  32.854  1.00  0.00     0.167 HD
ATOM     62  C   UNL A   1      42.172  30.427  35.336  1.00  0.00     0.074 A 
ATOM     63  C   UNL A   1      42.459  30.910  36.671  1.00  0.00     0.031 C 
ATOM     64  C   UNL A   1      42.869  29.444  34.715  1.00  0.00     0.034 A 
BRANCH  51  65
ATOM     65  C   UNL A   1      40.593  27.872  29.194  1.00  0.00     0.023 A 
ATOM     66  C   UNL A   1      39.715  26.771  29.112  1.00  0.00     0.012 A 
ATOM     67  C   UNL A   1      41.481  28.128  28.131  1.00  0.00     0.148 A 
ATOM     68  C   UNL A   1      39.744  25.920  28.008  1.00  0.00     0.002 A 
ATOM     69  C   UNL A   1      41.470  27.303  27.012  1.00  0.00     0.091 A 
ATOM     70  F   UNL A   1      42.320  29.167  28.234  1.00  0.00    -0.205 F 
ATOM     71  C   UNL A   1      40.612  26.193  26.954  1.00  0.00     0.022 A 
BRANCH  69  72
ATOM     72  S   UNL A   1      42.490  27.615  25.567  1.00  0.00     0.127 S 
ATOM     73  O   UNL A   1      43.826  27.674  26.156  1.00  0.00    -0.237 OA
ATOM     74  O   UNL A   1      42.236  26.428  24.750  1.00  0.00    -0.237 OA
ATOM     75  O   UNL A   1      42.007  28.863  24.993  1.00  0.00    -0.744 OA
ENDBRANCH  69  72
ENDBRANCH  51  65
BRANCH  52  76
ATOM     76  C   UNL A   1      39.500  33.882  37.079  1.00  0.00     0.023 A 
ATOM     77  C   UNL A   1      39.960  35.214  37.058  1.00  0.00     0.012 A 
ATOM     78  C   UNL A   1      38.871  33.393  38.237  1.00  0.00     0.148 A 
ATOM     79  C   UNL A   1      39.829  36.030  38.182  1.00  0.00     0.002 A 
ATOM     80  C   UNL A   1      38.689  34.229  39.332  1.00  0.00     0.091 A 
ATOM     81  F   UNL A   1      38.453  32.119  38.242  1.00  0.00    -0.205 F 
ATOM     82  C   UNL A   1      39.186  35.542  39.315  1.00  0.00     0.022 A 
BRANCH  80  83
ATOM     83  S   UNL A   1      37.741  33.727  40.771  1.00  0.00     0.127 S 
ATOM     84  O   UNL A   1      38.683  32.843  41.452  1.00  0.00    -0.237 OA
ATOM     85  O   UNL A   1      37.503  35.010  41.433  1.00  0.00    -0.237 OA
ATOM     86  O   UNL A   1      36.542  33.096  40.238  1.00  0.00    -0.744 OA
ENDBRANCH  80  83
ENDBRANCH  52  76
BRANCH  64  87
ATOM     87  C   UNL A   1      44.047  28.852  35.443  1.00  0.00     0.023 A 
ATOM     88  C   UNL A   1      45.333  29.406  35.277  1.00  0.00     0.012 A 
ATOM     89  C   UNL A   1      43.866  27.787  36.347  1.00  0.00     0.148 A 
ATOM     90  C   UNL A   1      46.424  28.885  35.973  1.00  0.00     0.002 A 
ATOM     91  C   UNL A   1      44.948  27.310  37.078  1.00  0.00     0.091 A 
ATOM     92  F   UNL A   1      42.639  27.261  36.478  1.00  0.00    -0.205 F 
ATOM     93  C   UNL A   1      46.228  27.847  36.881  1.00  0.00     0.022 A 
BRANCH  91  94
ATOM     94  S   UNL A   1      44.775  26.045  38.341  1.00  0.00     0.127 S 
ATOM     95  O   UNL A   1      43.823  26.668  39.260  1.00  0.00    -0.237 OA
ATOM     96  O   UNL A   1      44.237  24.918  37.578  1.00  0.00    -0.237 OA
ATOM     97  O   UNL A   1      46.111  25.828  38.880  1.00  0.00    -0.744 OA
ENDBRANCH  91  94
ENDBRANCH  64  87
ENDBRANCH  38  39
ENDBRANCH  30  33
ENDBRANCH  28  29
ENDBRANCH  27  28
ENDBRANCH  26  27
ENDBRANCH   1  26
TORSDOF 19
ENDMDL
MODEL 2
REMARK VINA RESULT:     -11.7      3.030      4.434
REMARK SMILES O=C(CCNC(=O)CSc1nc2[nH]cnc2c(=O)[nH]1)NCCCCNC(=O)c1ccc(-c2c3nc(c(-c4cccc(S(=O)(=O)[O-])c4F)c4ccc([nH]4)c(-c4cccc(S(=O)(=O)[O-])c4F)c4nc(c(-c5cccc(S(=O)(=O)[O-])c5F)c5ccc2[nH]5)C=C4)C=C3)cc1
REMARK SMILES IDX 21 1 20 2 1 3 2 4 3 6 4 7 5 8 6 9 7 11 8 12 9 13 10 14 11 15
REMARK SMILES IDX 19 16 12 17 17 18 13 20 16 21 18 22 14 23 15 25 22 26 23 27
REMARK SMILES IDX 24 28 25 29 26 30 27 32 28 33 29 34 90 35 30 36 89 37 31 38
REMARK SMILES IDX 32 39 33 40 83 41 34 42 88 43 82 44 84 45 35 46 87 47 81 48
REMARK SMILES IDX 80 49 36 51 68 52 48 53 67 54 49 55 52 56 66 57 85 58 50 59
REMARK SMILES IDX 51 60 65 62 86 63 53 64 37 65 38 66 46 67 39 68 41 69 47 70
REMARK SMILES IDX 40 71 42 72 43 73 44 74 45 75 69 76 70 77 78 78 71 79 73 80
REMARK SMILES IDX 79 81 72 82 74 83 75 84 76 85 77 86 54 87 55 88 63 89 56 90
REMARK SMILES IDX 58 91 64 92 57 93 59 94 60 95 61 96 62 97
REMARK H PARENT 20 5 5 10 19 19 13 24 25 31 84 50 52 61
REMARK Flexibility Score: inf
ROOT
ATOM      1  C   UNL A   1      32.589  29.768  26.432  1.00  0.00     0.116 C 
ENDROOT
BRANCH   1   2
ATOM      2  N   UNL A   1      32.979  28.845  25.386  1.00  0.00    -0.356 N 
ATOM      3  O   UNL A   1      34.183  27.417  26.731  1.00  0.00    -0.275 OA
ATOM      4  C   UNL A   1      33.738  27.722  25.629  1.00  0.00     0.221 C 
ATOM      5  H   UNL A   1      32.691  29.029  24.462  1.00  0.00     0.163 HD
BRANCH   4   6
ATOM      6  C   UNL A   1      33.948  26.850  24.410  1.00  0.00     0.121 C 
BRANCH   6   7
ATOM      7  C   UNL A   1      33.487  27.577  23.150  1.00  0.00     0.125 C 
BRANCH   7   8
ATOM      8  N   UNL A   1      33.676  26.761  21.961  1.00  0.00    -0.355 N 
ATOM      9  C   UNL A   1      32.794  26.005  21.248  1.00  0.00     0.230 C 
ATOM     10  H   UNL A   1      34.596  26.756  21.611  1.00  0.00     0.163 HD
ATOM     11  O   UNL A   1      33.268  25.329  20.331  1.00  0.00    -0.274 OA
BRANCH   9  12
ATOM     12  C   UNL A   1      31.296  26.102  21.469  1.00  0.00     0.178 C 
BRANCH  12  13
ATOM     13  S   UNL A   1      30.764  26.535  23.138  1.00  0.00    -0.078 SA
BRANCH  13  14
ATOM     14  C   UNL A   1      29.849  27.982  22.868  1.00  0.00     0.170 A 
ATOM     15  N   UNL A   1      30.328  29.021  22.255  1.00  0.00    -0.204 NA
ATOM     16  N   UNL A   1      28.555  27.837  23.318  1.00  0.00    -0.299 N 
ATOM     17  C   UNL A   1      29.395  29.996  22.115  1.00  0.00     0.165 A 
ATOM     18  C   UNL A   1      27.563  28.784  23.132  1.00  0.00     0.279 A 
ATOM     19  H   UNL A   1      28.322  27.011  23.799  1.00  0.00     0.172 HD
ATOM     20  N   UNL A   1      29.599  31.251  21.619  1.00  0.00    -0.329 N 
ATOM     21  C   UNL A   1      28.063  29.966  22.467  1.00  0.00     0.172 A 
ATOM     22  O   UNL A   1      26.406  28.577  23.488  1.00  0.00    -0.267 OA
ATOM     23  C   UNL A   1      28.386  31.892  21.640  1.00  0.00     0.199 A 
ATOM     24  H   UNL A   1      30.454  31.625  21.306  1.00  0.00     0.169 HD
ATOM     25  N   UNL A   1      27.425  31.115  22.099  1.00  0.00    -0.229 NA
ENDBRANCH  13  14
ENDBRANCH  12  13
ENDBRANCH   9  12
ENDBRANCH   7   8
ENDBRANCH   6   7
ENDBRANCH   4   6
ENDBRANCH   1   2
BRANCH   1  26
ATOM     26  C   UNL A   1      31.613  30.832  25.934  1.00  0.00     0.023 C 
BRANCH  26  27
ATOM     27  C   UNL A   1      31.412  32.022  26.876  1.00  0.00     0.023 C 
BRANCH  27  28
ATOM     28  C   UNL A   1      32.685  32.756  27.288  1.00  0.00     0.116 C 
BRANCH  28  29
ATOM     29  N   UNL A   1      32.450  34.155  27.609  1.00  0.00    -0.352 N 
ATOM     30  C   UNL A   1      33.053  34.951  28.556  1.00  0.00     0.251 C 
ATOM     31  H   UNL A   1      31.755  34.599  27.071  1.00  0.00     0.163 HD
ATOM     32  O   UNL A   1      32.606  36.072  28.780  1.00  0.00    -0.269 OA
BRANCH  30  33
ATOM     33  C   UNL A   1      34.217  34.451  29.323  1.00  0.00     0.039 A 
ATOM     34  C   UNL A   1      33.996  33.836  30.560  1.00  0.00     0.014 A 
ATOM     35  C   UNL A   1      35.520  34.587  28.837  1.00  0.00     0.014 A 
ATOM     36  C   UNL A   1      35.072  33.297  31.272  1.00  0.00     0.010 A 
ATOM     37  C   UNL A   1      36.581  33.982  29.510  1.00  0.00     0.010 A 
ATOM     38  C   UNL A   1      36.370  33.331  30.736  1.00  0.00    -0.014 A 
BRANCH  38  39
ATOM     39  C   UNL A   1      37.511  32.674  31.429  1.00  0.00     0.031 A 
ATOM     40  C   UNL A   1      38.239  31.525  30.786  1.00  0.00     0.074 A 
ATOM     41  C   UNL A   1      37.841  33.058  32.679  1.00  0.00     0.049 A 
ATOM     42  N   UNL A   1      39.218  30.799  31.261  1.00  0.00    -0.248 NA
ATOM     43  C   UNL A   1      37.796  31.122  29.440  1.00  0.00     0.031 C 
ATOM     44  C   UNL A   1      37.172  34.112  33.446  1.00  0.00     0.029 A 
ATOM     45  N   UNL A   1      38.806  32.589  33.537  1.00  0.00    -0.354 N 
ATOM     46  C   UNL A   1      39.482  29.832  30.297  1.00  0.00     0.074 A 
ATOM     47  C   UNL A   1      38.540  30.048  29.220  1.00  0.00     0.031 C 
ATOM     48  C   UNL A   1      37.751  34.214  34.653  1.00  0.00     0.029 A 
ATOM     49  C   UNL A   1      38.806  33.212  34.764  1.00  0.00     0.049 A 
ATOM     50  H   UNL A   1      39.439  31.874  33.296  1.00  0.00     0.167 HD
ATOM     51  C   UNL A   1      40.435  28.870  30.295  1.00  0.00     0.034 A 
ATOM     52  C   UNL A   1      39.559  32.994  35.860  1.00  0.00     0.034 A 
ATOM     53  C   UNL A   1      41.394  28.680  31.349  1.00  0.00     0.049 A 
ATOM     54  C   UNL A   1      40.621  31.929  35.824  1.00  0.00     0.074 A 
ATOM     55  C   UNL A   1      42.456  27.793  31.395  1.00  0.00     0.029 A 
ATOM     56  N   UNL A   1      41.403  29.374  32.549  1.00  0.00    -0.354 N 
ATOM     57  N   UNL A   1      40.957  31.132  34.838  1.00  0.00    -0.248 NA
ATOM     58  C   UNL A   1      41.429  31.754  37.039  1.00  0.00     0.031 C 
ATOM     59  C   UNL A   1      43.083  27.924  32.638  1.00  0.00     0.029 A 
ATOM     60  C   UNL A   1      42.439  28.923  33.350  1.00  0.00     0.049 A 
ATOM     61  H   UNL A   1      40.766  30.084  32.796  1.00  0.00     0.167 HD
ATOM     62  C   UNL A   1      42.042  30.394  35.299  1.00  0.00     0.074 A 
ATOM     63  C   UNL A   1      42.317  30.852  36.646  1.00  0.00     0.031 C 
ATOM     64  C   UNL A   1      42.740  29.419  34.668  1.00  0.00     0.034 A 
BRANCH  51  65
ATOM     65  C   UNL A   1      40.517  27.962  29.094  1.00  0.00     0.023 A 
ATOM     66  C   UNL A   1      39.592  26.907  28.950  1.00  0.00     0.012 A 
ATOM     67  C   UNL A   1      41.461  28.196  28.076  1.00  0.00     0.148 A 
ATOM     68  C   UNL A   1      39.629  26.078  27.830  1.00  0.00     0.002 A 
ATOM     69  C   UNL A   1      41.461  27.396  26.939  1.00  0.00     0.091 A 
ATOM     70  F   UNL A   1      42.343  29.192  28.238  1.00  0.00    -0.205 F 
ATOM     71  C   UNL A   1      40.555  26.329  26.821  1.00  0.00     0.022 A 
BRANCH  69  72
ATOM     72  S   UNL A   1      42.556  27.687  25.546  1.00  0.00     0.127 S 
ATOM     73  O   UNL A   1      43.868  27.649  26.190  1.00  0.00    -0.237 OA
ATOM     74  O   UNL A   1      42.267  26.542  24.684  1.00  0.00    -0.237 OA
ATOM     75  O   UNL A   1      42.171  28.979  24.993  1.00  0.00    -0.744 OA
ENDBRANCH  69  72
ENDBRANCH  51  65
BRANCH  52  76
ATOM     76  C   UNL A   1      39.371  33.833  37.076  1.00  0.00     0.023 A 
ATOM     77  C   UNL A   1      39.827  35.167  37.080  1.00  0.00     0.012 A 
ATOM     78  C   UNL A   1      38.737  33.322  38.223  1.00  0.00     0.148 A 
ATOM     79  C   UNL A   1      39.688  35.962  38.218  1.00  0.00     0.002 A 
ATOM     80  C   UNL A   1      38.547  34.139  39.330  1.00  0.00     0.091 A 
ATOM     81  F   UNL A   1      38.322  32.047  38.203  1.00  0.00    -0.205 F 
ATOM     82  C   UNL A   1      39.040  35.453  39.338  1.00  0.00     0.022 A 
BRANCH  80  83
ATOM     83  S   UNL A   1      37.593  33.609  40.756  1.00  0.00     0.127 S 
ATOM     84  O   UNL A   1      38.457  32.578  41.324  1.00  0.00    -0.237 OA
ATOM     85  O   UNL A   1      37.510  34.846  41.534  1.00  0.00    -0.237 OA
ATOM     86  O   UNL A   1      36.321  33.153  40.216  1.00  0.00    -0.744 OA
ENDBRANCH  80  83
ENDBRANCH  52  76
BRANCH  64  87
ATOM     87  C   UNL A   1      43.907  28.807  35.398  1.00  0.00     0.023 A 
ATOM     88  C   UNL A   1      45.204  29.332  35.226  1.00  0.00     0.012 A 
ATOM     89  C   UNL A   1      43.704  27.752  36.310  1.00  0.00     0.148 A 
ATOM     90  C   UNL A   1      46.284  28.793  35.924  1.00  0.00     0.002 A 
ATOM     91  C   UNL A   1      44.777  27.257  37.042  1.00  0.00     0.091 A 
ATOM     92  F   UNL A   1      42.467  27.254  36.446  1.00  0.00    -0.205 F 
ATOM     93  C   UNL A   1      46.069  27.766  36.839  1.00  0.00     0.022 A 
BRANCH  91  94
ATOM     94  S   UNL A   1      44.579  26.005  38.314  1.00  0.00     0.127 S 
ATOM     95  O   UNL A   1      43.666  25.064  37.668  1.00  0.00    -0.237 OA
ATOM     96  O   UNL A   1      45.947  25.512  38.477  1.00  0.00    -0.237 OA
ATOM     97  O   UNL A   1      44.042  26.695  39.479  1.00  0.00    -0.744 OA
ENDBRANCH  91  94
ENDBRANCH  64  87
ENDBRANCH  38  39
ENDBRANCH  30  33
ENDBRANCH  28  29
ENDBRANCH  27  28
ENDBRANCH  26  27
ENDBRANCH   1  26
TORSDOF 19
ENDMDL
MODEL 3
REMARK VINA RESULT:     -11.5      3.754      9.411
REMARK SMILES O=C(CCNC(=O)CSc1nc2[nH]cnc2c(=O)[nH]1)NCCCCNC(=O)c1ccc(-c2c3nc(c(-c4cccc(S(=O)(=O)[O-])c4F)c4ccc([nH]4)c(-c4cccc(S(=O)(=O)[O-])c4F)c4nc(c(-c5cccc(S(=O)(=O)[O-])c5F)c5ccc2[nH]5)C=C4)C=C3)cc1
REMARK SMILES IDX 21 1 20 2 1 3 2 4 3 6 4 7 5 8 6 9 7 11 8 12 9 13 10 14 11 15
REMARK SMILES IDX 19 16 12 17 17 18 13 20 16 21 18 22 14 23 15 25 22 26 23 27
REMARK SMILES IDX 24 28 25 29 26 30 27 32 28 33 29 34 90 35 30 36 89 37 31 38
REMARK SMILES IDX 32 39 33 40 83 41 34 42 88 43 82 44 84 45 35 46 87 47 81 48
REMARK SMILES IDX 80 49 36 51 68 52 48 53 67 54 49 55 52 56 66 57 85 58 50 59
REMARK SMILES IDX 51 60 65 62 86 63 53 64 37 65 38 66 46 67 39 68 41 69 47 70
REMARK SMILES IDX 40 71 42 72 43 73 44 74 45 75 69 76 70 77 78 78 71 79 73 80
REMARK SMILES IDX 79 81 72 82 74 83 75 84 76 85 77 86 54 87 55 88 63 89 56 90
REMARK SMILES IDX 58 91 64 92 57 93 59 94 60 95 61 96 62 97
REMARK H PARENT 20 5 5 10 19 19 13 24 25 31 84 50 52 61
REMARK Flexibility Score: inf
ROOT
ATOM      1  C   UNL A   1      31.068  26.677  26.482  1.00  0.00     0.116 C 
ENDROOT
BRANCH   1   2
ATOM      2  N   UNL A   1      31.836  25.464  26.284  1.00  0.00    -0.356 N 
ATOM      3  O   UNL A   1      30.239  24.010  27.081  1.00  0.00    -0.275 OA
ATOM      4  C   UNL A   1      31.344  24.214  26.588  1.00  0.00     0.221 C 
ATOM      5  H   UNL A   1      32.748  25.537  25.919  1.00  0.00     0.163 HD
BRANCH   4   6
ATOM      6  C   UNL A   1      32.276  23.083  26.214  1.00  0.00     0.121 C 
BRANCH   6   7
ATOM      7  C   UNL A   1      31.891  22.502  24.857  1.00  0.00     0.125 C 
BRANCH   7   8
ATOM      8  N   UNL A   1      32.944  22.692  23.873  1.00  0.00    -0.355 N 
ATOM      9  C   UNL A   1      33.061  23.588  22.852  1.00  0.00     0.230 C 
ATOM     10  H   UNL A   1      33.701  22.069  23.958  1.00  0.00     0.163 HD
ATOM     11  O   UNL A   1      34.033  23.444  22.104  1.00  0.00    -0.274 OA
BRANCH   9  12
ATOM     12  C   UNL A   1      32.138  24.786  22.730  1.00  0.00     0.178 C 
BRANCH  12  13
ATOM     13  S   UNL A   1      32.933  26.406  22.711  1.00  0.00    -0.078 SA
BRANCH  13  14
ATOM     14  C   UNL A   1      31.576  27.482  22.755  1.00  0.00     0.170 A 
ATOM     15  N   UNL A   1      31.621  28.701  22.310  1.00  0.00    -0.204 NA
ATOM     16  N   UNL A   1      30.458  26.844  23.247  1.00  0.00    -0.299 N 
ATOM     17  C   UNL A   1      30.414  29.312  22.400  1.00  0.00     0.165 A 
ATOM     18  C   UNL A   1      29.199  27.417  23.290  1.00  0.00     0.279 A 
ATOM     19  H   UNL A   1      30.560  25.926  23.586  1.00  0.00     0.172 HD
ATOM     20  N   UNL A   1      30.143  30.621  22.124  1.00  0.00    -0.329 N 
ATOM     21  C   UNL A   1      29.211  28.783  22.817  1.00  0.00     0.172 A 
ATOM     22  O   UNL A   1      28.219  26.781  23.670  1.00  0.00    -0.267 OA
ATOM     23  C   UNL A   1      28.799  30.805  22.328  1.00  0.00     0.199 A 
ATOM     24  H   UNL A   1      30.790  31.304  21.834  1.00  0.00     0.169 HD
ATOM     25  N   UNL A   1      28.199  29.691  22.697  1.00  0.00    -0.229 NA
ENDBRANCH  13  14
ENDBRANCH  12  13
ENDBRANCH   9  12
ENDBRANCH   7   8
ENDBRANCH   6   7
ENDBRANCH   4   6
ENDBRANCH   1   2
BRANCH   1  26
ATOM     26  C   UNL A   1      31.910  27.808  27.067  1.00  0.00     0.023 C 
BRANCH  26  27
ATOM     27  C   UNL A   1      33.425  27.621  26.946  1.00  0.00     0.023 C 
BRANCH  27  28
ATOM     28  C   UNL A   1      34.159  28.699  26.154  1.00  0.00     0.116 C 
BRANCH  28  29
ATOM     29  N   UNL A   1      33.826  30.046  26.593  1.00  0.00    -0.352 N 
ATOM     30  C   UNL A   1      34.476  30.859  27.492  1.00  0.00     0.251 C 
ATOM     31  H   UNL A   1      33.016  30.432  26.189  1.00  0.00     0.163 HD
ATOM     32  O   UNL A   1      33.951  31.911  27.848  1.00  0.00    -0.269 OA
BRANCH  30  33
ATOM     33  C   UNL A   1      35.788  30.460  28.052  1.00  0.00     0.039 A 
ATOM     34  C   UNL A   1      35.854  30.041  29.385  1.00  0.00     0.014 A 
ATOM     35  C   UNL A   1      36.951  30.500  27.278  1.00  0.00     0.014 A 
ATOM     36  C   UNL A   1      37.068  29.597  29.916  1.00  0.00     0.010 A 
ATOM     37  C   UNL A   1      38.143  29.985  27.786  1.00  0.00     0.010 A 
ATOM     38  C   UNL A   1      38.217  29.528  29.110  1.00  0.00    -0.014 A 
BRANCH  38  39
ATOM     39  C   UNL A   1      39.492  28.963  29.628  1.00  0.00     0.031 A 
ATOM     40  C   UNL A   1      40.220  29.629  30.764  1.00  0.00     0.074 A 
ATOM     41  C   UNL A   1      40.041  27.892  29.018  1.00  0.00     0.049 A 
ATOM     42  N   UNL A   1      41.366  29.309  31.310  1.00  0.00    -0.248 NA
ATOM     43  C   UNL A   1      39.591  30.824  31.352  1.00  0.00     0.031 C 
ATOM     44  C   UNL A   1      39.475  27.193  27.862  1.00  0.00     0.029 A 
ATOM     45  N   UNL A   1      41.211  27.219  29.269  1.00  0.00    -0.354 N 
ATOM     46  C   UNL A   1      41.615  30.280  32.273  1.00  0.00     0.074 A 
ATOM     47  C   UNL A   1      40.514  31.216  32.219  1.00  0.00     0.031 C 
ATOM     48  C   UNL A   1      40.292  26.188  27.511  1.00  0.00     0.029 A 
ATOM     49  C   UNL A   1      41.458  26.191  28.389  1.00  0.00     0.049 A 
ATOM     50  H   UNL A   1      41.818  27.451  30.010  1.00  0.00     0.167 HD
ATOM     51  C   UNL A   1      42.652  30.371  33.140  1.00  0.00     0.034 A 
ATOM     52  C   UNL A   1      42.509  25.352  28.289  1.00  0.00     0.034 A 
ATOM     53  C   UNL A   1      43.727  29.419  33.218  1.00  0.00     0.049 A 
ATOM     54  C   UNL A   1      43.638  25.467  29.276  1.00  0.00     0.074 A 
ATOM     55  C   UNL A   1      44.772  29.376  34.125  1.00  0.00     0.029 A 
ATOM     56  N   UNL A   1      43.908  28.353  32.351  1.00  0.00    -0.354 N 
ATOM     57  N   UNL A   1      43.774  26.297  30.282  1.00  0.00    -0.248 NA
ATOM     58  C   UNL A   1      44.744  24.509  29.135  1.00  0.00     0.031 C 
ATOM     59  C   UNL A   1      45.605  28.307  33.783  1.00  0.00     0.029 A 
ATOM     60  C   UNL A   1      45.057  27.658  32.689  1.00  0.00     0.049 A 
ATOM     61  H   UNL A   1      43.308  28.124  31.604  1.00  0.00     0.167 HD
ATOM     62  C   UNL A   1      44.956  25.933  30.918  1.00  0.00     0.074 A 
ATOM     63  C   UNL A   1      45.488  24.797  30.194  1.00  0.00     0.031 C 
ATOM     64  C   UNL A   1      45.552  26.496  31.997  1.00  0.00     0.034 A 
BRANCH  51  65
ATOM     65  C   UNL A   1      42.659  31.526  34.109  1.00  0.00     0.023 A 
ATOM     66  C   UNL A   1      43.220  32.761  33.722  1.00  0.00     0.012 A 
ATOM     67  C   UNL A   1      42.050  31.411  35.374  1.00  0.00     0.148 A 
ATOM     68  C   UNL A   1      43.206  33.851  34.590  1.00  0.00     0.002 A 
ATOM     69  C   UNL A   1      41.997  32.516  36.215  1.00  0.00     0.091 A 
ATOM     70  F   UNL A   1      41.539  30.225  35.732  1.00  0.00    -0.205 F 
ATOM     71  C   UNL A   1      42.585  33.732  35.831  1.00  0.00     0.022 A 
BRANCH  69  72
ATOM     72  S   UNL A   1      41.149  32.491  37.798  1.00  0.00     0.127 S 
ATOM     73  O   UNL A   1      42.020  31.621  38.586  1.00  0.00    -0.237 OA
ATOM     74  O   UNL A   1      41.183  33.901  38.187  1.00  0.00    -0.237 OA
ATOM     75  O   UNL A   1      39.817  31.965  37.534  1.00  0.00    -0.744 OA
ENDBRANCH  69  72
ENDBRANCH  51  65
BRANCH  52  76
ATOM     76  C   UNL A   1      42.525  24.295  27.241  1.00  0.00     0.023 A 
ATOM     77  C   UNL A   1      43.189  24.531  26.021  1.00  0.00     0.012 A 
ATOM     78  C   UNL A   1      41.894  23.054  27.448  1.00  0.00     0.148 A 
ATOM     79  C   UNL A   1      43.191  23.567  25.013  1.00  0.00     0.002 A 
ATOM     80  C   UNL A   1      41.952  22.076  26.464  1.00  0.00     0.091 A 
ATOM     81  F   UNL A   1      41.256  22.854  28.610  1.00  0.00    -0.205 F 
ATOM     82  C   UNL A   1      42.583  22.336  25.237  1.00  0.00     0.022 A 
BRANCH  80  83
ATOM     83  S   UNL A   1      41.325  20.415  26.730  1.00  0.00     0.127 S 
ATOM     84  O   UNL A   1      39.886  20.652  26.814  1.00  0.00    -0.237 OA
ATOM     85  O   UNL A   1      41.770  19.730  25.516  1.00  0.00    -0.237 OA
ATOM     86  O   UNL A   1      41.970  19.953  27.950  1.00  0.00    -0.744 OA
ENDBRANCH  80  83
ENDBRANCH  52  76
BRANCH  64  87
ATOM     87  C   UNL A   1      46.823  25.867  32.504  1.00  0.00     0.023 A 
ATOM     88  C   UNL A   1      48.071  26.289  32.004  1.00  0.00     0.012 A 
ATOM     89  C   UNL A   1      46.781  24.902  33.530  1.00  0.00     0.148 A 
ATOM     90  C   UNL A   1      49.255  25.735  32.493  1.00  0.00     0.002 A 
ATOM     91  C   UNL A   1      47.967  24.395  34.050  1.00  0.00     0.091 A 
ATOM     92  F   UNL A   1      45.584  24.499  33.980  1.00  0.00    -0.205 F 
ATOM     93  C   UNL A   1      49.202  24.799  33.522  1.00  0.00     0.022 A 
BRANCH  91  94
ATOM     94  S   UNL A   1      48.001  23.261  35.443  1.00  0.00     0.127 S 
ATOM     95  O   UNL A   1      47.497  22.030  34.838  1.00  0.00    -0.237 OA
ATOM     96  O   UNL A   1      49.423  23.235  35.784  1.00  0.00    -0.237 OA
ATOM     97  O   UNL A   1      47.145  23.850  36.464  1.00  0.00    -0.744 OA
ENDBRANCH  91  94
ENDBRANCH  64  87
ENDBRANCH  38  39
ENDBRANCH  30  33
ENDBRANCH  28  29
ENDBRANCH  27  28
ENDBRANCH  26  27
ENDBRANCH   1  26
TORSDOF 19
ENDMDL
