MODEL 1
REMARK VINA RESULT:     -13.8      0.000      0.000
REMARK SMILES O=C(CCC(=O)N1CCC(c2nnc3ccccn23)CC1)NCCCCNC(=O)c1ccc(-c2c3nc(c(-c4cccc(S(=O)(=O)[O-])c4F)c4ccc([nH]4)c(-c4cccc(S(=O)(=O)[O-])c4F)c4nc(c(-c5cccc(S(=O)(=O)[O-])c5F)c5ccc2[nH]5)C=C4)C=C3)cc1
REMARK SMILES IDX 24 1 23 2 22 3 1 4 2 5 3 7 4 8 5 9 6 10 7 11 8 12 21 13 9 14
REMARK SMILES IDX 20 15 10 16 11 17 12 18 19 19 13 20 14 21 18 22 15 23 17 24
REMARK SMILES IDX 16 25 25 26 26 27 27 28 28 29 29 31 30 32 31 33 92 34 32 35
REMARK SMILES IDX 91 36 33 37 34 38 35 39 85 40 36 41 90 42 84 43 86 44 37 45
REMARK SMILES IDX 89 46 83 47 82 48 38 50 70 51 50 52 69 53 51 54 54 55 68 56
REMARK SMILES IDX 87 57 52 58 53 59 67 61 88 62 55 63 39 64 40 65 48 66 41 67
REMARK SMILES IDX 43 68 49 69 42 70 44 71 45 72 46 73 47 74 71 75 72 76 80 77
REMARK SMILES IDX 73 78 75 79 81 80 74 81 76 82 77 83 78 84 79 85 56 86 57 87
REMARK SMILES IDX 65 88 58 89 60 90 66 91 59 92 61 93 62 94 63 95 64 96
REMARK H PARENT 22 6 27 30 86 49 54 60
REMARK Flexibility Score: inf
ROOT
ATOM      1  C   UNL A   1      33.499  28.640  24.685  1.00  0.00     0.023 C 
ENDROOT
BRANCH   1   2
ATOM      2  C   UNL A   1      33.357  28.957  23.181  1.00  0.00     0.116 C 
BRANCH   2   3
ATOM      3  N   UNL A   1      32.475  28.086  22.403  1.00  0.00    -0.356 N 
ATOM      4  O   UNL A   1      34.107  26.580  21.778  1.00  0.00    -0.275 OA
ATOM      5  C   UNL A   1      32.918  26.868  21.890  1.00  0.00     0.220 C 
ATOM      6  H   UNL A   1      31.546  28.368  22.239  1.00  0.00     0.163 HD
BRANCH   5   7
ATOM      7  C   UNL A   1      31.796  25.843  21.644  1.00  0.00     0.110 C 
BRANCH   7   8
ATOM      8  C   UNL A   1      30.801  25.667  22.818  1.00  0.00     0.110 C 
BRANCH   8   9
ATOM      9  C   UNL A   1      31.217  25.132  24.222  1.00  0.00     0.223 C 
ATOM     10  O   UNL A   1      31.366  25.919  25.158  1.00  0.00    -0.275 OA
ATOM     11  N   UNL A   1      31.233  23.759  24.425  1.00  0.00    -0.343 N 
ATOM     12  C   UNL A   1      30.973  23.116  25.715  1.00  0.00     0.120 C 
ATOM     13  C   UNL A   1      31.591  22.871  23.375  1.00  0.00     0.120 C 
ATOM     14  C   UNL A   1      32.028  22.061  26.109  1.00  0.00     0.033 C 
ATOM     15  C   UNL A   1      32.750  22.009  23.751  1.00  0.00     0.033 C 
ATOM     16  C   UNL A   1      32.414  21.149  24.940  1.00  0.00     0.062 C 
BRANCH  16  17
ATOM     17  C   UNL A   1      33.581  20.241  25.177  1.00  0.00     0.140 A 
ATOM     18  N   UNL A   1      35.245  20.625  25.220  1.00  0.00    -0.134 NA
ATOM     19  N   UNL A   1      33.470  18.466  24.963  1.00  0.00    -0.286 N 
ATOM     20  N   UNL A   1      36.240  18.966  24.644  1.00  0.00    -0.130 NA
ATOM     21  C   UNL A   1      35.063  17.713  24.613  1.00  0.00     0.160 A 
ATOM     22  C   UNL A   1      32.374  17.647  25.186  1.00  0.00     0.095 A 
ATOM     23  C   UNL A   1      35.047  16.304  24.859  1.00  0.00     0.050 A 
ATOM     24  C   UNL A   1      32.570  16.324  25.307  1.00  0.00     0.019 A 
ATOM     25  C   UNL A   1      33.894  15.702  25.228  1.00  0.00     0.005 A 
ENDBRANCH  16  17
ENDBRANCH   8   9
ENDBRANCH   7   8
ENDBRANCH   5   7
ENDBRANCH   2   3
ENDBRANCH   1   2
BRANCH   1  26
ATOM     26  C   UNL A   1      32.484  29.208  25.683  1.00  0.00     0.023 C 
BRANCH  26  27
ATOM     27  C   UNL A   1      31.430  30.282  25.315  1.00  0.00     0.116 C 
BRANCH  27  28
ATOM     28  N   UNL A   1      31.314  31.547  26.101  1.00  0.00    -0.352 N 
ATOM     29  C   UNL A   1      32.391  32.373  26.969  1.00  0.00     0.251 C 
ATOM     30  H   UNL A   1      30.415  31.950  26.086  1.00  0.00     0.163 HD
ATOM     31  O   UNL A   1      31.726  33.443  27.147  1.00  0.00    -0.269 OA
BRANCH  29  32
ATOM     32  C   UNL A   1      34.414  31.665  27.589  1.00  0.00     0.039 A 
ATOM     33  C   UNL A   1      35.642  32.556  27.927  1.00  0.00     0.014 A 
ATOM     34  C   UNL A   1      34.894  30.297  27.981  1.00  0.00     0.014 A 
ATOM     35  C   UNL A   1      36.865  32.194  28.498  1.00  0.00     0.010 A 
ATOM     36  C   UNL A   1      36.038  29.975  28.721  1.00  0.00     0.010 A 
ATOM     37  C   UNL A   1      37.018  30.915  28.978  1.00  0.00    -0.014 A 
BRANCH  37  38
ATOM     38  C   UNL A   1      38.203  30.530  29.746  1.00  0.00     0.031 A 
ATOM     39  C   UNL A   1      39.173  29.575  29.132  1.00  0.00     0.074 A 
ATOM     40  C   UNL A   1      38.329  30.988  31.005  1.00  0.00     0.049 A 
ATOM     41  N   UNL A   1      40.231  29.033  29.664  1.00  0.00    -0.248 NA
ATOM     42  C   UNL A   1      38.903  29.142  27.747  1.00  0.00     0.031 C 
ATOM     43  C   UNL A   1      37.384  31.884  31.680  1.00  0.00     0.029 A 
ATOM     44  N   UNL A   1      39.290  30.749  31.946  1.00  0.00    -0.354 N 
ATOM     45  C   UNL A   1      40.720  28.163  28.703  1.00  0.00     0.074 A 
ATOM     46  C   UNL A   1      39.826  28.212  27.571  1.00  0.00     0.031 C 
ATOM     47  C   UNL A   1      37.827  32.140  32.920  1.00  0.00     0.029 A 
ATOM     48  C   UNL A   1      39.045  31.375  33.146  1.00  0.00     0.049 A 
ATOM     49  H   UNL A   1      40.079  30.184  31.783  1.00  0.00     0.167 HD
ATOM     50  C   UNL A   1      41.834  27.405  28.764  1.00  0.00     0.034 A 
ATOM     51  C   UNL A   1      39.724  31.306  34.303  1.00  0.00     0.034 A 
ATOM     52  C   UNL A   1      42.700  27.384  29.906  1.00  0.00     0.049 A 
ATOM     53  C   UNL A   1      40.953  30.444  34.341  1.00  0.00     0.074 A 
ATOM     54  C   UNL A   1      43.890  26.704  30.069  1.00  0.00     0.029 A 
ATOM     55  N   UNL A   1      42.448  28.056  31.095  1.00  0.00    -0.354 N 
ATOM     56  N   UNL A   1      41.477  29.713  33.385  1.00  0.00    -0.248 NA
ATOM     57  C   UNL A   1      41.701  30.415  35.602  1.00  0.00     0.031 C 
ATOM     58  C   UNL A   1      44.323  26.910  31.382  1.00  0.00     0.029 A 
ATOM     59  C   UNL A   1      43.448  27.787  32.008  1.00  0.00     0.049 A 
ATOM     60  H   UNL A   1      41.672  28.640  31.262  1.00  0.00     0.167 HD
ATOM     61  C   UNL A   1      42.640  29.172  33.913  1.00  0.00     0.074 A 
ATOM     62  C   UNL A   1      42.749  29.677  35.269  1.00  0.00     0.031 C 
ATOM     63  C   UNL A   1      43.536  28.333  33.337  1.00  0.00     0.034 A 
BRANCH  50  64
ATOM     64  C   UNL A   1      42.153  26.537  27.581  1.00  0.00     0.023 A 
ATOM     65  C   UNL A   1      42.831  27.070  26.464  1.00  0.00     0.012 A 
ATOM     66  C   UNL A   1      41.793  25.178  27.588  1.00  0.00     0.148 A 
ATOM     67  C   UNL A   1      43.114  26.270  25.360  1.00  0.00     0.002 A 
ATOM     68  C   UNL A   1      42.128  24.373  26.510  1.00  0.00     0.091 A 
ATOM     69  F   UNL A   1      41.118  24.702  28.644  1.00  0.00    -0.205 F 
ATOM     70  C   UNL A   1      42.776  24.919  25.388  1.00  0.00     0.022 A 
BRANCH  68  71
ATOM     71  S   UNL A   1      41.804  22.610  26.485  1.00  0.00     0.127 S 
ATOM     72  O   UNL A   1      40.341  22.580  26.498  1.00  0.00    -0.237 OA
ATOM     73  O   UNL A   1      42.411  22.209  25.216  1.00  0.00    -0.237 OA
ATOM     74  O   UNL A   1      42.444  22.061  27.672  1.00  0.00    -0.744 OA
ENDBRANCH  68  71
ENDBRANCH  50  64
BRANCH  51  75
ATOM     75  C   UNL A   1      39.276  32.082  35.491  1.00  0.00     0.023 A 
ATOM     76  C   UNL A   1      39.613  33.445  35.603  1.00  0.00     0.012 A 
ATOM     77  C   UNL A   1      38.512  31.478  36.509  1.00  0.00     0.148 A 
ATOM     78  C   UNL A   1      39.240  34.179  36.729  1.00  0.00     0.002 A 
ATOM     79  C   UNL A   1      38.096  32.229  37.601  1.00  0.00     0.091 A 
ATOM     80  F   UNL A   1      38.197  30.182  36.381  1.00  0.00    -0.205 F 
ATOM     81  C   UNL A   1      38.477  33.574  37.725  1.00  0.00     0.022 A 
BRANCH  79  82
ATOM     82  S   UNL A   1      37.022  31.564  38.877  1.00  0.00     0.127 S 
ATOM     83  O   UNL A   1      36.853  30.182  38.434  1.00  0.00    -0.237 OA
ATOM     84  O   UNL A   1      37.844  31.731  40.076  1.00  0.00    -0.237 OA
ATOM     85  O   UNL A   1      35.818  32.382  38.852  1.00  0.00    -0.744 OA
ENDBRANCH  79  82
ENDBRANCH  51  75
BRANCH  63  86
ATOM     86  C   UNL A   1      44.747  27.963  34.148  1.00  0.00     0.023 A 
ATOM     87  C   UNL A   1      45.897  28.774  34.127  1.00  0.00     0.012 A 
ATOM     88  C   UNL A   1      44.705  26.832  34.986  1.00  0.00     0.148 A 
ATOM     89  C   UNL A   1      47.008  28.436  34.898  1.00  0.00     0.002 A 
ATOM     90  C   UNL A   1      45.788  26.540  35.799  1.00  0.00     0.091 A 
ATOM     91  F   UNL A   1      43.600  26.072  34.979  1.00  0.00    -0.205 F 
ATOM     92  C   UNL A   1      46.948  27.330  35.742  1.00  0.00     0.022 A 
BRANCH  90  93
ATOM     93  S   UNL A   1      45.758  25.201  36.992  1.00  0.00     0.127 S 
ATOM     94  O   UNL A   1      47.144  25.187  37.456  1.00  0.00    -0.237 OA
ATOM     95  O   UNL A   1      44.790  25.690  37.975  1.00  0.00    -0.237 OA
ATOM     96  O   UNL A   1      45.336  24.014  36.262  1.00  0.00    -0.744 OA
ENDBRANCH  90  93
ENDBRANCH  63  86
ENDBRANCH  37  38
ENDBRANCH  29  32
ENDBRANCH  27  28
ENDBRANCH  26  27
ENDBRANCH   1  26
TORSDOF 17
ENDMDL
MODEL 2
REMARK VINA RESULT:     -13.8      0.459      7.429
REMARK SMILES O=C(CCC(=O)N1CCC(c2nnc3ccccn23)CC1)NCCCCNC(=O)c1ccc(-c2c3nc(c(-c4cccc(S(=O)(=O)[O-])c4F)c4ccc([nH]4)c(-c4cccc(S(=O)(=O)[O-])c4F)c4nc(c(-c5cccc(S(=O)(=O)[O-])c5F)c5ccc2[nH]5)C=C4)C=C3)cc1
REMARK SMILES IDX 24 1 23 2 22 3 1 4 2 5 3 7 4 8 5 9 6 10 7 11 8 12 21 13 9 14
REMARK SMILES IDX 20 15 10 16 11 17 12 18 19 19 13 20 14 21 18 22 15 23 17 24
REMARK SMILES IDX 16 25 25 26 26 27 27 28 28 29 29 31 30 32 31 33 92 34 32 35
REMARK SMILES IDX 91 36 33 37 34 38 35 39 85 40 36 41 90 42 84 43 86 44 37 45
REMARK SMILES IDX 89 46 83 47 82 48 38 50 70 51 50 52 69 53 51 54 54 55 68 56
REMARK SMILES IDX 87 57 52 58 53 59 67 61 88 62 55 63 39 64 40 65 48 66 41 67
REMARK SMILES IDX 43 68 49 69 42 70 44 71 45 72 46 73 47 74 71 75 72 76 80 77
REMARK SMILES IDX 73 78 75 79 81 80 74 81 76 82 77 83 78 84 79 85 56 86 57 87
REMARK SMILES IDX 65 88 58 89 60 90 66 91 59 92 61 93 62 94 63 95 64 96
REMARK H PARENT 22 6 27 30 86 49 54 60
REMARK Flexibility Score: inf
ROOT
ATOM      1  C   UNL A   1      33.278  28.573  25.138  1.00  0.00     0.023 C 
ENDROOT
BRANCH   1   2
ATOM      2  C   UNL A   1      33.560  28.665  23.623  1.00  0.00     0.116 C 
BRANCH   2   3
ATOM      3  N   UNL A   1      32.602  28.011  22.732  1.00  0.00    -0.356 N 
ATOM      4  O   UNL A   1      34.041  26.367  21.991  1.00  0.00    -0.275 OA
ATOM      5  C   UNL A   1      32.898  26.803  22.102  1.00  0.00     0.220 C 
ATOM      6  H   UNL A   1      31.726  28.433  22.575  1.00  0.00     0.163 HD
BRANCH   5   7
ATOM      7  C   UNL A   1      31.659  25.974  21.717  1.00  0.00     0.110 C 
BRANCH   7   8
ATOM      8  C   UNL A   1      30.697  25.651  22.886  1.00  0.00     0.110 C 
BRANCH   8   9
ATOM      9  C   UNL A   1      31.181  25.152  24.283  1.00  0.00     0.223 C 
ATOM     10  O   UNL A   1      31.367  25.962  25.192  1.00  0.00    -0.275 OA
ATOM     11  N   UNL A   1      31.218  23.785  24.517  1.00  0.00    -0.343 N 
ATOM     12  C   UNL A   1      31.022  23.170  25.832  1.00  0.00     0.120 C 
ATOM     13  C   UNL A   1      31.535  22.875  23.472  1.00  0.00     0.120 C 
ATOM     14  C   UNL A   1      32.103  22.132  26.201  1.00  0.00     0.033 C 
ATOM     15  C   UNL A   1      32.717  22.030  23.815  1.00  0.00     0.033 C 
ATOM     16  C   UNL A   1      32.443  21.196  25.038  1.00  0.00     0.062 C 
BRANCH  16  17
ATOM     17  C   UNL A   1      33.627  20.303  25.242  1.00  0.00     0.140 A 
ATOM     18  N   UNL A   1      35.287  20.707  25.234  1.00  0.00    -0.134 NA
ATOM     19  N   UNL A   1      33.531  18.526  25.037  1.00  0.00    -0.286 N 
ATOM     20  N   UNL A   1      36.284  19.057  24.633  1.00  0.00    -0.130 NA
ATOM     21  C   UNL A   1      35.121  17.790  24.642  1.00  0.00     0.160 A 
ATOM     22  C   UNL A   1      32.451  17.695  25.297  1.00  0.00     0.095 A 
ATOM     23  C   UNL A   1      35.129  16.382  24.893  1.00  0.00     0.050 A 
ATOM     24  C   UNL A   1      32.666  16.375  25.415  1.00  0.00     0.019 A 
ATOM     25  C   UNL A   1      33.995  15.768  25.299  1.00  0.00     0.005 A 
ENDBRANCH  16  17
ENDBRANCH   8   9
ENDBRANCH   7   8
ENDBRANCH   5   7
ENDBRANCH   2   3
ENDBRANCH   1   2
BRANCH   1  26
ATOM     26  C   UNL A   1      31.973  29.138  25.707  1.00  0.00     0.023 C 
BRANCH  26  27
ATOM     27  C   UNL A   1      31.314  30.446  25.203  1.00  0.00     0.116 C 
BRANCH  27  28
ATOM     28  N   UNL A   1      31.274  31.668  26.062  1.00  0.00    -0.352 N 
ATOM     29  C   UNL A   1      32.387  32.350  27.007  1.00  0.00     0.251 C 
ATOM     30  H   UNL A   1      30.412  32.143  26.048  1.00  0.00     0.163 HD
ATOM     31  O   UNL A   1      31.804  33.458  27.233  1.00  0.00    -0.269 OA
BRANCH  29  32
ATOM     32  C   UNL A   1      34.326  31.444  27.636  1.00  0.00     0.039 A 
ATOM     33  C   UNL A   1      35.625  32.210  28.013  1.00  0.00     0.014 A 
ATOM     34  C   UNL A   1      34.673  30.029  27.999  1.00  0.00     0.014 A 
ATOM     35  C   UNL A   1      36.801  31.723  28.590  1.00  0.00     0.010 A 
ATOM     36  C   UNL A   1      35.771  29.585  28.745  1.00  0.00     0.010 A 
ATOM     37  C   UNL A   1      36.829  30.425  29.039  1.00  0.00    -0.014 A 
BRANCH  37  38
ATOM     38  C   UNL A   1      37.961  29.913  29.813  1.00  0.00     0.031 A 
ATOM     39  C   UNL A   1      38.156  30.410  31.207  1.00  0.00     0.074 A 
ATOM     40  C   UNL A   1      38.826  29.078  29.209  1.00  0.00     0.049 A 
ATOM     41  N   UNL A   1      39.133  30.163  32.031  1.00  0.00    -0.248 NA
ATOM     42  C   UNL A   1      37.136  31.336  31.738  1.00  0.00     0.031 C 
ATOM     43  C   UNL A   1      38.718  28.597  27.828  1.00  0.00     0.029 A 
ATOM     44  N   UNL A   1      39.975  28.501  29.671  1.00  0.00    -0.354 N 
ATOM     45  C   UNL A   1      38.874  30.937  33.151  1.00  0.00     0.074 A 
ATOM     46  C   UNL A   1      37.674  31.696  32.892  1.00  0.00     0.031 C 
ATOM     47  C   UNL A   1      39.745  27.776  27.564  1.00  0.00     0.029 A 
ATOM     48  C   UNL A   1      40.615  27.730  28.730  1.00  0.00     0.049 A 
ATOM     49  H   UNL A   1      40.313  28.626  30.588  1.00  0.00     0.167 HD
ATOM     50  C   UNL A   1      39.576  30.988  34.301  1.00  0.00     0.034 A 
ATOM     51  C   UNL A   1      41.792  27.084  28.806  1.00  0.00     0.034 A 
ATOM     52  C   UNL A   1      40.764  30.217  34.524  1.00  0.00     0.049 A 
ATOM     53  C   UNL A   1      42.553  27.172  30.096  1.00  0.00     0.074 A 
ATOM     54  C   UNL A   1      41.532  30.135  35.667  1.00  0.00     0.029 A 
ATOM     55  N   UNL A   1      41.370  29.415  33.566  1.00  0.00    -0.354 N 
ATOM     56  N   UNL A   1      42.239  27.814  31.197  1.00  0.00    -0.248 NA
ATOM     57  C   UNL A   1      43.815  26.426  30.171  1.00  0.00     0.031 C 
ATOM     58  C   UNL A   1      42.643  29.338  35.379  1.00  0.00     0.029 A 
ATOM     59  C   UNL A   1      42.520  28.853  34.084  1.00  0.00     0.049 A 
ATOM     60  H   UNL A   1      41.029  29.267  32.654  1.00  0.00     0.167 HD
ATOM     61  C   UNL A   1      43.240  27.516  32.111  1.00  0.00     0.074 A 
ATOM     62  C   UNL A   1      44.160  26.620  31.435  1.00  0.00     0.031 C 
ATOM     63  C   UNL A   1      43.392  27.942  33.388  1.00  0.00     0.034 A 
BRANCH  50  64
ATOM     64  C   UNL A   1      39.085  31.914  35.377  1.00  0.00     0.023 A 
ATOM     65  C   UNL A   1      39.275  33.308  35.263  1.00  0.00     0.012 A 
ATOM     66  C   UNL A   1      38.414  31.396  36.499  1.00  0.00     0.148 A 
ATOM     67  C   UNL A   1      38.834  34.166  36.268  1.00  0.00     0.002 A 
ATOM     68  C   UNL A   1      37.926  32.261  37.467  1.00  0.00     0.091 A 
ATOM     69  F   UNL A   1      38.276  30.067  36.602  1.00  0.00    -0.205 F 
ATOM     70  C   UNL A   1      38.147  33.645  37.361  1.00  0.00     0.022 A 
BRANCH  68  71
ATOM     71  S   UNL A   1      36.965  31.694  38.870  1.00  0.00     0.127 S 
ATOM     72  O   UNL A   1      37.919  31.864  39.967  1.00  0.00    -0.237 OA
ATOM     73  O   UNL A   1      35.852  32.641  38.877  1.00  0.00    -0.237 OA
ATOM     74  O   UNL A   1      36.597  30.316  38.581  1.00  0.00    -0.744 OA
ENDBRANCH  68  71
ENDBRANCH  50  64
BRANCH  51  75
ATOM     75  C   UNL A   1      42.297  26.295  27.650  1.00  0.00     0.023 A 
ATOM     76  C   UNL A   1      43.126  26.911  26.693  1.00  0.00     0.012 A 
ATOM     77  C   UNL A   1      41.964  24.935  27.496  1.00  0.00     0.148 A 
ATOM     78  C   UNL A   1      43.575  26.201  25.578  1.00  0.00     0.002 A 
ATOM     79  C   UNL A   1      42.460  24.219  26.414  1.00  0.00     0.091 A 
ATOM     80  F   UNL A   1      41.179  24.366  28.421  1.00  0.00    -0.205 F 
ATOM     81  C   UNL A   1      43.247  24.854  25.442  1.00  0.00     0.022 A 
BRANCH  79  82
ATOM     82  S   UNL A   1      42.180  22.456  26.214  1.00  0.00     0.127 S 
ATOM     83  O   UNL A   1      42.910  22.177  24.980  1.00  0.00    -0.237 OA
ATOM     84  O   UNL A   1      42.792  21.917  27.428  1.00  0.00    -0.237 OA
ATOM     85  O   UNL A   1      40.735  22.288  26.139  1.00  0.00    -0.744 OA
ENDBRANCH  79  82
ENDBRANCH  51  75
BRANCH  63  86
ATOM     86  C   UNL A   1      44.559  27.392  34.160  1.00  0.00     0.023 A 
ATOM     87  C   UNL A   1      45.795  28.065  34.165  1.00  0.00     0.012 A 
ATOM     88  C   UNL A   1      44.393  26.231  34.940  1.00  0.00     0.148 A 
ATOM     89  C   UNL A   1      46.866  27.560  34.901  1.00  0.00     0.002 A 
ATOM     90  C   UNL A   1      45.441  25.772  35.721  1.00  0.00     0.091 A 
ATOM     91  F   UNL A   1      43.207  25.605  34.909  1.00  0.00    -0.205 F 
ATOM     92  C   UNL A   1      46.685  26.425  35.688  1.00  0.00     0.022 A 
BRANCH  90  93
ATOM     93  S   UNL A   1      45.266  24.384  36.842  1.00  0.00     0.127 S 
ATOM     94  O   UNL A   1      44.204  24.854  37.731  1.00  0.00    -0.237 OA
ATOM     95  O   UNL A   1      44.871  23.306  35.935  1.00  0.00    -0.237 OA
ATOM     96  O   UNL A   1      46.566  24.202  37.472  1.00  0.00    -0.744 OA
ENDBRANCH  90  93
ENDBRANCH  63  86
ENDBRANCH  37  38
ENDBRANCH  29  32
ENDBRANCH  27  28
ENDBRANCH  26  27
ENDBRANCH   1  26
TORSDOF 17
ENDMDL
MODEL 3
REMARK VINA RESULT:     -13.7      1.843      7.715
REMARK SMILES O=C(CCC(=O)N1CCC(c2nnc3ccccn23)CC1)NCCCCNC(=O)c1ccc(-c2c3nc(c(-c4cccc(S(=O)(=O)[O-])c4F)c4ccc([nH]4)c(-c4cccc(S(=O)(=O)[O-])c4F)c4nc(c(-c5cccc(S(=O)(=O)[O-])c5F)c5ccc2[nH]5)C=C4)C=C3)cc1
REMARK SMILES IDX 24 1 23 2 22 3 1 4 2 5 3 7 4 8 5 9 6 10 7 11 8 12 21 13 9 14
REMARK SMILES IDX 20 15 10 16 11 17 12 18 19 19 13 20 14 21 18 22 15 23 17 24
REMARK SMILES IDX 16 25 25 26 26 27 27 28 28 29 29 31 30 32 31 33 92 34 32 35
REMARK SMILES IDX 91 36 33 37 34 38 35 39 85 40 36 41 90 42 84 43 86 44 37 45
REMARK SMILES IDX 89 46 83 47 82 48 38 50 70 51 50 52 69 53 51 54 54 55 68 56
REMARK SMILES IDX 87 57 52 58 53 59 67 61 88 62 55 63 39 64 40 65 48 66 41 67
REMARK SMILES IDX 43 68 49 69 42 70 44 71 45 72 46 73 47 74 71 75 72 76 80 77
REMARK SMILES IDX 73 78 75 79 81 80 74 81 76 82 77 83 78 84 79 85 56 86 57 87
REMARK SMILES IDX 65 88 58 89 60 90 66 91 59 92 61 93 62 94 63 95 64 96
REMARK H PARENT 22 6 27 30 86 49 54 60
REMARK Flexibility Score: inf
ROOT
ATOM      1  C   UNL A   1      33.197  29.223  25.548  1.00  0.00     0.023 C 
ENDROOT
BRANCH   1   2
ATOM      2  C   UNL A   1      33.237  29.339  24.009  1.00  0.00     0.116 C 
BRANCH   2   3
ATOM      3  N   UNL A   1      32.002  29.021  23.291  1.00  0.00    -0.356 N 
ATOM      4  O   UNL A   1      32.716  26.987  22.469  1.00  0.00    -0.275 OA
ATOM      5  C   UNL A   1      31.802  27.774  22.701  1.00  0.00     0.220 C 
ATOM      6  H   UNL A   1      31.296  29.704  23.224  1.00  0.00     0.163 HD
BRANCH   5   7
ATOM      7  C   UNL A   1      30.321  27.389  22.530  1.00  0.00     0.110 C 
BRANCH   7   8
ATOM      8  C   UNL A   1      29.631  26.854  23.809  1.00  0.00     0.110 C 
BRANCH   8   9
ATOM      9  C   UNL A   1      30.389  26.085  24.935  1.00  0.00     0.223 C 
ATOM     10  O   UNL A   1      30.749  26.684  25.950  1.00  0.00    -0.275 OA
ATOM     11  N   UNL A   1      30.480  24.703  24.842  1.00  0.00    -0.343 N 
ATOM     12  C   UNL A   1      30.555  23.805  25.997  1.00  0.00     0.120 C 
ATOM     13  C   UNL A   1      30.585  24.063  23.578  1.00  0.00     0.120 C 
ATOM     14  C   UNL A   1      31.695  22.768  25.905  1.00  0.00     0.033 C 
ATOM     15  C   UNL A   1      31.817  23.225  23.485  1.00  0.00     0.033 C 
ATOM     16  C   UNL A   1      31.799  22.129  24.517  1.00  0.00     0.062 C 
BRANCH  16  17
ATOM     17  C   UNL A   1      33.005  21.275  24.280  1.00  0.00     0.140 A 
ATOM     18  N   UNL A   1      33.092  19.583  24.055  1.00  0.00    -0.134 NA
ATOM     19  N   UNL A   1      34.661  21.823  24.688  1.00  0.00    -0.286 N 
ATOM     20  N   UNL A   1      34.908  19.001  24.716  1.00  0.00    -0.130 NA
ATOM     21  C   UNL A   1      35.788  20.455  24.979  1.00  0.00     0.160 A 
ATOM     22  C   UNL A   1      35.167  23.114  24.646  1.00  0.00     0.095 A 
ATOM     23  C   UNL A   1      37.155  20.867  24.885  1.00  0.00     0.050 A 
ATOM     24  C   UNL A   1      36.498  23.286  24.650  1.00  0.00     0.019 A 
ATOM     25  C   UNL A   1      37.448  22.171  24.681  1.00  0.00     0.005 A 
ENDBRANCH  16  17
ENDBRANCH   8   9
ENDBRANCH   7   8
ENDBRANCH   5   7
ENDBRANCH   2   3
ENDBRANCH   1   2
BRANCH   1  26
ATOM     26  C   UNL A   1      32.034  29.842  26.330  1.00  0.00     0.023 C 
BRANCH  26  27
ATOM     27  C   UNL A   1      31.267  31.106  25.867  1.00  0.00     0.116 C 
BRANCH  27  28
ATOM     28  N   UNL A   1      31.396  32.398  26.607  1.00  0.00    -0.352 N 
ATOM     29  C   UNL A   1      32.634  33.063  27.395  1.00  0.00     0.251 C 
ATOM     30  H   UNL A   1      30.575  32.942  26.614  1.00  0.00     0.163 HD
ATOM     31  O   UNL A   1      32.161  34.233  27.559  1.00  0.00    -0.269 OA
BRANCH  29  32
ATOM     32  C   UNL A   1      34.542  32.052  27.957  1.00  0.00     0.039 A 
ATOM     33  C   UNL A   1      35.896  32.745  28.275  1.00  0.00     0.014 A 
ATOM     34  C   UNL A   1      34.822  30.623  28.321  1.00  0.00     0.014 A 
ATOM     35  C   UNL A   1      37.065  32.197  28.811  1.00  0.00     0.010 A 
ATOM     36  C   UNL A   1      35.921  30.122  29.028  1.00  0.00     0.010 A 
ATOM     37  C   UNL A   1      37.036  30.903  29.271  1.00  0.00    -0.014 A 
BRANCH  37  38
ATOM     38  C   UNL A   1      38.168  30.333  30.005  1.00  0.00     0.031 A 
ATOM     39  C   UNL A   1      38.416  30.794  31.403  1.00  0.00     0.074 A 
ATOM     40  C   UNL A   1      38.984  29.478  29.364  1.00  0.00     0.049 A 
ATOM     41  N   UNL A   1      39.404  30.494  32.197  1.00  0.00    -0.248 NA
ATOM     42  C   UNL A   1      37.447  31.747  31.978  1.00  0.00     0.031 C 
ATOM     43  C   UNL A   1      38.822  29.029  27.977  1.00  0.00     0.029 A 
ATOM     44  N   UNL A   1      40.122  28.849  29.785  1.00  0.00    -0.354 N 
ATOM     45  C   UNL A   1      39.203  31.254  33.338  1.00  0.00     0.074 A 
ATOM     46  C   UNL A   1      38.027  32.063  33.124  1.00  0.00     0.031 C 
ATOM     47  C   UNL A   1      39.811  28.175  27.670  1.00  0.00     0.029 A 
ATOM     48  C   UNL A   1      40.708  28.073  28.813  1.00  0.00     0.049 A 
ATOM     49  H   UNL A   1      40.487  28.942  30.694  1.00  0.00     0.167 HD
ATOM     50  C   UNL A   1      39.936  31.256  34.470  1.00  0.00     0.034 A 
ATOM     51  C   UNL A   1      41.860  27.382  28.845  1.00  0.00     0.034 A 
ATOM     52  C   UNL A   1      41.098  30.436  34.647  1.00  0.00     0.049 A 
ATOM     53  C   UNL A   1      42.657  27.415  30.117  1.00  0.00     0.074 A 
ATOM     54  C   UNL A   1      41.892  30.302  35.768  1.00  0.00     0.029 A 
ATOM     55  N   UNL A   1      41.649  29.631  33.659  1.00  0.00    -0.354 N 
ATOM     56  N   UNL A   1      42.395  28.046  31.238  1.00  0.00    -0.248 NA
ATOM     57  C   UNL A   1      43.890  26.621  30.144  1.00  0.00     0.031 C 
ATOM     58  C   UNL A   1      42.963  29.470  35.436  1.00  0.00     0.029 A 
ATOM     59  C   UNL A   1      42.789  29.016  34.135  1.00  0.00     0.049 A 
ATOM     60  H   UNL A   1      41.280  29.515  32.753  1.00  0.00     0.167 HD
ATOM     61  C   UNL A   1      43.407  27.692  32.119  1.00  0.00     0.074 A 
ATOM     62  C   UNL A   1      44.274  26.776  31.403  1.00  0.00     0.031 C 
ATOM     63  C   UNL A   1      43.608  28.087  33.400  1.00  0.00     0.034 A 
BRANCH  50  64
ATOM     64  C   UNL A   1      39.509  32.179  35.575  1.00  0.00     0.023 A 
ATOM     65  C   UNL A   1      38.673  31.714  36.613  1.00  0.00     0.012 A 
ATOM     66  C   UNL A   1      39.957  33.511  35.593  1.00  0.00     0.148 A 
ATOM     67  C   UNL A   1      38.264  32.573  37.631  1.00  0.00     0.002 A 
ATOM     68  C   UNL A   1      39.594  34.345  36.639  1.00  0.00     0.091 A 
ATOM     69  F   UNL A   1      40.722  33.940  34.578  1.00  0.00    -0.205 F 
ATOM     70  C   UNL A   1      38.735  33.883  37.651  1.00  0.00     0.022 A 
BRANCH  68  71
ATOM     71  S   UNL A   1      40.209  36.022  36.794  1.00  0.00     0.127 S 
ATOM     72  O   UNL A   1      41.654  35.800  36.859  1.00  0.00    -0.237 OA
ATOM     73  O   UNL A   1      39.740  36.632  35.551  1.00  0.00    -0.237 OA
ATOM     74  O   UNL A   1      39.612  36.564  38.007  1.00  0.00    -0.744 OA
ENDBRANCH  68  71
ENDBRANCH  50  64
BRANCH  51  75
ATOM     75  C   UNL A   1      42.305  26.597  27.662  1.00  0.00     0.023 A 
ATOM     76  C   UNL A   1      43.063  27.224  26.654  1.00  0.00     0.012 A 
ATOM     77  C   UNL A   1      41.986  25.231  27.532  1.00  0.00     0.148 A 
ATOM     78  C   UNL A   1      43.453  26.518  25.515  1.00  0.00     0.002 A 
ATOM     79  C   UNL A   1      42.424  24.520  26.423  1.00  0.00     0.091 A 
ATOM     80  F   UNL A   1      41.268  24.653  28.505  1.00  0.00    -0.205 F 
ATOM     81  C   UNL A   1      43.139  25.165  25.402  1.00  0.00     0.022 A 
BRANCH  79  82
ATOM     82  S   UNL A   1      42.161  22.753  26.244  1.00  0.00     0.127 S 
ATOM     83  O   UNL A   1      42.861  22.227  27.413  1.00  0.00    -0.237 OA
ATOM     84  O   UNL A   1      40.702  22.661  26.306  1.00  0.00    -0.237 OA
ATOM     85  O   UNL A   1      42.734  22.392  24.955  1.00  0.00    -0.744 OA
ENDBRANCH  79  82
ENDBRANCH  51  75
BRANCH  63  86
ATOM     86  C   UNL A   1      44.771  27.478  34.131  1.00  0.00     0.023 A 
ATOM     87  C   UNL A   1      46.036  28.095  34.104  1.00  0.00     0.012 A 
ATOM     88  C   UNL A   1      44.578  26.316  34.904  1.00  0.00     0.148 A 
ATOM     89  C   UNL A   1      47.105  27.536  34.802  1.00  0.00     0.002 A 
ATOM     90  C   UNL A   1      45.628  25.804  35.648  1.00  0.00     0.091 A 
ATOM     91  F   UNL A   1      43.365  25.744  34.904  1.00  0.00    -0.205 F 
ATOM     92  C   UNL A   1      46.898  26.401  35.583  1.00  0.00     0.022 A 
BRANCH  90  93
ATOM     93  S   UNL A   1      45.425  24.413  36.762  1.00  0.00     0.127 S 
ATOM     94  O   UNL A   1      44.379  24.902  37.658  1.00  0.00    -0.237 OA
ATOM     95  O   UNL A   1      45.001  23.351  35.850  1.00  0.00    -0.237 OA
ATOM     96  O   UNL A   1      46.724  24.197  37.385  1.00  0.00    -0.744 OA
ENDBRANCH  90  93
ENDBRANCH  63  86
ENDBRANCH  37  38
ENDBRANCH  29  32
ENDBRANCH  27  28
ENDBRANCH  26  27
ENDBRANCH   1  26
TORSDOF 17
ENDMDL
