MODEL 1
REMARK VINA RESULT:     -13.7      0.000      0.000
REMARK SMILES O=C(NCCCCNC(=O)[C@@H]1CCCC[C@@H]1C(=O)Nc1cc(C(F)(F)F)cc(C(F)(F)F)c1)c1ccc(-c2c3nc(c(-c4cccc(S(=O)(=O)[O-])c4F)c4ccc([nH]4)c(-c4cccc(S(=O)(=O)[O-])c4F)c4nc(c(-c5cccc(S(=O)(=O)[O-])c5F)c5ccc2[nH]5)C=C4)C=C3)cc1
REMARK SMILES IDX 5 1 4 2 3 3 1 4 2 5 34 7 35 8 96 9 36 10 95 11 37 12 38 13
REMARK SMILES IDX 39 14 89 15 40 16 94 17 88 18 90 19 41 20 93 21 87 22 86 23
REMARK SMILES IDX 42 25 74 26 54 27 73 28 55 29 58 30 72 31 91 32 56 33 57 34
REMARK SMILES IDX 71 36 92 37 59 38 43 39 44 40 52 41 45 42 47 43 53 44 46 45
REMARK SMILES IDX 48 46 49 47 50 48 51 49 75 50 76 51 84 52 77 53 79 54 85 55
REMARK SMILES IDX 78 56 80 57 81 58 82 59 83 60 60 61 61 62 69 63 62 64 64 65
REMARK SMILES IDX 70 66 63 67 65 68 66 69 67 70 68 71 6 72 7 73 8 74 9 75
REMARK SMILES IDX 10 77 11 78 12 79 16 80 13 81 15 82 14 83 17 84 18 85 19 86
REMARK SMILES IDX 20 88 21 89 33 90 22 91 28 92 27 93 23 94 24 95 25 96 26 97
REMARK SMILES IDX 29 98 30 99 31 100 32 101
REMARK H PARENT 3 6 90 24 58 35 8 76 19 87
REMARK Flexibility Score: inf
ROOT
ATOM      1  C   UNL A   1      35.470  22.857  24.593  1.00  0.00     0.023 C 
ENDROOT
BRANCH   1   2
ATOM      2  C   UNL A   1      36.076  22.186  25.818  1.00  0.00     0.116 C 
BRANCH   2   3
ATOM      3  N   UNL A   1      37.083  21.183  25.503  1.00  0.00    -0.352 N 
ATOM      4  O   UNL A   1      39.181  20.356  25.338  1.00  0.00    -0.269 OA
ATOM      5  C   UNL A   1      38.443  21.249  25.723  1.00  0.00     0.251 C 
ATOM      6  H   UNL A   1      36.753  20.356  25.082  1.00  0.00     0.163 HD
BRANCH   5   7
ATOM      7  C   UNL A   1      38.979  22.453  26.391  1.00  0.00     0.039 A 
ATOM      8  C   UNL A   1      38.487  23.713  26.045  1.00  0.00     0.014 A 
ATOM      9  C   UNL A   1      40.054  22.322  27.270  1.00  0.00     0.014 A 
ATOM     10  C   UNL A   1      39.190  24.845  26.434  1.00  0.00     0.010 A 
ATOM     11  C   UNL A   1      40.702  23.469  27.736  1.00  0.00     0.010 A 
ATOM     12  C   UNL A   1      40.311  24.736  27.276  1.00  0.00    -0.014 A 
BRANCH  12  13
ATOM     13  C   UNL A   1      41.038  25.970  27.671  1.00  0.00     0.031 A 
ATOM     14  C   UNL A   1      42.442  26.238  27.197  1.00  0.00     0.074 A 
ATOM     15  C   UNL A   1      40.401  26.873  28.441  1.00  0.00     0.049 A 
ATOM     16  N   UNL A   1      43.190  27.291  27.403  1.00  0.00    -0.248 NA
ATOM     17  C   UNL A   1      43.098  25.190  26.398  1.00  0.00     0.031 C 
ATOM     18  C   UNL A   1      39.054  26.701  28.994  1.00  0.00     0.029 A 
ATOM     19  N   UNL A   1      40.786  28.112  28.882  1.00  0.00    -0.354 N 
ATOM     20  C   UNL A   1      44.417  27.016  26.811  1.00  0.00     0.074 A 
ATOM     21  C   UNL A   1      44.315  25.693  26.234  1.00  0.00     0.031 C 
ATOM     22  C   UNL A   1      38.708  27.812  29.659  1.00  0.00     0.029 A 
ATOM     23  C   UNL A   1      39.823  28.751  29.626  1.00  0.00     0.049 A 
ATOM     24  H   UNL A   1      41.667  28.505  28.684  1.00  0.00     0.167 HD
ATOM     25  C   UNL A   1      45.520  27.799  26.740  1.00  0.00     0.034 A 
ATOM     26  C   UNL A   1      39.834  29.960  30.218  1.00  0.00     0.034 A 
ATOM     27  C   UNL A   1      45.593  29.138  27.264  1.00  0.00     0.049 A 
ATOM     28  C   UNL A   1      41.047  30.831  30.067  1.00  0.00     0.074 A 
ATOM     29  C   UNL A   1      46.642  30.039  27.179  1.00  0.00     0.029 A 
ATOM     30  N   UNL A   1      44.578  29.773  27.964  1.00  0.00    -0.354 N 
ATOM     31  N   UNL A   1      42.149  30.598  29.397  1.00  0.00    -0.248 NA
ATOM     32  C   UNL A   1      41.009  32.140  30.731  1.00  0.00     0.031 C 
ATOM     33  C   UNL A   1      46.263  31.214  27.840  1.00  0.00     0.029 A 
ATOM     34  C   UNL A   1      44.975  31.050  28.322  1.00  0.00     0.049 A 
ATOM     35  H   UNL A   1      43.704  29.373  28.176  1.00  0.00     0.167 HD
ATOM     36  C   UNL A   1      42.926  31.741  29.536  1.00  0.00     0.074 A 
ATOM     37  C   UNL A   1      42.155  32.675  30.332  1.00  0.00     0.031 C 
ATOM     38  C   UNL A   1      44.174  31.987  29.066  1.00  0.00     0.034 A 
BRANCH  25  39
ATOM     39  C   UNL A   1      46.735  27.250  26.036  1.00  0.00     0.023 A 
ATOM     40  C   UNL A   1      47.509  26.252  26.661  1.00  0.00     0.012 A 
ATOM     41  C   UNL A   1      47.065  27.663  24.730  1.00  0.00     0.148 A 
ATOM     42  C   UNL A   1      48.608  25.692  26.008  1.00  0.00     0.002 A 
ATOM     43  C   UNL A   1      48.138  27.073  24.071  1.00  0.00     0.091 A 
ATOM     44  F   UNL A   1      46.332  28.631  24.160  1.00  0.00    -0.205 F 
ATOM     45  C   UNL A   1      48.915  26.095  24.711  1.00  0.00     0.022 A 
BRANCH  43  46
ATOM     46  S   UNL A   1      48.563  27.476  22.371  1.00  0.00     0.127 S 
ATOM     47  O   UNL A   1      47.422  28.297  21.969  1.00  0.00    -0.237 OA
ATOM     48  O   UNL A   1      49.818  28.213  22.529  1.00  0.00    -0.237 OA
ATOM     49  O   UNL A   1      48.696  26.200  21.684  1.00  0.00    -0.744 OA
ENDBRANCH  43  46
ENDBRANCH  25  39
BRANCH  26  50
ATOM     50  C   UNL A   1      38.621  30.435  30.940  1.00  0.00     0.023 A 
ATOM     51  C   UNL A   1      38.541  30.271  32.336  1.00  0.00     0.012 A 
ATOM     52  C   UNL A   1      37.581  31.104  30.266  1.00  0.00     0.148 A 
ATOM     53  C   UNL A   1      37.438  30.748  33.045  1.00  0.00     0.002 A 
ATOM     54  C   UNL A   1      36.515  31.629  30.985  1.00  0.00     0.091 A 
ATOM     55  F   UNL A   1      37.666  31.233  28.933  1.00  0.00    -0.205 F 
ATOM     56  C   UNL A   1      36.434  31.440  32.373  1.00  0.00     0.022 A 
BRANCH  54  57
ATOM     57  S   UNL A   1      35.267  32.663  30.211  1.00  0.00     0.127 S 
ATOM     58  O   UNL A   1      34.755  31.783  29.165  1.00  0.00    -0.237 OA
ATOM     59  O   UNL A   1      34.340  32.908  31.318  1.00  0.00    -0.237 OA
ATOM     60  O   UNL A   1      35.978  33.852  29.758  1.00  0.00    -0.744 OA
ENDBRANCH  54  57
ENDBRANCH  26  50
BRANCH  38  61
ATOM     61  C   UNL A   1      44.777  33.329  29.382  1.00  0.00     0.023 A 
ATOM     62  C   UNL A   1      45.472  33.511  30.593  1.00  0.00     0.012 A 
ATOM     63  C   UNL A   1      44.700  34.390  28.460  1.00  0.00     0.148 A 
ATOM     64  C   UNL A   1      46.055  34.741  30.896  1.00  0.00     0.002 A 
ATOM     65  C   UNL A   1      45.322  35.599  28.749  1.00  0.00     0.091 A 
ATOM     66  F   UNL A   1      44.012  34.205  27.323  1.00  0.00    -0.205 F 
ATOM     67  C   UNL A   1      45.990  35.780  29.971  1.00  0.00     0.022 A 
BRANCH  65  68
ATOM     68  S   UNL A   1      45.357  36.954  27.570  1.00  0.00     0.127 S 
ATOM     69  O   UNL A   1      45.983  36.324  26.410  1.00  0.00    -0.237 OA
ATOM     70  O   UNL A   1      43.938  37.266  27.403  1.00  0.00    -0.237 OA
ATOM     71  O   UNL A   1      46.129  38.010  28.212  1.00  0.00    -0.744 OA
ENDBRANCH  65  68
ENDBRANCH  38  61
ENDBRANCH  12  13
ENDBRANCH   5   7
ENDBRANCH   2   3
ENDBRANCH   1   2
BRANCH   1  72
ATOM     72  C   UNL A   1      34.195  22.208  24.061  1.00  0.00     0.023 C 
BRANCH  72  73
ATOM     73  C   UNL A   1      33.751  22.703  22.690  1.00  0.00     0.116 C 
BRANCH  73  74
ATOM     74  N   UNL A   1      32.340  23.020  22.663  1.00  0.00    -0.356 N 
ATOM     75  C   UNL A   1      31.567  23.900  23.333  1.00  0.00     0.223 C 
ATOM     76  H   UNL A   1      31.836  22.478  22.015  1.00  0.00     0.163 HD
ATOM     77  O   UNL A   1      30.361  23.894  23.051  1.00  0.00    -0.275 OA
BRANCH  75  78
ATOM     78  C   UNL A   1      32.060  24.882  24.392  1.00  0.00     0.091 C 
ATOM     79  C   UNL A   1      31.061  25.731  25.167  1.00  0.00     0.014 C 
ATOM     80  C   UNL A   1      33.308  25.683  23.960  1.00  0.00     0.091 C 
ATOM     81  C   UNL A   1      31.699  26.229  26.458  1.00  0.00     0.001 C 
ATOM     82  C   UNL A   1      33.914  26.419  25.164  1.00  0.00     0.014 C 
ATOM     83  C   UNL A   1      32.936  27.060  26.159  1.00  0.00     0.001 C 
BRANCH  80  84
ATOM     84  C   UNL A   1      33.161  26.342  22.569  1.00  0.00     0.228 C 
ATOM     85  O   UNL A   1      33.857  25.918  21.636  1.00  0.00    -0.274 OA
ATOM     86  N   UNL A   1      32.187  27.215  22.201  1.00  0.00    -0.326 N 
ATOM     87  H   UNL A   1      31.941  27.143  21.251  1.00  0.00     0.169 HD
BRANCH  86  88
ATOM     88  C   UNL A   1      31.465  28.189  22.882  1.00  0.00     0.042 A 
ATOM     89  C   UNL A   1      30.167  28.463  22.450  1.00  0.00     0.039 A 
ATOM     90  C   UNL A   1      32.022  28.946  23.905  1.00  0.00     0.039 A 
ATOM     91  C   UNL A   1      29.357  29.369  23.151  1.00  0.00     0.058 A 
ATOM     92  C   UNL A   1      31.232  29.845  24.640  1.00  0.00     0.058 A 
ATOM     93  C   UNL A   1      29.897  30.045  24.258  1.00  0.00     0.026 A 
BRANCH  91  94
ATOM     94  C   UNL A   1      27.923  29.579  22.726  1.00  0.00     0.416 C 
ATOM     95  F   UNL A   1      27.162  28.467  22.905  1.00  0.00    -0.166 F 
ATOM     96  F   UNL A   1      27.316  30.574  23.430  1.00  0.00    -0.166 F 
ATOM     97  F   UNL A   1      27.798  29.917  21.414  1.00  0.00    -0.166 F 
ENDBRANCH  91  94
BRANCH  92  98
ATOM     98  C   UNL A   1      31.776  30.500  25.887  1.00  0.00     0.416 C 
ATOM     99  F   UNL A   1      33.134  30.583  25.895  1.00  0.00    -0.166 F 
ATOM    100  F   UNL A   1      31.321  31.777  26.027  1.00  0.00    -0.166 F 
ATOM    101  F   UNL A   1      31.429  29.859  27.038  1.00  0.00    -0.166 F 
ENDBRANCH  92  98
ENDBRANCH  86  88
ENDBRANCH  80  84
ENDBRANCH  75  78
ENDBRANCH  73  74
ENDBRANCH  72  73
ENDBRANCH   1  72
TORSDOF 18
ENDMDL
MODEL 2
REMARK VINA RESULT:     -13.7      1.427      2.699
REMARK SMILES O=C(NCCCCNC(=O)[C@@H]1CCCC[C@@H]1C(=O)Nc1cc(C(F)(F)F)cc(C(F)(F)F)c1)c1ccc(-c2c3nc(c(-c4cccc(S(=O)(=O)[O-])c4F)c4ccc([nH]4)c(-c4cccc(S(=O)(=O)[O-])c4F)c4nc(c(-c5cccc(S(=O)(=O)[O-])c5F)c5ccc2[nH]5)C=C4)C=C3)cc1
REMARK SMILES IDX 5 1 4 2 3 3 1 4 2 5 34 7 35 8 96 9 36 10 95 11 37 12 38 13
REMARK SMILES IDX 39 14 89 15 40 16 94 17 88 18 90 19 41 20 93 21 87 22 86 23
REMARK SMILES IDX 42 25 74 26 54 27 73 28 55 29 58 30 72 31 91 32 56 33 57 34
REMARK SMILES IDX 71 36 92 37 59 38 43 39 44 40 52 41 45 42 47 43 53 44 46 45
REMARK SMILES IDX 48 46 49 47 50 48 51 49 75 50 76 51 84 52 77 53 79 54 85 55
REMARK SMILES IDX 78 56 80 57 81 58 82 59 83 60 60 61 61 62 69 63 62 64 64 65
REMARK SMILES IDX 70 66 63 67 65 68 66 69 67 70 68 71 6 72 7 73 8 74 9 75
REMARK SMILES IDX 10 77 11 78 12 79 16 80 13 81 15 82 14 83 17 84 18 85 19 86
REMARK SMILES IDX 20 88 21 89 33 90 22 91 28 92 27 93 23 94 24 95 25 96 26 97
REMARK SMILES IDX 29 98 30 99 31 100 32 101
REMARK H PARENT 3 6 90 24 58 35 8 76 19 87
REMARK Flexibility Score: inf
ROOT
ATOM      1  C   UNL A   1      36.064  21.433  24.621  1.00  0.00     0.023 C 
ENDROOT
BRANCH   1   2
ATOM      2  C   UNL A   1      37.216  21.829  25.534  1.00  0.00     0.116 C 
BRANCH   2   3
ATOM      3  N   UNL A   1      38.264  20.822  25.632  1.00  0.00    -0.352 N 
ATOM      4  O   UNL A   1      40.330  20.044  26.117  1.00  0.00    -0.269 OA
ATOM      5  C   UNL A   1      39.526  20.961  26.170  1.00  0.00     0.251 C 
ATOM      6  H   UNL A   1      38.044  19.932  25.270  1.00  0.00     0.163 HD
BRANCH   5   7
ATOM      7  C   UNL A   1      39.887  22.266  26.762  1.00  0.00     0.039 A 
ATOM      8  C   UNL A   1      39.410  23.444  26.184  1.00  0.00     0.014 A 
ATOM      9  C   UNL A   1      40.797  22.305  27.819  1.00  0.00     0.014 A 
ATOM     10  C   UNL A   1      39.986  24.655  26.541  1.00  0.00     0.010 A 
ATOM     11  C   UNL A   1      41.305  23.537  28.239  1.00  0.00     0.010 A 
ATOM     12  C   UNL A   1      40.947  24.715  27.566  1.00  0.00    -0.014 A 
BRANCH  12  13
ATOM     13  C   UNL A   1      41.542  26.029  27.920  1.00  0.00     0.031 A 
ATOM     14  C   UNL A   1      42.920  26.417  27.455  1.00  0.00     0.074 A 
ATOM     15  C   UNL A   1      40.805  26.894  28.644  1.00  0.00     0.049 A 
ATOM     16  N   UNL A   1      43.557  27.546  27.629  1.00  0.00    -0.248 NA
ATOM     17  C   UNL A   1      43.691  25.408  26.709  1.00  0.00     0.031 C 
ATOM     18  C   UNL A   1      39.472  26.612  29.184  1.00  0.00     0.029 A 
ATOM     19  N   UNL A   1      41.058  28.182  29.039  1.00  0.00    -0.354 N 
ATOM     20  C   UNL A   1      44.816  27.371  27.066  1.00  0.00     0.074 A 
ATOM     21  C   UNL A   1      44.855  26.022  26.541  1.00  0.00     0.031 C 
ATOM     22  C   UNL A   1      39.006  27.708  29.799  1.00  0.00     0.029 A 
ATOM     23  C   UNL A   1      40.024  28.752  29.742  1.00  0.00     0.049 A 
ATOM     24  H   UNL A   1      41.899  28.653  28.837  1.00  0.00     0.167 HD
ATOM     25  C   UNL A   1      45.838  28.256  26.978  1.00  0.00     0.034 A 
ATOM     26  C   UNL A   1      39.904  29.978  30.284  1.00  0.00     0.034 A 
ATOM     27  C   UNL A   1      45.769  29.616  27.447  1.00  0.00     0.049 A 
ATOM     28  C   UNL A   1      41.029  30.958  30.115  1.00  0.00     0.074 A 
ATOM     29  C   UNL A   1      46.725  30.611  27.341  1.00  0.00     0.029 A 
ATOM     30  N   UNL A   1      44.684  30.174  28.107  1.00  0.00    -0.354 N 
ATOM     31  N   UNL A   1      42.160  30.810  29.471  1.00  0.00    -0.248 NA
ATOM     32  C   UNL A   1      40.850  32.282  30.724  1.00  0.00     0.031 C 
ATOM     33  C   UNL A   1      46.221  31.768  27.947  1.00  0.00     0.029 A 
ATOM     34  C   UNL A   1      44.947  31.497  28.418  1.00  0.00     0.049 A 
ATOM     35  H   UNL A   1      43.850  29.697  28.323  1.00  0.00     0.167 HD
ATOM     36  C   UNL A   1      42.818  32.029  29.573  1.00  0.00     0.074 A 
ATOM     37  C   UNL A   1      41.945  32.912  30.319  1.00  0.00     0.031 C 
ATOM     38  C   UNL A   1      44.044  32.378  29.112  1.00  0.00     0.034 A 
BRANCH  25  39
ATOM     39  C   UNL A   1      47.113  27.802  26.314  1.00  0.00     0.023 A 
ATOM     40  C   UNL A   1      48.116  27.181  27.085  1.00  0.00     0.012 A 
ATOM     41  C   UNL A   1      47.287  27.921  24.921  1.00  0.00     0.148 A 
ATOM     42  C   UNL A   1      49.282  26.707  26.484  1.00  0.00     0.002 A 
ATOM     43  C   UNL A   1      48.436  27.412  24.324  1.00  0.00     0.091 A 
ATOM     44  F   UNL A   1      46.334  28.536  24.206  1.00  0.00    -0.205 F 
ATOM     45  C   UNL A   1      49.437  26.813  25.105  1.00  0.00     0.022 A 
BRANCH  43  46
ATOM     46  S   UNL A   1      48.688  27.437  22.544  1.00  0.00     0.127 S 
ATOM     47  O   UNL A   1      47.569  28.267  22.100  1.00  0.00    -0.237 OA
ATOM     48  O   UNL A   1      50.001  28.071  22.424  1.00  0.00    -0.237 OA
ATOM     49  O   UNL A   1      48.649  26.046  22.119  1.00  0.00    -0.744 OA
ENDBRANCH  43  46
ENDBRANCH  25  39
BRANCH  26  50
ATOM     50  C   UNL A   1      38.638  30.358  30.969  1.00  0.00     0.023 A 
ATOM     51  C   UNL A   1      38.494  30.099  32.345  1.00  0.00     0.012 A 
ATOM     52  C   UNL A   1      37.608  31.031  30.285  1.00  0.00     0.148 A 
ATOM     53  C   UNL A   1      37.337  30.486  33.023  1.00  0.00     0.002 A 
ATOM     54  C   UNL A   1      36.486  31.468  30.978  1.00  0.00     0.091 A 
ATOM     55  F   UNL A   1      37.755  31.252  28.970  1.00  0.00    -0.205 F 
ATOM     56  C   UNL A   1      36.341  31.183  32.345  1.00  0.00     0.022 A 
BRANCH  54  57
ATOM     57  S   UNL A   1      35.238  32.504  30.206  1.00  0.00     0.127 S 
ATOM     58  O   UNL A   1      34.770  31.650  29.119  1.00  0.00    -0.237 OA
ATOM     59  O   UNL A   1      34.279  32.694  31.297  1.00  0.00    -0.237 OA
ATOM     60  O   UNL A   1      35.937  33.720  29.811  1.00  0.00    -0.744 OA
ENDBRANCH  54  57
ENDBRANCH  26  50
BRANCH  38  61
ATOM     61  C   UNL A   1      44.506  33.785  29.380  1.00  0.00     0.023 A 
ATOM     62  C   UNL A   1      45.057  34.108  30.635  1.00  0.00     0.012 A 
ATOM     63  C   UNL A   1      44.442  34.770  28.377  1.00  0.00     0.148 A 
ATOM     64  C   UNL A   1      45.509  35.400  30.899  1.00  0.00     0.002 A 
ATOM     65  C   UNL A   1      44.936  36.044  28.631  1.00  0.00     0.091 A 
ATOM     66  F   UNL A   1      43.892  34.450  27.196  1.00  0.00    -0.205 F 
ATOM     67  C   UNL A   1      45.459  36.364  29.894  1.00  0.00     0.022 A 
BRANCH  65  68
ATOM     68  S   UNL A   1      44.988  37.313  27.361  1.00  0.00     0.127 S 
ATOM     69  O   UNL A   1      45.646  38.413  28.064  1.00  0.00    -0.237 OA
ATOM     70  O   UNL A   1      45.799  36.684  26.317  1.00  0.00    -0.237 OA
ATOM     71  O   UNL A   1      43.600  37.544  26.982  1.00  0.00    -0.744 OA
ENDBRANCH  65  68
ENDBRANCH  38  61
ENDBRANCH  12  13
ENDBRANCH   5   7
ENDBRANCH   2   3
ENDBRANCH   1   2
BRANCH   1  72
ATOM     72  C   UNL A   1      35.377  20.117  24.975  1.00  0.00     0.023 C 
BRANCH  72  73
ATOM     73  C   UNL A   1      33.947  20.259  25.481  1.00  0.00     0.116 C 
BRANCH  73  74
ATOM     74  N   UNL A   1      33.810  21.366  26.403  1.00  0.00    -0.356 N 
ATOM     75  C   UNL A   1      33.399  22.645  26.273  1.00  0.00     0.223 C 
ATOM     76  H   UNL A   1      34.073  21.135  27.323  1.00  0.00     0.163 HD
ATOM     77  O   UNL A   1      33.418  23.332  27.303  1.00  0.00    -0.275 OA
BRANCH  75  78
ATOM     78  C   UNL A   1      32.923  23.292  24.976  1.00  0.00     0.091 C 
ATOM     79  C   UNL A   1      33.494  24.635  24.542  1.00  0.00     0.014 C 
ATOM     80  C   UNL A   1      31.396  23.203  24.764  1.00  0.00     0.091 C 
ATOM     81  C   UNL A   1      33.274  24.831  23.047  1.00  0.00     0.001 C 
ATOM     82  C   UNL A   1      31.032  23.602  23.326  1.00  0.00     0.014 C 
ATOM     83  C   UNL A   1      31.791  24.786  22.714  1.00  0.00     0.001 C 
BRANCH  80  84
ATOM     84  C   UNL A   1      30.579  23.671  25.990  1.00  0.00     0.228 C 
ATOM     85  O   UNL A   1      29.982  22.819  26.664  1.00  0.00    -0.274 OA
ATOM     86  N   UNL A   1      30.610  24.912  26.541  1.00  0.00    -0.326 N 
ATOM     87  H   UNL A   1      30.466  24.909  27.514  1.00  0.00     0.169 HD
BRANCH  86  88
ATOM     88  C   UNL A   1      30.802  26.187  26.020  1.00  0.00     0.042 A 
ATOM     89  C   UNL A   1      31.682  27.041  26.688  1.00  0.00     0.039 A 
ATOM     90  C   UNL A   1      30.089  26.657  24.924  1.00  0.00     0.039 A 
ATOM     91  C   UNL A   1      31.986  28.306  26.162  1.00  0.00     0.058 A 
ATOM     92  C   UNL A   1      30.386  27.908  24.361  1.00  0.00     0.058 A 
ATOM     93  C   UNL A   1      31.342  28.724  24.986  1.00  0.00     0.026 A 
BRANCH  91  94
ATOM     94  C   UNL A   1      33.013  29.175  26.846  1.00  0.00     0.416 C 
ATOM     95  F   UNL A   1      33.797  29.846  25.961  1.00  0.00    -0.166 F 
ATOM     96  F   UNL A   1      32.442  30.121  27.642  1.00  0.00    -0.166 F 
ATOM     97  F   UNL A   1      33.861  28.474  27.647  1.00  0.00    -0.166 F 
ENDBRANCH  91  94
BRANCH  92  98
ATOM     98  C   UNL A   1      29.771  28.323  23.046  1.00  0.00     0.416 C 
ATOM     99  F   UNL A   1      29.904  29.653  22.794  1.00  0.00    -0.166 F 
ATOM    100  F   UNL A   1      30.350  27.681  21.992  1.00  0.00    -0.166 F 
ATOM    101  F   UNL A   1      28.439  28.052  22.955  1.00  0.00    -0.166 F 
ENDBRANCH  92  98
ENDBRANCH  86  88
ENDBRANCH  80  84
ENDBRANCH  75  78
ENDBRANCH  73  74
ENDBRANCH  72  73
ENDBRANCH   1  72
TORSDOF 18
ENDMDL
MODEL 3
REMARK VINA RESULT:     -13.6      5.645     10.235
REMARK SMILES O=C(NCCCCNC(=O)[C@@H]1CCCC[C@@H]1C(=O)Nc1cc(C(F)(F)F)cc(C(F)(F)F)c1)c1ccc(-c2c3nc(c(-c4cccc(S(=O)(=O)[O-])c4F)c4ccc([nH]4)c(-c4cccc(S(=O)(=O)[O-])c4F)c4nc(c(-c5cccc(S(=O)(=O)[O-])c5F)c5ccc2[nH]5)C=C4)C=C3)cc1
REMARK SMILES IDX 5 1 4 2 3 3 1 4 2 5 34 7 35 8 96 9 36 10 95 11 37 12 38 13
REMARK SMILES IDX 39 14 89 15 40 16 94 17 88 18 90 19 41 20 93 21 87 22 86 23
REMARK SMILES IDX 42 25 74 26 54 27 73 28 55 29 58 30 72 31 91 32 56 33 57 34
REMARK SMILES IDX 71 36 92 37 59 38 43 39 44 40 52 41 45 42 47 43 53 44 46 45
REMARK SMILES IDX 48 46 49 47 50 48 51 49 75 50 76 51 84 52 77 53 79 54 85 55
REMARK SMILES IDX 78 56 80 57 81 58 82 59 83 60 60 61 61 62 69 63 62 64 64 65
REMARK SMILES IDX 70 66 63 67 65 68 66 69 67 70 68 71 6 72 7 73 8 74 9 75
REMARK SMILES IDX 10 77 11 78 12 79 16 80 13 81 15 82 14 83 17 84 18 85 19 86
REMARK SMILES IDX 20 88 21 89 33 90 22 91 28 92 27 93 23 94 24 95 25 96 26 97
REMARK SMILES IDX 29 98 30 99 31 100 32 101
REMARK H PARENT 3 6 90 24 58 35 8 76 19 87
REMARK Flexibility Score: inf
ROOT
ATOM      1  C   UNL A   1      32.231  28.809  24.260  1.00  0.00     0.023 C 
ENDROOT
BRANCH   1   2
ATOM      2  C   UNL A   1      33.013  29.288  25.476  1.00  0.00     0.116 C 
BRANCH   2   3
ATOM      3  N   UNL A   1      32.474  30.496  26.085  1.00  0.00    -0.352 N 
ATOM      4  O   UNL A   1      32.459  32.249  27.512  1.00  0.00    -0.269 OA
ATOM      5  C   UNL A   1      33.063  31.302  27.036  1.00  0.00     0.251 C 
ATOM      6  H   UNL A   1      31.578  30.771  25.780  1.00  0.00     0.163 HD
BRANCH   5   7
ATOM      7  C   UNL A   1      34.424  30.951  27.493  1.00  0.00     0.039 A 
ATOM      8  C   UNL A   1      34.733  29.624  27.793  1.00  0.00     0.014 A 
ATOM      9  C   UNL A   1      35.346  31.972  27.732  1.00  0.00     0.014 A 
ATOM     10  C   UNL A   1      35.891  29.342  28.505  1.00  0.00     0.010 A 
ATOM     11  C   UNL A   1      36.554  31.669  28.365  1.00  0.00     0.010 A 
ATOM     12  C   UNL A   1      36.810  30.362  28.807  1.00  0.00    -0.014 A 
BRANCH  12  13
ATOM     13  C   UNL A   1      38.038  30.022  29.571  1.00  0.00     0.031 A 
ATOM     14  C   UNL A   1      38.241  30.502  30.984  1.00  0.00     0.074 A 
ATOM     15  C   UNL A   1      38.964  29.238  28.984  1.00  0.00     0.049 A 
ATOM     16  N   UNL A   1      39.227  30.244  31.804  1.00  0.00    -0.248 NA
ATOM     17  C   UNL A   1      37.215  31.394  31.549  1.00  0.00     0.031 C 
ATOM     18  C   UNL A   1      38.894  28.747  27.605  1.00  0.00     0.029 A 
ATOM     19  N   UNL A   1      40.131  28.707  29.468  1.00  0.00    -0.354 N 
ATOM     20  C   UNL A   1      38.973  30.978  32.957  1.00  0.00     0.074 A 
ATOM     21  C   UNL A   1      37.735  31.694  32.732  1.00  0.00     0.031 C 
ATOM     22  C   UNL A   1      39.945  27.950  27.369  1.00  0.00     0.029 A 
ATOM     23  C   UNL A   1      40.788  27.913  28.558  1.00  0.00     0.049 A 
ATOM     24  H   UNL A   1      40.464  28.876  30.379  1.00  0.00     0.167 HD
ATOM     25  C   UNL A   1      39.694  31.037  34.102  1.00  0.00     0.034 A 
ATOM     26  C   UNL A   1      41.944  27.231  28.666  1.00  0.00     0.034 A 
ATOM     27  C   UNL A   1      40.891  30.274  34.341  1.00  0.00     0.049 A 
ATOM     28  C   UNL A   1      42.687  27.265  29.969  1.00  0.00     0.074 A 
ATOM     29  C   UNL A   1      41.655  30.209  35.495  1.00  0.00     0.029 A 
ATOM     30  N   UNL A   1      41.498  29.439  33.415  1.00  0.00    -0.354 N 
ATOM     31  N   UNL A   1      42.362  27.867  31.087  1.00  0.00    -0.248 NA
ATOM     32  C   UNL A   1      43.942  26.504  30.036  1.00  0.00     0.031 C 
ATOM     33  C   UNL A   1      42.730  29.344  35.260  1.00  0.00     0.029 A 
ATOM     34  C   UNL A   1      42.628  28.859  33.967  1.00  0.00     0.049 A 
ATOM     35  H   UNL A   1      41.173  29.283  32.499  1.00  0.00     0.167 HD
ATOM     36  C   UNL A   1      43.358  27.538  31.998  1.00  0.00     0.074 A 
ATOM     37  C   UNL A   1      44.281  26.661  31.308  1.00  0.00     0.031 C 
ATOM     38  C   UNL A   1      43.505  27.944  33.283  1.00  0.00     0.034 A 
BRANCH  25  39
ATOM     39  C   UNL A   1      39.192  31.927  35.211  1.00  0.00     0.023 A 
ATOM     40  C   UNL A   1      38.251  31.426  36.133  1.00  0.00     0.012 A 
ATOM     41  C   UNL A   1      39.704  33.228  35.384  1.00  0.00     0.148 A 
ATOM     42  C   UNL A   1      37.811  32.214  37.197  1.00  0.00     0.002 A 
ATOM     43  C   UNL A   1      39.288  33.994  36.468  1.00  0.00     0.091 A 
ATOM     44  F   UNL A   1      40.579  33.697  34.482  1.00  0.00    -0.205 F 
ATOM     45  C   UNL A   1      38.336  33.492  37.370  1.00  0.00     0.022 A 
BRANCH  43  46
ATOM     46  S   UNL A   1      39.966  35.623  36.812  1.00  0.00     0.127 S 
ATOM     47  O   UNL A   1      41.393  35.327  36.939  1.00  0.00    -0.237 OA
ATOM     48  O   UNL A   1      39.605  36.373  35.608  1.00  0.00    -0.237 OA
ATOM     49  O   UNL A   1      39.306  36.078  38.026  1.00  0.00    -0.744 OA
ENDBRANCH  43  46
ENDBRANCH  25  39
BRANCH  26  50
ATOM     50  C   UNL A   1      42.417  26.403  27.522  1.00  0.00     0.023 A 
ATOM     51  C   UNL A   1      43.343  26.948  26.613  1.00  0.00     0.012 A 
ATOM     52  C   UNL A   1      42.008  25.065  27.368  1.00  0.00     0.148 A 
ATOM     53  C   UNL A   1      43.839  26.180  25.559  1.00  0.00     0.002 A 
ATOM     54  C   UNL A   1      42.551  24.287  26.353  1.00  0.00     0.091 A 
ATOM     55  F   UNL A   1      41.110  24.570  28.232  1.00  0.00    -0.205 F 
ATOM     56  C   UNL A   1      43.456  24.847  25.438  1.00  0.00     0.022 A 
BRANCH  54  57
ATOM     57  S   UNL A   1      42.224  22.525  26.229  1.00  0.00     0.127 S 
ATOM     58  O   UNL A   1      42.698  22.041  27.522  1.00  0.00    -0.237 OA
ATOM     59  O   UNL A   1      40.771  22.493  26.054  1.00  0.00    -0.237 OA
ATOM     60  O   UNL A   1      42.973  22.076  25.063  1.00  0.00    -0.744 OA
ENDBRANCH  54  57
ENDBRANCH  26  50
BRANCH  38  61
ATOM     61  C   UNL A   1      44.700  27.424  34.037  1.00  0.00     0.023 A 
ATOM     62  C   UNL A   1      45.909  28.145  34.004  1.00  0.00     0.012 A 
ATOM     63  C   UNL A   1      44.610  26.255  34.816  1.00  0.00     0.148 A 
ATOM     64  C   UNL A   1      47.023  27.692  34.711  1.00  0.00     0.002 A 
ATOM     65  C   UNL A   1      45.710  25.834  35.553  1.00  0.00     0.091 A 
ATOM     66  F   UNL A   1      43.457  25.569  34.815  1.00  0.00    -0.205 F 
ATOM     67  C   UNL A   1      46.920  26.544  35.493  1.00  0.00     0.022 A 
BRANCH  65  68
ATOM     68  S   UNL A   1      45.629  24.416  36.653  1.00  0.00     0.127 S 
ATOM     69  O   UNL A   1      44.528  24.788  37.539  1.00  0.00    -0.237 OA
ATOM     70  O   UNL A   1      45.328  23.318  35.734  1.00  0.00    -0.237 OA
ATOM     71  O   UNL A   1      46.943  24.329  37.276  1.00  0.00    -0.744 OA
ENDBRANCH  65  68
ENDBRANCH  38  61
ENDBRANCH  12  13
ENDBRANCH   5   7
ENDBRANCH   2   3
ENDBRANCH   1   2
BRANCH   1  72
ATOM     72  C   UNL A   1      31.135  27.788  24.553  1.00  0.00     0.023 C 
BRANCH  72  73
ATOM     73  C   UNL A   1      30.529  27.130  23.319  1.00  0.00     0.116 C 
BRANCH  73  74
ATOM     74  N   UNL A   1      30.225  25.735  23.548  1.00  0.00    -0.356 N 
ATOM     75  C   UNL A   1      30.976  24.647  23.823  1.00  0.00     0.223 C 
ATOM     76  H   UNL A   1      29.263  25.536  23.492  1.00  0.00     0.163 HD
ATOM     77  O   UNL A   1      30.363  23.579  23.955  1.00  0.00    -0.275 OA
BRANCH  75  78
ATOM     78  C   UNL A   1      32.493  24.639  23.981  1.00  0.00     0.091 C 
ATOM     79  C   UNL A   1      33.334  23.642  23.195  1.00  0.00     0.014 C 
ATOM     80  C   UNL A   1      32.965  24.786  25.445  1.00  0.00     0.091 C 
ATOM     81  C   UNL A   1      34.775  24.131  23.117  1.00  0.00     0.001 C 
ATOM     82  C   UNL A   1      34.474  25.065  25.495  1.00  0.00     0.014 C 
ATOM     83  C   UNL A   1      35.362  24.292  24.510  1.00  0.00     0.001 C 
BRANCH  80  84
ATOM     84  C   UNL A   1      32.266  23.804  26.414  1.00  0.00     0.228 C 
ATOM     85  O   UNL A   1      31.529  24.267  27.296  1.00  0.00    -0.274 OA
ATOM     86  N   UNL A   1      32.208  22.454  26.275  1.00  0.00    -0.326 N 
ATOM     87  H   UNL A   1      31.380  22.062  26.633  1.00  0.00     0.169 HD
BRANCH  86  88
ATOM     88  C   UNL A   1      33.074  21.509  25.735  1.00  0.00     0.042 A 
ATOM     89  C   UNL A   1      32.515  20.377  25.140  1.00  0.00     0.039 A 
ATOM     90  C   UNL A   1      34.454  21.614  25.849  1.00  0.00     0.039 A 
ATOM     91  C   UNL A   1      33.331  19.432  24.498  1.00  0.00     0.058 A 
ATOM     92  C   UNL A   1      35.297  20.698  25.200  1.00  0.00     0.058 A 
ATOM     93  C   UNL A   1      34.724  19.611  24.521  1.00  0.00     0.026 A 
BRANCH  91  94
ATOM     94  C   UNL A   1      32.702  18.265  23.775  1.00  0.00     0.416 C 
ATOM     95  F   UNL A   1      33.626  17.457  23.192  1.00  0.00    -0.166 F 
ATOM     96  F   UNL A   1      31.975  17.472  24.610  1.00  0.00    -0.166 F 
ATOM     97  F   UNL A   1      31.850  18.645  22.784  1.00  0.00    -0.166 F 
ENDBRANCH  91  94
BRANCH  92  98
ATOM     98  C   UNL A   1      36.787  20.937  25.138  1.00  0.00     0.416 C 
ATOM     99  F   UNL A   1      37.240  21.729  26.147  1.00  0.00    -0.166 F 
ATOM    100  F   UNL A   1      37.490  19.773  25.230  1.00  0.00    -0.166 F 
ATOM    101  F   UNL A   1      37.198  21.525  23.981  1.00  0.00    -0.166 F 
ENDBRANCH  92  98
ENDBRANCH  86  88
ENDBRANCH  80  84
ENDBRANCH  75  78
ENDBRANCH  73  74
ENDBRANCH  72  73
ENDBRANCH   1  72
TORSDOF 18
ENDMDL
