MODEL 1
REMARK VINA RESULT:     -11.4      0.000      0.000
REMARK SMILES Cc1nc(CSCC(=O)N2CCCC[C@@H]2C(=O)NCCCCNC(=O)c2ccc(-c3c4nc(c(-c5cccc(S(=O)(=O)[O-])c5F)c5ccc([nH]5)c(-c5cccc(S(=O)(=O)[O-])c5F)c5nc(c(-c6cccc(S(=O)(=O)[O-])c6F)c6ccc3[nH]6)C=C5)C=C4)cc2)cs1
REMARK SMILES IDX 19 1 18 2 16 3 17 4 15 6 10 7 11 8 12 9 14 10 13 11 8 12
REMARK SMILES IDX 9 13 7 14 6 15 5 16 4 17 1 18 2 19 3 20 90 21 89 22 20 23
REMARK SMILES IDX 21 24 22 25 23 26 24 27 25 29 26 30 27 31 88 32 28 33 87 34
REMARK SMILES IDX 29 35 30 36 31 37 81 38 32 39 86 40 80 41 82 42 33 43 85 44
REMARK SMILES IDX 79 45 78 46 34 48 66 49 46 50 65 51 47 52 50 53 64 54 83 55
REMARK SMILES IDX 48 56 49 57 63 59 84 60 51 61 35 62 36 63 44 64 37 65 39 66
REMARK SMILES IDX 45 67 38 68 40 69 41 70 42 71 43 72 67 73 68 74 76 75 69 76
REMARK SMILES IDX 71 77 77 78 70 79 72 80 73 81 74 82 75 83 52 84 53 85 61 86
REMARK SMILES IDX 54 87 56 88 62 89 55 90 57 91 58 92 59 93 60 94
REMARK H PARENT 18 5 23 28 82 47 50 58
REMARK Flexibility Score: inf
ROOT
ATOM      1  C   UNL A   1      32.563  26.995  26.612  1.00  0.00     0.116 C 
ENDROOT
BRANCH   1   2
ATOM      2  N   UNL A   1      32.055  25.634  26.699  1.00  0.00    -0.354 N 
ATOM      3  C   UNL A   1      32.254  24.570  25.867  1.00  0.00     0.242 C 
ATOM      4  O   UNL A   1      31.631  23.532  26.117  1.00  0.00    -0.273 OA
ATOM      5  H   UNL A   1      31.479  25.452  27.477  1.00  0.00     0.163 HD
BRANCH   3   6
ATOM      6  C   UNL A   1      33.028  24.715  24.538  1.00  0.00     0.174 C 
ATOM      7  N   UNL A   1      32.204  24.877  23.320  1.00  0.00    -0.330 N 
ATOM      8  C   UNL A   1      32.834  24.499  22.056  1.00  0.00     0.120 C 
ATOM      9  C   UNL A   1      33.419  23.101  22.082  1.00  0.00     0.022 C 
ATOM     10  C   UNL A   1      33.875  23.406  24.521  1.00  0.00     0.035 C 
ATOM     11  C   UNL A   1      34.463  23.005  23.180  1.00  0.00     0.004 C 
BRANCH   7  12
ATOM     12  C   UNL A   1      31.111  25.729  23.170  1.00  0.00     0.233 C 
ATOM     13  O   UNL A   1      29.990  25.298  23.474  1.00  0.00    -0.274 OA
BRANCH  12  14
ATOM     14  C   UNL A   1      31.198  27.030  22.379  1.00  0.00     0.170 C 
BRANCH  14  15
ATOM     15  S   UNL A   1      30.829  28.601  23.180  1.00  0.00    -0.146 SA
BRANCH  15  16
ATOM     16  C   UNL A   1      29.084  28.840  22.760  1.00  0.00     0.127 C 
BRANCH  16  17
ATOM     17  C   UNL A   1      28.680  30.207  22.337  1.00  0.00     0.061 A 
ATOM     18  C   UNL A   1      28.996  33.743  23.197  1.00  0.00     0.079 C 
ATOM     19  C   UNL A   1      28.730  32.411  22.592  1.00  0.00     0.090 A 
ATOM     20  N   UNL A   1      29.009  31.266  23.175  1.00  0.00    -0.246 NA
ATOM     21  S   UNL A   1      28.039  32.291  21.025  1.00  0.00    -0.127 S 
ATOM     22  C   UNL A   1      28.143  30.584  21.120  1.00  0.00     0.091 A 
ENDBRANCH  16  17
ENDBRANCH  15  16
ENDBRANCH  14  15
ENDBRANCH  12  14
ENDBRANCH   7  12
ENDBRANCH   3   6
ENDBRANCH   1   2
BRANCH   1  23
ATOM     23  C   UNL A   1      31.663  27.970  27.364  1.00  0.00     0.023 C 
BRANCH  23  24
ATOM     24  C   UNL A   1      31.651  29.382  26.777  1.00  0.00     0.023 C 
BRANCH  24  25
ATOM     25  C   UNL A   1      33.032  30.007  26.596  1.00  0.00     0.116 C 
BRANCH  25  26
ATOM     26  N   UNL A   1      33.019  31.439  26.868  1.00  0.00    -0.352 N 
ATOM     27  C   UNL A   1      33.841  32.187  27.675  1.00  0.00     0.251 C 
ATOM     28  H   UNL A   1      32.317  31.947  26.402  1.00  0.00     0.163 HD
ATOM     29  O   UNL A   1      33.535  33.342  27.954  1.00  0.00    -0.269 OA
BRANCH  27  30
ATOM     30  C   UNL A   1      35.089  31.601  28.215  1.00  0.00     0.039 A 
ATOM     31  C   UNL A   1      36.258  32.367  28.221  1.00  0.00     0.014 A 
ATOM     32  C   UNL A   1      35.114  30.290  28.696  1.00  0.00     0.014 A 
ATOM     33  C   UNL A   1      37.431  31.836  28.762  1.00  0.00     0.010 A 
ATOM     34  C   UNL A   1      36.258  29.793  29.311  1.00  0.00     0.010 A 
ATOM     35  C   UNL A   1      37.434  30.555  29.342  1.00  0.00    -0.014 A 
BRANCH  35  36
ATOM     36  C   UNL A   1      38.651  30.006  29.993  1.00  0.00     0.031 A 
ATOM     37  C   UNL A   1      39.090  30.511  31.343  1.00  0.00     0.074 A 
ATOM     38  C   UNL A   1      39.403  29.100  29.335  1.00  0.00     0.049 A 
ATOM     39  N   UNL A   1      40.136  30.169  32.050  1.00  0.00    -0.248 NA
ATOM     40  C   UNL A   1      38.260  31.553  31.971  1.00  0.00     0.031 C 
ATOM     41  C   UNL A   1      39.132  28.594  27.986  1.00  0.00     0.029 A 
ATOM     42  N   UNL A   1      40.562  28.460  29.700  1.00  0.00    -0.354 N 
ATOM     43  C   UNL A   1      40.103  30.964  33.191  1.00  0.00     0.074 A 
ATOM     44  C   UNL A   1      38.959  31.839  33.061  1.00  0.00     0.031 C 
ATOM     45  C   UNL A   1      40.087  27.715  27.645  1.00  0.00     0.029 A 
ATOM     46  C   UNL A   1      41.054  27.614  28.733  1.00  0.00     0.049 A 
ATOM     47  H   UNL A   1      40.999  28.595  30.572  1.00  0.00     0.167 HD
ATOM     48  C   UNL A   1      40.928  30.945  34.264  1.00  0.00     0.034 A 
ATOM     49  C   UNL A   1      42.161  26.846  28.724  1.00  0.00     0.034 A 
ATOM     50  C   UNL A   1      42.045  30.051  34.404  1.00  0.00     0.049 A 
ATOM     51  C   UNL A   1      43.042  26.823  29.944  1.00  0.00     0.074 A 
ATOM     52  C   UNL A   1      42.904  29.909  35.481  1.00  0.00     0.029 A 
ATOM     53  N   UNL A   1      42.462  29.147  33.440  1.00  0.00    -0.354 N 
ATOM     54  N   UNL A   1      42.908  27.477  31.072  1.00  0.00    -0.248 NA
ATOM     55  C   UNL A   1      44.203  25.922  29.908  1.00  0.00     0.031 C 
ATOM     56  C   UNL A   1      43.853  28.933  35.157  1.00  0.00     0.029 A 
ATOM     57  C   UNL A   1      43.563  28.443  33.895  1.00  0.00     0.049 A 
ATOM     58  H   UNL A   1      42.036  29.024  32.561  1.00  0.00     0.167 HD
ATOM     59  C   UNL A   1      43.933  27.028  31.897  1.00  0.00     0.074 A 
ATOM     60  C   UNL A   1      44.669  26.034  31.143  1.00  0.00     0.031 C 
ATOM     61  C   UNL A   1      44.244  27.409  33.159  1.00  0.00     0.034 A 
BRANCH  48  62
ATOM     62  C   UNL A   1      40.617  31.877  35.408  1.00  0.00     0.023 A 
ATOM     63  C   UNL A   1      41.421  33.017  35.612  1.00  0.00     0.012 A 
ATOM     64  C   UNL A   1      39.489  31.673  36.228  1.00  0.00     0.148 A 
ATOM     65  C   UNL A   1      41.129  33.923  36.631  1.00  0.00     0.002 A 
ATOM     66  C   UNL A   1      39.177  32.605  37.212  1.00  0.00     0.091 A 
ATOM     67  F   UNL A   1      38.745  30.576  36.031  1.00  0.00    -0.205 F 
ATOM     68  C   UNL A   1      40.002  33.723  37.422  1.00  0.00     0.022 A 
BRANCH  66  69
ATOM     69  S   UNL A   1      37.704  32.486  38.232  1.00  0.00     0.127 S 
ATOM     70  O   UNL A   1      37.969  33.500  39.253  1.00  0.00    -0.237 OA
ATOM     71  O   UNL A   1      36.645  32.837  37.285  1.00  0.00    -0.237 OA
ATOM     72  O   UNL A   1      37.658  31.114  38.718  1.00  0.00    -0.744 OA
ENDBRANCH  66  69
ENDBRANCH  48  62
BRANCH  49  73
ATOM     73  C   UNL A   1      42.467  25.977  27.551  1.00  0.00     0.023 A 
ATOM     74  C   UNL A   1      43.153  26.522  26.447  1.00  0.00     0.012 A 
ATOM     75  C   UNL A   1      42.083  24.624  27.519  1.00  0.00     0.148 A 
ATOM     76  C   UNL A   1      43.405  25.749  25.312  1.00  0.00     0.002 A 
ATOM     77  C   UNL A   1      42.389  23.843  26.410  1.00  0.00     0.091 A 
ATOM     78  F   UNL A   1      41.423  24.125  28.574  1.00  0.00    -0.205 F 
ATOM     79  C   UNL A   1      43.030  24.408  25.297  1.00  0.00     0.022 A 
BRANCH  77  80
ATOM     80  S   UNL A   1      42.058  22.078  26.358  1.00  0.00     0.127 S 
ATOM     81  O   UNL A   1      42.589  21.638  27.645  1.00  0.00    -0.237 OA
ATOM     82  O   UNL A   1      40.600  22.046  26.248  1.00  0.00    -0.237 OA
ATOM     83  O   UNL A   1      42.757  21.585  25.180  1.00  0.00    -0.744 OA
ENDBRANCH  77  80
ENDBRANCH  49  73
BRANCH  61  84
ATOM     84  C   UNL A   1      45.387  26.704  33.841  1.00  0.00     0.023 A 
ATOM     85  C   UNL A   1      46.701  27.202  33.723  1.00  0.00     0.012 A 
ATOM     86  C   UNL A   1      45.147  25.577  34.652  1.00  0.00     0.148 A 
ATOM     87  C   UNL A   1      47.760  26.564  34.365  1.00  0.00     0.002 A 
ATOM     88  C   UNL A   1      46.199  24.979  35.333  1.00  0.00     0.091 A 
ATOM     89  F   UNL A   1      43.893  25.107  34.738  1.00  0.00    -0.205 F 
ATOM     90  C   UNL A   1      47.509  25.462  35.179  1.00  0.00     0.022 A 
BRANCH  88  91
ATOM     91  S   UNL A   1      45.952  23.620  36.481  1.00  0.00     0.127 S 
ATOM     92  O   UNL A   1      47.310  23.395  36.972  1.00  0.00    -0.237 OA
ATOM     93  O   UNL A   1      45.038  24.206  37.463  1.00  0.00    -0.237 OA
ATOM     94  O   UNL A   1      45.381  22.532  35.699  1.00  0.00    -0.744 OA
ENDBRANCH  88  91
ENDBRANCH  61  84
ENDBRANCH  35  36
ENDBRANCH  27  30
ENDBRANCH  25  26
ENDBRANCH  24  25
ENDBRANCH  23  24
ENDBRANCH   1  23
TORSDOF 19
ENDMDL
MODEL 2
REMARK VINA RESULT:     -10.7      2.261      2.753
REMARK SMILES Cc1nc(CSCC(=O)N2CCCC[C@@H]2C(=O)NCCCCNC(=O)c2ccc(-c3c4nc(c(-c5cccc(S(=O)(=O)[O-])c5F)c5ccc([nH]5)c(-c5cccc(S(=O)(=O)[O-])c5F)c5nc(c(-c6cccc(S(=O)(=O)[O-])c6F)c6ccc3[nH]6)C=C5)C=C4)cc2)cs1
REMARK SMILES IDX 19 1 18 2 16 3 17 4 15 6 10 7 11 8 12 9 14 10 13 11 8 12
REMARK SMILES IDX 9 13 7 14 6 15 5 16 4 17 1 18 2 19 3 20 90 21 89 22 20 23
REMARK SMILES IDX 21 24 22 25 23 26 24 27 25 29 26 30 27 31 88 32 28 33 87 34
REMARK SMILES IDX 29 35 30 36 31 37 81 38 32 39 86 40 80 41 82 42 33 43 85 44
REMARK SMILES IDX 79 45 78 46 34 48 66 49 46 50 65 51 47 52 50 53 64 54 83 55
REMARK SMILES IDX 48 56 49 57 63 59 84 60 51 61 35 62 36 63 44 64 37 65 39 66
REMARK SMILES IDX 45 67 38 68 40 69 41 70 42 71 43 72 67 73 68 74 76 75 69 76
REMARK SMILES IDX 71 77 77 78 70 79 72 80 73 81 74 82 75 83 52 84 53 85 61 86
REMARK SMILES IDX 54 87 56 88 62 89 55 90 57 91 58 92 59 93 60 94
REMARK H PARENT 18 5 23 28 82 47 50 58
REMARK Flexibility Score: inf
ROOT
ATOM      1  C   UNL A   1      34.007  26.336  24.864  1.00  0.00     0.116 C 
ENDROOT
BRANCH   1   2
ATOM      2  N   UNL A   1      33.803  26.516  23.434  1.00  0.00    -0.354 N 
ATOM      3  C   UNL A   1      33.438  25.610  22.480  1.00  0.00     0.242 C 
ATOM      4  O   UNL A   1      33.421  26.000  21.308  1.00  0.00    -0.273 OA
ATOM      5  H   UNL A   1      33.952  27.432  23.104  1.00  0.00     0.163 HD
BRANCH   3   6
ATOM      6  C   UNL A   1      33.287  24.108  22.807  1.00  0.00     0.174 C 
ATOM      7  N   UNL A   1      32.211  23.755  23.759  1.00  0.00    -0.330 N 
ATOM      8  C   UNL A   1      32.366  22.489  24.473  1.00  0.00     0.120 C 
ATOM      9  C   UNL A   1      33.708  22.361  25.165  1.00  0.00     0.022 C 
ATOM     10  C   UNL A   1      34.707  23.758  23.348  1.00  0.00     0.035 C 
ATOM     11  C   UNL A   1      34.824  22.468  24.141  1.00  0.00     0.004 C 
BRANCH   7  12
ATOM     12  C   UNL A   1      30.901  24.231  23.738  1.00  0.00     0.233 C 
ATOM     13  O   UNL A   1      30.122  23.756  22.899  1.00  0.00    -0.274 OA
BRANCH  12  14
ATOM     14  C   UNL A   1      30.485  25.497  24.480  1.00  0.00     0.170 C 
BRANCH  14  15
ATOM     15  S   UNL A   1      29.242  26.592  23.771  1.00  0.00    -0.146 SA
BRANCH  15  16
ATOM     16  C   UNL A   1      30.256  27.745  22.811  1.00  0.00     0.127 C 
BRANCH  16  17
ATOM     17  C   UNL A   1      29.791  29.156  22.754  1.00  0.00     0.061 A 
ATOM     18  C   UNL A   1      28.049  31.575  20.642  1.00  0.00     0.079 C 
ATOM     19  C   UNL A   1      28.743  30.813  21.715  1.00  0.00     0.090 A 
ATOM     20  N   UNL A   1      29.249  29.610  21.558  1.00  0.00    -0.246 NA
ATOM     21  S   UNL A   1      28.906  31.482  23.288  1.00  0.00    -0.127 S 
ATOM     22  C   UNL A   1      29.687  30.047  23.806  1.00  0.00     0.091 A 
ENDBRANCH  16  17
ENDBRANCH  15  16
ENDBRANCH  14  15
ENDBRANCH  12  14
ENDBRANCH   7  12
ENDBRANCH   3   6
ENDBRANCH   1   2
BRANCH   1  23
ATOM     23  C   UNL A   1      32.957  27.091  25.672  1.00  0.00     0.023 C 
BRANCH  23  24
ATOM     24  C   UNL A   1      33.543  28.017  26.739  1.00  0.00     0.023 C 
BRANCH  24  25
ATOM     25  C   UNL A   1      34.389  29.164  26.191  1.00  0.00     0.116 C 
BRANCH  25  26
ATOM     26  N   UNL A   1      34.039  30.438  26.805  1.00  0.00    -0.352 N 
ATOM     27  C   UNL A   1      34.584  31.065  27.899  1.00  0.00     0.251 C 
ATOM     28  H   UNL A   1      33.302  30.923  26.370  1.00  0.00     0.163 HD
ATOM     29  O   UNL A   1      34.008  32.025  28.402  1.00  0.00    -0.269 OA
BRANCH  27  30
ATOM     30  C   UNL A   1      35.858  30.581  28.477  1.00  0.00     0.039 A 
ATOM     31  C   UNL A   1      35.827  29.668  29.534  1.00  0.00     0.014 A 
ATOM     32  C   UNL A   1      37.084  31.043  27.993  1.00  0.00     0.014 A 
ATOM     33  C   UNL A   1      37.024  29.176  30.061  1.00  0.00     0.010 A 
ATOM     34  C   UNL A   1      38.273  30.491  28.460  1.00  0.00     0.010 A 
ATOM     35  C   UNL A   1      38.257  29.560  29.507  1.00  0.00    -0.014 A 
BRANCH  35  36
ATOM     36  C   UNL A   1      39.536  28.988  30.002  1.00  0.00     0.031 A 
ATOM     37  C   UNL A   1      40.215  29.571  31.214  1.00  0.00     0.074 A 
ATOM     38  C   UNL A   1      40.124  27.987  29.316  1.00  0.00     0.049 A 
ATOM     39  N   UNL A   1      41.345  29.222  31.774  1.00  0.00    -0.248 NA
ATOM     40  C   UNL A   1      39.552  30.711  31.871  1.00  0.00     0.031 C 
ATOM     41  C   UNL A   1      39.610  27.392  28.079  1.00  0.00     0.029 A 
ATOM     42  N   UNL A   1      41.294  27.306  29.548  1.00  0.00    -0.354 N 
ATOM     43  C   UNL A   1      41.540  30.106  32.829  1.00  0.00     0.074 A 
ATOM     44  C   UNL A   1      40.434  31.039  32.805  1.00  0.00     0.031 C 
ATOM     45  C   UNL A   1      40.452  26.429  27.670  1.00  0.00     0.029 A 
ATOM     46  C   UNL A   1      41.578  26.355  28.594  1.00  0.00     0.049 A 
ATOM     47  H   UNL A   1      41.874  27.482  30.323  1.00  0.00     0.167 HD
ATOM     48  C   UNL A   1      42.528  30.121  33.754  1.00  0.00     0.034 A 
ATOM     49  C   UNL A   1      42.629  25.521  28.478  1.00  0.00     0.034 A 
ATOM     50  C   UNL A   1      43.607  29.172  33.794  1.00  0.00     0.049 A 
ATOM     51  C   UNL A   1      43.696  25.539  29.539  1.00  0.00     0.074 A 
ATOM     52  C   UNL A   1      44.623  29.063  34.728  1.00  0.00     0.029 A 
ATOM     53  N   UNL A   1      43.814  28.169  32.861  1.00  0.00    -0.354 N 
ATOM     54  N   UNL A   1      43.782  26.289  30.611  1.00  0.00    -0.248 NA
ATOM     55  C   UNL A   1      44.790  24.567  29.399  1.00  0.00     0.031 C 
ATOM     56  C   UNL A   1      45.456  28.006  34.346  1.00  0.00     0.029 A 
ATOM     57  C   UNL A   1      44.939  27.435  33.196  1.00  0.00     0.049 A 
ATOM     58  H   UNL A   1      43.244  28.003  32.075  1.00  0.00     0.167 HD
ATOM     59  C   UNL A   1      44.905  25.844  31.299  1.00  0.00     0.074 A 
ATOM     60  C   UNL A   1      45.458  24.748  30.529  1.00  0.00     0.031 C 
ATOM     61  C   UNL A   1      45.438  26.305  32.456  1.00  0.00     0.034 A 
BRANCH  48  62
ATOM     62  C   UNL A   1      42.455  31.160  34.845  1.00  0.00     0.023 A 
ATOM     63  C   UNL A   1      41.874  30.823  36.084  1.00  0.00     0.012 A 
ATOM     64  C   UNL A   1      43.029  32.435  34.677  1.00  0.00     0.148 A 
ATOM     65  C   UNL A   1      41.835  31.746  37.129  1.00  0.00     0.002 A 
ATOM     66  C   UNL A   1      43.029  33.335  35.737  1.00  0.00     0.091 A 
ATOM     67  F   UNL A   1      43.563  32.745  33.487  1.00  0.00    -0.205 F 
ATOM     68  C   UNL A   1      42.422  32.997  36.959  1.00  0.00     0.022 A 
BRANCH  66  69
ATOM     69  S   UNL A   1      43.829  34.941  35.652  1.00  0.00     0.127 S 
ATOM     70  O   UNL A   1      45.206  34.568  35.328  1.00  0.00    -0.237 OA
ATOM     71  O   UNL A   1      43.101  35.589  34.560  1.00  0.00    -0.237 OA
ATOM     72  O   UNL A   1      43.643  35.555  36.959  1.00  0.00    -0.744 OA
ENDBRANCH  66  69
ENDBRANCH  48  62
BRANCH  49  73
ATOM     73  C   UNL A   1      42.695  24.543  27.353  1.00  0.00     0.023 A 
ATOM     74  C   UNL A   1      43.329  24.913  26.151  1.00  0.00     0.012 A 
ATOM     75  C   UNL A   1      42.134  23.257  27.465  1.00  0.00     0.148 A 
ATOM     76  C   UNL A   1      43.359  24.040  25.063  1.00  0.00     0.002 A 
ATOM     77  C   UNL A   1      42.218  22.370  26.397  1.00  0.00     0.091 A 
ATOM     78  F   UNL A   1      41.527  22.925  28.613  1.00  0.00    -0.205 F 
ATOM     79  C   UNL A   1      42.810  22.766  25.188  1.00  0.00     0.022 A 
BRANCH  77  80
ATOM     80  S   UNL A   1      41.654  20.669  26.516  1.00  0.00     0.127 S 
ATOM     81  O   UNL A   1      42.359  20.042  25.402  1.00  0.00    -0.237 OA
ATOM     82  O   UNL A   1      42.130  20.284  27.844  1.00  0.00    -0.237 OA
ATOM     83  O   UNL A   1      40.203  20.730  26.396  1.00  0.00    -0.744 OA
ENDBRANCH  77  80
ENDBRANCH  49  73
BRANCH  61  84
ATOM     84  C   UNL A   1      46.641  25.586  33.007  1.00  0.00     0.023 A 
ATOM     85  C   UNL A   1      47.941  26.029  32.689  1.00  0.00     0.012 A 
ATOM     86  C   UNL A   1      46.479  24.503  33.894  1.00  0.00     0.148 A 
ATOM     87  C   UNL A   1      49.058  25.378  33.210  1.00  0.00     0.002 A 
ATOM     88  C   UNL A   1      47.596  23.894  34.451  1.00  0.00     0.091 A 
ATOM     89  F   UNL A   1      45.235  24.084  34.170  1.00  0.00    -0.205 F 
ATOM     90  C   UNL A   1      48.887  24.320  34.099  1.00  0.00     0.022 A 
BRANCH  88  91
ATOM     91  S   UNL A   1      47.466  22.593  35.683  1.00  0.00     0.127 S 
ATOM     92  O   UNL A   1      48.534  22.957  36.613  1.00  0.00    -0.237 OA
ATOM     93  O   UNL A   1      46.112  22.790  36.201  1.00  0.00    -0.237 OA
ATOM     94  O   UNL A   1      47.662  21.340  34.966  1.00  0.00    -0.744 OA
ENDBRANCH  88  91
ENDBRANCH  61  84
ENDBRANCH  35  36
ENDBRANCH  27  30
ENDBRANCH  25  26
ENDBRANCH  24  25
ENDBRANCH  23  24
ENDBRANCH   1  23
TORSDOF 19
ENDMDL
MODEL 3
REMARK VINA RESULT:      -9.9      2.529      4.306
REMARK SMILES Cc1nc(CSCC(=O)N2CCCC[C@@H]2C(=O)NCCCCNC(=O)c2ccc(-c3c4nc(c(-c5cccc(S(=O)(=O)[O-])c5F)c5ccc([nH]5)c(-c5cccc(S(=O)(=O)[O-])c5F)c5nc(c(-c6cccc(S(=O)(=O)[O-])c6F)c6ccc3[nH]6)C=C5)C=C4)cc2)cs1
REMARK SMILES IDX 19 1 18 2 16 3 17 4 15 6 10 7 11 8 12 9 14 10 13 11 8 12
REMARK SMILES IDX 9 13 7 14 6 15 5 16 4 17 1 18 2 19 3 20 90 21 89 22 20 23
REMARK SMILES IDX 21 24 22 25 23 26 24 27 25 29 26 30 27 31 88 32 28 33 87 34
REMARK SMILES IDX 29 35 30 36 31 37 81 38 32 39 86 40 80 41 82 42 33 43 85 44
REMARK SMILES IDX 79 45 78 46 34 48 66 49 46 50 65 51 47 52 50 53 64 54 83 55
REMARK SMILES IDX 48 56 49 57 63 59 84 60 51 61 35 62 36 63 44 64 37 65 39 66
REMARK SMILES IDX 45 67 38 68 40 69 41 70 42 71 43 72 67 73 68 74 76 75 69 76
REMARK SMILES IDX 71 77 77 78 70 79 72 80 73 81 74 82 75 83 52 84 53 85 61 86
REMARK SMILES IDX 54 87 56 88 62 89 55 90 57 91 58 92 59 93 60 94
REMARK H PARENT 18 5 23 28 82 47 50 58
REMARK Flexibility Score: inf
ROOT
ATOM      1  C   UNL A   1      31.766  27.728  26.326  1.00  0.00     0.116 C 
ENDROOT
BRANCH   1   2
ATOM      2  N   UNL A   1      30.959  26.581  26.718  1.00  0.00    -0.354 N 
ATOM      3  C   UNL A   1      30.367  25.622  25.947  1.00  0.00     0.242 C 
ATOM      4  O   UNL A   1      29.654  24.795  26.524  1.00  0.00    -0.273 OA
ATOM      5  H   UNL A   1      30.820  26.481  27.687  1.00  0.00     0.163 HD
BRANCH   3   6
ATOM      6  C   UNL A   1      30.384  25.700  24.405  1.00  0.00     0.174 C 
ATOM      7  N   UNL A   1      31.718  25.676  23.767  1.00  0.00    -0.330 N 
ATOM      8  C   UNL A   1      31.809  26.256  22.428  1.00  0.00     0.120 C 
ATOM      9  C   UNL A   1      31.245  27.660  22.354  1.00  0.00     0.022 C 
ATOM     10  C   UNL A   1      29.620  27.035  24.147  1.00  0.00     0.035 C 
ATOM     11  C   UNL A   1      29.785  27.647  22.767  1.00  0.00     0.004 C 
BRANCH   7  12
ATOM     12  C   UNL A   1      32.764  24.805  24.074  1.00  0.00     0.233 C 
ATOM     13  O   UNL A   1      33.819  24.914  23.435  1.00  0.00    -0.274 OA
BRANCH  12  14
ATOM     14  C   UNL A   1      32.557  23.559  24.929  1.00  0.00     0.170 C 
BRANCH  14  15
ATOM     15  S   UNL A   1      32.543  21.930  24.160  1.00  0.00    -0.146 SA
BRANCH  15  16
ATOM     16  C   UNL A   1      33.613  20.978  25.269  1.00  0.00     0.127 C 
BRANCH  16  17
ATOM     17  C   UNL A   1      35.073  21.245  25.182  1.00  0.00     0.061 A 
ATOM     18  C   UNL A   1      37.620  23.785  25.819  1.00  0.00     0.079 C 
ATOM     19  C   UNL A   1      36.825  22.568  25.502  1.00  0.00     0.090 A 
ATOM     20  N   UNL A   1      35.511  22.533  25.466  1.00  0.00    -0.246 NA
ATOM     21  S   UNL A   1      37.612  21.077  25.177  1.00  0.00    -0.127 S 
ATOM     22  C   UNL A   1      36.085  20.321  25.000  1.00  0.00     0.091 A 
ENDBRANCH  16  17
ENDBRANCH  15  16
ENDBRANCH  14  15
ENDBRANCH  12  14
ENDBRANCH   7  12
ENDBRANCH   3   6
ENDBRANCH   1   2
BRANCH   1  23
ATOM     23  C   UNL A   1      31.746  28.811  27.400  1.00  0.00     0.023 C 
BRANCH  23  24
ATOM     24  C   UNL A   1      31.822  30.235  26.847  1.00  0.00     0.023 C 
BRANCH  24  25
ATOM     25  C   UNL A   1      33.195  30.891  26.967  1.00  0.00     0.116 C 
BRANCH  25  26
ATOM     26  N   UNL A   1      33.092  32.320  27.229  1.00  0.00    -0.352 N 
ATOM     27  C   UNL A   1      33.817  33.111  28.089  1.00  0.00     0.251 C 
ATOM     28  H   UNL A   1      32.401  32.792  26.711  1.00  0.00     0.163 HD
ATOM     29  O   UNL A   1      33.435  34.250  28.338  1.00  0.00    -0.269 OA
BRANCH  27  30
ATOM     30  C   UNL A   1      35.049  32.589  28.720  1.00  0.00     0.039 A 
ATOM     31  C   UNL A   1      34.946  31.651  29.750  1.00  0.00     0.014 A 
ATOM     32  C   UNL A   1      36.308  33.038  28.312  1.00  0.00     0.014 A 
ATOM     33  C   UNL A   1      36.105  31.124  30.327  1.00  0.00     0.010 A 
ATOM     34  C   UNL A   1      37.460  32.453  28.827  1.00  0.00     0.010 A 
ATOM     35  C   UNL A   1      37.373  31.496  29.848  1.00  0.00    -0.014 A 
BRANCH  35  36
ATOM     36  C   UNL A   1      38.613  30.888  30.394  1.00  0.00     0.031 A 
ATOM     37  C   UNL A   1      39.209  31.395  31.682  1.00  0.00     0.074 A 
ATOM     38  C   UNL A   1      39.245  29.925  29.692  1.00  0.00     0.049 A 
ATOM     39  N   UNL A   1      40.297  31.006  32.296  1.00  0.00    -0.248 NA
ATOM     40  C   UNL A   1      38.505  32.499  32.358  1.00  0.00     0.031 C 
ATOM     41  C   UNL A   1      38.815  29.408  28.390  1.00  0.00     0.029 A 
ATOM     42  N   UNL A   1      40.394  29.225  29.963  1.00  0.00    -0.354 N 
ATOM     43  C   UNL A   1      40.421  31.826  33.412  1.00  0.00     0.074 A 
ATOM     44  C   UNL A   1      39.322  32.766  33.368  1.00  0.00     0.031 C 
ATOM     45  C   UNL A   1      39.680  28.465  27.984  1.00  0.00     0.029 A 
ATOM     46  C   UNL A   1      40.740  28.330  28.976  1.00  0.00     0.049 A 
ATOM     47  H   UNL A   1      40.920  29.351  30.785  1.00  0.00     0.167 HD
ATOM     48  C   UNL A   1      41.344  31.781  34.402  1.00  0.00     0.034 A 
ATOM     49  C   UNL A   1      41.795  27.497  28.883  1.00  0.00     0.034 A 
ATOM     50  C   UNL A   1      42.415  30.824  34.459  1.00  0.00     0.049 A 
ATOM     51  C   UNL A   1      42.787  27.447  30.014  1.00  0.00     0.074 A 
ATOM     52  C   UNL A   1      43.365  30.654  35.453  1.00  0.00     0.029 A 
ATOM     53  N   UNL A   1      42.683  29.876  33.485  1.00  0.00    -0.354 N 
ATOM     54  N   UNL A   1      42.801  28.132  31.132  1.00  0.00    -0.248 NA
ATOM     55  C   UNL A   1      43.885  26.477  29.892  1.00  0.00     0.031 C 
ATOM     56  C   UNL A   1      44.219  29.616  35.067  1.00  0.00     0.029 A 
ATOM     57  C   UNL A   1      43.781  29.117  33.852  1.00  0.00     0.049 A 
ATOM     58  H   UNL A   1      42.168  29.760  32.654  1.00  0.00     0.167 HD
ATOM     59  C   UNL A   1      43.873  27.639  31.867  1.00  0.00     0.074 A 
ATOM     60  C   UNL A   1      44.475  26.588  31.073  1.00  0.00     0.031 C 
ATOM     61  C   UNL A   1      44.326  28.029  33.083  1.00  0.00     0.034 A 
BRANCH  48  62
ATOM     62  C   UNL A   1      41.198  32.754  35.545  1.00  0.00     0.023 A 
ATOM     63  C   UNL A   1      41.993  33.918  35.568  1.00  0.00     0.012 A 
ATOM     64  C   UNL A   1      40.227  32.562  36.547  1.00  0.00     0.148 A 
ATOM     65  C   UNL A   1      41.848  34.861  36.586  1.00  0.00     0.002 A 
ATOM     66  C   UNL A   1      40.055  33.528  37.533  1.00  0.00     0.091 A 
ATOM     67  F   UNL A   1      39.492  31.442  36.519  1.00  0.00    -0.205 F 
ATOM     68  C   UNL A   1      40.872  34.671  37.560  1.00  0.00     0.022 A 
BRANCH  66  69
ATOM     69  S   UNL A   1      38.774  33.422  38.787  1.00  0.00     0.127 S 
ATOM     70  O   UNL A   1      39.261  32.319  39.614  1.00  0.00    -0.237 OA
ATOM     71  O   UNL A   1      38.854  34.739  39.420  1.00  0.00    -0.237 OA
ATOM     72  O   UNL A   1      37.531  33.162  38.074  1.00  0.00    -0.744 OA
ENDBRANCH  66  69
ENDBRANCH  48  62
BRANCH  49  73
ATOM     73  C   UNL A   1      41.936  26.586  27.710  1.00  0.00     0.023 A 
ATOM     74  C   UNL A   1      42.324  27.118  26.464  1.00  0.00     0.012 A 
ATOM     75  C   UNL A   1      41.685  25.206  27.818  1.00  0.00     0.148 A 
ATOM     76  C   UNL A   1      42.411  26.300  25.337  1.00  0.00     0.002 A 
ATOM     77  C   UNL A   1      41.830  24.387  26.704  1.00  0.00     0.091 A 
ATOM     78  F   UNL A   1      41.308  24.719  29.009  1.00  0.00    -0.205 F 
ATOM     79  C   UNL A   1      42.171  24.934  25.458  1.00  0.00     0.022 A 
BRANCH  77  80
ATOM     80  S   UNL A   1      41.667  22.600  26.799  1.00  0.00     0.127 S 
ATOM     81  O   UNL A   1      41.957  22.201  25.425  1.00  0.00    -0.237 OA
ATOM     82  O   UNL A   1      42.701  22.253  27.774  1.00  0.00    -0.237 OA
ATOM     83  O   UNL A   1      40.307  22.356  27.258  1.00  0.00    -0.744 OA
ENDBRANCH  77  80
ENDBRANCH  49  73
BRANCH  61  84
ATOM     84  C   UNL A   1      45.488  27.271  33.672  1.00  0.00     0.023 A 
ATOM     85  C   UNL A   1      45.260  26.149  34.495  1.00  0.00     0.012 A 
ATOM     86  C   UNL A   1      46.811  27.639  33.356  1.00  0.00     0.148 A 
ATOM     87  C   UNL A   1      46.331  25.434  35.028  1.00  0.00     0.002 A 
ATOM     88  C   UNL A   1      47.871  26.889  33.848  1.00  0.00     0.091 A 
ATOM     89  F   UNL A   1      47.007  28.720  32.587  1.00  0.00    -0.205 F 
ATOM     90  C   UNL A   1      47.635  25.795  34.696  1.00  0.00     0.022 A 
BRANCH  88  91
ATOM     91  S   UNL A   1      49.576  27.220  33.388  1.00  0.00     0.127 S 
ATOM     92  O   UNL A   1      49.871  28.413  34.180  1.00  0.00    -0.237 OA
ATOM     93  O   UNL A   1      50.260  26.007  33.836  1.00  0.00    -0.237 OA
ATOM     94  O   UNL A   1      49.573  27.413  31.944  1.00  0.00    -0.744 OA
ENDBRANCH  88  91
ENDBRANCH  61  84
ENDBRANCH  35  36
ENDBRANCH  27  30
ENDBRANCH  25  26
ENDBRANCH  24  25
ENDBRANCH  23  24
ENDBRANCH   1  23
TORSDOF 19
ENDMDL
