MODEL 1
REMARK VINA RESULT:     -11.4      0.000      0.000
REMARK SMILES CCOc1cc(N2CCOCC2)ccc1[C@H]([NH3+])C(=O)NCCCCNC(=O)c1ccc(-c2c3nc(c(-c4cccc(S(=O)(=O)[O-])c4F)c4ccc([nH]4)c(-c4cccc(S(=O)(=O)[O-])c4F)c4nc(c(-c5cccc(S(=O)(=O)[O-])c5F)c5ccc2[nH]5)C=C4)C=C3)cc1
REMARK SMILES IDX 22 1 21 2 20 3 18 4 19 5 16 7 15 8 4 9 5 10 6 11 14 12 13 13
REMARK SMILES IDX 3 14 2 15 1 16 7 17 8 18 12 19 9 20 11 21 10 22 17 23 23 27
REMARK SMILES IDX 24 28 25 29 26 30 27 32 28 33 29 34 90 35 30 36 89 37 31 38
REMARK SMILES IDX 32 39 33 40 83 41 34 42 88 43 82 44 84 45 35 46 87 47 81 48
REMARK SMILES IDX 80 49 36 51 68 52 48 53 67 54 49 55 52 56 66 57 85 58 50 59
REMARK SMILES IDX 51 60 65 62 86 63 53 64 37 65 38 66 46 67 39 68 41 69 47 70
REMARK SMILES IDX 40 71 42 72 43 73 44 74 45 75 69 76 70 77 78 78 71 79 73 80
REMARK SMILES IDX 79 81 72 82 74 83 75 84 76 85 77 86 54 87 55 88 63 89 56 90
REMARK SMILES IDX 58 91 64 92 57 93 59 94 60 95 61 96 62 97
REMARK H PARENT 20 6 17 24 17 25 17 26 25 31 84 50 52 61
REMARK Flexibility Score: inf
ROOT
ATOM      1  C   UNL A   1      32.169  27.195  25.623  1.00  0.00     0.023 C 
ENDROOT
BRANCH   1   2
ATOM      2  C   UNL A   1      30.936  26.315  25.434  1.00  0.00     0.116 C 
BRANCH   2   3
ATOM      3  N   UNL A   1      30.916  25.234  26.406  1.00  0.00    -0.351 N 
ATOM      4  C   UNL A   1      31.789  24.213  26.637  1.00  0.00     0.283 C 
ATOM      5  O   UNL A   1      31.515  23.456  27.578  1.00  0.00    -0.268 OA
ATOM      6  H   UNL A   1      30.133  25.240  27.002  1.00  0.00     0.163 HD
BRANCH   4   7
ATOM      7  C   UNL A   1      32.962  23.867  25.700  1.00  0.00     0.306 C 
BRANCH   7   8
ATOM      8  C   UNL A   1      33.078  22.478  25.090  1.00  0.00     0.061 A 
ATOM      9  C   UNL A   1      32.657  22.088  23.812  1.00  0.00     0.131 A 
ATOM     10  C   UNL A   1      32.565  20.721  23.484  1.00  0.00     0.072 A 
ATOM     11  C   UNL A   1      32.930  19.728  24.410  1.00  0.00     0.040 A 
ATOM     12  C   UNL A   1      33.657  21.486  25.903  1.00  0.00     0.016 A 
ATOM     13  C   UNL A   1      33.574  20.139  25.574  1.00  0.00     0.027 A 
BRANCH   9  14
ATOM     14  O   UNL A   1      32.064  22.998  22.984  1.00  0.00    -0.493 OA
BRANCH  14  15
ATOM     15  C   UNL A   1      32.912  23.631  22.025  1.00  0.00     0.226 C 
ATOM     16  C   UNL A   1      32.740  25.138  22.182  1.00  0.00     0.049 C 
ENDBRANCH  14  15
ENDBRANCH   9  14
BRANCH  11  17
ATOM     17  N   UNL A   1      32.540  18.412  24.240  1.00  0.00    -0.367 N 
ATOM     18  C   UNL A   1      32.464  17.522  25.414  1.00  0.00     0.145 C 
ATOM     19  C   UNL A   1      32.745  17.716  22.968  1.00  0.00     0.145 C 
ATOM     20  C   UNL A   1      33.651  16.545  25.437  1.00  0.00     0.181 C 
ATOM     21  C   UNL A   1      33.932  16.741  23.097  1.00  0.00     0.181 C 
ATOM     22  O   UNL A   1      33.766  15.826  24.198  1.00  0.00    -0.378 OA
ENDBRANCH  11  17
ENDBRANCH   7   8
BRANCH   7  23
ATOM     23  N   UNL A   1      34.227  24.265  26.389  1.00  0.00    -0.343 N 
ATOM     24  H   UNL A   1      34.132  24.107  27.393  1.00  0.00     0.345 HD
ATOM     25  H   UNL A   1      34.411  25.253  26.217  1.00  0.00     0.345 HD
ATOM     26  H   UNL A   1      35.001  23.707  26.029  1.00  0.00     0.345 HD
ENDBRANCH   7  23
ENDBRANCH   4   7
ENDBRANCH   2   3
ENDBRANCH   1   2
BRANCH   1  27
ATOM     27  C   UNL A   1      32.135  28.050  26.898  1.00  0.00     0.023 C 
BRANCH  27  28
ATOM     28  C   UNL A   1      33.496  28.551  27.385  1.00  0.00     0.116 C 
BRANCH  28  29
ATOM     29  N   UNL A   1      33.564  30.004  27.422  1.00  0.00    -0.352 N 
ATOM     30  C   UNL A   1      34.498  30.838  27.984  1.00  0.00     0.251 C 
ATOM     31  H   UNL A   1      32.819  30.465  26.971  1.00  0.00     0.163 HD
ATOM     32  O   UNL A   1      34.238  32.031  28.119  1.00  0.00    -0.269 OA
BRANCH  30  33
ATOM     33  C   UNL A   1      35.812  30.318  28.427  1.00  0.00     0.039 A 
ATOM     34  C   UNL A   1      36.937  30.555  27.629  1.00  0.00     0.014 A 
ATOM     35  C   UNL A   1      35.932  29.544  29.582  1.00  0.00     0.014 A 
ATOM     36  C   UNL A   1      38.184  30.056  28.016  1.00  0.00     0.010 A 
ATOM     37  C   UNL A   1      37.188  29.114  30.007  1.00  0.00     0.010 A 
ATOM     38  C   UNL A   1      38.325  29.349  29.220  1.00  0.00    -0.014 A 
BRANCH  38  39
ATOM     39  C   UNL A   1      39.649  28.834  29.664  1.00  0.00     0.031 A 
ATOM     40  C   UNL A   1      40.406  29.530  30.764  1.00  0.00     0.074 A 
ATOM     41  C   UNL A   1      40.206  27.783  29.029  1.00  0.00     0.049 A 
ATOM     42  N   UNL A   1      41.593  29.266  31.245  1.00  0.00    -0.248 NA
ATOM     43  C   UNL A   1      39.754  30.693  31.390  1.00  0.00     0.031 C 
ATOM     44  C   UNL A   1      39.610  27.064  27.901  1.00  0.00     0.029 A 
ATOM     45  N   UNL A   1      41.411  27.155  29.223  1.00  0.00    -0.354 N 
ATOM     46  C   UNL A   1      41.846  30.245  32.199  1.00  0.00     0.074 A 
ATOM     47  C   UNL A   1      40.704  31.133  32.203  1.00  0.00     0.031 C 
ATOM     48  C   UNL A   1      40.450  26.097  27.503  1.00  0.00     0.029 A 
ATOM     49  C   UNL A   1      41.656  26.144  28.324  1.00  0.00     0.049 A 
ATOM     50  H   UNL A   1      42.040  27.405  29.938  1.00  0.00     0.167 HD
ATOM     51  C   UNL A   1      42.915  30.382  33.020  1.00  0.00     0.034 A 
ATOM     52  C   UNL A   1      42.735  25.351  28.169  1.00  0.00     0.034 A 
ATOM     53  C   UNL A   1      44.036  29.478  33.039  1.00  0.00     0.049 A 
ATOM     54  C   UNL A   1      43.895  25.496  29.116  1.00  0.00     0.074 A 
ATOM     55  C   UNL A   1      45.133  29.487  33.882  1.00  0.00     0.029 A 
ATOM     56  N   UNL A   1      44.205  28.409  32.173  1.00  0.00    -0.354 N 
ATOM     57  N   UNL A   1      44.052  26.342  30.105  1.00  0.00    -0.248 NA
ATOM     58  C   UNL A   1      45.009  24.551  28.953  1.00  0.00     0.031 C 
ATOM     59  C   UNL A   1      45.980  28.438  33.507  1.00  0.00     0.029 A 
ATOM     60  C   UNL A   1      45.391  27.752  32.458  1.00  0.00     0.049 A 
ATOM     61  H   UNL A   1      43.576  28.154  31.460  1.00  0.00     0.167 HD
ATOM     62  C   UNL A   1      45.257  26.003  30.710  1.00  0.00     0.074 A 
ATOM     63  C   UNL A   1      45.782  24.865  29.983  1.00  0.00     0.031 C 
ATOM     64  C   UNL A   1      45.876  26.586  31.766  1.00  0.00     0.034 A 
BRANCH  51  65
ATOM     65  C   UNL A   1      42.904  31.527  34.000  1.00  0.00     0.023 A 
ATOM     66  C   UNL A   1      43.476  32.763  33.636  1.00  0.00     0.012 A 
ATOM     67  C   UNL A   1      42.285  31.399  35.260  1.00  0.00     0.148 A 
ATOM     68  C   UNL A   1      43.473  33.839  34.522  1.00  0.00     0.002 A 
ATOM     69  C   UNL A   1      42.241  32.492  36.118  1.00  0.00     0.091 A 
ATOM     70  F   UNL A   1      41.761  30.213  35.598  1.00  0.00    -0.205 F 
ATOM     71  C   UNL A   1      42.846  33.706  35.758  1.00  0.00     0.022 A 
BRANCH  69  72
ATOM     72  S   UNL A   1      41.387  32.450  37.698  1.00  0.00     0.127 S 
ATOM     73  O   UNL A   1      42.266  31.586  38.486  1.00  0.00    -0.237 OA
ATOM     74  O   UNL A   1      41.403  33.858  38.094  1.00  0.00    -0.237 OA
ATOM     75  O   UNL A   1      40.062  31.910  37.425  1.00  0.00    -0.744 OA
ENDBRANCH  69  72
ENDBRANCH  51  65
BRANCH  52  76
ATOM     76  C   UNL A   1      42.742  24.306  27.107  1.00  0.00     0.023 A 
ATOM     77  C   UNL A   1      43.411  24.553  25.892  1.00  0.00     0.012 A 
ATOM     78  C   UNL A   1      42.113  23.061  27.304  1.00  0.00     0.148 A 
ATOM     79  C   UNL A   1      43.425  23.593  24.879  1.00  0.00     0.002 A 
ATOM     80  C   UNL A   1      42.179  22.088  26.313  1.00  0.00     0.091 A 
ATOM     81  F   UNL A   1      41.475  22.849  28.464  1.00  0.00    -0.205 F 
ATOM     82  C   UNL A   1      42.817  22.358  25.093  1.00  0.00     0.022 A 
BRANCH  80  83
ATOM     83  S   UNL A   1      41.541  20.426  26.548  1.00  0.00     0.127 S 
ATOM     84  O   UNL A   1      42.110  20.068  27.844  1.00  0.00    -0.237 OA
ATOM     85  O   UNL A   1      40.097  20.655  26.549  1.00  0.00    -0.237 OA
ATOM     86  O   UNL A   1      42.027  19.653  25.410  1.00  0.00    -0.744 OA
ENDBRANCH  80  83
ENDBRANCH  52  76
BRANCH  64  87
ATOM     87  C   UNL A   1      47.166  25.974  32.249  1.00  0.00     0.023 A 
ATOM     88  C   UNL A   1      48.397  26.382  31.699  1.00  0.00     0.012 A 
ATOM     89  C   UNL A   1      47.157  25.039  33.304  1.00  0.00     0.148 A 
ATOM     90  C   UNL A   1      49.596  25.843  32.165  1.00  0.00     0.002 A 
ATOM     91  C   UNL A   1      48.357  24.546  33.800  1.00  0.00     0.091 A 
ATOM     92  F   UNL A   1      45.975  24.648  33.802  1.00  0.00    -0.205 F 
ATOM     93  C   UNL A   1      49.577  24.936  33.223  1.00  0.00     0.022 A 
BRANCH  91  94
ATOM     94  S   UNL A   1      48.434  23.453  35.224  1.00  0.00     0.127 S 
ATOM     95  O   UNL A   1      47.842  22.228  34.690  1.00  0.00    -0.237 OA
ATOM     96  O   UNL A   1      49.873  23.376  35.479  1.00  0.00    -0.237 OA
ATOM     97  O   UNL A   1      47.669  24.110  36.275  1.00  0.00    -0.744 OA
ENDBRANCH  91  94
ENDBRANCH  64  87
ENDBRANCH  38  39
ENDBRANCH  30  33
ENDBRANCH  28  29
ENDBRANCH  27  28
ENDBRANCH   1  27
TORSDOF 19
ENDMDL
MODEL 2
REMARK VINA RESULT:     -11.2      3.072      4.971
REMARK SMILES CCOc1cc(N2CCOCC2)ccc1[C@H]([NH3+])C(=O)NCCCCNC(=O)c1ccc(-c2c3nc(c(-c4cccc(S(=O)(=O)[O-])c4F)c4ccc([nH]4)c(-c4cccc(S(=O)(=O)[O-])c4F)c4nc(c(-c5cccc(S(=O)(=O)[O-])c5F)c5ccc2[nH]5)C=C4)C=C3)cc1
REMARK SMILES IDX 22 1 21 2 20 3 18 4 19 5 16 7 15 8 4 9 5 10 6 11 14 12 13 13
REMARK SMILES IDX 3 14 2 15 1 16 7 17 8 18 12 19 9 20 11 21 10 22 17 23 23 27
REMARK SMILES IDX 24 28 25 29 26 30 27 32 28 33 29 34 90 35 30 36 89 37 31 38
REMARK SMILES IDX 32 39 33 40 83 41 34 42 88 43 82 44 84 45 35 46 87 47 81 48
REMARK SMILES IDX 80 49 36 51 68 52 48 53 67 54 49 55 52 56 66 57 85 58 50 59
REMARK SMILES IDX 51 60 65 62 86 63 53 64 37 65 38 66 46 67 39 68 41 69 47 70
REMARK SMILES IDX 40 71 42 72 43 73 44 74 45 75 69 76 70 77 78 78 71 79 73 80
REMARK SMILES IDX 79 81 72 82 74 83 75 84 76 85 77 86 54 87 55 88 63 89 56 90
REMARK SMILES IDX 58 91 64 92 57 93 59 94 60 95 61 96 62 97
REMARK H PARENT 20 6 17 24 17 25 17 26 25 31 84 50 52 61
REMARK Flexibility Score: inf
ROOT
ATOM      1  C   UNL A   1      31.851  28.909  26.629  1.00  0.00     0.023 C 
ENDROOT
BRANCH   1   2
ATOM      2  C   UNL A   1      32.349  27.467  26.587  1.00  0.00     0.116 C 
BRANCH   2   3
ATOM      3  N   UNL A   1      31.280  26.537  26.913  1.00  0.00    -0.351 N 
ATOM      4  C   UNL A   1      30.591  25.650  26.141  1.00  0.00     0.283 C 
ATOM      5  O   UNL A   1      29.747  24.954  26.721  1.00  0.00    -0.268 OA
ATOM      6  H   UNL A   1      31.005  26.551  27.858  1.00  0.00     0.163 HD
BRANCH   4   7
ATOM      7  C   UNL A   1      30.687  25.603  24.603  1.00  0.00     0.306 C 
BRANCH   7   8
ATOM      8  C   UNL A   1      29.978  26.648  23.755  1.00  0.00     0.061 A 
ATOM      9  C   UNL A   1      30.577  27.558  22.875  1.00  0.00     0.131 A 
ATOM     10  C   UNL A   1      29.838  28.648  22.373  1.00  0.00     0.072 A 
ATOM     11  C   UNL A   1      28.485  28.822  22.708  1.00  0.00     0.040 A 
ATOM     12  C   UNL A   1      28.577  26.709  23.882  1.00  0.00     0.016 A 
ATOM     13  C   UNL A   1      27.849  27.779  23.378  1.00  0.00     0.027 A 
BRANCH   9  14
ATOM     14  O   UNL A   1      31.935  27.568  22.727  1.00  0.00    -0.493 OA
BRANCH  14  15
ATOM     15  C   UNL A   1      32.570  28.847  22.774  1.00  0.00     0.226 C 
ATOM     16  C   UNL A   1      34.073  28.611  22.873  1.00  0.00     0.049 C 
ENDBRANCH  14  15
ENDBRANCH   9  14
BRANCH  11  17
ATOM     17  N   UNL A   1      27.846  30.032  22.509  1.00  0.00    -0.367 N 
ATOM     18  C   UNL A   1      27.905  30.671  21.181  1.00  0.00     0.145 C 
ATOM     19  C   UNL A   1      27.618  30.962  23.617  1.00  0.00     0.145 C 
ATOM     20  C   UNL A   1      28.877  31.861  21.189  1.00  0.00     0.181 C 
ATOM     21  C   UNL A   1      28.618  32.133  23.524  1.00  0.00     0.181 C 
ATOM     22  O   UNL A   1      28.568  32.789  22.242  1.00  0.00    -0.378 OA
ENDBRANCH  11  17
ENDBRANCH   7   8
BRANCH   7  23
ATOM     23  N   UNL A   1      30.333  24.218  24.168  1.00  0.00    -0.343 N 
ATOM     24  H   UNL A   1      29.909  23.714  24.947  1.00  0.00     0.345 HD
ATOM     25  H   UNL A   1      31.178  23.731  23.867  1.00  0.00     0.345 HD
ATOM     26  H   UNL A   1      29.673  24.263  23.392  1.00  0.00     0.345 HD
ENDBRANCH   7  23
ENDBRANCH   4   7
ENDBRANCH   2   3
ENDBRANCH   1   2
BRANCH   1  27
ATOM     27  C   UNL A   1      32.893  29.942  26.174  1.00  0.00     0.023 C 
BRANCH  27  28
ATOM     28  C   UNL A   1      34.058  30.162  27.141  1.00  0.00     0.116 C 
BRANCH  28  29
ATOM     29  N   UNL A   1      34.001  31.467  27.781  1.00  0.00    -0.352 N 
ATOM     30  C   UNL A   1      34.752  31.992  28.804  1.00  0.00     0.251 C 
ATOM     31  H   UNL A   1      33.313  32.074  27.422  1.00  0.00     0.163 HD
ATOM     32  O   UNL A   1      34.376  33.021  29.360  1.00  0.00    -0.269 OA
BRANCH  30  33
ATOM     33  C   UNL A   1      36.005  31.334  29.240  1.00  0.00     0.039 A 
ATOM     34  C   UNL A   1      35.926  30.222  30.084  1.00  0.00     0.014 A 
ATOM     35  C   UNL A   1      37.253  31.845  28.879  1.00  0.00     0.014 A 
ATOM     36  C   UNL A   1      37.097  29.598  30.526  1.00  0.00     0.010 A 
ATOM     37  C   UNL A   1      38.416  31.175  29.255  1.00  0.00     0.010 A 
ATOM     38  C   UNL A   1      38.353  30.055  30.097  1.00  0.00    -0.014 A 
BRANCH  38  39
ATOM     39  C   UNL A   1      39.609  29.387  30.533  1.00  0.00     0.031 A 
ATOM     40  C   UNL A   1      40.355  29.885  31.743  1.00  0.00     0.074 A 
ATOM     41  C   UNL A   1      40.121  28.379  29.798  1.00  0.00     0.049 A 
ATOM     42  N   UNL A   1      41.492  29.472  32.240  1.00  0.00    -0.248 NA
ATOM     43  C   UNL A   1      39.757  31.013  32.478  1.00  0.00     0.031 C 
ATOM     44  C   UNL A   1      39.535  27.850  28.565  1.00  0.00     0.029 A 
ATOM     45  N   UNL A   1      41.264  27.639  29.967  1.00  0.00    -0.354 N 
ATOM     46  C   UNL A   1      41.765  30.307  33.318  1.00  0.00     0.074 A 
ATOM     47  C   UNL A   1      40.692  31.275  33.380  1.00  0.00     0.031 C 
ATOM     48  C   UNL A   1      40.323  26.873  28.088  1.00  0.00     0.029 A 
ATOM     49  C   UNL A   1      41.483  26.726  28.962  1.00  0.00     0.049 A 
ATOM     50  H   UNL A   1      41.871  27.751  30.734  1.00  0.00     0.167 HD
ATOM     51  C   UNL A   1      42.795  30.259  34.196  1.00  0.00     0.034 A 
ATOM     52  C   UNL A   1      42.508  25.874  28.758  1.00  0.00     0.034 A 
ATOM     53  C   UNL A   1      43.843  29.273  34.153  1.00  0.00     0.049 A 
ATOM     54  C   UNL A   1      43.623  25.813  29.766  1.00  0.00     0.074 A 
ATOM     55  C   UNL A   1      44.892  29.094  35.039  1.00  0.00     0.029 A 
ATOM     56  N   UNL A   1      43.981  28.305  33.171  1.00  0.00    -0.354 N 
ATOM     57  N   UNL A   1      43.787  26.519  30.858  1.00  0.00    -0.248 NA
ATOM     58  C   UNL A   1      44.672  24.808  29.538  1.00  0.00     0.031 C 
ATOM     59  C   UNL A   1      45.679  28.034  34.576  1.00  0.00     0.029 A 
ATOM     60  C   UNL A   1      45.098  27.527  33.425  1.00  0.00     0.049 A 
ATOM     61  H   UNL A   1      43.374  28.188  32.404  1.00  0.00     0.167 HD
ATOM     62  C   UNL A   1      44.930  26.015  31.470  1.00  0.00     0.074 A 
ATOM     63  C   UNL A   1      45.409  24.934  30.633  1.00  0.00     0.031 C 
ATOM     64  C   UNL A   1      45.533  26.417  32.616  1.00  0.00     0.034 A 
BRANCH  51  65
ATOM     65  C   UNL A   1      42.815  31.276  35.308  1.00  0.00     0.023 A 
ATOM     66  C   UNL A   1      42.259  30.950  36.562  1.00  0.00     0.012 A 
ATOM     67  C   UNL A   1      43.428  32.533  35.132  1.00  0.00     0.148 A 
ATOM     68  C   UNL A   1      42.271  31.871  37.609  1.00  0.00     0.002 A 
ATOM     69  C   UNL A   1      43.480  33.427  36.196  1.00  0.00     0.091 A 
ATOM     70  F   UNL A   1      43.937  32.835  33.930  1.00  0.00    -0.205 F 
ATOM     71  C   UNL A   1      42.890  33.104  37.429  1.00  0.00     0.022 A 
BRANCH  69  72
ATOM     72  S   UNL A   1      44.328  35.007  36.093  1.00  0.00     0.127 S 
ATOM     73  O   UNL A   1      44.147  35.528  37.449  1.00  0.00    -0.237 OA
ATOM     74  O   UNL A   1      45.697  34.603  35.773  1.00  0.00    -0.237 OA
ATOM     75  O   UNL A   1      43.655  35.757  35.042  1.00  0.00    -0.744 OA
ENDBRANCH  69  72
ENDBRANCH  51  65
BRANCH  52  76
ATOM     76  C   UNL A   1      42.495  24.966  27.577  1.00  0.00     0.023 A 
ATOM     77  C   UNL A   1      43.238  25.307  26.429  1.00  0.00     0.012 A 
ATOM     78  C   UNL A   1      41.774  23.756  27.594  1.00  0.00     0.148 A 
ATOM     79  C   UNL A   1      43.235  24.478  25.307  1.00  0.00     0.002 A 
ATOM     80  C   UNL A   1      41.821  22.907  26.494  1.00  0.00     0.091 A 
ATOM     81  F   UNL A   1      41.068  23.454  28.693  1.00  0.00    -0.205 F 
ATOM     82  C   UNL A   1      42.535  23.274  25.343  1.00  0.00     0.022 A 
BRANCH  80  83
ATOM     83  S   UNL A   1      41.062  21.280  26.497  1.00  0.00     0.127 S 
ATOM     84  O   UNL A   1      39.802  21.536  25.807  1.00  0.00    -0.237 OA
ATOM     85  O   UNL A   1      42.034  20.493  25.740  1.00  0.00    -0.237 OA
ATOM     86  O   UNL A   1      40.947  20.902  27.902  1.00  0.00    -0.744 OA
ENDBRANCH  80  83
ENDBRANCH  52  76
BRANCH  64  87
ATOM     87  C   UNL A   1      46.746  25.651  33.077  1.00  0.00     0.023 A 
ATOM     88  C   UNL A   1      48.040  26.100  32.744  1.00  0.00     0.012 A 
ATOM     89  C   UNL A   1      46.600  24.519  33.904  1.00  0.00     0.148 A 
ATOM     90  C   UNL A   1      49.167  25.413  33.196  1.00  0.00     0.002 A 
ATOM     91  C   UNL A   1      47.727  23.871  34.394  1.00  0.00     0.091 A 
ATOM     92  F   UNL A   1      45.361  24.095  34.194  1.00  0.00    -0.205 F 
ATOM     93  C   UNL A   1      49.010  24.308  34.030  1.00  0.00     0.022 A 
BRANCH  91  94
ATOM     94  S   UNL A   1      47.622  22.503  35.554  1.00  0.00     0.127 S 
ATOM     95  O   UNL A   1      49.027  22.300  35.901  1.00  0.00    -0.237 OA
ATOM     96  O   UNL A   1      46.803  23.068  36.627  1.00  0.00    -0.237 OA
ATOM     97  O   UNL A   1      46.993  21.409  34.828  1.00  0.00    -0.744 OA
ENDBRANCH  91  94
ENDBRANCH  64  87
ENDBRANCH  38  39
ENDBRANCH  30  33
ENDBRANCH  28  29
ENDBRANCH  27  28
ENDBRANCH   1  27
TORSDOF 19
ENDMDL
MODEL 3
REMARK VINA RESULT:     -11.2      2.923      5.057
REMARK SMILES CCOc1cc(N2CCOCC2)ccc1[C@H]([NH3+])C(=O)NCCCCNC(=O)c1ccc(-c2c3nc(c(-c4cccc(S(=O)(=O)[O-])c4F)c4ccc([nH]4)c(-c4cccc(S(=O)(=O)[O-])c4F)c4nc(c(-c5cccc(S(=O)(=O)[O-])c5F)c5ccc2[nH]5)C=C4)C=C3)cc1
REMARK SMILES IDX 22 1 21 2 20 3 18 4 19 5 16 7 15 8 4 9 5 10 6 11 14 12 13 13
REMARK SMILES IDX 3 14 2 15 1 16 7 17 8 18 12 19 9 20 11 21 10 22 17 23 23 27
REMARK SMILES IDX 24 28 25 29 26 30 27 32 28 33 29 34 90 35 30 36 89 37 31 38
REMARK SMILES IDX 32 39 33 40 83 41 34 42 88 43 82 44 84 45 35 46 87 47 81 48
REMARK SMILES IDX 80 49 36 51 68 52 48 53 67 54 49 55 52 56 66 57 85 58 50 59
REMARK SMILES IDX 51 60 65 62 86 63 53 64 37 65 38 66 46 67 39 68 41 69 47 70
REMARK SMILES IDX 40 71 42 72 43 73 44 74 45 75 69 76 70 77 78 78 71 79 73 80
REMARK SMILES IDX 79 81 72 82 74 83 75 84 76 85 77 86 54 87 55 88 63 89 56 90
REMARK SMILES IDX 58 91 64 92 57 93 59 94 60 95 61 96 62 97
REMARK H PARENT 20 6 17 24 17 25 17 26 25 31 84 50 52 61
REMARK Flexibility Score: inf
ROOT
ATOM      1  C   UNL A   1      33.266  27.553  26.300  1.00  0.00     0.023 C 
ENDROOT
BRANCH   1   2
ATOM      2  C   UNL A   1      34.100  27.041  25.128  1.00  0.00     0.116 C 
BRANCH   2   3
ATOM      3  N   UNL A   1      33.840  25.632  24.881  1.00  0.00    -0.351 N 
ATOM      4  C   UNL A   1      33.317  24.989  23.800  1.00  0.00     0.283 C 
ATOM      5  O   UNL A   1      33.253  23.754  23.871  1.00  0.00    -0.268 OA
ATOM      6  H   UNL A   1      34.087  25.038  25.626  1.00  0.00     0.163 HD
BRANCH   4   7
ATOM      7  C   UNL A   1      32.658  25.716  22.611  1.00  0.00     0.306 C 
BRANCH   7   8
ATOM      8  C   UNL A   1      31.624  26.805  22.852  1.00  0.00     0.061 A 
ATOM      9  C   UNL A   1      30.444  26.687  23.600  1.00  0.00     0.131 A 
ATOM     10  C   UNL A   1      29.446  27.678  23.506  1.00  0.00     0.072 A 
ATOM     11  C   UNL A   1      29.627  28.815  22.701  1.00  0.00     0.040 A 
ATOM     12  C   UNL A   1      31.877  28.051  22.250  1.00  0.00     0.016 A 
ATOM     13  C   UNL A   1      30.895  29.030  22.167  1.00  0.00     0.027 A 
BRANCH   9  14
ATOM     14  O   UNL A   1      30.127  25.496  24.188  1.00  0.00    -0.493 OA
BRANCH  14  15
ATOM     15  C   UNL A   1      30.162  25.464  25.616  1.00  0.00     0.226 C 
ATOM     16  C   UNL A   1      30.603  24.065  26.034  1.00  0.00     0.049 C 
ENDBRANCH  14  15
ENDBRANCH   9  14
BRANCH  11  17
ATOM     17  N   UNL A   1      28.557  29.612  22.335  1.00  0.00    -0.367 N 
ATOM     18  C   UNL A   1      28.743  30.639  21.293  1.00  0.00     0.145 C 
ATOM     19  C   UNL A   1      27.462  29.889  23.266  1.00  0.00     0.145 C 
ATOM     20  C   UNL A   1      28.811  32.043  21.914  1.00  0.00     0.181 C 
ATOM     21  C   UNL A   1      27.599  31.324  23.814  1.00  0.00     0.181 C 
ATOM     22  O   UNL A   1      27.677  32.302  22.758  1.00  0.00    -0.378 OA
ENDBRANCH  11  17
ENDBRANCH   7   8
BRANCH   7  23
ATOM     23  N   UNL A   1      32.143  24.675  21.671  1.00  0.00    -0.343 N 
ATOM     24  H   UNL A   1      32.175  25.033  20.716  1.00  0.00     0.345 HD
ATOM     25  H   UNL A   1      31.180  24.443  21.915  1.00  0.00     0.345 HD
ATOM     26  H   UNL A   1      32.721  23.838  21.739  1.00  0.00     0.345 HD
ENDBRANCH   7  23
ENDBRANCH   4   7
ENDBRANCH   2   3
ENDBRANCH   1   2
BRANCH   1  27
ATOM     27  C   UNL A   1      32.581  28.902  26.035  1.00  0.00     0.023 C 
BRANCH  27  28
ATOM     28  C   UNL A   1      32.395  29.792  27.266  1.00  0.00     0.116 C 
BRANCH  28  29
ATOM     29  N   UNL A   1      32.658  31.193  26.975  1.00  0.00    -0.352 N 
ATOM     30  C   UNL A   1      33.669  32.017  27.403  1.00  0.00     0.251 C 
ATOM     31  H   UNL A   1      32.006  31.619  26.372  1.00  0.00     0.163 HD
ATOM     32  O   UNL A   1      33.567  33.230  27.239  1.00  0.00    -0.269 OA
BRANCH  30  33
ATOM     33  C   UNL A   1      34.877  31.461  28.056  1.00  0.00     0.039 A 
ATOM     34  C   UNL A   1      36.035  32.243  28.111  1.00  0.00     0.014 A 
ATOM     35  C   UNL A   1      34.895  30.156  28.552  1.00  0.00     0.014 A 
ATOM     36  C   UNL A   1      37.193  31.732  28.704  1.00  0.00     0.010 A 
ATOM     37  C   UNL A   1      36.026  29.677  29.211  1.00  0.00     0.010 A 
ATOM     38  C   UNL A   1      37.193  30.452  29.279  1.00  0.00    -0.014 A 
BRANCH  38  39
ATOM     39  C   UNL A   1      38.407  29.900  29.940  1.00  0.00     0.031 A 
ATOM     40  C   UNL A   1      38.809  30.376  31.311  1.00  0.00     0.074 A 
ATOM     41  C   UNL A   1      39.191  29.026  29.278  1.00  0.00     0.049 A 
ATOM     42  N   UNL A   1      39.861  30.058  32.021  1.00  0.00    -0.248 NA
ATOM     43  C   UNL A   1      37.926  31.360  31.962  1.00  0.00     0.031 C 
ATOM     44  C   UNL A   1      38.953  28.539  27.918  1.00  0.00     0.029 A 
ATOM     45  N   UNL A   1      40.361  28.412  29.650  1.00  0.00    -0.354 N 
ATOM     46  C   UNL A   1      39.788  30.824  33.178  1.00  0.00     0.074 A 
ATOM     47  C   UNL A   1      38.607  31.651  33.060  1.00  0.00     0.031 C 
ATOM     48  C   UNL A   1      39.945  27.705  27.569  1.00  0.00     0.029 A 
ATOM     49  C   UNL A   1      40.905  27.620  28.666  1.00  0.00     0.049 A 
ATOM     50  H   UNL A   1      40.773  28.528  30.537  1.00  0.00     0.167 HD
ATOM     51  C   UNL A   1      40.608  30.821  34.257  1.00  0.00     0.034 A 
ATOM     52  C   UNL A   1      42.053  26.914  28.643  1.00  0.00     0.034 A 
ATOM     53  C   UNL A   1      41.763  29.972  34.387  1.00  0.00     0.049 A 
ATOM     54  C   UNL A   1      42.929  26.898  29.866  1.00  0.00     0.074 A 
ATOM     55  C   UNL A   1      42.615  29.842  35.470  1.00  0.00     0.029 A 
ATOM     56  N   UNL A   1      42.230  29.115  33.405  1.00  0.00    -0.354 N 
ATOM     57  N   UNL A   1      42.766  27.522  31.006  1.00  0.00    -0.248 NA
ATOM     58  C   UNL A   1      44.127  26.045  29.815  1.00  0.00     0.031 C 
ATOM     59  C   UNL A   1      43.615  28.924  35.130  1.00  0.00     0.029 A 
ATOM     60  C   UNL A   1      43.362  28.453  33.852  1.00  0.00     0.049 A 
ATOM     61  H   UNL A   1      41.819  28.993  32.519  1.00  0.00     0.167 HD
ATOM     62  C   UNL A   1      43.811  27.105  31.823  1.00  0.00     0.074 A 
ATOM     63  C   UNL A   1      44.594  26.163  31.050  1.00  0.00     0.031 C 
ATOM     64  C   UNL A   1      44.100  27.475  33.095  1.00  0.00     0.034 A 
BRANCH  51  65
ATOM     65  C   UNL A   1      40.258  31.735  35.404  1.00  0.00     0.023 A 
ATOM     66  C   UNL A   1      40.938  32.961  35.551  1.00  0.00     0.012 A 
ATOM     67  C   UNL A   1      39.226  31.407  36.306  1.00  0.00     0.148 A 
ATOM     68  C   UNL A   1      40.629  33.827  36.600  1.00  0.00     0.002 A 
ATOM     69  C   UNL A   1      38.890  32.297  37.319  1.00  0.00     0.091 A 
ATOM     70  F   UNL A   1      38.602  30.230  36.164  1.00  0.00    -0.205 F 
ATOM     71  C   UNL A   1      39.598  33.499  37.477  1.00  0.00     0.022 A 
BRANCH  69  72
ATOM     72  S   UNL A   1      37.524  32.008  38.450  1.00  0.00     0.127 S 
ATOM     73  O   UNL A   1      38.159  32.245  39.747  1.00  0.00    -0.237 OA
ATOM     74  O   UNL A   1      36.566  33.037  38.045  1.00  0.00    -0.237 OA
ATOM     75  O   UNL A   1      37.085  30.641  38.210  1.00  0.00    -0.744 OA
ENDBRANCH  69  72
ENDBRANCH  51  65
BRANCH  52  76
ATOM     76  C   UNL A   1      42.409  26.115  27.436  1.00  0.00     0.023 A 
ATOM     77  C   UNL A   1      43.078  26.737  26.363  1.00  0.00     0.012 A 
ATOM     78  C   UNL A   1      42.115  24.740  27.358  1.00  0.00     0.148 A 
ATOM     79  C   UNL A   1      43.414  26.013  25.219  1.00  0.00     0.002 A 
ATOM     80  C   UNL A   1      42.504  24.012  26.240  1.00  0.00     0.091 A 
ATOM     81  F   UNL A   1      41.472  24.170  28.387  1.00  0.00    -0.205 F 
ATOM     82  C   UNL A   1      43.137  24.649  25.161  1.00  0.00     0.022 A 
BRANCH  80  83
ATOM     83  S   UNL A   1      42.307  22.230  26.132  1.00  0.00     0.127 S 
ATOM     84  O   UNL A   1      42.851  21.791  27.413  1.00  0.00    -0.237 OA
ATOM     85  O   UNL A   1      40.858  22.096  25.996  1.00  0.00    -0.237 OA
ATOM     86  O   UNL A   1      43.061  21.821  24.952  1.00  0.00    -0.744 OA
ENDBRANCH  80  83
ENDBRANCH  52  76
BRANCH  64  87
ATOM     87  C   UNL A   1      45.280  26.820  33.765  1.00  0.00     0.023 A 
ATOM     88  C   UNL A   1      46.552  27.425  33.720  1.00  0.00     0.012 A 
ATOM     89  C   UNL A   1      45.108  25.631  34.504  1.00  0.00     0.148 A 
ATOM     90  C   UNL A   1      47.640  26.840  34.367  1.00  0.00     0.002 A 
ATOM     91  C   UNL A   1      46.184  25.081  35.189  1.00  0.00     0.091 A 
ATOM     92  F   UNL A   1      43.896  25.058  34.519  1.00  0.00    -0.205 F 
ATOM     93  C   UNL A   1      47.453  25.676  35.110  1.00  0.00     0.022 A 
BRANCH  91  94
ATOM     94  S   UNL A   1      46.014  23.643  36.252  1.00  0.00     0.127 S 
ATOM     95  O   UNL A   1      47.264  22.931  35.991  1.00  0.00    -0.237 OA
ATOM     96  O   UNL A   1      45.922  24.249  37.581  1.00  0.00    -0.237 OA
ATOM     97  O   UNL A   1      44.804  22.962  35.815  1.00  0.00    -0.744 OA
ENDBRANCH  91  94
ENDBRANCH  64  87
ENDBRANCH  38  39
ENDBRANCH  30  33
ENDBRANCH  28  29
ENDBRANCH  27  28
ENDBRANCH   1  27
TORSDOF 19
ENDMDL
