MODEL 1
REMARK VINA RESULT:     -11.9      0.000      0.000
REMARK SMILES CCOc1cc(OCC)cc(-c2ccc([C@@H](C)C(=O)NCCCCNC(=O)c3ccc(-c4c5nc(c(-c6cccc(S(=O)(=O)[O-])c6F)c6ccc([nH]6)c(-c6cccc(S(=O)(=O)[O-])c6F)c6nc(c(-c7cccc(S(=O)(=O)[O-])c7F)c7ccc4[nH]7)C=C6)C=C5)cc3)cc2)c1
REMARK SMILES IDX 22 1 21 2 20 3 18 4 19 5 16 7 17 8 15 9 12 10 13 11 92 12
REMARK SMILES IDX 14 13 91 14 11 15 4 16 5 17 93 18 6 19 10 20 3 21 2 22 1 23
REMARK SMILES IDX 7 24 8 25 9 26 23 27 24 28 25 29 26 30 27 32 28 33 29 34
REMARK SMILES IDX 90 35 30 36 89 37 31 38 32 39 33 40 83 41 34 42 88 43 82 44
REMARK SMILES IDX 84 45 35 46 87 47 81 48 80 49 36 51 68 52 48 53 67 54 49 55
REMARK SMILES IDX 52 56 66 57 85 58 50 59 51 60 65 62 86 63 53 64 37 65 38 66
REMARK SMILES IDX 46 67 39 68 41 69 47 70 40 71 42 72 43 73 44 74 45 75 69 76
REMARK SMILES IDX 70 77 78 78 71 79 73 80 79 81 72 82 74 83 75 84 76 85 77 86
REMARK SMILES IDX 54 87 55 88 63 89 56 90 58 91 64 92 57 93 59 94 60 95 61 96
REMARK SMILES IDX 62 97
REMARK H PARENT 20 6 25 31 84 50 52 61
REMARK Flexibility Score: inf
ROOT
ATOM      1  C   UNL A   1      35.551  20.554  25.115  1.00  0.00     0.023 C 
ENDROOT
BRANCH   1   2
ATOM      2  C   UNL A   1      35.297  19.135  24.604  1.00  0.00     0.116 C 
BRANCH   2   3
ATOM      3  N   UNL A   1      34.222  18.473  25.315  1.00  0.00    -0.356 N 
ATOM      4  C   UNL A   1      32.884  18.393  25.070  1.00  0.00     0.227 C 
ATOM      5  O   UNL A   1      32.205  17.773  25.897  1.00  0.00    -0.274 OA
ATOM      6  H   UNL A   1      34.512  17.993  26.125  1.00  0.00     0.163 HD
BRANCH   4   7
ATOM      7  C   UNL A   1      32.200  19.013  23.841  1.00  0.00     0.105 C 
ATOM      8  C   UNL A   1      32.620  18.395  22.509  1.00  0.00     0.023 C 
BRANCH   7   9
ATOM      9  C   UNL A   1      32.155  20.531  23.888  1.00  0.00    -0.036 A 
ATOM     10  C   UNL A   1      31.822  23.367  23.848  1.00  0.00    -0.018 A 
ATOM     11  C   UNL A   1      31.720  22.625  25.037  1.00  0.00     0.009 A 
ATOM     12  C   UNL A   1      32.148  22.656  22.684  1.00  0.00     0.009 A 
ATOM     13  C   UNL A   1      31.922  21.243  25.065  1.00  0.00     0.005 A 
ATOM     14  C   UNL A   1      32.289  21.262  22.698  1.00  0.00     0.005 A 
BRANCH  10  15
ATOM     15  C   UNL A   1      31.548  24.823  23.840  1.00  0.00    -0.011 A 
ATOM     16  C   UNL A   1      29.996  26.700  23.765  1.00  0.00     0.123 A 
ATOM     17  C   UNL A   1      31.037  27.595  23.995  1.00  0.00     0.092 A 
ATOM     18  C   UNL A   1      30.251  25.331  23.675  1.00  0.00     0.055 A 
ATOM     19  C   UNL A   1      32.343  27.127  24.139  1.00  0.00     0.123 A 
ATOM     20  C   UNL A   1      32.584  25.754  24.042  1.00  0.00     0.055 A 
BRANCH  16  21
ATOM     21  O   UNL A   1      28.750  27.205  23.513  1.00  0.00    -0.494 OA
BRANCH  21  22
ATOM     22  C   UNL A   1      28.766  28.515  22.929  1.00  0.00     0.226 C 
ATOM     23  C   UNL A   1      27.428  29.222  23.083  1.00  0.00     0.049 C 
ENDBRANCH  21  22
ENDBRANCH  16  21
BRANCH  19  24
ATOM     24  O   UNL A   1      33.292  28.080  24.394  1.00  0.00    -0.494 OA
BRANCH  24  25
ATOM     25  C   UNL A   1      33.083  28.966  25.497  1.00  0.00     0.226 C 
ATOM     26  C   UNL A   1      33.757  28.466  26.766  1.00  0.00     0.049 C 
ENDBRANCH  24  25
ENDBRANCH  19  24
ENDBRANCH  10  15
ENDBRANCH   7   9
ENDBRANCH   4   7
ENDBRANCH   2   3
ENDBRANCH   1   2
BRANCH   1  27
ATOM     27  C   UNL A   1      36.725  21.282  24.459  1.00  0.00     0.023 C 
BRANCH  27  28
ATOM     28  C   UNL A   1      37.776  21.832  25.417  1.00  0.00     0.116 C 
BRANCH  28  29
ATOM     29  N   UNL A   1      38.806  20.871  25.789  1.00  0.00    -0.352 N 
ATOM     30  C   UNL A   1      39.975  21.106  26.483  1.00  0.00     0.251 C 
ATOM     31  H   UNL A   1      38.649  19.941  25.511  1.00  0.00     0.163 HD
ATOM     32  O   UNL A   1      40.783  20.204  26.660  1.00  0.00    -0.269 OA
BRANCH  30  33
ATOM     33  C   UNL A   1      40.256  22.476  26.967  1.00  0.00     0.039 A 
ATOM     34  C   UNL A   1      41.199  22.654  27.982  1.00  0.00     0.014 A 
ATOM     35  C   UNL A   1      39.643  23.579  26.370  1.00  0.00     0.014 A 
ATOM     36  C   UNL A   1      41.590  23.947  28.340  1.00  0.00     0.010 A 
ATOM     37  C   UNL A   1      40.088  24.861  26.674  1.00  0.00     0.010 A 
ATOM     38  C   UNL A   1      41.069  25.059  27.659  1.00  0.00    -0.014 A 
BRANCH  38  39
ATOM     39  C   UNL A   1      41.549  26.437  27.936  1.00  0.00     0.031 A 
ATOM     40  C   UNL A   1      42.964  26.823  27.607  1.00  0.00     0.074 A 
ATOM     41  C   UNL A   1      40.745  27.304  28.584  1.00  0.00     0.049 A 
ATOM     42  N   UNL A   1      43.589  27.946  27.846  1.00  0.00    -0.248 NA
ATOM     43  C   UNL A   1      43.800  25.800  26.955  1.00  0.00     0.031 C 
ATOM     44  C   UNL A   1      39.384  27.018  29.042  1.00  0.00     0.029 A 
ATOM     45  N   UNL A   1      40.969  28.594  28.998  1.00  0.00    -0.354 N 
ATOM     46  C   UNL A   1      44.895  27.753  27.416  1.00  0.00     0.074 A 
ATOM     47  C   UNL A   1      44.985  26.394  26.931  1.00  0.00     0.031 C 
ATOM     48  C   UNL A   1      38.893  28.099  29.670  1.00  0.00     0.029 A 
ATOM     49  C   UNL A   1      39.910  29.146  29.680  1.00  0.00     0.049 A 
ATOM     50  H   UNL A   1      41.808  29.077  28.824  1.00  0.00     0.167 HD
ATOM     51  C   UNL A   1      45.921  28.637  27.392  1.00  0.00     0.034 A 
ATOM     52  C   UNL A   1      39.771  30.361  30.248  1.00  0.00     0.034 A 
ATOM     53  C   UNL A   1      45.811  30.007  27.813  1.00  0.00     0.049 A 
ATOM     54  C   UNL A   1      40.901  31.350  30.140  1.00  0.00     0.074 A 
ATOM     55  C   UNL A   1      46.759  31.011  27.733  1.00  0.00     0.029 A 
ATOM     56  N   UNL A   1      44.684  30.567  28.393  1.00  0.00    -0.354 N 
ATOM     57  N   UNL A   1      42.073  31.203  29.572  1.00  0.00    -0.248 NA
ATOM     58  C   UNL A   1      40.676  32.684  30.716  1.00  0.00     0.031 C 
ATOM     59  C   UNL A   1      46.206  32.178  28.270  1.00  0.00     0.029 A 
ATOM     60  C   UNL A   1      44.911  31.903  28.676  1.00  0.00     0.049 A 
ATOM     61  H   UNL A   1      43.844  30.086  28.576  1.00  0.00     0.167 HD
ATOM     62  C   UNL A   1      42.711  32.433  29.690  1.00  0.00     0.074 A 
ATOM     63  C   UNL A   1      41.787  33.319  30.365  1.00  0.00     0.031 C 
ATOM     64  C   UNL A   1      43.957  32.790  29.292  1.00  0.00     0.034 A 
BRANCH  51  65
ATOM     65  C   UNL A   1      47.233  28.168  26.822  1.00  0.00     0.023 A 
ATOM     66  C   UNL A   1      48.296  27.863  27.696  1.00  0.00     0.012 A 
ATOM     67  C   UNL A   1      47.403  27.983  25.437  1.00  0.00     0.148 A 
ATOM     68  C   UNL A   1      49.518  27.412  27.200  1.00  0.00     0.002 A 
ATOM     69  C   UNL A   1      48.612  27.494  24.952  1.00  0.00     0.091 A 
ATOM     70  F   UNL A   1      46.390  28.301  24.618  1.00  0.00    -0.205 F 
ATOM     71  C   UNL A   1      49.673  27.219  25.831  1.00  0.00     0.022 A 
BRANCH  69  72
ATOM     72  S   UNL A   1      48.884  27.141  23.211  1.00  0.00     0.127 S 
ATOM     73  O   UNL A   1      48.166  25.877  23.052  1.00  0.00    -0.237 OA
ATOM     74  O   UNL A   1      48.249  28.288  22.560  1.00  0.00    -0.237 OA
ATOM     75  O   UNL A   1      50.327  27.071  23.040  1.00  0.00    -0.744 OA
ENDBRANCH  69  72
ENDBRANCH  51  65
BRANCH  52  76
ATOM     76  C   UNL A   1      38.480  30.740  30.889  1.00  0.00     0.023 A 
ATOM     77  C   UNL A   1      38.276  30.439  32.250  1.00  0.00     0.012 A 
ATOM     78  C   UNL A   1      37.475  31.423  30.179  1.00  0.00     0.148 A 
ATOM     79  C   UNL A   1      37.082  30.783  32.884  1.00  0.00     0.002 A 
ATOM     80  C   UNL A   1      36.309  31.810  30.831  1.00  0.00     0.091 A 
ATOM     81  F   UNL A   1      37.681  31.690  28.882  1.00  0.00    -0.205 F 
ATOM     82  C   UNL A   1      36.104  31.478  32.179  1.00  0.00     0.022 A 
BRANCH  80  83
ATOM     83  S   UNL A   1      35.056  32.821  30.035  1.00  0.00     0.127 S 
ATOM     84  O   UNL A   1      34.413  31.858  29.145  1.00  0.00    -0.237 OA
ATOM     85  O   UNL A   1      34.240  33.251  31.172  1.00  0.00    -0.237 OA
ATOM     86  O   UNL A   1      35.784  33.903  29.384  1.00  0.00    -0.744 OA
ENDBRANCH  80  83
ENDBRANCH  52  76
BRANCH  64  87
ATOM     87  C   UNL A   1      44.393  34.208  29.544  1.00  0.00     0.023 A 
ATOM     88  C   UNL A   1      45.120  34.514  30.712  1.00  0.00     0.012 A 
ATOM     89  C   UNL A   1      44.158  35.215  28.590  1.00  0.00     0.148 A 
ATOM     90  C   UNL A   1      45.585  35.809  30.937  1.00  0.00     0.002 A 
ATOM     91  C   UNL A   1      44.664  36.494  28.799  1.00  0.00     0.091 A 
ATOM     92  F   UNL A   1      43.447  34.908  27.495  1.00  0.00    -0.205 F 
ATOM     93  C   UNL A   1      45.368  36.795  29.976  1.00  0.00     0.022 A 
BRANCH  91  94
ATOM     94  S   UNL A   1      44.511  37.797  27.571  1.00  0.00     0.127 S 
ATOM     95  O   UNL A   1      44.677  38.997  28.388  1.00  0.00    -0.237 OA
ATOM     96  O   UNL A   1      45.630  37.512  26.671  1.00  0.00    -0.237 OA
ATOM     97  O   UNL A   1      43.196  37.623  26.969  1.00  0.00    -0.744 OA
ENDBRANCH  91  94
ENDBRANCH  64  87
ENDBRANCH  38  39
ENDBRANCH  30  33
ENDBRANCH  28  29
ENDBRANCH  27  28
ENDBRANCH   1  27
TORSDOF 20
ENDMDL
MODEL 2
REMARK VINA RESULT:     -11.9      5.757      9.619
REMARK SMILES CCOc1cc(OCC)cc(-c2ccc([C@@H](C)C(=O)NCCCCNC(=O)c3ccc(-c4c5nc(c(-c6cccc(S(=O)(=O)[O-])c6F)c6ccc([nH]6)c(-c6cccc(S(=O)(=O)[O-])c6F)c6nc(c(-c7cccc(S(=O)(=O)[O-])c7F)c7ccc4[nH]7)C=C6)C=C5)cc3)cc2)c1
REMARK SMILES IDX 22 1 21 2 20 3 18 4 19 5 16 7 17 8 15 9 12 10 13 11 92 12
REMARK SMILES IDX 14 13 91 14 11 15 4 16 5 17 93 18 6 19 10 20 3 21 2 22 1 23
REMARK SMILES IDX 7 24 8 25 9 26 23 27 24 28 25 29 26 30 27 32 28 33 29 34
REMARK SMILES IDX 90 35 30 36 89 37 31 38 32 39 33 40 83 41 34 42 88 43 82 44
REMARK SMILES IDX 84 45 35 46 87 47 81 48 80 49 36 51 68 52 48 53 67 54 49 55
REMARK SMILES IDX 52 56 66 57 85 58 50 59 51 60 65 62 86 63 53 64 37 65 38 66
REMARK SMILES IDX 46 67 39 68 41 69 47 70 40 71 42 72 43 73 44 74 45 75 69 76
REMARK SMILES IDX 70 77 78 78 71 79 73 80 79 81 72 82 74 83 75 84 76 85 77 86
REMARK SMILES IDX 54 87 55 88 63 89 56 90 58 91 64 92 57 93 59 94 60 95 61 96
REMARK SMILES IDX 62 97
REMARK H PARENT 20 6 25 31 84 50 52 61
REMARK Flexibility Score: inf
ROOT
ATOM      1  C   UNL A   1      31.414  31.701  26.084  1.00  0.00     0.023 C 
ENDROOT
BRANCH   1   2
ATOM      2  C   UNL A   1      32.035  30.304  26.135  1.00  0.00     0.116 C 
BRANCH   2   3
ATOM      3  N   UNL A   1      31.296  29.339  25.346  1.00  0.00    -0.356 N 
ATOM      4  C   UNL A   1      31.699  28.412  24.433  1.00  0.00     0.227 C 
ATOM      5  O   UNL A   1      30.811  27.746  23.889  1.00  0.00    -0.274 OA
ATOM      6  H   UNL A   1      30.323  29.356  25.498  1.00  0.00     0.163 HD
BRANCH   4   7
ATOM      7  C   UNL A   1      33.169  28.156  24.064  1.00  0.00     0.105 C 
ATOM      8  C   UNL A   1      33.615  28.819  22.762  1.00  0.00     0.023 C 
BRANCH   7   9
ATOM      9  C   UNL A   1      33.586  26.707  24.253  1.00  0.00    -0.036 A 
ATOM     10  C   UNL A   1      34.607  24.050  24.475  1.00  0.00    -0.018 A 
ATOM     11  C   UNL A   1      34.507  24.902  25.588  1.00  0.00     0.009 A 
ATOM     12  C   UNL A   1      34.133  24.547  23.253  1.00  0.00     0.009 A 
ATOM     13  C   UNL A   1      33.971  26.188  25.489  1.00  0.00     0.005 A 
ATOM     14  C   UNL A   1      33.653  25.859  23.138  1.00  0.00     0.005 A 
BRANCH  10  15
ATOM     15  C   UNL A   1      35.232  22.712  24.601  1.00  0.00    -0.011 A 
ATOM     16  C   UNL A   1      37.146  21.292  25.107  1.00  0.00     0.123 A 
ATOM     17  C   UNL A   1      36.354  20.152  24.997  1.00  0.00     0.092 A 
ATOM     18  C   UNL A   1      36.594  22.556  24.898  1.00  0.00     0.055 A 
ATOM     19  C   UNL A   1      35.001  20.269  24.679  1.00  0.00     0.123 A 
ATOM     20  C   UNL A   1      34.463  21.541  24.467  1.00  0.00     0.055 A 
BRANCH  16  21
ATOM     21  O   UNL A   1      38.490  21.132  25.305  1.00  0.00    -0.494 OA
BRANCH  21  22
ATOM     22  C   UNL A   1      39.058  22.090  26.208  1.00  0.00     0.226 C 
ATOM     23  C   UNL A   1      40.561  21.909  26.358  1.00  0.00     0.049 C 
ENDBRANCH  21  22
ENDBRANCH  16  21
BRANCH  19  24
ATOM     24  O   UNL A   1      34.299  19.095  24.624  1.00  0.00    -0.494 OA
BRANCH  24  25
ATOM     25  C   UNL A   1      35.034  17.870  24.540  1.00  0.00     0.226 C 
ATOM     26  C   UNL A   1      34.117  16.659  24.459  1.00  0.00     0.049 C 
ENDBRANCH  24  25
ENDBRANCH  19  24
ENDBRANCH  10  15
ENDBRANCH   7   9
ENDBRANCH   4   7
ENDBRANCH   2   3
ENDBRANCH   1   2
BRANCH   1  27
ATOM     27  C   UNL A   1      31.649  32.563  27.324  1.00  0.00     0.023 C 
BRANCH  27  28
ATOM     28  C   UNL A   1      32.801  33.559  27.225  1.00  0.00     0.116 C 
BRANCH  28  29
ATOM     29  N   UNL A   1      32.609  34.773  28.007  1.00  0.00    -0.352 N 
ATOM     30  C   UNL A   1      33.309  35.184  29.122  1.00  0.00     0.251 C 
ATOM     31  H   UNL A   1      31.892  35.374  27.702  1.00  0.00     0.163 HD
ATOM     32  O   UNL A   1      32.984  36.201  29.719  1.00  0.00    -0.269 OA
BRANCH  30  33
ATOM     33  C   UNL A   1      34.428  34.347  29.612  1.00  0.00     0.039 A 
ATOM     34  C   UNL A   1      35.714  34.586  29.123  1.00  0.00     0.014 A 
ATOM     35  C   UNL A   1      34.213  33.383  30.599  1.00  0.00     0.014 A 
ATOM     36  C   UNL A   1      36.801  33.914  29.687  1.00  0.00     0.010 A 
ATOM     37  C   UNL A   1      35.303  32.773  31.211  1.00  0.00     0.010 A 
ATOM     38  C   UNL A   1      36.608  33.034  30.765  1.00  0.00    -0.014 A 
BRANCH  38  39
ATOM     39  C   UNL A   1      37.753  32.394  31.463  1.00  0.00     0.031 A 
ATOM     40  C   UNL A   1      38.470  31.235  30.827  1.00  0.00     0.074 A 
ATOM     41  C   UNL A   1      38.072  32.782  32.714  1.00  0.00     0.049 A 
ATOM     42  N   UNL A   1      39.434  30.497  31.312  1.00  0.00    -0.248 NA
ATOM     43  C   UNL A   1      38.023  30.830  29.484  1.00  0.00     0.031 C 
ATOM     44  C   UNL A   1      37.389  33.829  33.477  1.00  0.00     0.029 A 
ATOM     45  N   UNL A   1      39.034  32.319  33.577  1.00  0.00    -0.354 N 
ATOM     46  C   UNL A   1      39.679  29.518  30.357  1.00  0.00     0.074 A 
ATOM     47  C   UNL A   1      38.740  29.734  29.278  1.00  0.00     0.031 C 
ATOM     48  C   UNL A   1      37.954  33.931  34.690  1.00  0.00     0.029 A 
ATOM     49  C   UNL A   1      39.023  32.944  34.802  1.00  0.00     0.049 A 
ATOM     50  H   UNL A   1      39.670  31.607  33.341  1.00  0.00     0.167 HD
ATOM     51  C   UNL A   1      40.623  28.547  30.359  1.00  0.00     0.034 A 
ATOM     52  C   UNL A   1      39.789  32.745  35.894  1.00  0.00     0.034 A 
ATOM     53  C   UNL A   1      41.598  28.377  31.402  1.00  0.00     0.049 A 
ATOM     54  C   UNL A   1      40.881  31.710  35.840  1.00  0.00     0.074 A 
ATOM     55  C   UNL A   1      42.660  27.492  31.450  1.00  0.00     0.029 A 
ATOM     56  N   UNL A   1      41.630  29.106  32.580  1.00  0.00    -0.354 N 
ATOM     57  N   UNL A   1      41.209  30.908  34.856  1.00  0.00    -0.248 NA
ATOM     58  C   UNL A   1      41.733  31.578  37.031  1.00  0.00     0.031 C 
ATOM     59  C   UNL A   1      43.333  27.683  32.662  1.00  0.00     0.029 A 
ATOM     60  C   UNL A   1      42.695  28.693  33.363  1.00  0.00     0.049 A 
ATOM     61  H   UNL A   1      40.991  29.814  32.823  1.00  0.00     0.167 HD
ATOM     62  C   UNL A   1      42.324  30.204  35.294  1.00  0.00     0.074 A 
ATOM     63  C   UNL A   1      42.628  30.687  36.624  1.00  0.00     0.031 C 
ATOM     64  C   UNL A   1      43.022  29.230  34.659  1.00  0.00     0.034 A 
BRANCH  51  65
ATOM     65  C   UNL A   1      40.695  27.642  29.158  1.00  0.00     0.023 A 
ATOM     66  C   UNL A   1      39.853  26.514  29.094  1.00  0.00     0.012 A 
ATOM     67  C   UNL A   1      41.553  27.927  28.079  1.00  0.00     0.148 A 
ATOM     68  C   UNL A   1      39.885  25.664  27.989  1.00  0.00     0.002 A 
ATOM     69  C   UNL A   1      41.549  27.097  26.962  1.00  0.00     0.091 A 
ATOM     70  F   UNL A   1      42.365  28.990  28.167  1.00  0.00    -0.205 F 
ATOM     71  C   UNL A   1      40.725  25.960  26.921  1.00  0.00     0.022 A 
BRANCH  69  72
ATOM     72  S   UNL A   1      42.543  27.437  25.504  1.00  0.00     0.127 S 
ATOM     73  O   UNL A   1      42.289  26.247  24.692  1.00  0.00    -0.237 OA
ATOM     74  O   UNL A   1      41.933  28.665  24.993  1.00  0.00    -0.237 OA
ATOM     75  O   UNL A   1      43.909  27.593  25.980  1.00  0.00    -0.744 OA
ENDBRANCH  69  72
ENDBRANCH  51  65
BRANCH  52  76
ATOM     76  C   UNL A   1      39.609  33.607  37.096  1.00  0.00     0.023 A 
ATOM     77  C   UNL A   1      40.116  34.922  37.079  1.00  0.00     0.012 A 
ATOM     78  C   UNL A   1      38.917  33.153  38.234  1.00  0.00     0.148 A 
ATOM     79  C   UNL A   1      39.962  35.759  38.184  1.00  0.00     0.002 A 
ATOM     80  C   UNL A   1      38.721  34.011  39.312  1.00  0.00     0.091 A 
ATOM     81  F   UNL A   1      38.454  31.896  38.238  1.00  0.00    -0.205 F 
ATOM     82  C   UNL A   1      39.255  35.308  39.296  1.00  0.00     0.022 A 
BRANCH  80  83
ATOM     83  S   UNL A   1      37.713  33.556  40.728  1.00  0.00     0.127 S 
ATOM     84  O   UNL A   1      37.588  34.831  41.430  1.00  0.00    -0.237 OA
ATOM     85  O   UNL A   1      36.484  33.081  40.089  1.00  0.00    -0.237 OA
ATOM     86  O   UNL A   1      38.462  32.517  41.421  1.00  0.00    -0.744 OA
ENDBRANCH  80  83
ENDBRANCH  52  76
BRANCH  64  87
ATOM     87  C   UNL A   1      44.206  28.636  35.375  1.00  0.00     0.023 A 
ATOM     88  C   UNL A   1      45.495  29.152  35.133  1.00  0.00     0.012 A 
ATOM     89  C   UNL A   1      44.031  27.631  36.345  1.00  0.00     0.148 A 
ATOM     90  C   UNL A   1      46.596  28.657  35.830  1.00  0.00     0.002 A 
ATOM     91  C   UNL A   1      45.128  27.175  37.068  1.00  0.00     0.091 A 
ATOM     92  F   UNL A   1      42.800  27.140  36.546  1.00  0.00    -0.205 F 
ATOM     93  C   UNL A   1      46.412  27.679  36.805  1.00  0.00     0.022 A 
BRANCH  91  94
ATOM     94  S   UNL A   1      44.966  25.985  38.405  1.00  0.00     0.127 S 
ATOM     95  O   UNL A   1      43.988  26.641  39.271  1.00  0.00    -0.237 OA
ATOM     96  O   UNL A   1      44.465  24.799  37.709  1.00  0.00    -0.237 OA
ATOM     97  O   UNL A   1      46.301  25.834  38.967  1.00  0.00    -0.744 OA
ENDBRANCH  91  94
ENDBRANCH  64  87
ENDBRANCH  38  39
ENDBRANCH  30  33
ENDBRANCH  28  29
ENDBRANCH  27  28
ENDBRANCH   1  27
TORSDOF 20
ENDMDL
MODEL 3
REMARK VINA RESULT:     -11.1      5.846      9.543
REMARK SMILES CCOc1cc(OCC)cc(-c2ccc([C@@H](C)C(=O)NCCCCNC(=O)c3ccc(-c4c5nc(c(-c6cccc(S(=O)(=O)[O-])c6F)c6ccc([nH]6)c(-c6cccc(S(=O)(=O)[O-])c6F)c6nc(c(-c7cccc(S(=O)(=O)[O-])c7F)c7ccc4[nH]7)C=C6)C=C5)cc3)cc2)c1
REMARK SMILES IDX 22 1 21 2 20 3 18 4 19 5 16 7 17 8 15 9 12 10 13 11 92 12
REMARK SMILES IDX 14 13 91 14 11 15 4 16 5 17 93 18 6 19 10 20 3 21 2 22 1 23
REMARK SMILES IDX 7 24 8 25 9 26 23 27 24 28 25 29 26 30 27 32 28 33 29 34
REMARK SMILES IDX 90 35 30 36 89 37 31 38 32 39 33 40 83 41 34 42 88 43 82 44
REMARK SMILES IDX 84 45 35 46 87 47 81 48 80 49 36 51 68 52 48 53 67 54 49 55
REMARK SMILES IDX 52 56 66 57 85 58 50 59 51 60 65 62 86 63 53 64 37 65 38 66
REMARK SMILES IDX 46 67 39 68 41 69 47 70 40 71 42 72 43 73 44 74 45 75 69 76
REMARK SMILES IDX 70 77 78 78 71 79 73 80 79 81 72 82 74 83 75 84 76 85 77 86
REMARK SMILES IDX 54 87 55 88 63 89 56 90 58 91 64 92 57 93 59 94 60 95 61 96
REMARK SMILES IDX 62 97
REMARK H PARENT 20 6 25 31 84 50 52 61
REMARK Flexibility Score: inf
ROOT
ATOM      1  C   UNL A   1      32.220  30.869  26.934  1.00  0.00     0.023 C 
ENDROOT
BRANCH   1   2
ATOM      2  C   UNL A   1      32.698  29.487  26.486  1.00  0.00     0.116 C 
BRANCH   2   3
ATOM      3  N   UNL A   1      31.624  28.676  25.947  1.00  0.00    -0.356 N 
ATOM      4  C   UNL A   1      31.527  27.941  24.805  1.00  0.00     0.227 C 
ATOM      5  O   UNL A   1      30.446  27.376  24.598  1.00  0.00    -0.274 OA
ATOM      6  H   UNL A   1      30.817  28.652  26.510  1.00  0.00     0.163 HD
BRANCH   4   7
ATOM      7  C   UNL A   1      32.671  27.777  23.791  1.00  0.00     0.105 C 
ATOM      8  C   UNL A   1      32.302  28.161  22.359  1.00  0.00     0.023 C 
BRANCH   7   9
ATOM      9  C   UNL A   1      33.431  26.471  23.958  1.00  0.00    -0.036 A 
ATOM     10  C   UNL A   1      34.634  23.921  24.409  1.00  0.00    -0.018 A 
ATOM     11  C   UNL A   1      34.182  24.313  23.138  1.00  0.00     0.009 A 
ATOM     12  C   UNL A   1      34.514  24.863  25.442  1.00  0.00     0.009 A 
ATOM     13  C   UNL A   1      33.630  25.576  22.907  1.00  0.00     0.005 A 
ATOM     14  C   UNL A   1      33.903  26.105  25.227  1.00  0.00     0.005 A 
BRANCH  10  15
ATOM     15  C   UNL A   1      35.164  22.556  24.635  1.00  0.00    -0.011 A 
ATOM     16  C   UNL A   1      34.838  20.151  24.850  1.00  0.00     0.123 A 
ATOM     17  C   UNL A   1      36.214  19.949  24.901  1.00  0.00     0.092 A 
ATOM     18  C   UNL A   1      34.318  21.441  24.733  1.00  0.00     0.055 A 
ATOM     19  C   UNL A   1      37.083  21.038  24.831  1.00  0.00     0.123 A 
ATOM     20  C   UNL A   1      36.550  22.324  24.719  1.00  0.00     0.055 A 
BRANCH  16  21
ATOM     21  O   UNL A   1      34.017  19.073  25.039  1.00  0.00    -0.494 OA
BRANCH  21  22
ATOM     22  C   UNL A   1      33.327  18.660  23.850  1.00  0.00     0.226 C 
ATOM     23  C   UNL A   1      33.063  17.162  23.840  1.00  0.00     0.049 C 
ENDBRANCH  21  22
ENDBRANCH  16  21
BRANCH  19  24
ATOM     24  O   UNL A   1      38.419  20.736  24.857  1.00  0.00    -0.494 OA
BRANCH  24  25
ATOM     25  C   UNL A   1      38.829  19.539  25.524  1.00  0.00     0.226 C 
ATOM     26  C   UNL A   1      40.249  19.644  26.062  1.00  0.00     0.049 C 
ENDBRANCH  24  25
ENDBRANCH  19  24
ENDBRANCH  10  15
ENDBRANCH   7   9
ENDBRANCH   4   7
ENDBRANCH   2   3
ENDBRANCH   1   2
BRANCH   1  27
ATOM     27  C   UNL A   1      33.224  31.666  27.767  1.00  0.00     0.023 C 
BRANCH  27  28
ATOM     28  C   UNL A   1      33.678  32.990  27.160  1.00  0.00     0.116 C 
BRANCH  28  29
ATOM     29  N   UNL A   1      32.971  34.156  27.673  1.00  0.00    -0.352 N 
ATOM     30  C   UNL A   1      33.232  34.868  28.824  1.00  0.00     0.251 C 
ATOM     31  H   UNL A   1      32.213  34.473  27.131  1.00  0.00     0.163 HD
ATOM     32  O   UNL A   1      32.500  35.789  29.164  1.00  0.00    -0.269 OA
BRANCH  30  33
ATOM     33  C   UNL A   1      34.382  34.469  29.666  1.00  0.00     0.039 A 
ATOM     34  C   UNL A   1      34.141  33.768  30.850  1.00  0.00     0.014 A 
ATOM     35  C   UNL A   1      35.689  34.726  29.249  1.00  0.00     0.014 A 
ATOM     36  C   UNL A   1      35.217  33.249  31.574  1.00  0.00     0.010 A 
ATOM     37  C   UNL A   1      36.754  34.144  29.930  1.00  0.00     0.010 A 
ATOM     38  C   UNL A   1      36.529  33.397  31.096  1.00  0.00    -0.014 A 
BRANCH  38  39
ATOM     39  C   UNL A   1      37.684  32.759  31.780  1.00  0.00     0.031 A 
ATOM     40  C   UNL A   1      38.380  31.585  31.149  1.00  0.00     0.074 A 
ATOM     41  C   UNL A   1      38.032  33.164  33.018  1.00  0.00     0.049 A 
ATOM     42  N   UNL A   1      39.349  30.848  31.625  1.00  0.00    -0.248 NA
ATOM     43  C   UNL A   1      37.902  31.162  29.821  1.00  0.00     0.031 C 
ATOM     44  C   UNL A   1      37.372  34.229  33.778  1.00  0.00     0.029 A 
ATOM     45  N   UNL A   1      39.008  32.708  33.869  1.00  0.00    -0.354 N 
ATOM     46  C   UNL A   1      39.567  29.852  30.681  1.00  0.00     0.074 A 
ATOM     47  C   UNL A   1      38.608  30.058  29.619  1.00  0.00     0.031 C 
ATOM     48  C   UNL A   1      37.962  34.345  34.978  1.00  0.00     0.029 A 
ATOM     49  C   UNL A   1      39.027  33.352  35.084  1.00  0.00     0.049 A 
ATOM     50  H   UNL A   1      39.634  31.987  33.631  1.00  0.00     0.167 HD
ATOM     51  C   UNL A   1      40.504  28.875  30.679  1.00  0.00     0.034 A 
ATOM     52  C   UNL A   1      39.814  33.165  36.162  1.00  0.00     0.034 A 
ATOM     53  C   UNL A   1      41.499  28.713  31.704  1.00  0.00     0.049 A 
ATOM     54  C   UNL A   1      40.897  32.121  36.103  1.00  0.00     0.074 A 
ATOM     55  C   UNL A   1      42.556  27.822  31.744  1.00  0.00     0.029 A 
ATOM     56  N   UNL A   1      41.561  29.461  32.869  1.00  0.00    -0.354 N 
ATOM     57  N   UNL A   1      41.199  31.302  35.125  1.00  0.00    -0.248 NA
ATOM     58  C   UNL A   1      41.772  32.002  37.278  1.00  0.00     0.031 C 
ATOM     59  C   UNL A   1      43.255  28.027  32.939  1.00  0.00     0.029 A 
ATOM     60  C   UNL A   1      42.638  29.053  33.637  1.00  0.00     0.049 A 
ATOM     61  H   UNL A   1      40.932  30.178  33.115  1.00  0.00     0.167 HD
ATOM     62  C   UNL A   1      42.318  30.596  35.551  1.00  0.00     0.074 A 
ATOM     63  C   UNL A   1      42.653  31.098  36.867  1.00  0.00     0.031 C 
ATOM     64  C   UNL A   1      42.996  29.607  34.918  1.00  0.00     0.034 A 
BRANCH  51  65
ATOM     65  C   UNL A   1      40.545  27.950  29.492  1.00  0.00     0.023 A 
ATOM     66  C   UNL A   1      39.665  26.850  29.444  1.00  0.00     0.012 A 
ATOM     67  C   UNL A   1      41.411  28.190  28.408  1.00  0.00     0.148 A 
ATOM     68  C   UNL A   1      39.668  25.984  28.351  1.00  0.00     0.002 A 
ATOM     69  C   UNL A   1      41.379  27.345  27.304  1.00  0.00     0.091 A 
ATOM     70  F   UNL A   1      42.259  29.226  28.481  1.00  0.00    -0.205 F 
ATOM     71  C   UNL A   1      40.518  26.236  27.278  1.00  0.00     0.022 A 
BRANCH  69  72
ATOM     72  S   UNL A   1      42.383  27.630  25.840  1.00  0.00     0.127 S 
ATOM     73  O   UNL A   1      41.987  26.508  24.989  1.00  0.00    -0.237 OA
ATOM     74  O   UNL A   1      41.906  28.937  25.387  1.00  0.00    -0.237 OA
ATOM     75  O   UNL A   1      43.765  27.615  26.296  1.00  0.00    -0.744 OA
ENDBRANCH  69  72
ENDBRANCH  51  65
BRANCH  52  76
ATOM     76  C   UNL A   1      39.665  34.047  37.354  1.00  0.00     0.023 A 
ATOM     77  C   UNL A   1      40.145  35.370  37.292  1.00  0.00     0.012 A 
ATOM     78  C   UNL A   1      39.026  33.603  38.528  1.00  0.00     0.148 A 
ATOM     79  C   UNL A   1      40.019  36.226  38.387  1.00  0.00     0.002 A 
ATOM     80  C   UNL A   1      38.857  34.478  39.596  1.00  0.00     0.091 A 
ATOM     81  F   UNL A   1      38.588  32.338  38.574  1.00  0.00    -0.205 F 
ATOM     82  C   UNL A   1      39.365  35.784  39.534  1.00  0.00     0.022 A 
BRANCH  80  83
ATOM     83  S   UNL A   1      37.914  34.033  41.059  1.00  0.00     0.127 S 
ATOM     84  O   UNL A   1      36.777  33.324  40.479  1.00  0.00    -0.237 OA
ATOM     85  O   UNL A   1      38.860  33.188  41.789  1.00  0.00    -0.237 OA
ATOM     86  O   UNL A   1      37.608  35.294  41.722  1.00  0.00    -0.744 OA
ENDBRANCH  80  83
ENDBRANCH  52  76
BRANCH  64  87
ATOM     87  C   UNL A   1      44.190  29.016  35.619  1.00  0.00     0.023 A 
ATOM     88  C   UNL A   1      45.449  29.637  35.491  1.00  0.00     0.012 A 
ATOM     89  C   UNL A   1      44.049  27.902  36.467  1.00  0.00     0.148 A 
ATOM     90  C   UNL A   1      46.555  29.141  36.179  1.00  0.00     0.002 A 
ATOM     91  C   UNL A   1      45.147  27.441  37.185  1.00  0.00     0.091 A 
ATOM     92  F   UNL A   1      42.848  27.313  36.558  1.00  0.00    -0.205 F 
ATOM     93  C   UNL A   1      46.402  28.052  37.035  1.00  0.00     0.022 A 
BRANCH  91  94
ATOM     94  S   UNL A   1      45.017  26.104  38.378  1.00  0.00     0.127 S 
ATOM     95  O   UNL A   1      46.357  26.091  38.960  1.00  0.00    -0.237 OA
ATOM     96  O   UNL A   1      43.966  26.587  39.276  1.00  0.00    -0.237 OA
ATOM     97  O   UNL A   1      44.654  24.920  37.611  1.00  0.00    -0.744 OA
ENDBRANCH  91  94
ENDBRANCH  64  87
ENDBRANCH  38  39
ENDBRANCH  30  33
ENDBRANCH  28  29
ENDBRANCH  27  28
ENDBRANCH   1  27
TORSDOF 20
ENDMDL
