MODEL 1
REMARK VINA RESULT:     -11.9      0.000      0.000
REMARK SMILES CC1(C)CC[NH+](CC[C@H]2CCC[C@]2([NH3+])C(=O)NCCCCNC(=O)c2ccc(-c3c4nc(c(-c5cccc(S(=O)(=O)[O-])c5F)c5ccc([nH]5)c(-c5cccc(S(=O)(=O)[O-])c5F)c5nc(c(-c6cccc(S(=O)(=O)[O-])c6F)c6ccc3[nH]6)C=C5)C=C4)cc2)CC1
REMARK SMILES IDX 19 1 18 2 17 3 15 4 16 5 13 7 9 8 10 9 11 10 12 11 8 12 7 13
REMARK SMILES IDX 6 14 1 15 2 16 3 17 4 18 89 19 5 20 88 21 14 23 20 27 21 28
REMARK SMILES IDX 22 29 23 30 24 32 25 33 26 34 87 35 27 36 86 37 28 38 29 39
REMARK SMILES IDX 30 40 80 41 31 42 85 43 79 44 81 45 32 46 84 47 78 48 77 49
REMARK SMILES IDX 33 51 65 52 45 53 64 54 46 55 49 56 63 57 82 58 47 59 48 60
REMARK SMILES IDX 62 62 83 63 50 64 34 65 35 66 43 67 36 68 38 69 44 70 37 71
REMARK SMILES IDX 39 72 40 73 41 74 42 75 66 76 67 77 75 78 68 79 70 80 76 81
REMARK SMILES IDX 69 82 71 83 72 84 73 85 74 86 51 87 52 88 60 89 53 90 55 91
REMARK SMILES IDX 61 92 54 93 56 94 57 95 58 96 59 97
REMARK H PARENT 17 6 6 22 14 24 14 25 14 26 22 31 81 50 49 61
REMARK Flexibility Score: inf
ROOT
ATOM      1  C   UNL A   1      34.741  20.765  24.627  1.00  0.00     0.023 C 
ENDROOT
BRANCH   1   2
ATOM      2  C   UNL A   1      33.246  20.939  24.851  1.00  0.00     0.116 C 
BRANCH   2   3
ATOM      3  N   UNL A   1      32.974  21.486  26.165  1.00  0.00    -0.351 N 
ATOM      4  C   UNL A   1      32.403  22.674  26.516  1.00  0.00     0.281 C 
ATOM      5  O   UNL A   1      32.226  22.867  27.724  1.00  0.00    -0.268 OA
ATOM      6  H   UNL A   1      33.242  20.912  26.919  1.00  0.00     0.163 HD
BRANCH   4   7
ATOM      7  C   UNL A   1      31.983  23.746  25.432  1.00  0.00     0.177 C 
ATOM      8  C   UNL A   1      33.120  23.975  24.382  1.00  0.00     0.066 C 
ATOM      9  C   UNL A   1      34.113  24.846  25.171  1.00  0.00     0.011 C 
ATOM     10  C   UNL A   1      33.312  25.631  26.206  1.00  0.00     0.008 C 
ATOM     11  C   UNL A   1      31.875  25.131  26.098  1.00  0.00     0.079 C 
BRANCH   8  12
ATOM     12  C   UNL A   1      32.666  24.577  23.020  1.00  0.00     0.072 C 
BRANCH  12  13
ATOM     13  C   UNL A   1      33.224  25.926  22.490  1.00  0.00     0.262 C 
BRANCH  13  14
ATOM     14  N   UNL A   1      32.439  27.105  22.135  1.00  0.00    -0.335 N 
ATOM     15  C   UNL A   1      30.421  29.999  24.055  1.00  0.00     0.011 C 
ATOM     16  C   UNL A   1      31.291  28.755  24.297  1.00  0.00    -0.025 C 
ATOM     17  C   UNL A   1      31.405  28.584  25.814  1.00  0.00     0.011 C 
ATOM     18  C   UNL A   1      30.566  27.515  23.717  1.00  0.00     0.068 C 
ATOM     19  C   UNL A   1      32.737  28.954  23.773  1.00  0.00     0.068 C 
ATOM     20  C   UNL A   1      31.002  27.103  22.320  1.00  0.00     0.262 C 
ATOM     21  C   UNL A   1      33.007  28.420  22.376  1.00  0.00     0.262 C 
ATOM     22  H   UNL A   1      32.556  26.926  21.138  1.00  0.00     0.348 HD
ENDBRANCH  13  14
ENDBRANCH  12  13
ENDBRANCH   8  12
BRANCH   7  23
ATOM     23  N   UNL A   1      30.663  23.356  24.892  1.00  0.00    -0.345 N 
ATOM     24  H   UNL A   1      30.398  22.446  25.270  1.00  0.00     0.345 HD
ATOM     25  H   UNL A   1      30.715  23.300  23.875  1.00  0.00     0.345 HD
ATOM     26  H   UNL A   1      29.967  24.052  25.160  1.00  0.00     0.345 HD
ENDBRANCH   7  23
ENDBRANCH   4   7
ENDBRANCH   2   3
ENDBRANCH   1   2
BRANCH   1  27
ATOM     27  C   UNL A   1      35.663  21.429  25.633  1.00  0.00     0.023 C 
BRANCH  27  28
ATOM     28  C   UNL A   1      37.042  21.772  25.090  1.00  0.00     0.116 C 
BRANCH  28  29
ATOM     29  N   UNL A   1      38.070  20.775  25.385  1.00  0.00    -0.352 N 
ATOM     30  C   UNL A   1      39.273  20.905  26.050  1.00  0.00     0.251 C 
ATOM     31  H   UNL A   1      37.873  19.868  25.057  1.00  0.00     0.163 HD
ATOM     32  O   UNL A   1      40.041  19.958  26.127  1.00  0.00    -0.269 OA
BRANCH  30  33
ATOM     33  C   UNL A   1      39.641  22.216  26.629  1.00  0.00     0.039 A 
ATOM     34  C   UNL A   1      40.663  22.287  27.578  1.00  0.00     0.014 A 
ATOM     35  C   UNL A   1      39.034  23.381  26.166  1.00  0.00     0.014 A 
ATOM     36  C   UNL A   1      41.156  23.536  27.968  1.00  0.00     0.010 A 
ATOM     37  C   UNL A   1      39.617  24.608  26.444  1.00  0.00     0.010 A 
ATOM     38  C   UNL A   1      40.681  24.706  27.352  1.00  0.00    -0.014 A 
BRANCH  38  39
ATOM     39  C   UNL A   1      41.262  26.048  27.630  1.00  0.00     0.031 A 
ATOM     40  C   UNL A   1      42.674  26.351  27.194  1.00  0.00     0.074 A 
ATOM     41  C   UNL A   1      40.579  26.942  28.375  1.00  0.00     0.049 A 
ATOM     42  N   UNL A   1      43.423  27.384  27.475  1.00  0.00    -0.248 NA
ATOM     43  C   UNL A   1      43.356  25.330  26.377  1.00  0.00     0.031 C 
ATOM     44  C   UNL A   1      39.242  26.739  28.943  1.00  0.00     0.029 A 
ATOM     45  N   UNL A   1      40.928  28.198  28.809  1.00  0.00    -0.354 N 
ATOM     46  C   UNL A   1      44.669  27.112  26.921  1.00  0.00     0.074 A 
ATOM     47  C   UNL A   1      44.595  25.792  26.337  1.00  0.00     0.031 C 
ATOM     48  C   UNL A   1      38.880  27.835  29.630  1.00  0.00     0.029 A 
ATOM     49  C   UNL A   1      39.967  28.806  29.585  1.00  0.00     0.049 A 
ATOM     50  H   UNL A   1      41.787  28.624  28.586  1.00  0.00     0.167 HD
ATOM     51  C   UNL A   1      45.764  27.905  26.858  1.00  0.00     0.034 A 
ATOM     52  C   UNL A   1      39.965  30.010  30.193  1.00  0.00     0.034 A 
ATOM     53  C   UNL A   1      45.804  29.251  27.356  1.00  0.00     0.049 A 
ATOM     54  C   UNL A   1      41.167  30.903  30.034  1.00  0.00     0.074 A 
ATOM     55  C   UNL A   1      46.832  30.171  27.263  1.00  0.00     0.029 A 
ATOM     56  N   UNL A   1      44.762  29.876  28.021  1.00  0.00    -0.354 N 
ATOM     57  N   UNL A   1      42.284  30.679  29.383  1.00  0.00    -0.248 NA
ATOM     58  C   UNL A   1      41.097  32.232  30.661  1.00  0.00     0.031 C 
ATOM     59  C   UNL A   1      46.409  31.358  27.871  1.00  0.00     0.029 A 
ATOM     60  C   UNL A   1      45.114  31.176  28.331  1.00  0.00     0.049 A 
ATOM     61  H   UNL A   1      43.899  29.455  28.240  1.00  0.00     0.167 HD
ATOM     62  C   UNL A   1      43.026  31.849  29.486  1.00  0.00     0.074 A 
ATOM     63  C   UNL A   1      42.224  32.789  30.241  1.00  0.00     0.031 C 
ATOM     64  C   UNL A   1      44.269  32.119  29.015  1.00  0.00     0.034 A 
BRANCH  51  65
ATOM     65  C   UNL A   1      46.975  27.370  26.138  1.00  0.00     0.023 A 
ATOM     66  C   UNL A   1      47.083  27.550  24.744  1.00  0.00     0.012 A 
ATOM     67  C   UNL A   1      48.026  26.746  26.838  1.00  0.00     0.148 A 
ATOM     68  C   UNL A   1      48.198  27.086  24.049  1.00  0.00     0.002 A 
ATOM     69  C   UNL A   1      49.157  26.328  26.145  1.00  0.00     0.091 A 
ATOM     70  F   UNL A   1      47.899  26.568  28.160  1.00  0.00    -0.205 F 
ATOM     71  C   UNL A   1      49.239  26.486  24.751  1.00  0.00     0.022 A 
BRANCH  69  72
ATOM     72  S   UNL A   1      50.591  25.614  26.959  1.00  0.00     0.127 S 
ATOM     73  O   UNL A   1      50.003  24.453  27.626  1.00  0.00    -0.237 OA
ATOM     74  O   UNL A   1      51.457  25.292  25.826  1.00  0.00    -0.237 OA
ATOM     75  O   UNL A   1      51.105  26.646  27.848  1.00  0.00    -0.744 OA
ENDBRANCH  69  72
ENDBRANCH  51  65
BRANCH  52  76
ATOM     76  C   UNL A   1      38.760  30.485  30.934  1.00  0.00     0.023 A 
ATOM     77  C   UNL A   1      38.655  30.218  32.314  1.00  0.00     0.012 A 
ATOM     78  C   UNL A   1      37.722  31.187  30.294  1.00  0.00     0.148 A 
ATOM     79  C   UNL A   1      37.522  30.600  33.032  1.00  0.00     0.002 A 
ATOM     80  C   UNL A   1      36.617  31.612  31.027  1.00  0.00     0.091 A 
ATOM     81  F   UNL A   1      37.826  31.422  28.978  1.00  0.00    -0.205 F 
ATOM     82  C   UNL A   1      36.507  31.303  32.391  1.00  0.00     0.022 A 
BRANCH  80  83
ATOM     83  S   UNL A   1      35.328  32.634  30.305  1.00  0.00     0.127 S 
ATOM     84  O   UNL A   1      36.075  33.825  29.910  1.00  0.00    -0.237 OA
ATOM     85  O   UNL A   1      34.861  31.803  29.194  1.00  0.00    -0.237 OA
ATOM     86  O   UNL A   1      34.345  32.816  31.365  1.00  0.00    -0.744 OA
ENDBRANCH  80  83
ENDBRANCH  52  76
BRANCH  64  87
ATOM     87  C   UNL A   1      44.822  33.497  29.252  1.00  0.00     0.023 A 
ATOM     88  C   UNL A   1      45.564  33.761  30.420  1.00  0.00     0.012 A 
ATOM     89  C   UNL A   1      44.682  34.503  28.276  1.00  0.00     0.148 A 
ATOM     90  C   UNL A   1      46.131  35.017  30.627  1.00  0.00     0.002 A 
ATOM     91  C   UNL A   1      45.292  35.736  28.467  1.00  0.00     0.091 A 
ATOM     92  F   UNL A   1      43.957  34.234  27.179  1.00  0.00    -0.205 F 
ATOM     93  C   UNL A   1      46.007  35.999  29.646  1.00  0.00     0.022 A 
BRANCH  91  94
ATOM     94  S   UNL A   1      45.266  37.023  27.215  1.00  0.00     0.127 S 
ATOM     95  O   UNL A   1      45.953  38.117  27.898  1.00  0.00    -0.237 OA
ATOM     96  O   UNL A   1      46.027  36.412  26.124  1.00  0.00    -0.237 OA
ATOM     97  O   UNL A   1      43.861  37.258  26.910  1.00  0.00    -0.744 OA
ENDBRANCH  91  94
ENDBRANCH  64  87
ENDBRANCH  38  39
ENDBRANCH  30  33
ENDBRANCH  28  29
ENDBRANCH  27  28
ENDBRANCH   1  27
TORSDOF 18
ENDMDL
MODEL 2
REMARK VINA RESULT:     -11.8      4.734     10.167
REMARK SMILES CC1(C)CC[NH+](CC[C@H]2CCC[C@]2([NH3+])C(=O)NCCCCNC(=O)c2ccc(-c3c4nc(c(-c5cccc(S(=O)(=O)[O-])c5F)c5ccc([nH]5)c(-c5cccc(S(=O)(=O)[O-])c5F)c5nc(c(-c6cccc(S(=O)(=O)[O-])c6F)c6ccc3[nH]6)C=C5)C=C4)cc2)CC1
REMARK SMILES IDX 19 1 18 2 17 3 15 4 16 5 13 7 9 8 10 9 11 10 12 11 8 12 7 13
REMARK SMILES IDX 6 14 1 15 2 16 3 17 4 18 89 19 5 20 88 21 14 23 20 27 21 28
REMARK SMILES IDX 22 29 23 30 24 32 25 33 26 34 87 35 27 36 86 37 28 38 29 39
REMARK SMILES IDX 30 40 80 41 31 42 85 43 79 44 81 45 32 46 84 47 78 48 77 49
REMARK SMILES IDX 33 51 65 52 45 53 64 54 46 55 49 56 63 57 82 58 47 59 48 60
REMARK SMILES IDX 62 62 83 63 50 64 34 65 35 66 43 67 36 68 38 69 44 70 37 71
REMARK SMILES IDX 39 72 40 73 41 74 42 75 66 76 67 77 75 78 68 79 70 80 76 81
REMARK SMILES IDX 69 82 71 83 72 84 73 85 74 86 51 87 52 88 60 89 53 90 55 91
REMARK SMILES IDX 61 92 54 93 56 94 57 95 58 96 59 97
REMARK H PARENT 17 6 6 22 14 24 14 25 14 26 22 31 81 50 49 61
REMARK Flexibility Score: inf
ROOT
ATOM      1  C   UNL A   1      32.001  27.756  27.048  1.00  0.00     0.023 C 
ENDROOT
BRANCH   1   2
ATOM      2  C   UNL A   1      31.060  26.922  26.190  1.00  0.00     0.116 C 
BRANCH   2   3
ATOM      3  N   UNL A   1      30.736  27.605  24.954  1.00  0.00    -0.351 N 
ATOM      4  C   UNL A   1      30.725  27.136  23.673  1.00  0.00     0.281 C 
ATOM      5  O   UNL A   1      30.341  27.920  22.800  1.00  0.00    -0.268 OA
ATOM      6  H   UNL A   1      30.485  28.551  25.054  1.00  0.00     0.163 HD
BRANCH   4   7
ATOM      7  C   UNL A   1      31.173  25.659  23.325  1.00  0.00     0.177 C 
ATOM      8  C   UNL A   1      32.443  25.240  24.138  1.00  0.00     0.066 C 
ATOM      9  C   UNL A   1      33.563  25.986  23.390  1.00  0.00     0.011 C 
ATOM     10  C   UNL A   1      33.112  26.152  21.941  1.00  0.00     0.008 C 
ATOM     11  C   UNL A   1      31.689  25.610  21.874  1.00  0.00     0.079 C 
BRANCH   8  12
ATOM     12  C   UNL A   1      32.670  23.708  24.287  1.00  0.00     0.072 C 
BRANCH  12  13
ATOM     13  C   UNL A   1      32.738  23.017  25.677  1.00  0.00     0.262 C 
BRANCH  13  14
ATOM     14  N   UNL A   1      33.896  22.334  26.246  1.00  0.00    -0.335 N 
ATOM     15  C   UNL A   1      37.692  21.565  25.182  1.00  0.00     0.011 C 
ATOM     16  C   UNL A   1      36.415  22.277  24.708  1.00  0.00    -0.025 C 
ATOM     17  C   UNL A   1      36.734  22.898  23.346  1.00  0.00     0.011 C 
ATOM     18  C   UNL A   1      35.295  21.224  24.517  1.00  0.00     0.068 C 
ATOM     19  C   UNL A   1      36.033  23.455  25.642  1.00  0.00     0.068 C 
ATOM     20  C   UNL A   1      34.340  21.072  25.690  1.00  0.00     0.262 C 
ATOM     21  C   UNL A   1      35.013  23.131  26.721  1.00  0.00     0.262 C 
ATOM     22  H   UNL A   1      33.371  22.062  27.077  1.00  0.00     0.348 HD
ENDBRANCH  13  14
ENDBRANCH  12  13
ENDBRANCH   8  12
BRANCH   7  23
ATOM     23  N   UNL A   1      29.993  24.780  23.459  1.00  0.00    -0.345 N 
ATOM     24  H   UNL A   1      29.502  24.734  22.566  1.00  0.00     0.345 HD
ATOM     25  H   UNL A   1      29.368  25.155  24.172  1.00  0.00     0.345 HD
ATOM     26  H   UNL A   1      30.296  23.844  23.729  1.00  0.00     0.345 HD
ENDBRANCH   7  23
ENDBRANCH   4   7
ENDBRANCH   2   3
ENDBRANCH   1   2
BRANCH   1  27
ATOM     27  C   UNL A   1      31.661  29.227  27.200  1.00  0.00     0.023 C 
BRANCH  27  28
ATOM     28  C   UNL A   1      32.531  30.161  26.371  1.00  0.00     0.116 C 
BRANCH  28  29
ATOM     29  N   UNL A   1      32.444  31.567  26.760  1.00  0.00    -0.352 N 
ATOM     30  C   UNL A   1      33.343  32.360  27.445  1.00  0.00     0.251 C 
ATOM     31  H   UNL A   1      31.612  32.021  26.492  1.00  0.00     0.163 HD
ATOM     32  O   UNL A   1      33.050  33.507  27.747  1.00  0.00    -0.269 OA
BRANCH  30  33
ATOM     33  C   UNL A   1      34.648  31.790  27.848  1.00  0.00     0.039 A 
ATOM     34  C   UNL A   1      35.716  32.646  28.126  1.00  0.00     0.014 A 
ATOM     35  C   UNL A   1      34.785  30.416  28.035  1.00  0.00     0.014 A 
ATOM     36  C   UNL A   1      36.879  32.130  28.707  1.00  0.00     0.010 A 
ATOM     37  C   UNL A   1      35.875  29.932  28.741  1.00  0.00     0.010 A 
ATOM     38  C   UNL A   1      36.941  30.777  29.082  1.00  0.00    -0.014 A 
BRANCH  38  39
ATOM     39  C   UNL A   1      38.098  30.205  29.824  1.00  0.00     0.031 A 
ATOM     40  C   UNL A   1      38.367  30.652  31.239  1.00  0.00     0.074 A 
ATOM     41  C   UNL A   1      38.970  29.389  29.196  1.00  0.00     0.049 A 
ATOM     42  N   UNL A   1      39.400  30.409  32.001  1.00  0.00    -0.248 NA
ATOM     43  C   UNL A   1      37.365  31.538  31.863  1.00  0.00     0.031 C 
ATOM     44  C   UNL A   1      38.881  28.954  27.799  1.00  0.00     0.029 A 
ATOM     45  N   UNL A   1      40.126  28.799  29.646  1.00  0.00    -0.354 N 
ATOM     46  C   UNL A   1      39.199  31.150  33.161  1.00  0.00     0.074 A 
ATOM     47  C   UNL A   1      37.975  31.898  32.981  1.00  0.00     0.031 C 
ATOM     48  C   UNL A   1      39.923  28.154  27.515  1.00  0.00     0.029 A 
ATOM     49  C   UNL A   1      40.774  28.045  28.694  1.00  0.00     0.049 A 
ATOM     50  H   UNL A   1      40.460  28.905  30.567  1.00  0.00     0.167 HD
ATOM     51  C   UNL A   1      39.937  31.173  34.296  1.00  0.00     0.034 A 
ATOM     52  C   UNL A   1      41.926  27.348  28.764  1.00  0.00     0.034 A 
ATOM     53  C   UNL A   1      41.099  30.357  34.507  1.00  0.00     0.049 A 
ATOM     54  C   UNL A   1      42.681  27.326  30.067  1.00  0.00     0.074 A 
ATOM     55  C   UNL A   1      41.867  30.235  35.651  1.00  0.00     0.029 A 
ATOM     56  N   UNL A   1      41.648  29.507  33.560  1.00  0.00    -0.354 N 
ATOM     57  N   UNL A   1      42.395  27.924  31.199  1.00  0.00    -0.248 NA
ATOM     58  C   UNL A   1      43.899  26.502  30.117  1.00  0.00     0.031 C 
ATOM     59  C   UNL A   1      42.882  29.307  35.396  1.00  0.00     0.029 A 
ATOM     60  C   UNL A   1      42.736  28.845  34.097  1.00  0.00     0.049 A 
ATOM     61  H   UNL A   1      41.313  29.393  32.642  1.00  0.00     0.167 HD
ATOM     62  C   UNL A   1      43.369  27.515  32.102  1.00  0.00     0.074 A 
ATOM     63  C   UNL A   1      44.239  26.601  31.394  1.00  0.00     0.031 C 
ATOM     64  C   UNL A   1      43.541  27.879  33.397  1.00  0.00     0.034 A 
BRANCH  51  65
ATOM     65  C   UNL A   1      39.449  32.034  35.431  1.00  0.00     0.023 A 
ATOM     66  C   UNL A   1      38.570  31.483  36.386  1.00  0.00     0.012 A 
ATOM     67  C   UNL A   1      39.898  33.360  35.589  1.00  0.00     0.148 A 
ATOM     68  C   UNL A   1      38.116  32.245  37.460  1.00  0.00     0.002 A 
ATOM     69  C   UNL A   1      39.477  34.099  36.689  1.00  0.00     0.091 A 
ATOM     70  F   UNL A   1      40.719  33.873  34.663  1.00  0.00    -0.205 F 
ATOM     71  C   UNL A   1      38.577  33.548  37.617  1.00  0.00     0.022 A 
BRANCH  69  72
ATOM     72  S   UNL A   1      40.070  35.760  37.032  1.00  0.00     0.127 S 
ATOM     73  O   UNL A   1      39.333  36.090  38.251  1.00  0.00    -0.237 OA
ATOM     74  O   UNL A   1      41.502  35.539  37.226  1.00  0.00    -0.237 OA
ATOM     75  O   UNL A   1      39.728  36.560  35.865  1.00  0.00    -0.744 OA
ENDBRANCH  69  72
ENDBRANCH  51  65
BRANCH  52  76
ATOM     76  C   UNL A   1      42.398  26.541  27.601  1.00  0.00     0.023 A 
ATOM     77  C   UNL A   1      43.179  27.164  26.606  1.00  0.00     0.012 A 
ATOM     78  C   UNL A   1      42.080  25.177  27.464  1.00  0.00     0.148 A 
ATOM     79  C   UNL A   1      43.596  26.458  25.478  1.00  0.00     0.002 A 
ATOM     80  C   UNL A   1      42.545  24.464  26.361  1.00  0.00     0.091 A 
ATOM     81  F   UNL A   1      41.325  24.599  28.409  1.00  0.00    -0.205 F 
ATOM     82  C   UNL A   1      43.286  25.108  25.359  1.00  0.00     0.022 A 
BRANCH  80  83
ATOM     83  S   UNL A   1      42.298  22.692  26.198  1.00  0.00     0.127 S 
ATOM     84  O   UNL A   1      42.956  22.413  24.925  1.00  0.00    -0.237 OA
ATOM     85  O   UNL A   1      42.992  22.173  27.378  1.00  0.00    -0.237 OA
ATOM     86  O   UNL A   1      40.853  22.503  26.229  1.00  0.00    -0.744 OA
ENDBRANCH  80  83
ENDBRANCH  52  76
BRANCH  64  87
ATOM     87  C   UNL A   1      44.678  27.250  34.154  1.00  0.00     0.023 A 
ATOM     88  C   UNL A   1      45.911  27.926  34.253  1.00  0.00     0.012 A 
ATOM     89  C   UNL A   1      44.497  26.033  34.839  1.00  0.00     0.148 A 
ATOM     90  C   UNL A   1      46.956  27.384  34.998  1.00  0.00     0.002 A 
ATOM     91  C   UNL A   1      45.527  25.524  35.619  1.00  0.00     0.091 A 
ATOM     92  F   UNL A   1      43.322  25.398  34.717  1.00  0.00    -0.205 F 
ATOM     93  C   UNL A   1      46.761  26.191  35.691  1.00  0.00     0.022 A 
BRANCH  91  94
ATOM     94  S   UNL A   1      45.330  24.047  36.623  1.00  0.00     0.127 S 
ATOM     95  O   UNL A   1      46.708  23.570  36.724  1.00  0.00    -0.237 OA
ATOM     96  O   UNL A   1      44.779  24.586  37.866  1.00  0.00    -0.237 OA
ATOM     97  O   UNL A   1      44.420  23.181  35.886  1.00  0.00    -0.744 OA
ENDBRANCH  91  94
ENDBRANCH  64  87
ENDBRANCH  38  39
ENDBRANCH  30  33
ENDBRANCH  28  29
ENDBRANCH  27  28
ENDBRANCH   1  27
TORSDOF 18
ENDMDL
MODEL 3
REMARK VINA RESULT:     -11.7      5.032     10.332
REMARK SMILES CC1(C)CC[NH+](CC[C@H]2CCC[C@]2([NH3+])C(=O)NCCCCNC(=O)c2ccc(-c3c4nc(c(-c5cccc(S(=O)(=O)[O-])c5F)c5ccc([nH]5)c(-c5cccc(S(=O)(=O)[O-])c5F)c5nc(c(-c6cccc(S(=O)(=O)[O-])c6F)c6ccc3[nH]6)C=C5)C=C4)cc2)CC1
REMARK SMILES IDX 19 1 18 2 17 3 15 4 16 5 13 7 9 8 10 9 11 10 12 11 8 12 7 13
REMARK SMILES IDX 6 14 1 15 2 16 3 17 4 18 89 19 5 20 88 21 14 23 20 27 21 28
REMARK SMILES IDX 22 29 23 30 24 32 25 33 26 34 87 35 27 36 86 37 28 38 29 39
REMARK SMILES IDX 30 40 80 41 31 42 85 43 79 44 81 45 32 46 84 47 78 48 77 49
REMARK SMILES IDX 33 51 65 52 45 53 64 54 46 55 49 56 63 57 82 58 47 59 48 60
REMARK SMILES IDX 62 62 83 63 50 64 34 65 35 66 43 67 36 68 38 69 44 70 37 71
REMARK SMILES IDX 39 72 40 73 41 74 42 75 66 76 67 77 75 78 68 79 70 80 76 81
REMARK SMILES IDX 69 82 71 83 72 84 73 85 74 86 51 87 52 88 60 89 53 90 55 91
REMARK SMILES IDX 61 92 54 93 56 94 57 95 58 96 59 97
REMARK H PARENT 17 6 6 22 14 24 14 25 14 26 22 31 81 50 49 61
REMARK Flexibility Score: inf
ROOT
ATOM      1  C   UNL A   1      33.453  29.231  25.043  1.00  0.00     0.023 C 
ENDROOT
BRANCH   1   2
ATOM      2  C   UNL A   1      33.276  28.327  23.831  1.00  0.00     0.116 C 
BRANCH   2   3
ATOM      3  N   UNL A   1      31.877  28.024  23.604  1.00  0.00    -0.351 N 
ATOM      4  C   UNL A   1      31.100  27.035  24.132  1.00  0.00     0.281 C 
ATOM      5  O   UNL A   1      29.905  27.042  23.817  1.00  0.00    -0.268 OA
ATOM      6  H   UNL A   1      31.417  28.625  22.974  1.00  0.00     0.163 HD
BRANCH   4   7
ATOM      7  C   UNL A   1      31.697  25.939  25.104  1.00  0.00     0.177 C 
ATOM      8  C   UNL A   1      33.139  25.514  24.671  1.00  0.00     0.066 C 
ATOM      9  C   UNL A   1      32.855  24.600  23.465  1.00  0.00     0.011 C 
ATOM     10  C   UNL A   1      31.475  23.983  23.676  1.00  0.00     0.008 C 
ATOM     11  C   UNL A   1      30.910  24.625  24.938  1.00  0.00     0.079 C 
BRANCH   8  12
ATOM     12  C   UNL A   1      34.013  24.868  25.785  1.00  0.00     0.072 C 
BRANCH  12  13
ATOM     13  C   UNL A   1      34.821  23.564  25.545  1.00  0.00     0.262 C 
BRANCH  13  14
ATOM     14  N   UNL A   1      34.636  22.293  26.240  1.00  0.00    -0.335 N 
ATOM     15  C   UNL A   1      32.789  18.793  25.556  1.00  0.00     0.011 C 
ATOM     16  C   UNL A   1      33.082  20.160  24.918  1.00  0.00    -0.025 C 
ATOM     17  C   UNL A   1      32.419  20.154  23.538  1.00  0.00     0.011 C 
ATOM     18  C   UNL A   1      32.420  21.266  25.776  1.00  0.00     0.068 C 
ATOM     19  C   UNL A   1      34.599  20.365  24.669  1.00  0.00     0.068 C 
ATOM     20  C   UNL A   1      33.337  21.945  26.780  1.00  0.00     0.262 C 
ATOM     21  C   UNL A   1      35.344  21.122  25.755  1.00  0.00     0.262 C 
ATOM     22  H   UNL A   1      35.157  22.621  27.053  1.00  0.00     0.348 HD
ENDBRANCH  13  14
ENDBRANCH  12  13
ENDBRANCH   8  12
BRANCH   7  23
ATOM     23  N   UNL A   1      31.550  26.430  26.491  1.00  0.00    -0.345 N 
ATOM     24  H   UNL A   1      32.159  25.891  27.107  1.00  0.00     0.345 HD
ATOM     25  H   UNL A   1      30.581  26.321  26.789  1.00  0.00     0.345 HD
ATOM     26  H   UNL A   1      31.810  27.415  26.531  1.00  0.00     0.345 HD
ENDBRANCH   7  23
ENDBRANCH   4   7
ENDBRANCH   2   3
ENDBRANCH   1   2
BRANCH   1  27
ATOM     27  C   UNL A   1      32.236  30.020  25.488  1.00  0.00     0.023 C 
BRANCH  27  28
ATOM     28  C   UNL A   1      32.275  30.469  26.941  1.00  0.00     0.116 C 
BRANCH  28  29
ATOM     29  N   UNL A   1      32.370  31.917  27.121  1.00  0.00    -0.352 N 
ATOM     30  C   UNL A   1      33.411  32.690  27.597  1.00  0.00     0.251 C 
ATOM     31  H   UNL A   1      31.565  32.421  26.862  1.00  0.00     0.163 HD
ATOM     32  O   UNL A   1      33.267  33.894  27.747  1.00  0.00    -0.269 OA
BRANCH  30  33
ATOM     33  C   UNL A   1      34.687  32.037  27.964  1.00  0.00     0.039 A 
ATOM     34  C   UNL A   1      35.845  32.808  28.085  1.00  0.00     0.014 A 
ATOM     35  C   UNL A   1      34.715  30.679  28.273  1.00  0.00     0.014 A 
ATOM     36  C   UNL A   1      36.998  32.238  28.633  1.00  0.00     0.010 A 
ATOM     37  C   UNL A   1      35.809  30.158  28.947  1.00  0.00     0.010 A 
ATOM     38  C   UNL A   1      36.968  30.925  29.132  1.00  0.00    -0.014 A 
BRANCH  38  39
ATOM     39  C   UNL A   1      38.123  30.315  29.846  1.00  0.00     0.031 A 
ATOM     40  C   UNL A   1      38.428  30.737  31.262  1.00  0.00     0.074 A 
ATOM     41  C   UNL A   1      38.964  29.486  29.192  1.00  0.00     0.049 A 
ATOM     42  N   UNL A   1      39.467  30.457  32.002  1.00  0.00    -0.248 NA
ATOM     43  C   UNL A   1      37.460  31.639  31.915  1.00  0.00     0.031 C 
ATOM     44  C   UNL A   1      38.840  29.072  27.791  1.00  0.00     0.029 A 
ATOM     45  N   UNL A   1      40.112  28.861  29.614  1.00  0.00    -0.354 N 
ATOM     46  C   UNL A   1      39.306  31.188  33.175  1.00  0.00     0.074 A 
ATOM     47  C   UNL A   1      38.098  31.968  33.026  1.00  0.00     0.031 C 
ATOM     48  C   UNL A   1      39.856  28.251  27.479  1.00  0.00     0.029 A 
ATOM     49  C   UNL A   1      40.725  28.105  28.641  1.00  0.00     0.049 A 
ATOM     50  H   UNL A   1      40.465  28.947  30.530  1.00  0.00     0.167 HD
ATOM     51  C   UNL A   1      40.063  31.177  34.297  1.00  0.00     0.034 A 
ATOM     52  C   UNL A   1      41.860  27.379  28.682  1.00  0.00     0.034 A 
ATOM     53  C   UNL A   1      41.208  30.330  34.477  1.00  0.00     0.049 A 
ATOM     54  C   UNL A   1      42.636  27.320  29.971  1.00  0.00     0.074 A 
ATOM     55  C   UNL A   1      41.993  30.174  35.605  1.00  0.00     0.029 A 
ATOM     56  N   UNL A   1      41.719  29.479  33.509  1.00  0.00    -0.354 N 
ATOM     57  N   UNL A   1      42.385  27.910  31.115  1.00  0.00    -0.248 NA
ATOM     58  C   UNL A   1      43.834  26.466  29.988  1.00  0.00     0.031 C 
ATOM     59  C   UNL A   1      42.979  29.224  35.320  1.00  0.00     0.029 A 
ATOM     60  C   UNL A   1      42.800  28.783  34.018  1.00  0.00     0.049 A 
ATOM     61  H   UNL A   1      41.365  29.386  32.596  1.00  0.00     0.167 HD
ATOM     62  C   UNL A   1      43.364  27.465  31.995  1.00  0.00     0.074 A 
ATOM     63  C   UNL A   1      44.199  26.539  31.261  1.00  0.00     0.031 C 
ATOM     64  C   UNL A   1      43.568  27.807  33.292  1.00  0.00     0.034 A 
BRANCH  51  65
ATOM     65  C   UNL A   1      39.617  32.035  35.452  1.00  0.00     0.023 A 
ATOM     66  C   UNL A   1      39.996  33.393  35.488  1.00  0.00     0.012 A 
ATOM     67  C   UNL A   1      38.783  31.523  36.465  1.00  0.00     0.148 A 
ATOM     68  C   UNL A   1      39.585  34.220  36.531  1.00  0.00     0.002 A 
ATOM     69  C   UNL A   1      38.339  32.366  37.477  1.00  0.00     0.091 A 
ATOM     70  F   UNL A   1      38.447  30.226  36.424  1.00  0.00    -0.205 F 
ATOM     71  C   UNL A   1      38.748  33.710  37.518  1.00  0.00     0.022 A 
BRANCH  69  72
ATOM     72  S   UNL A   1      37.194  31.834  38.756  1.00  0.00     0.127 S 
ATOM     73  O   UNL A   1      37.975  32.075  39.969  1.00  0.00    -0.237 OA
ATOM     74  O   UNL A   1      36.071  32.750  38.562  1.00  0.00    -0.237 OA
ATOM     75  O   UNL A   1      36.898  30.436  38.477  1.00  0.00    -0.744 OA
ENDBRANCH  69  72
ENDBRANCH  51  65
BRANCH  52  76
ATOM     76  C   UNL A   1      42.291  26.576  27.500  1.00  0.00     0.023 A 
ATOM     77  C   UNL A   1      43.006  27.211  26.464  1.00  0.00     0.012 A 
ATOM     78  C   UNL A   1      42.000  25.204  27.386  1.00  0.00     0.148 A 
ATOM     79  C   UNL A   1      43.382  26.508  25.319  1.00  0.00     0.002 A 
ATOM     80  C   UNL A   1      42.425  24.495  26.265  1.00  0.00     0.091 A 
ATOM     81  F   UNL A   1      41.307  24.614  28.371  1.00  0.00    -0.205 F 
ATOM     82  C   UNL A   1      43.098  25.150  25.223  1.00  0.00     0.022 A 
BRANCH  80  83
ATOM     83  S   UNL A   1      42.212  22.717  26.123  1.00  0.00     0.127 S 
ATOM     84  O   UNL A   1      42.802  22.447  24.815  1.00  0.00    -0.237 OA
ATOM     85  O   UNL A   1      42.985  22.221  27.263  1.00  0.00    -0.237 OA
ATOM     86  O   UNL A   1      40.776  22.493  26.237  1.00  0.00    -0.744 OA
ENDBRANCH  80  83
ENDBRANCH  52  76
BRANCH  64  87
ATOM     87  C   UNL A   1      44.702  27.140  34.020  1.00  0.00     0.023 A 
ATOM     88  C   UNL A   1      45.986  27.719  33.993  1.00  0.00     0.012 A 
ATOM     89  C   UNL A   1      44.475  25.991  34.802  1.00  0.00     0.148 A 
ATOM     90  C   UNL A   1      47.035  27.145  34.709  1.00  0.00     0.002 A 
ATOM     91  C   UNL A   1      45.513  25.453  35.552  1.00  0.00     0.091 A 
ATOM     92  F   UNL A   1      43.248  25.447  34.799  1.00  0.00    -0.205 F 
ATOM     93  C   UNL A   1      46.796  26.021  35.498  1.00  0.00     0.022 A 
BRANCH  91  94
ATOM     94  S   UNL A   1      45.271  24.068  36.669  1.00  0.00     0.127 S 
ATOM     95  O   UNL A   1      44.326  24.626  37.635  1.00  0.00    -0.237 OA
ATOM     96  O   UNL A   1      44.708  23.048  35.784  1.00  0.00    -0.237 OA
ATOM     97  O   UNL A   1      46.589  23.745  37.198  1.00  0.00    -0.744 OA
ENDBRANCH  91  94
ENDBRANCH  64  87
ENDBRANCH  38  39
ENDBRANCH  30  33
ENDBRANCH  28  29
ENDBRANCH  27  28
ENDBRANCH   1  27
TORSDOF 18
ENDMDL
