MODEL 1
REMARK VINA RESULT:     -11.7      0.000      0.000
REMARK SMILES COc1ccccc1[C@@H]1CN(C(=O)Cc2csc(C)n2)C[C@H]1C(=O)NCCCCNC(=O)c1ccc(-c2c3nc(c(-c4cccc(S(=O)(=O)[O-])c4F)c4ccc([nH]4)c(-c4cccc(S(=O)(=O)[O-])c4F)c4nc(c(-c5cccc(S(=O)(=O)[O-])c5F)c5ccc2[nH]5)C=C4)C=C3)cc1
REMARK SMILES IDX 27 1 26 2 25 3 23 4 24 5 22 7 9 8 10 9 11 10 21 11 8 12 3 13
REMARK SMILES IDX 4 14 5 15 7 16 6 17 2 18 1 19 12 20 13 21 14 22 15 23 16 24
REMARK SMILES IDX 20 25 17 26 18 27 19 28 28 29 29 30 30 31 31 32 32 34 33 35
REMARK SMILES IDX 34 36 95 37 35 38 94 39 36 40 37 41 38 42 88 43 39 44 93 45
REMARK SMILES IDX 87 46 89 47 40 48 92 49 86 50 85 51 41 53 73 54 53 55 72 56
REMARK SMILES IDX 54 57 57 58 71 59 90 60 55 61 56 62 70 64 91 65 58 66 42 67
REMARK SMILES IDX 43 68 51 69 44 70 46 71 52 72 45 73 47 74 48 75 49 76 50 77
REMARK SMILES IDX 74 78 75 79 83 80 76 81 78 82 84 83 77 84 79 85 80 86 81 87
REMARK SMILES IDX 82 88 59 89 60 90 68 91 61 92 63 93 69 94 62 95 64 96 65 97
REMARK SMILES IDX 66 98 67 99
REMARK H PARENT 25 6 30 33 89 52 57 63
REMARK Flexibility Score: inf
ROOT
ATOM      1  C   UNL A   1      33.646  26.186  25.678  1.00  0.00     0.023 C 
ENDROOT
BRANCH   1   2
ATOM      2  C   UNL A   1      33.021  24.931  26.283  1.00  0.00     0.116 C 
BRANCH   2   3
ATOM      3  N   UNL A   1      31.676  25.184  26.763  1.00  0.00    -0.356 N 
ATOM      4  C   UNL A   1      30.494  25.275  26.101  1.00  0.00     0.225 C 
ATOM      5  O   UNL A   1      29.483  25.503  26.770  1.00  0.00    -0.275 OA
ATOM      6  H   UNL A   1      31.608  25.312  27.737  1.00  0.00     0.163 HD
BRANCH   4   7
ATOM      7  C   UNL A   1      30.377  25.089  24.599  1.00  0.00     0.107 C 
ATOM      8  C   UNL A   1      31.083  26.164  23.753  1.00  0.00     0.057 C 
ATOM      9  C   UNL A   1      31.654  25.405  22.557  1.00  0.00     0.128 C 
ATOM     10  N   UNL A   1      31.863  24.056  23.051  1.00  0.00    -0.341 N 
ATOM     11  C   UNL A   1      30.948  23.748  24.138  1.00  0.00     0.133 C 
BRANCH   8  12
ATOM     12  C   UNL A   1      30.267  27.400  23.443  1.00  0.00    -0.000 A 
ATOM     13  C   UNL A   1      30.780  28.701  23.323  1.00  0.00     0.122 A 
ATOM     14  C   UNL A   1      29.931  29.785  23.068  1.00  0.00     0.047 A 
ATOM     15  C   UNL A   1      28.558  29.591  22.923  1.00  0.00     0.004 A 
ATOM     16  C   UNL A   1      28.875  27.229  23.284  1.00  0.00     0.008 A 
ATOM     17  C   UNL A   1      28.028  28.312  23.039  1.00  0.00     0.001 A 
BRANCH  13  18
ATOM     18  O   UNL A   1      32.082  29.008  23.608  1.00  0.00    -0.496 OA
ATOM     19  C   UNL A   1      32.953  28.855  22.490  1.00  0.00     0.278 C 
ENDBRANCH  13  18
ENDBRANCH   8  12
BRANCH  10  20
ATOM     20  C   UNL A   1      32.709  23.094  22.534  1.00  0.00     0.228 C 
ATOM     21  O   UNL A   1      32.278  21.994  22.180  1.00  0.00    -0.274 OA
BRANCH  20  22
ATOM     22  C   UNL A   1      34.201  23.382  22.519  1.00  0.00     0.157 C 
BRANCH  22  23
ATOM     23  C   UNL A   1      34.886  22.982  23.785  1.00  0.00     0.061 A 
ATOM     24  C   UNL A   1      34.557  21.907  24.591  1.00  0.00     0.091 A 
ATOM     25  N   UNL A   1      35.954  23.736  24.244  1.00  0.00    -0.246 NA
ATOM     26  S   UNL A   1      35.573  21.869  25.970  1.00  0.00    -0.127 S 
ATOM     27  C   UNL A   1      36.388  23.265  25.391  1.00  0.00     0.090 A 
ATOM     28  C   UNL A   1      37.502  23.863  26.172  1.00  0.00     0.079 C 
ENDBRANCH  22  23
ENDBRANCH  20  22
ENDBRANCH  10  20
ENDBRANCH   4   7
ENDBRANCH   2   3
ENDBRANCH   1   2
BRANCH   1  29
ATOM     29  C   UNL A   1      33.392  27.465  26.473  1.00  0.00     0.023 C 
BRANCH  29  30
ATOM     30  C   UNL A   1      34.316  28.626  26.130  1.00  0.00     0.116 C 
BRANCH  30  31
ATOM     31  N   UNL A   1      33.835  29.904  26.634  1.00  0.00    -0.352 N 
ATOM     32  C   UNL A   1      34.390  30.707  27.598  1.00  0.00     0.251 C 
ATOM     33  H   UNL A   1      33.000  30.236  26.230  1.00  0.00     0.163 HD
ATOM     34  O   UNL A   1      33.787  31.698  27.999  1.00  0.00    -0.269 OA
BRANCH  32  35
ATOM     35  C   UNL A   1      35.702  30.343  28.168  1.00  0.00     0.039 A 
ATOM     36  C   UNL A   1      35.743  29.674  29.391  1.00  0.00     0.014 A 
ATOM     37  C   UNL A   1      36.881  30.624  27.470  1.00  0.00     0.014 A 
ATOM     38  C   UNL A   1      36.968  29.232  29.889  1.00  0.00     0.010 A 
ATOM     39  C   UNL A   1      38.089  30.112  27.928  1.00  0.00     0.010 A 
ATOM     40  C   UNL A   1      38.146  29.419  29.146  1.00  0.00    -0.014 A 
BRANCH  40  41
ATOM     41  C   UNL A   1      39.446  28.895  29.631  1.00  0.00     0.031 A 
ATOM     42  C   UNL A   1      40.163  29.582  30.763  1.00  0.00     0.074 A 
ATOM     43  C   UNL A   1      40.012  27.841  29.010  1.00  0.00     0.049 A 
ATOM     44  N   UNL A   1      41.310  29.281  31.314  1.00  0.00    -0.248 NA
ATOM     45  C   UNL A   1      39.523  30.781  31.331  1.00  0.00     0.031 C 
ATOM     46  C   UNL A   1      39.458  27.148  27.844  1.00  0.00     0.029 A 
ATOM     47  N   UNL A   1      41.188  27.180  29.259  1.00  0.00    -0.354 N 
ATOM     48  C   UNL A   1      41.540  30.261  32.271  1.00  0.00     0.074 A 
ATOM     49  C   UNL A   1      40.439  31.195  32.194  1.00  0.00     0.031 C 
ATOM     50  C   UNL A   1      40.286  26.153  27.488  1.00  0.00     0.029 A 
ATOM     51  C   UNL A   1      41.437  26.147  28.385  1.00  0.00     0.049 A 
ATOM     52  H   UNL A   1      41.797  27.423  29.995  1.00  0.00     0.167 HD
ATOM     53  C   UNL A   1      42.552  30.354  33.165  1.00  0.00     0.034 A 
ATOM     54  C   UNL A   1      42.475  25.290  28.321  1.00  0.00     0.034 A 
ATOM     55  C   UNL A   1      43.621  29.399  33.269  1.00  0.00     0.049 A 
ATOM     56  C   UNL A   1      43.561  25.386  29.358  1.00  0.00     0.074 A 
ATOM     57  C   UNL A   1      44.657  29.361  34.184  1.00  0.00     0.029 A 
ATOM     58  N   UNL A   1      43.790  28.310  32.427  1.00  0.00    -0.354 N 
ATOM     59  N   UNL A   1      43.675  26.225  30.360  1.00  0.00    -0.248 NA
ATOM     60  C   UNL A   1      44.640  24.391  29.283  1.00  0.00     0.031 C 
ATOM     61  C   UNL A   1      45.460  28.253  33.889  1.00  0.00     0.029 A 
ATOM     62  C   UNL A   1      44.912  27.592  32.802  1.00  0.00     0.049 A 
ATOM     63  H   UNL A   1      43.199  28.081  31.674  1.00  0.00     0.167 HD
ATOM     64  C   UNL A   1      44.814  25.834  31.056  1.00  0.00     0.074 A 
ATOM     65  C   UNL A   1      45.340  24.669  30.374  1.00  0.00     0.031 C 
ATOM     66  C   UNL A   1      45.385  26.399  32.149  1.00  0.00     0.034 A 
BRANCH  53  67
ATOM     67  C   UNL A   1      42.508  31.492  34.152  1.00  0.00     0.023 A 
ATOM     68  C   UNL A   1      43.201  32.686  33.857  1.00  0.00     0.012 A 
ATOM     69  C   UNL A   1      41.750  31.408  35.335  1.00  0.00     0.148 A 
ATOM     70  C   UNL A   1      43.170  33.764  34.740  1.00  0.00     0.002 A 
ATOM     71  C   UNL A   1      41.687  32.504  36.189  1.00  0.00     0.091 A 
ATOM     72  F   UNL A   1      41.117  30.260  35.610  1.00  0.00    -0.205 F 
ATOM     73  C   UNL A   1      42.406  33.677  35.901  1.00  0.00     0.022 A 
BRANCH  71  74
ATOM     74  S   UNL A   1      40.670  32.524  37.670  1.00  0.00     0.127 S 
ATOM     75  O   UNL A   1      39.499  31.765  37.234  1.00  0.00    -0.237 OA
ATOM     76  O   UNL A   1      41.521  31.829  38.637  1.00  0.00    -0.237 OA
ATOM     77  O   UNL A   1      40.429  33.927  37.973  1.00  0.00    -0.744 OA
ENDBRANCH  71  74
ENDBRANCH  53  67
BRANCH  54  78
ATOM     78  C   UNL A   1      42.494  24.213  27.291  1.00  0.00     0.023 A 
ATOM     79  C   UNL A   1      43.391  24.311  26.207  1.00  0.00     0.012 A 
ATOM     80  C   UNL A   1      41.648  23.092  27.380  1.00  0.00     0.148 A 
ATOM     81  C   UNL A   1      43.415  23.333  25.212  1.00  0.00     0.002 A 
ATOM     82  C   UNL A   1      41.716  22.094  26.415  1.00  0.00     0.091 A 
ATOM     83  F   UNL A   1      40.792  23.021  28.409  1.00  0.00    -0.205 F 
ATOM     84  C   UNL A   1      42.586  22.220  25.320  1.00  0.00     0.022 A 
BRANCH  82  85
ATOM     85  S   UNL A   1      40.780  20.567  26.549  1.00  0.00     0.127 S 
ATOM     86  O   UNL A   1      41.462  19.711  25.583  1.00  0.00    -0.237 OA
ATOM     87  O   UNL A   1      40.987  20.202  27.951  1.00  0.00    -0.237 OA
ATOM     88  O   UNL A   1      39.405  20.926  26.224  1.00  0.00    -0.744 OA
ENDBRANCH  82  85
ENDBRANCH  54  78
BRANCH  66  89
ATOM     89  C   UNL A   1      46.623  25.743  32.702  1.00  0.00     0.023 A 
ATOM     90  C   UNL A   1      46.513  24.819  33.759  1.00  0.00     0.012 A 
ATOM     91  C   UNL A   1      47.885  25.995  32.130  1.00  0.00     0.148 A 
ATOM     92  C   UNL A   1      47.646  24.184  34.265  1.00  0.00     0.002 A 
ATOM     93  C   UNL A   1      49.004  25.321  32.607  1.00  0.00     0.091 A 
ATOM     94  F   UNL A   1      47.973  26.893  31.137  1.00  0.00    -0.205 F 
ATOM     95  C   UNL A   1      48.888  24.424  33.682  1.00  0.00     0.022 A 
BRANCH  93  96
ATOM     96  S   UNL A   1      50.625  25.500  31.853  1.00  0.00     0.127 S 
ATOM     97  O   UNL A   1      51.510  25.301  32.999  1.00  0.00    -0.237 OA
ATOM     98  O   UNL A   1      50.636  24.411  30.876  1.00  0.00    -0.237 OA
ATOM     99  O   UNL A   1      50.646  26.833  31.266  1.00  0.00    -0.744 OA
ENDBRANCH  93  96
ENDBRANCH  66  89
ENDBRANCH  40  41
ENDBRANCH  32  35
ENDBRANCH  30  31
ENDBRANCH  29  30
ENDBRANCH   1  29
TORSDOF 19
ENDMDL
MODEL 2
REMARK VINA RESULT:     -11.7      4.962      8.564
REMARK SMILES COc1ccccc1[C@@H]1CN(C(=O)Cc2csc(C)n2)C[C@H]1C(=O)NCCCCNC(=O)c1ccc(-c2c3nc(c(-c4cccc(S(=O)(=O)[O-])c4F)c4ccc([nH]4)c(-c4cccc(S(=O)(=O)[O-])c4F)c4nc(c(-c5cccc(S(=O)(=O)[O-])c5F)c5ccc2[nH]5)C=C4)C=C3)cc1
REMARK SMILES IDX 27 1 26 2 25 3 23 4 24 5 22 7 9 8 10 9 11 10 21 11 8 12 3 13
REMARK SMILES IDX 4 14 5 15 7 16 6 17 2 18 1 19 12 20 13 21 14 22 15 23 16 24
REMARK SMILES IDX 20 25 17 26 18 27 19 28 28 29 29 30 30 31 31 32 32 34 33 35
REMARK SMILES IDX 34 36 95 37 35 38 94 39 36 40 37 41 38 42 88 43 39 44 93 45
REMARK SMILES IDX 87 46 89 47 40 48 92 49 86 50 85 51 41 53 73 54 53 55 72 56
REMARK SMILES IDX 54 57 57 58 71 59 90 60 55 61 56 62 70 64 91 65 58 66 42 67
REMARK SMILES IDX 43 68 51 69 44 70 46 71 52 72 45 73 47 74 48 75 49 76 50 77
REMARK SMILES IDX 74 78 75 79 83 80 76 81 78 82 84 83 77 84 79 85 80 86 81 87
REMARK SMILES IDX 82 88 59 89 60 90 68 91 61 92 63 93 69 94 62 95 64 96 65 97
REMARK SMILES IDX 66 98 67 99
REMARK H PARENT 25 6 30 33 89 52 57 63
REMARK Flexibility Score: inf
ROOT
ATOM      1  C   UNL A   1      36.701  20.968  24.977  1.00  0.00     0.023 C 
ENDROOT
BRANCH   1   2
ATOM      2  C   UNL A   1      36.805  22.238  24.136  1.00  0.00     0.116 C 
BRANCH   2   3
ATOM      3  N   UNL A   1      36.278  23.390  24.841  1.00  0.00    -0.356 N 
ATOM      4  C   UNL A   1      35.153  24.122  24.637  1.00  0.00     0.225 C 
ATOM      5  O   UNL A   1      34.943  25.068  25.402  1.00  0.00    -0.275 OA
ATOM      6  H   UNL A   1      36.830  23.693  25.598  1.00  0.00     0.163 HD
BRANCH   4   7
ATOM      7  C   UNL A   1      34.155  23.808  23.537  1.00  0.00     0.107 C 
ATOM      8  C   UNL A   1      32.797  23.269  24.024  1.00  0.00     0.057 C 
ATOM      9  C   UNL A   1      31.772  23.888  23.076  1.00  0.00     0.128 C 
ATOM     10  N   UNL A   1      32.389  25.125  22.632  1.00  0.00    -0.341 N 
ATOM     11  C   UNL A   1      33.839  25.032  22.679  1.00  0.00     0.133 C 
BRANCH   8  12
ATOM     12  C   UNL A   1      32.716  21.771  24.224  1.00  0.00    -0.000 A 
ATOM     13  C   UNL A   1      33.122  21.085  25.379  1.00  0.00     0.122 A 
ATOM     14  C   UNL A   1      33.037  19.689  25.451  1.00  0.00     0.047 A 
ATOM     15  C   UNL A   1      32.542  18.954  24.375  1.00  0.00     0.004 A 
ATOM     16  C   UNL A   1      32.211  21.004  23.152  1.00  0.00     0.008 A 
ATOM     17  C   UNL A   1      32.135  19.612  23.221  1.00  0.00     0.001 A 
BRANCH  13  18
ATOM     18  O   UNL A   1      33.766  21.704  26.416  1.00  0.00    -0.496 OA
ATOM     19  C   UNL A   1      32.881  22.165  27.433  1.00  0.00     0.278 C 
ENDBRANCH  13  18
ENDBRANCH   8  12
BRANCH  10  20
ATOM     20  C   UNL A   1      31.759  26.236  22.107  1.00  0.00     0.228 C 
ATOM     21  O   UNL A   1      31.356  26.246  20.941  1.00  0.00    -0.274 OA
BRANCH  20  22
ATOM     22  C   UNL A   1      31.677  27.488  22.965  1.00  0.00     0.157 C 
BRANCH  22  23
ATOM     23  C   UNL A   1      30.422  28.267  22.742  1.00  0.00     0.061 A 
ATOM     24  C   UNL A   1      30.314  29.476  22.080  1.00  0.00     0.091 A 
ATOM     25  N   UNL A   1      29.225  27.776  23.238  1.00  0.00    -0.246 NA
ATOM     26  S   UNL A   1      28.693  30.030  22.120  1.00  0.00    -0.127 S 
ATOM     27  C   UNL A   1      28.248  28.620  22.992  1.00  0.00     0.090 A 
ATOM     28  C   UNL A   1      26.840  28.414  23.420  1.00  0.00     0.079 C 
ENDBRANCH  22  23
ENDBRANCH  20  22
ENDBRANCH  10  20
ENDBRANCH   4   7
ENDBRANCH   2   3
ENDBRANCH   1   2
BRANCH   1  29
ATOM     29  C   UNL A   1      37.927  20.060  24.903  1.00  0.00     0.023 C 
BRANCH  29  30
ATOM     30  C   UNL A   1      39.013  20.368  25.925  1.00  0.00     0.116 C 
BRANCH  30  31
ATOM     31  N   UNL A   1      40.015  19.316  26.025  1.00  0.00    -0.352 N 
ATOM     32  C   UNL A   1      41.370  19.439  26.200  1.00  0.00     0.251 C 
ATOM     33  H   UNL A   1      39.675  18.394  25.957  1.00  0.00     0.163 HD
ATOM     34  O   UNL A   1      42.094  18.450  26.136  1.00  0.00    -0.269 OA
BRANCH  32  35
ATOM     35  C   UNL A   1      41.946  20.778  26.432  1.00  0.00     0.039 A 
ATOM     36  C   UNL A   1      41.963  21.695  25.380  1.00  0.00     0.014 A 
ATOM     37  C   UNL A   1      42.423  21.136  27.696  1.00  0.00     0.014 A 
ATOM     38  C   UNL A   1      42.407  22.996  25.613  1.00  0.00     0.010 A 
ATOM     39  C   UNL A   1      42.788  22.454  27.945  1.00  0.00     0.010 A 
ATOM     40  C   UNL A   1      42.792  23.395  26.905  1.00  0.00    -0.014 A 
BRANCH  40  41
ATOM     41  C   UNL A   1      43.202  24.793  27.182  1.00  0.00     0.031 A 
ATOM     42  C   UNL A   1      42.224  25.759  27.796  1.00  0.00     0.074 A 
ATOM     43  C   UNL A   1      44.431  25.210  26.819  1.00  0.00     0.049 A 
ATOM     44  N   UNL A   1      42.393  27.019  28.099  1.00  0.00    -0.248 NA
ATOM     45  C   UNL A   1      40.871  25.251  28.081  1.00  0.00     0.031 C 
ATOM     46  C   UNL A   1      45.436  24.393  26.134  1.00  0.00     0.029 A 
ATOM     47  N   UNL A   1      45.040  26.431  26.959  1.00  0.00    -0.354 N 
ATOM     48  C   UNL A   1      41.169  27.461  28.584  1.00  0.00     0.074 A 
ATOM     49  C   UNL A   1      40.250  26.348  28.490  1.00  0.00     0.031 C 
ATOM     50  C   UNL A   1      46.538  25.130  25.926  1.00  0.00     0.029 A 
ATOM     51  C   UNL A   1      46.314  26.476  26.444  1.00  0.00     0.049 A 
ATOM     52  H   UNL A   1      44.605  27.204  27.389  1.00  0.00     0.167 HD
ATOM     53  C   UNL A   1      40.846  28.669  29.103  1.00  0.00     0.034 A 
ATOM     54  C   UNL A   1      47.203  27.489  26.399  1.00  0.00     0.034 A 
ATOM     55  C   UNL A   1      41.774  29.759  29.235  1.00  0.00     0.049 A 
ATOM     56  C   UNL A   1      46.834  28.805  27.028  1.00  0.00     0.074 A 
ATOM     57  C   UNL A   1      41.569  31.000  29.810  1.00  0.00     0.029 A 
ATOM     58  N   UNL A   1      43.086  29.736  28.787  1.00  0.00    -0.354 N 
ATOM     59  N   UNL A   1      45.722  29.151  27.630  1.00  0.00    -0.248 NA
ATOM     60  C   UNL A   1      47.860  29.859  27.009  1.00  0.00     0.031 C 
ATOM     61  C   UNL A   1      42.756  31.733  29.701  1.00  0.00     0.029 A 
ATOM     62  C   UNL A   1      43.704  30.941  29.075  1.00  0.00     0.049 A 
ATOM     63  H   UNL A   1      43.514  28.976  28.333  1.00  0.00     0.167 HD
ATOM     64  C   UNL A   1      45.928  30.445  28.096  1.00  0.00     0.074 A 
ATOM     65  C   UNL A   1      47.280  30.811  27.727  1.00  0.00     0.031 C 
ATOM     66  C   UNL A   1      45.070  31.264  28.754  1.00  0.00     0.034 A 
BRANCH  53  67
ATOM     67  C   UNL A   1      39.446  28.848  29.634  1.00  0.00     0.023 A 
ATOM     68  C   UNL A   1      39.154  28.442  30.953  1.00  0.00     0.012 A 
ATOM     69  C   UNL A   1      38.441  29.457  28.860  1.00  0.00     0.148 A 
ATOM     70  C   UNL A   1      37.875  28.606  31.481  1.00  0.00     0.002 A 
ATOM     71  C   UNL A   1      37.179  29.658  29.409  1.00  0.00     0.091 A 
ATOM     72  F   UNL A   1      38.730  29.816  27.601  1.00  0.00    -0.205 F 
ATOM     73  C   UNL A   1      36.891  29.222  30.714  1.00  0.00     0.022 A 
BRANCH  71  74
ATOM     74  S   UNL A   1      35.864  30.512  28.533  1.00  0.00     0.127 S 
ATOM     75  O   UNL A   1      35.181  29.402  27.870  1.00  0.00    -0.237 OA
ATOM     76  O   UNL A   1      35.110  31.123  29.629  1.00  0.00    -0.237 OA
ATOM     77  O   UNL A   1      36.522  31.461  27.647  1.00  0.00    -0.744 OA
ENDBRANCH  71  74
ENDBRANCH  53  67
BRANCH  54  78
ATOM     78  C   UNL A   1      48.557  27.271  25.815  1.00  0.00     0.023 A 
ATOM     79  C   UNL A   1      49.604  26.829  26.650  1.00  0.00     0.012 A 
ATOM     80  C   UNL A   1      48.814  27.483  24.448  1.00  0.00     0.148 A 
ATOM     81  C   UNL A   1      50.890  26.642  26.140  1.00  0.00     0.002 A 
ATOM     82  C   UNL A   1      50.084  27.240  23.936  1.00  0.00     0.091 A 
ATOM     83  F   UNL A   1      47.811  27.916  23.671  1.00  0.00    -0.205 F 
ATOM     84  C   UNL A   1      51.128  26.837  24.783  1.00  0.00     0.022 A 
BRANCH  82  85
ATOM     85  S   UNL A   1      50.442  27.339  22.178  1.00  0.00     0.127 S 
ATOM     86  O   UNL A   1      51.806  26.822  22.121  1.00  0.00    -0.237 OA
ATOM     87  O   UNL A   1      49.423  26.457  21.608  1.00  0.00    -0.237 OA
ATOM     88  O   UNL A   1      50.277  28.744  21.828  1.00  0.00    -0.744 OA
ENDBRANCH  82  85
ENDBRANCH  54  78
BRANCH  66  89
ATOM     89  C   UNL A   1      45.577  32.625  29.151  1.00  0.00     0.023 A 
ATOM     90  C   UNL A   1      46.241  32.792  30.383  1.00  0.00     0.012 A 
ATOM     91  C   UNL A   1      45.454  33.722  28.276  1.00  0.00     0.148 A 
ATOM     92  C   UNL A   1      46.740  34.040  30.754  1.00  0.00     0.002 A 
ATOM     93  C   UNL A   1      45.998  34.951  28.632  1.00  0.00     0.091 A 
ATOM     94  F   UNL A   1      44.802  33.548  27.117  1.00  0.00    -0.205 F 
ATOM     95  C   UNL A   1      46.630  35.115  29.875  1.00  0.00     0.022 A 
BRANCH  93  96
ATOM     96  S   UNL A   1      45.984  36.363  27.520  1.00  0.00     0.127 S 
ATOM     97  O   UNL A   1      44.604  36.827  27.645  1.00  0.00    -0.237 OA
ATOM     98  O   UNL A   1      46.982  37.245  28.126  1.00  0.00    -0.237 OA
ATOM     99  O   UNL A   1      46.357  35.843  26.211  1.00  0.00    -0.744 OA
ENDBRANCH  93  96
ENDBRANCH  66  89
ENDBRANCH  40  41
ENDBRANCH  32  35
ENDBRANCH  30  31
ENDBRANCH  29  30
ENDBRANCH   1  29
TORSDOF 19
ENDMDL
MODEL 3
REMARK VINA RESULT:     -11.6      3.557      8.503
REMARK SMILES COc1ccccc1[C@@H]1CN(C(=O)Cc2csc(C)n2)C[C@H]1C(=O)NCCCCNC(=O)c1ccc(-c2c3nc(c(-c4cccc(S(=O)(=O)[O-])c4F)c4ccc([nH]4)c(-c4cccc(S(=O)(=O)[O-])c4F)c4nc(c(-c5cccc(S(=O)(=O)[O-])c5F)c5ccc2[nH]5)C=C4)C=C3)cc1
REMARK SMILES IDX 27 1 26 2 25 3 23 4 24 5 22 7 9 8 10 9 11 10 21 11 8 12 3 13
REMARK SMILES IDX 4 14 5 15 7 16 6 17 2 18 1 19 12 20 13 21 14 22 15 23 16 24
REMARK SMILES IDX 20 25 17 26 18 27 19 28 28 29 29 30 30 31 31 32 32 34 33 35
REMARK SMILES IDX 34 36 95 37 35 38 94 39 36 40 37 41 38 42 88 43 39 44 93 45
REMARK SMILES IDX 87 46 89 47 40 48 92 49 86 50 85 51 41 53 73 54 53 55 72 56
REMARK SMILES IDX 54 57 57 58 71 59 90 60 55 61 56 62 70 64 91 65 58 66 42 67
REMARK SMILES IDX 43 68 51 69 44 70 46 71 52 72 45 73 47 74 48 75 49 76 50 77
REMARK SMILES IDX 74 78 75 79 83 80 76 81 78 82 84 83 77 84 79 85 80 86 81 87
REMARK SMILES IDX 82 88 59 89 60 90 68 91 61 92 63 93 69 94 62 95 64 96 65 97
REMARK SMILES IDX 66 98 67 99
REMARK H PARENT 25 6 30 33 89 52 57 63
REMARK Flexibility Score: inf
ROOT
ATOM      1  C   UNL A   1      31.373  31.051  25.798  1.00  0.00     0.023 C 
ENDROOT
BRANCH   1   2
ATOM      2  C   UNL A   1      32.371  29.926  26.063  1.00  0.00     0.116 C 
BRANCH   2   3
ATOM      3  N   UNL A   1      33.277  29.743  24.946  1.00  0.00    -0.356 N 
ATOM      4  C   UNL A   1      33.337  28.776  23.995  1.00  0.00     0.225 C 
ATOM      5  O   UNL A   1      34.228  28.867  23.146  1.00  0.00    -0.275 OA
ATOM      6  H   UNL A   1      33.968  30.440  24.863  1.00  0.00     0.163 HD
BRANCH   4   7
ATOM      7  C   UNL A   1      32.352  27.623  23.932  1.00  0.00     0.107 C 
ATOM      8  C   UNL A   1      31.548  27.525  22.623  1.00  0.00     0.057 C 
ATOM      9  C   UNL A   1      31.419  26.027  22.356  1.00  0.00     0.128 C 
ATOM     10  N   UNL A   1      32.583  25.443  23.000  1.00  0.00    -0.341 N 
ATOM     11  C   UNL A   1      33.038  26.268  24.107  1.00  0.00     0.133 C 
BRANCH   8  12
ATOM     12  C   UNL A   1      30.269  28.334  22.572  1.00  0.00    -0.000 A 
ATOM     13  C   UNL A   1      29.047  27.953  23.146  1.00  0.00     0.122 A 
ATOM     14  C   UNL A   1      27.910  28.760  23.011  1.00  0.00     0.047 A 
ATOM     15  C   UNL A   1      27.973  29.961  22.307  1.00  0.00     0.004 A 
ATOM     16  C   UNL A   1      30.309  29.559  21.872  1.00  0.00     0.008 A 
ATOM     17  C   UNL A   1      29.174  30.358  21.731  1.00  0.00     0.001 A 
BRANCH  13  18
ATOM     18  O   UNL A   1      28.849  26.723  23.711  1.00  0.00    -0.496 OA
ATOM     19  C   UNL A   1      27.527  26.539  24.209  1.00  0.00     0.278 C 
ENDBRANCH  13  18
ENDBRANCH   8  12
BRANCH  10  20
ATOM     20  C   UNL A   1      33.164  24.219  22.734  1.00  0.00     0.228 C 
ATOM     21  O   UNL A   1      34.346  24.139  22.392  1.00  0.00    -0.274 OA
BRANCH  20  22
ATOM     22  C   UNL A   1      32.280  22.983  22.762  1.00  0.00     0.157 C 
BRANCH  22  23
ATOM     23  C   UNL A   1      32.608  22.056  23.887  1.00  0.00     0.061 A 
ATOM     24  C   UNL A   1      33.152  22.409  25.109  1.00  0.00     0.091 A 
ATOM     25  N   UNL A   1      32.370  20.700  23.736  1.00  0.00    -0.246 NA
ATOM     26  S   UNL A   1      33.415  21.012  26.065  1.00  0.00    -0.127 S 
ATOM     27  C   UNL A   1      32.770  20.044  24.803  1.00  0.00     0.090 A 
ATOM     28  C   UNL A   1      32.691  18.568  24.954  1.00  0.00     0.079 C 
ENDBRANCH  22  23
ENDBRANCH  20  22
ENDBRANCH  10  20
ENDBRANCH   4   7
ENDBRANCH   2   3
ENDBRANCH   1   2
BRANCH   1  29
ATOM     29  C   UNL A   1      31.366  32.152  26.857  1.00  0.00     0.023 C 
BRANCH  29  30
ATOM     30  C   UNL A   1      32.734  32.747  27.167  1.00  0.00     0.116 C 
BRANCH  30  31
ATOM     31  N   UNL A   1      32.660  34.116  27.658  1.00  0.00    -0.352 N 
ATOM     32  C   UNL A   1      33.409  34.714  28.640  1.00  0.00     0.251 C 
ATOM     33  H   UNL A   1      31.982  34.688  27.230  1.00  0.00     0.163 HD
ATOM     34  O   UNL A   1      33.133  35.846  29.025  1.00  0.00    -0.269 OA
BRANCH  32  35
ATOM     35  C   UNL A   1      34.525  33.964  29.249  1.00  0.00     0.039 A 
ATOM     36  C   UNL A   1      35.834  34.323  28.926  1.00  0.00     0.014 A 
ATOM     37  C   UNL A   1      34.274  32.942  30.170  1.00  0.00     0.014 A 
ATOM     38  C   UNL A   1      36.896  33.694  29.573  1.00  0.00     0.010 A 
ATOM     39  C   UNL A   1      35.331  32.376  30.872  1.00  0.00     0.010 A 
ATOM     40  C   UNL A   1      36.653  32.738  30.574  1.00  0.00    -0.014 A 
BRANCH  40  41
ATOM     41  C   UNL A   1      37.771  32.110  31.319  1.00  0.00     0.031 A 
ATOM     42  C   UNL A   1      38.563  30.993  30.692  1.00  0.00     0.074 A 
ATOM     43  C   UNL A   1      38.030  32.499  32.583  1.00  0.00     0.049 A 
ATOM     44  N   UNL A   1      39.563  30.314  31.190  1.00  0.00    -0.248 NA
ATOM     45  C   UNL A   1      38.161  30.563  29.342  1.00  0.00     0.031 C 
ATOM     46  C   UNL A   1      37.274  33.507  33.331  1.00  0.00     0.029 A 
ATOM     47  N   UNL A   1      38.990  32.081  33.470  1.00  0.00    -0.354 N 
ATOM     48  C   UNL A   1      39.893  29.365  30.230  1.00  0.00     0.074 A 
ATOM     49  C   UNL A   1      38.955  29.522  29.141  1.00  0.00     0.031 C 
ATOM     50  C   UNL A   1      37.807  33.638  34.556  1.00  0.00     0.029 A 
ATOM     51  C   UNL A   1      38.927  32.713  34.690  1.00  0.00     0.049 A 
ATOM     52  H   UNL A   1      39.661  31.393  33.253  1.00  0.00     0.167 HD
ATOM     53  C   UNL A   1      40.910  28.472  30.233  1.00  0.00     0.034 A 
ATOM     54  C   UNL A   1      39.692  32.564  35.790  1.00  0.00     0.034 A 
ATOM     55  C   UNL A   1      41.867  28.350  31.298  1.00  0.00     0.049 A 
ATOM     56  C   UNL A   1      40.846  31.600  35.746  1.00  0.00     0.074 A 
ATOM     57  C   UNL A   1      42.976  27.527  31.369  1.00  0.00     0.029 A 
ATOM     58  N   UNL A   1      41.828  29.074  32.480  1.00  0.00    -0.354 N 
ATOM     59  N   UNL A   1      41.240  30.827  34.764  1.00  0.00    -0.248 NA
ATOM     60  C   UNL A   1      41.688  31.519  36.949  1.00  0.00     0.031 C 
ATOM     61  C   UNL A   1      43.604  27.746  32.601  1.00  0.00     0.029 A 
ATOM     62  C   UNL A   1      42.896  28.719  33.287  1.00  0.00     0.049 A 
ATOM     63  H   UNL A   1      41.143  29.741  32.711  1.00  0.00     0.167 HD
ATOM     64  C   UNL A   1      42.396  30.198  35.214  1.00  0.00     0.074 A 
ATOM     65  C   UNL A   1      42.651  30.700  36.548  1.00  0.00     0.031 C 
ATOM     66  C   UNL A   1      43.167  29.275  34.587  1.00  0.00     0.034 A 
BRANCH  53  67
ATOM     67  C   UNL A   1      41.082  27.608  29.010  1.00  0.00     0.023 A 
ATOM     68  C   UNL A   1      40.240  26.490  28.834  1.00  0.00     0.012 A 
ATOM     69  C   UNL A   1      42.029  27.923  28.017  1.00  0.00     0.148 A 
ATOM     70  C   UNL A   1      40.361  25.677  27.708  1.00  0.00     0.002 A 
ATOM     71  C   UNL A   1      42.113  27.133  26.875  1.00  0.00     0.091 A 
ATOM     72  F   UNL A   1      42.835  28.975  28.211  1.00  0.00    -0.205 F 
ATOM     73  C   UNL A   1      41.290  26.004  26.724  1.00  0.00     0.022 A 
BRANCH  71  74
ATOM     74  S   UNL A   1      43.222  27.512  25.513  1.00  0.00     0.127 S 
ATOM     75  O   UNL A   1      43.678  26.180  25.123  1.00  0.00    -0.237 OA
ATOM     76  O   UNL A   1      42.322  28.152  24.552  1.00  0.00    -0.237 OA
ATOM     77  O   UNL A   1      44.246  28.389  26.062  1.00  0.00    -0.744 OA
ENDBRANCH  71  74
ENDBRANCH  53  67
BRANCH  54  78
ATOM     78  C   UNL A   1      39.446  33.410  36.993  1.00  0.00     0.023 A 
ATOM     79  C   UNL A   1      39.940  34.730  37.020  1.00  0.00     0.012 A 
ATOM     80  C   UNL A   1      38.719  32.928  38.097  1.00  0.00     0.148 A 
ATOM     81  C   UNL A   1      39.750  35.538  38.141  1.00  0.00     0.002 A 
ATOM     82  C   UNL A   1      38.484  33.758  39.188  1.00  0.00     0.091 A 
ATOM     83  F   UNL A   1      38.266  31.666  38.061  1.00  0.00    -0.205 F 
ATOM     84  C   UNL A   1      39.015  35.057  39.221  1.00  0.00     0.022 A 
BRANCH  82  85
ATOM     85  S   UNL A   1      37.436  33.263  40.560  1.00  0.00     0.127 S 
ATOM     86  O   UNL A   1      36.214  32.858  39.873  1.00  0.00    -0.237 OA
ATOM     87  O   UNL A   1      38.203  32.166  41.152  1.00  0.00    -0.237 OA
ATOM     88  O   UNL A   1      37.330  34.441  41.411  1.00  0.00    -0.744 OA
ENDBRANCH  82  85
ENDBRANCH  54  78
BRANCH  66  89
ATOM     89  C   UNL A   1      44.383  28.773  35.321  1.00  0.00     0.023 A 
ATOM     90  C   UNL A   1      45.637  29.373  35.090  1.00  0.00     0.012 A 
ATOM     91  C   UNL A   1      44.270  27.753  36.286  1.00  0.00     0.148 A 
ATOM     92  C   UNL A   1      46.767  28.938  35.780  1.00  0.00     0.002 A 
ATOM     93  C   UNL A   1      45.392  27.359  37.006  1.00  0.00     0.091 A 
ATOM     94  F   UNL A   1      43.072  27.181  36.478  1.00  0.00    -0.205 F 
ATOM     95  C   UNL A   1      46.643  27.942  36.746  1.00  0.00     0.022 A 
BRANCH  93  96
ATOM     96  S   UNL A   1      45.304  26.151  38.332  1.00  0.00     0.127 S 
ATOM     97  O   UNL A   1      44.891  24.947  37.612  1.00  0.00    -0.237 OA
ATOM     98  O   UNL A   1      46.682  26.126  38.823  1.00  0.00    -0.237 OA
ATOM     99  O   UNL A   1      44.336  26.676  39.286  1.00  0.00    -0.744 OA
ENDBRANCH  93  96
ENDBRANCH  66  89
ENDBRANCH  40  41
ENDBRANCH  32  35
ENDBRANCH  30  31
ENDBRANCH  29  30
ENDBRANCH   1  29
TORSDOF 19
ENDMDL
