MODEL 1
REMARK VINA RESULT:     -12.9      0.000      0.000
REMARK SMILES CN1C(=O)C[C@H](C(=O)Nc2ccc(C(=O)NCCCCNC(=O)c3ccc(-c4c5nc(c(-c6cccc(S(=O)(=O)[O-])c6F)c6ccc([nH]6)c(-c6cccc(S(=O)(=O)[O-])c6F)c6nc(c(-c7cccc(S(=O)(=O)[O-])c7F)c7ccc4[nH]7)C=C6)C=C5)cc3)cc2)S/C1=[NH+]\c1cccc(C(F)(F)F)c1
REMARK SMILES IDX 18 1 17 2 16 3 14 4 15 5 13 7 10 8 11 9 88 10 12 11 87 12
REMARK SMILES IDX 9 13 7 14 8 15 6 17 1 18 2 19 3 20 90 21 4 22 5 23 89 24
REMARK SMILES IDX 91 25 92 27 93 28 101 29 94 30 96 31 95 32 97 33 98 34 99 35
REMARK SMILES IDX 100 36 19 37 20 38 21 39 22 40 23 42 24 43 25 44 86 45 26 46
REMARK SMILES IDX 85 47 27 48 28 49 29 50 79 51 30 52 84 53 78 54 80 55 31 56
REMARK SMILES IDX 83 57 77 58 76 59 32 61 64 62 44 63 63 64 45 65 48 66 62 67
REMARK SMILES IDX 81 68 46 69 47 70 61 72 82 73 49 74 33 75 34 76 42 77 35 78
REMARK SMILES IDX 37 79 43 80 36 81 38 82 39 83 40 84 41 85 65 86 66 87 74 88
REMARK SMILES IDX 67 89 69 90 75 91 68 92 70 93 71 94 72 95 73 96 50 97 51 98
REMARK SMILES IDX 59 99 52 100 54 101 60 102 53 103 55 104 56 105 57 106
REMARK SMILES IDX 58 107
REMARK H PARENT 16 6 9 16 91 26 21 41 80 60 48 71
REMARK Flexibility Score: inf
ROOT
ATOM      1  C   UNL A   1      37.550  20.336  24.559  1.00  0.00     0.023 C 
ENDROOT
BRANCH   1   2
ATOM      2  C   UNL A   1      36.328  20.853  25.322  1.00  0.00     0.116 C 
BRANCH   2   3
ATOM      3  N   UNL A   1      35.226  19.913  25.231  1.00  0.00    -0.352 N 
ATOM      4  C   UNL A   1      33.866  20.077  25.307  1.00  0.00     0.251 C 
ATOM      5  O   UNL A   1      33.149  19.090  25.143  1.00  0.00    -0.269 OA
ATOM      6  H   UNL A   1      35.508  18.980  25.089  1.00  0.00     0.163 HD
BRANCH   4   7
ATOM      7  C   UNL A   1      33.217  21.403  25.502  1.00  0.00     0.039 A 
ATOM      8  C   UNL A   1      31.992  23.835  26.179  1.00  0.00     0.041 A 
ATOM      9  C   UNL A   1      33.223  23.507  26.738  1.00  0.00     0.027 A 
ATOM     10  C   UNL A   1      31.450  23.029  25.177  1.00  0.00     0.027 A 
ATOM     11  C   UNL A   1      33.815  22.280  26.422  1.00  0.00     0.016 A 
ATOM     12  C   UNL A   1      32.075  21.831  24.823  1.00  0.00     0.016 A 
BRANCH   8  13
ATOM     13  N   UNL A   1      31.317  24.964  26.660  1.00  0.00    -0.325 N 
ATOM     14  C   UNL A   1      31.392  26.251  26.179  1.00  0.00     0.238 C 
ATOM     15  O   UNL A   1      30.816  27.151  26.793  1.00  0.00    -0.273 OA
ATOM     16  H   UNL A   1      30.723  24.821  27.431  1.00  0.00     0.169 HD
BRANCH  14  17
ATOM     17  C   UNL A   1      32.063  26.505  24.825  1.00  0.00     0.160 C 
ATOM     18  C   UNL A   1      29.745  30.060  23.729  1.00  0.00     0.301 C 
ATOM     19  N   UNL A   1      30.622  28.931  24.011  1.00  0.00    -0.194 N 
ATOM     20  C   UNL A   1      30.186  27.694  23.544  1.00  0.00     0.311 C 
ATOM     21  C   UNL A   1      31.720  29.189  24.835  1.00  0.00     0.319 C 
ATOM     22  O   UNL A   1      29.101  27.545  22.970  1.00  0.00    -0.247 OA
ATOM     23  C   UNL A   1      31.075  26.488  23.689  1.00  0.00     0.153 C 
ATOM     24  S   UNL A   1      33.011  28.013  24.824  1.00  0.00    -0.024 SA
ATOM     25  N   UNL A   1      31.759  30.296  25.515  1.00  0.00    -0.235 N 
ATOM     26  H   UNL A   1      31.072  30.984  25.361  1.00  0.00     0.313 HD
BRANCH  25  27
ATOM     27  C   UNL A   1      32.764  30.522  26.462  1.00  0.00     0.126 A 
ATOM     28  C   UNL A   1      33.570  29.448  26.851  1.00  0.00     0.052 A 
ATOM     29  C   UNL A   1      32.982  31.783  27.023  1.00  0.00     0.064 A 
ATOM     30  C   UNL A   1      34.613  29.634  27.755  1.00  0.00     0.005 A 
ATOM     31  C   UNL A   1      34.053  31.993  27.907  1.00  0.00     0.060 A 
ATOM     32  C   UNL A   1      34.860  30.904  28.273  1.00  0.00     0.013 A 
BRANCH  31  33
ATOM     33  C   UNL A   1      34.355  33.369  28.442  1.00  0.00     0.416 C 
ATOM     34  F   UNL A   1      33.768  33.597  29.649  1.00  0.00    -0.166 F 
ATOM     35  F   UNL A   1      35.689  33.569  28.632  1.00  0.00    -0.166 F 
ATOM     36  F   UNL A   1      33.941  34.377  27.626  1.00  0.00    -0.166 F 
ENDBRANCH  31  33
ENDBRANCH  25  27
ENDBRANCH  14  17
ENDBRANCH   8  13
ENDBRANCH   4   7
ENDBRANCH   2   3
ENDBRANCH   1   2
BRANCH   1  37
ATOM     37  C   UNL A   1      38.391  19.315  25.332  1.00  0.00     0.023 C 
BRANCH  37  38
ATOM     38  C   UNL A   1      39.614  19.888  26.037  1.00  0.00     0.116 C 
BRANCH  38  39
ATOM     39  N   UNL A   1      40.794  19.045  25.917  1.00  0.00    -0.352 N 
ATOM     40  C   UNL A   1      42.119  19.412  25.987  1.00  0.00     0.251 C 
ATOM     41  H   UNL A   1      40.623  18.089  25.765  1.00  0.00     0.163 HD
ATOM     42  O   UNL A   1      42.998  18.592  25.759  1.00  0.00    -0.269 OA
BRANCH  40  43
ATOM     43  C   UNL A   1      42.464  20.815  26.301  1.00  0.00     0.039 A 
ATOM     44  C   UNL A   1      42.652  21.178  27.637  1.00  0.00     0.014 A 
ATOM     45  C   UNL A   1      42.632  21.756  25.282  1.00  0.00     0.014 A 
ATOM     46  C   UNL A   1      43.076  22.472  27.946  1.00  0.00     0.010 A 
ATOM     47  C   UNL A   1      43.119  23.022  25.587  1.00  0.00     0.010 A 
ATOM     48  C   UNL A   1      43.344  23.394  26.921  1.00  0.00    -0.014 A 
BRANCH  48  49
ATOM     49  C   UNL A   1      43.878  24.747  27.218  1.00  0.00     0.031 A 
ATOM     50  C   UNL A   1      42.969  25.815  27.763  1.00  0.00     0.074 A 
ATOM     51  C   UNL A   1      45.156  25.041  26.905  1.00  0.00     0.049 A 
ATOM     52  N   UNL A   1      43.235  27.068  28.022  1.00  0.00    -0.248 NA
ATOM     53  C   UNL A   1      41.572  25.430  28.023  1.00  0.00     0.031 C 
ATOM     54  C   UNL A   1      46.112  24.115  26.294  1.00  0.00     0.029 A 
ATOM     55  N   UNL A   1      45.862  26.210  27.031  1.00  0.00    -0.354 N 
ATOM     56  C   UNL A   1      42.034  27.631  28.439  1.00  0.00     0.074 A 
ATOM     57  C   UNL A   1      41.032  26.590  28.368  1.00  0.00     0.031 C 
ATOM     58  C   UNL A   1      47.278  24.751  26.102  1.00  0.00     0.029 A 
ATOM     59  C   UNL A   1      47.149  26.133  26.552  1.00  0.00     0.049 A 
ATOM     60  H   UNL A   1      45.484  27.028  27.428  1.00  0.00     0.167 HD
ATOM     61  C   UNL A   1      41.795  28.890  28.877  1.00  0.00     0.034 A 
ATOM     62  C   UNL A   1      48.114  27.071  26.482  1.00  0.00     0.034 A 
ATOM     63  C   UNL A   1      42.804  29.906  28.997  1.00  0.00     0.049 A 
ATOM     64  C   UNL A   1      47.836  28.447  27.023  1.00  0.00     0.074 A 
ATOM     65  C   UNL A   1      42.683  31.183  29.515  1.00  0.00     0.029 A 
ATOM     66  N   UNL A   1      44.124  29.761  28.594  1.00  0.00    -0.354 N 
ATOM     67  N   UNL A   1      46.739  28.912  27.568  1.00  0.00    -0.248 NA
ATOM     68  C   UNL A   1      48.940  29.417  26.973  1.00  0.00     0.031 C 
ATOM     69  C   UNL A   1      43.928  31.815  29.413  1.00  0.00     0.029 A 
ATOM     70  C   UNL A   1      44.827  30.926  28.847  1.00  0.00     0.049 A 
ATOM     71  H   UNL A   1      44.504  28.949  28.187  1.00  0.00     0.167 HD
ATOM     72  C   UNL A   1      47.030  30.214  27.960  1.00  0.00     0.074 A 
ATOM     73  C   UNL A   1      48.413  30.456  27.607  1.00  0.00     0.031 C 
ATOM     74  C   UNL A   1      46.220  31.132  28.543  1.00  0.00     0.034 A 
BRANCH  61  75
ATOM     75  C   UNL A   1      40.394  29.218  29.323  1.00  0.00     0.023 A 
ATOM     76  C   UNL A   1      39.464  29.696  28.377  1.00  0.00     0.012 A 
ATOM     77  C   UNL A   1      39.982  29.008  30.653  1.00  0.00     0.148 A 
ATOM     78  C   UNL A   1      38.155  29.995  28.754  1.00  0.00     0.002 A 
ATOM     79  C   UNL A   1      38.664  29.268  31.012  1.00  0.00     0.091 A 
ATOM     80  F   UNL A   1      40.886  28.575  31.543  1.00  0.00    -0.205 F 
ATOM     81  C   UNL A   1      37.754  29.771  30.068  1.00  0.00     0.022 A 
BRANCH  79  82
ATOM     82  S   UNL A   1      38.030  28.943  32.661  1.00  0.00     0.127 S 
ATOM     83  O   UNL A   1      38.908  29.772  33.484  1.00  0.00    -0.237 OA
ATOM     84  O   UNL A   1      36.651  29.425  32.564  1.00  0.00    -0.237 OA
ATOM     85  O   UNL A   1      38.154  27.506  32.861  1.00  0.00    -0.744 OA
ENDBRANCH  79  82
ENDBRANCH  61  75
BRANCH  62  86
ATOM     86  C   UNL A   1      49.461  26.713  25.953  1.00  0.00     0.023 A 
ATOM     87  C   UNL A   1      50.315  25.912  26.736  1.00  0.00     0.012 A 
ATOM     88  C   UNL A   1      49.888  27.129  24.677  1.00  0.00     0.148 A 
ATOM     89  C   UNL A   1      51.581  25.557  26.272  1.00  0.00     0.002 A 
ATOM     90  C   UNL A   1      51.131  26.728  24.199  1.00  0.00     0.091 A 
ATOM     91  F   UNL A   1      49.067  27.903  23.953  1.00  0.00    -0.205 F 
ATOM     92  C   UNL A   1      51.985  25.955  25.000  1.00  0.00     0.022 A 
BRANCH  90  93
ATOM     93  S   UNL A   1      51.676  27.086  22.525  1.00  0.00     0.127 S 
ATOM     94  O   UNL A   1      52.827  26.196  22.389  1.00  0.00    -0.237 OA
ATOM     95  O   UNL A   1      50.504  26.703  21.735  1.00  0.00    -0.237 OA
ATOM     96  O   UNL A   1      51.968  28.513  22.507  1.00  0.00    -0.744 OA
ENDBRANCH  90  93
ENDBRANCH  62  86
BRANCH  74  97
ATOM     97  C   UNL A   1      46.810  32.478  28.869  1.00  0.00     0.023 A 
ATOM     98  C   UNL A   1      47.555  32.644  30.053  1.00  0.00     0.012 A 
ATOM     99  C   UNL A   1      46.694  33.553  27.966  1.00  0.00     0.148 A 
ATOM    100  C   UNL A   1      48.153  33.870  30.347  1.00  0.00     0.002 A 
ATOM    101  C   UNL A   1      47.332  34.757  28.244  1.00  0.00     0.091 A 
ATOM    102  F   UNL A   1      45.964  33.381  26.855  1.00  0.00    -0.205 F 
ATOM    103  C   UNL A   1      48.052  34.920  29.438  1.00  0.00     0.022 A 
BRANCH 101 104
ATOM    104  S   UNL A   1      47.333  36.131  27.086  1.00  0.00     0.127 S 
ATOM    105  O   UNL A   1      46.059  36.780  27.392  1.00  0.00    -0.237 OA
ATOM    106  O   UNL A   1      48.517  36.886  27.499  1.00  0.00    -0.237 OA
ATOM    107  O   UNL A   1      47.432  35.535  25.760  1.00  0.00    -0.744 OA
ENDBRANCH 101 104
ENDBRANCH  74  97
ENDBRANCH  48  49
ENDBRANCH  40  43
ENDBRANCH  38  39
ENDBRANCH  37  38
ENDBRANCH   1  37
TORSDOF 18
ENDMDL
MODEL 2
REMARK VINA RESULT:     -12.9      1.935      2.771
REMARK SMILES CN1C(=O)C[C@H](C(=O)Nc2ccc(C(=O)NCCCCNC(=O)c3ccc(-c4c5nc(c(-c6cccc(S(=O)(=O)[O-])c6F)c6ccc([nH]6)c(-c6cccc(S(=O)(=O)[O-])c6F)c6nc(c(-c7cccc(S(=O)(=O)[O-])c7F)c7ccc4[nH]7)C=C6)C=C5)cc3)cc2)S/C1=[NH+]\c1cccc(C(F)(F)F)c1
REMARK SMILES IDX 18 1 17 2 16 3 14 4 15 5 13 7 10 8 11 9 88 10 12 11 87 12
REMARK SMILES IDX 9 13 7 14 8 15 6 17 1 18 2 19 3 20 90 21 4 22 5 23 89 24
REMARK SMILES IDX 91 25 92 27 93 28 101 29 94 30 96 31 95 32 97 33 98 34 99 35
REMARK SMILES IDX 100 36 19 37 20 38 21 39 22 40 23 42 24 43 25 44 86 45 26 46
REMARK SMILES IDX 85 47 27 48 28 49 29 50 79 51 30 52 84 53 78 54 80 55 31 56
REMARK SMILES IDX 83 57 77 58 76 59 32 61 64 62 44 63 63 64 45 65 48 66 62 67
REMARK SMILES IDX 81 68 46 69 47 70 61 72 82 73 49 74 33 75 34 76 42 77 35 78
REMARK SMILES IDX 37 79 43 80 36 81 38 82 39 83 40 84 41 85 65 86 66 87 74 88
REMARK SMILES IDX 67 89 69 90 75 91 68 92 70 93 71 94 72 95 73 96 50 97 51 98
REMARK SMILES IDX 59 99 52 100 54 101 60 102 53 103 55 104 56 105 57 106
REMARK SMILES IDX 58 107
REMARK H PARENT 16 6 9 16 91 26 21 41 80 60 48 71
REMARK Flexibility Score: inf
ROOT
ATOM      1  C   UNL A   1      37.389  21.298  24.716  1.00  0.00     0.023 C 
ENDROOT
BRANCH   1   2
ATOM      2  C   UNL A   1      35.967  21.347  25.280  1.00  0.00     0.116 C 
BRANCH   2   3
ATOM      3  N   UNL A   1      35.293  20.074  25.095  1.00  0.00    -0.352 N 
ATOM      4  C   UNL A   1      33.988  19.754  24.821  1.00  0.00     0.251 C 
ATOM      5  O   UNL A   1      33.699  18.568  24.665  1.00  0.00    -0.269 OA
ATOM      6  H   UNL A   1      35.886  19.293  25.185  1.00  0.00     0.163 HD
BRANCH   4   7
ATOM      7  C   UNL A   1      32.923  20.777  24.628  1.00  0.00     0.039 A 
ATOM      8  C   UNL A   1      31.136  22.879  24.118  1.00  0.00     0.041 A 
ATOM      9  C   UNL A   1      31.794  22.264  23.057  1.00  0.00     0.027 A 
ATOM     10  C   UNL A   1      31.252  22.350  25.404  1.00  0.00     0.027 A 
ATOM     11  C   UNL A   1      32.707  21.238  23.318  1.00  0.00     0.016 A 
ATOM     12  C   UNL A   1      32.123  21.286  25.651  1.00  0.00     0.016 A 
BRANCH   8  13
ATOM     13  N   UNL A   1      30.387  24.034  23.862  1.00  0.00    -0.325 N 
ATOM     14  C   UNL A   1      30.566  25.285  24.406  1.00  0.00     0.238 C 
ATOM     15  O   UNL A   1      29.741  26.167  24.155  1.00  0.00    -0.273 OA
ATOM     16  H   UNL A   1      29.646  23.939  23.220  1.00  0.00     0.169 HD
BRANCH  14  17
ATOM     17  C   UNL A   1      31.851  25.584  25.184  1.00  0.00     0.160 C 
ATOM     18  C   UNL A   1      34.095  27.356  21.861  1.00  0.00     0.301 C 
ATOM     19  N   UNL A   1      33.429  26.849  23.053  1.00  0.00    -0.194 N 
ATOM     20  C   UNL A   1      33.607  25.493  23.316  1.00  0.00     0.311 C 
ATOM     21  C   UNL A   1      32.579  27.738  23.715  1.00  0.00     0.319 C 
ATOM     22  O   UNL A   1      34.245  24.748  22.562  1.00  0.00    -0.247 OA
ATOM     23  C   UNL A   1      33.051  24.900  24.583  1.00  0.00     0.153 C 
ATOM     24  S   UNL A   1      32.134  27.335  25.355  1.00  0.00    -0.024 SA
ATOM     25  N   UNL A   1      32.210  28.830  23.116  1.00  0.00    -0.235 N 
ATOM     26  H   UNL A   1      32.616  29.070  22.251  1.00  0.00     0.313 HD
BRANCH  25  27
ATOM     27  C   UNL A   1      31.244  29.670  23.682  1.00  0.00     0.126 A 
ATOM     28  C   UNL A   1      31.576  30.389  24.834  1.00  0.00     0.052 A 
ATOM     29  C   UNL A   1      29.968  29.808  23.131  1.00  0.00     0.064 A 
ATOM     30  C   UNL A   1      30.665  31.272  25.407  1.00  0.00     0.005 A 
ATOM     31  C   UNL A   1      29.052  30.723  23.675  1.00  0.00     0.060 A 
ATOM     32  C   UNL A   1      29.411  31.447  24.824  1.00  0.00     0.013 A 
BRANCH  31  33
ATOM     33  C   UNL A   1      27.710  30.949  23.030  1.00  0.00     0.416 C 
ATOM     34  F   UNL A   1      26.981  29.803  22.933  1.00  0.00    -0.166 F 
ATOM     35  F   UNL A   1      26.938  31.823  23.735  1.00  0.00    -0.166 F 
ATOM     36  F   UNL A   1      27.786  31.454  21.768  1.00  0.00    -0.166 F 
ENDBRANCH  31  33
ENDBRANCH  25  27
ENDBRANCH  14  17
ENDBRANCH   8  13
ENDBRANCH   4   7
ENDBRANCH   2   3
ENDBRANCH   1   2
BRANCH   1  37
ATOM     37  C   UNL A   1      38.193  20.066  25.141  1.00  0.00     0.023 C 
BRANCH  37  38
ATOM     38  C   UNL A   1      39.467  20.366  25.923  1.00  0.00     0.116 C 
BRANCH  38  39
ATOM     39  N   UNL A   1      40.403  19.252  25.944  1.00  0.00    -0.352 N 
ATOM     40  C   UNL A   1      41.769  19.284  26.115  1.00  0.00     0.251 C 
ATOM     41  H   UNL A   1      40.009  18.359  25.818  1.00  0.00     0.163 HD
ATOM     42  O   UNL A   1      42.428  18.260  26.001  1.00  0.00    -0.269 OA
BRANCH  40  43
ATOM     43  C   UNL A   1      42.430  20.576  26.399  1.00  0.00     0.039 A 
ATOM     44  C   UNL A   1      42.895  21.342  25.327  1.00  0.00     0.014 A 
ATOM     45  C   UNL A   1      42.558  21.041  27.709  1.00  0.00     0.014 A 
ATOM     46  C   UNL A   1      43.430  22.609  25.568  1.00  0.00     0.010 A 
ATOM     47  C   UNL A   1      43.029  22.329  27.940  1.00  0.00     0.010 A 
ATOM     48  C   UNL A   1      43.471  23.126  26.874  1.00  0.00    -0.014 A 
BRANCH  48  49
ATOM     49  C   UNL A   1      43.955  24.502  27.146  1.00  0.00     0.031 A 
ATOM     50  C   UNL A   1      43.003  25.552  27.650  1.00  0.00     0.074 A 
ATOM     51  C   UNL A   1      45.228  24.831  26.847  1.00  0.00     0.049 A 
ATOM     52  N   UNL A   1      43.223  26.820  27.882  1.00  0.00    -0.248 NA
ATOM     53  C   UNL A   1      41.615  25.128  27.897  1.00  0.00     0.031 C 
ATOM     54  C   UNL A   1      46.224  23.922  26.274  1.00  0.00     0.029 A 
ATOM     55  N   UNL A   1      45.894  26.025  26.956  1.00  0.00    -0.354 N 
ATOM     56  C   UNL A   1      41.998  27.352  28.266  1.00  0.00     0.074 A 
ATOM     57  C   UNL A   1      41.031  26.278  28.204  1.00  0.00     0.031 C 
ATOM     58  C   UNL A   1      47.372  24.591  26.086  1.00  0.00     0.029 A 
ATOM     59  C   UNL A   1      47.190  25.979  26.500  1.00  0.00     0.049 A 
ATOM     60  H   UNL A   1      45.482  26.839  27.326  1.00  0.00     0.167 HD
ATOM     61  C   UNL A   1      41.711  28.613  28.669  1.00  0.00     0.034 A 
ATOM     62  C   UNL A   1      48.125  26.946  26.422  1.00  0.00     0.034 A 
ATOM     63  C   UNL A   1      42.684  29.664  28.780  1.00  0.00     0.049 A 
ATOM     64  C   UNL A   1      47.793  28.325  26.925  1.00  0.00     0.074 A 
ATOM     65  C   UNL A   1      42.512  30.949  29.264  1.00  0.00     0.029 A 
ATOM     66  N   UNL A   1      44.014  29.553  28.402  1.00  0.00    -0.354 N 
ATOM     67  N   UNL A   1      46.672  28.767  27.441  1.00  0.00    -0.248 NA
ATOM     68  C   UNL A   1      48.866  29.329  26.869  1.00  0.00     0.031 C 
ATOM     69  C   UNL A   1      43.738  31.619  29.167  1.00  0.00     0.029 A 
ATOM     70  C   UNL A   1      44.674  30.746  28.637  1.00  0.00     0.049 A 
ATOM     71  H   UNL A   1      44.427  28.744  28.021  1.00  0.00     0.167 HD
ATOM     72  C   UNL A   1      46.914  30.086  27.805  1.00  0.00     0.074 A 
ATOM     73  C   UNL A   1      48.295  30.366  27.468  1.00  0.00     0.031 C 
ATOM     74  C   UNL A   1      46.065  30.991  28.352  1.00  0.00     0.034 A 
BRANCH  61  75
ATOM     75  C   UNL A   1      40.292  28.905  29.083  1.00  0.00     0.023 A 
ATOM     76  C   UNL A   1      39.333  29.207  28.095  1.00  0.00     0.012 A 
ATOM     77  C   UNL A   1      39.895  28.833  30.432  1.00  0.00     0.148 A 
ATOM     78  C   UNL A   1      38.009  29.467  28.444  1.00  0.00     0.002 A 
ATOM     79  C   UNL A   1      38.563  29.053  30.769  1.00  0.00     0.091 A 
ATOM     80  F   UNL A   1      40.825  28.569  31.361  1.00  0.00    -0.205 F 
ATOM     81  C   UNL A   1      37.623  29.380  29.778  1.00  0.00     0.022 A 
BRANCH  79  82
ATOM     82  S   UNL A   1      37.953  28.891  32.450  1.00  0.00     0.127 S 
ATOM     83  O   UNL A   1      38.124  27.460  32.690  1.00  0.00    -0.237 OA
ATOM     84  O   UNL A   1      38.873  29.749  33.198  1.00  0.00    -0.237 OA
ATOM     85  O   UNL A   1      36.575  29.363  32.422  1.00  0.00    -0.744 OA
ENDBRANCH  79  82
ENDBRANCH  61  75
BRANCH  62  86
ATOM     86  C   UNL A   1      49.492  26.620  25.925  1.00  0.00     0.023 A 
ATOM     87  C   UNL A   1      50.348  25.844  26.729  1.00  0.00     0.012 A 
ATOM     88  C   UNL A   1      49.936  27.042  24.657  1.00  0.00     0.148 A 
ATOM     89  C   UNL A   1      51.633  25.518  26.294  1.00  0.00     0.002 A 
ATOM     90  C   UNL A   1      51.199  26.671  24.207  1.00  0.00     0.091 A 
ATOM     91  F   UNL A   1      49.112  27.792  23.912  1.00  0.00    -0.205 F 
ATOM     92  C   UNL A   1      52.055  25.922  25.030  1.00  0.00     0.022 A 
BRANCH  90  93
ATOM     93  S   UNL A   1      51.772  27.036  22.543  1.00  0.00     0.127 S 
ATOM     94  O   UNL A   1      52.075  28.461  22.639  1.00  0.00    -0.237 OA
ATOM     95  O   UNL A   1      52.941  26.163  22.426  1.00  0.00    -0.237 OA
ATOM     96  O   UNL A   1      50.667  26.677  21.664  1.00  0.00    -0.744 OA
ENDBRANCH  90  93
ENDBRANCH  62  86
BRANCH  74  97
ATOM     97  C   UNL A   1      46.605  32.363  28.654  1.00  0.00     0.023 A 
ATOM     98  C   UNL A   1      47.215  32.614  29.899  1.00  0.00     0.012 A 
ATOM     99  C   UNL A   1      46.581  33.378  27.677  1.00  0.00     0.148 A 
ATOM    100  C   UNL A   1      47.767  33.864  30.178  1.00  0.00     0.002 A 
ATOM    101  C   UNL A   1      47.175  34.606  27.946  1.00  0.00     0.091 A 
ATOM    102  F   UNL A   1      45.978  33.126  26.507  1.00  0.00    -0.205 F 
ATOM    103  C   UNL A   1      47.759  34.854  29.198  1.00  0.00     0.022 A 
BRANCH 101 104
ATOM    104  S   UNL A   1      47.293  35.906  26.710  1.00  0.00     0.127 S 
ATOM    105  O   UNL A   1      45.887  36.126  26.374  1.00  0.00    -0.237 OA
ATOM    106  O   UNL A   1      47.918  36.994  27.461  1.00  0.00    -0.237 OA
ATOM    107  O   UNL A   1      48.116  35.363  25.638  1.00  0.00    -0.744 OA
ENDBRANCH 101 104
ENDBRANCH  74  97
ENDBRANCH  48  49
ENDBRANCH  40  43
ENDBRANCH  38  39
ENDBRANCH  37  38
ENDBRANCH   1  37
TORSDOF 18
ENDMDL
MODEL 3
REMARK VINA RESULT:     -12.9      5.549     12.164
REMARK SMILES CN1C(=O)C[C@H](C(=O)Nc2ccc(C(=O)NCCCCNC(=O)c3ccc(-c4c5nc(c(-c6cccc(S(=O)(=O)[O-])c6F)c6ccc([nH]6)c(-c6cccc(S(=O)(=O)[O-])c6F)c6nc(c(-c7cccc(S(=O)(=O)[O-])c7F)c7ccc4[nH]7)C=C6)C=C5)cc3)cc2)S/C1=[NH+]\c1cccc(C(F)(F)F)c1
REMARK SMILES IDX 18 1 17 2 16 3 14 4 15 5 13 7 10 8 11 9 88 10 12 11 87 12
REMARK SMILES IDX 9 13 7 14 8 15 6 17 1 18 2 19 3 20 90 21 4 22 5 23 89 24
REMARK SMILES IDX 91 25 92 27 93 28 101 29 94 30 96 31 95 32 97 33 98 34 99 35
REMARK SMILES IDX 100 36 19 37 20 38 21 39 22 40 23 42 24 43 25 44 86 45 26 46
REMARK SMILES IDX 85 47 27 48 28 49 29 50 79 51 30 52 84 53 78 54 80 55 31 56
REMARK SMILES IDX 83 57 77 58 76 59 32 61 64 62 44 63 63 64 45 65 48 66 62 67
REMARK SMILES IDX 81 68 46 69 47 70 61 72 82 73 49 74 33 75 34 76 42 77 35 78
REMARK SMILES IDX 37 79 43 80 36 81 38 82 39 83 40 84 41 85 65 86 66 87 74 88
REMARK SMILES IDX 67 89 69 90 75 91 68 92 70 93 71 94 72 95 73 96 50 97 51 98
REMARK SMILES IDX 59 99 52 100 54 101 60 102 53 103 55 104 56 105 57 106
REMARK SMILES IDX 58 107
REMARK H PARENT 16 6 9 16 91 26 21 41 80 60 48 71
REMARK Flexibility Score: inf
ROOT
ATOM      1  C   UNL A   1      31.604  31.217  26.720  1.00  0.00     0.023 C 
ENDROOT
BRANCH   1   2
ATOM      2  C   UNL A   1      31.818  30.064  25.737  1.00  0.00     0.116 C 
BRANCH   2   3
ATOM      3  N   UNL A   1      30.850  30.120  24.656  1.00  0.00    -0.352 N 
ATOM      4  C   UNL A   1      30.587  29.272  23.610  1.00  0.00     0.251 C 
ATOM      5  O   UNL A   1      29.656  29.549  22.855  1.00  0.00    -0.269 OA
ATOM      6  H   UNL A   1      30.274  30.918  24.678  1.00  0.00     0.163 HD
BRANCH   4   7
ATOM      7  C   UNL A   1      31.325  27.997  23.391  1.00  0.00     0.039 A 
ATOM      8  C   UNL A   1      32.948  25.771  22.859  1.00  0.00     0.041 A 
ATOM      9  C   UNL A   1      33.424  26.788  23.681  1.00  0.00     0.027 A 
ATOM     10  C   UNL A   1      31.620  25.792  22.431  1.00  0.00     0.027 A 
ATOM     11  C   UNL A   1      32.624  27.910  23.918  1.00  0.00     0.016 A 
ATOM     12  C   UNL A   1      30.805  26.889  22.720  1.00  0.00     0.016 A 
BRANCH   8  13
ATOM     13  N   UNL A   1      33.832  24.759  22.466  1.00  0.00    -0.325 N 
ATOM     14  C   UNL A   1      34.255  23.682  23.210  1.00  0.00     0.238 C 
ATOM     15  O   UNL A   1      35.127  22.943  22.747  1.00  0.00    -0.273 OA
ATOM     16  H   UNL A   1      34.193  24.827  21.552  1.00  0.00     0.169 HD
BRANCH  14  17
ATOM     17  C   UNL A   1      33.534  23.350  24.520  1.00  0.00     0.160 C 
ATOM     18  C   UNL A   1      34.259  19.026  24.456  1.00  0.00     0.301 C 
ATOM     19  N   UNL A   1      34.012  20.453  24.621  1.00  0.00    -0.194 N 
ATOM     20  C   UNL A   1      32.810  20.924  24.100  1.00  0.00     0.311 C 
ATOM     21  C   UNL A   1      35.062  21.207  25.152  1.00  0.00     0.319 C 
ATOM     22  O   UNL A   1      32.020  20.196  23.488  1.00  0.00    -0.247 OA
ATOM     23  C   UNL A   1      32.415  22.361  24.318  1.00  0.00     0.153 C 
ATOM     24  S   UNL A   1      34.663  22.787  25.778  1.00  0.00    -0.024 SA
ATOM     25  N   UNL A   1      36.252  20.689  25.207  1.00  0.00    -0.235 N 
ATOM     26  H   UNL A   1      36.380  19.740  24.977  1.00  0.00     0.313 HD
BRANCH  25  27
ATOM     27  C   UNL A   1      37.355  21.461  25.590  1.00  0.00     0.126 A 
ATOM     28  C   UNL A   1      37.208  22.850  25.656  1.00  0.00     0.052 A 
ATOM     29  C   UNL A   1      38.587  20.886  25.907  1.00  0.00     0.064 A 
ATOM     30  C   UNL A   1      38.262  23.656  26.077  1.00  0.00     0.005 A 
ATOM     31  C   UNL A   1      39.647  21.682  26.369  1.00  0.00     0.060 A 
ATOM     32  C   UNL A   1      39.475  23.074  26.442  1.00  0.00     0.013 A 
BRANCH  31  33
ATOM     33  C   UNL A   1      40.949  21.061  26.804  1.00  0.00     0.416 C 
ATOM     34  F   UNL A   1      40.769  20.055  27.704  1.00  0.00    -0.166 F 
ATOM     35  F   UNL A   1      41.634  20.511  25.762  1.00  0.00    -0.166 F 
ATOM     36  F   UNL A   1      41.807  21.940  27.391  1.00  0.00    -0.166 F 
ENDBRANCH  31  33
ENDBRANCH  25  27
ENDBRANCH  14  17
ENDBRANCH   8  13
ENDBRANCH   4   7
ENDBRANCH   2   3
ENDBRANCH   1   2
BRANCH   1  37
ATOM     37  C   UNL A   1      32.839  31.570  27.556  1.00  0.00     0.023 C 
BRANCH  37  38
ATOM     38  C   UNL A   1      33.550  32.854  27.144  1.00  0.00     0.116 C 
BRANCH  38  39
ATOM     39  N   UNL A   1      32.937  34.052  27.696  1.00  0.00    -0.352 N 
ATOM     40  C   UNL A   1      33.251  34.716  28.861  1.00  0.00     0.251 C 
ATOM     41  H   UNL A   1      32.202  34.439  27.168  1.00  0.00     0.163 HD
ATOM     42  O   UNL A   1      32.564  35.656  29.238  1.00  0.00    -0.269 OA
BRANCH  40  43
ATOM     43  C   UNL A   1      34.400  34.253  29.668  1.00  0.00     0.039 A 
ATOM     44  C   UNL A   1      34.159  33.430  30.771  1.00  0.00     0.014 A 
ATOM     45  C   UNL A   1      35.706  34.602  29.317  1.00  0.00     0.014 A 
ATOM     46  C   UNL A   1      35.237  32.901  31.484  1.00  0.00     0.010 A 
ATOM     47  C   UNL A   1      36.777  34.021  29.987  1.00  0.00     0.010 A 
ATOM     48  C   UNL A   1      36.555  33.166  31.077  1.00  0.00    -0.014 A 
BRANCH  48  49
ATOM     49  C   UNL A   1      37.716  32.548  31.765  1.00  0.00     0.031 A 
ATOM     50  C   UNL A   1      38.463  31.415  31.115  1.00  0.00     0.074 A 
ATOM     51  C   UNL A   1      38.034  32.940  33.014  1.00  0.00     0.049 A 
ATOM     52  N   UNL A   1      39.456  30.708  31.586  1.00  0.00    -0.248 NA
ATOM     53  C   UNL A   1      38.017  31.007  29.773  1.00  0.00     0.031 C 
ATOM     54  C   UNL A   1      37.331  33.970  33.783  1.00  0.00     0.029 A 
ATOM     55  N   UNL A   1      39.013  32.500  33.869  1.00  0.00    -0.354 N 
ATOM     56  C   UNL A   1      39.730  29.749  30.617  1.00  0.00     0.074 A 
ATOM     57  C   UNL A   1      38.776  29.944  29.547  1.00  0.00     0.031 C 
ATOM     58  C   UNL A   1      37.903  34.083  34.992  1.00  0.00     0.029 A 
ATOM     59  C   UNL A   1      38.995  33.120  35.096  1.00  0.00     0.049 A 
ATOM     60  H   UNL A   1      39.666  31.804  33.627  1.00  0.00     0.167 HD
ATOM     61  C   UNL A   1      40.709  28.813  30.604  1.00  0.00     0.034 A 
ATOM     62  C   UNL A   1      39.771  32.933  36.182  1.00  0.00     0.034 A 
ATOM     63  C   UNL A   1      41.687  28.656  31.645  1.00  0.00     0.049 A 
ATOM     64  C   UNL A   1      40.883  31.923  36.120  1.00  0.00     0.074 A 
ATOM     65  C   UNL A   1      42.774  27.801  31.683  1.00  0.00     0.029 A 
ATOM     66  N   UNL A   1      41.699  29.372  32.833  1.00  0.00    -0.354 N 
ATOM     67  N   UNL A   1      41.230  31.138  35.129  1.00  0.00    -0.248 NA
ATOM     68  C   UNL A   1      41.735  31.797  37.312  1.00  0.00     0.031 C 
ATOM     69  C   UNL A   1      43.436  27.991  32.902  1.00  0.00     0.029 A 
ATOM     70  C   UNL A   1      42.771  28.976  33.614  1.00  0.00     0.049 A 
ATOM     71  H   UNL A   1      41.041  30.061  33.084  1.00  0.00     0.167 HD
ATOM     72  C   UNL A   1      42.360  30.453  35.562  1.00  0.00     0.074 A 
ATOM     73  C   UNL A   1      42.650  30.931  36.898  1.00  0.00     0.031 C 
ATOM     74  C   UNL A   1      43.082  29.502  34.918  1.00  0.00     0.034 A 
BRANCH  61  75
ATOM     75  C   UNL A   1      40.809  27.928  29.390  1.00  0.00     0.023 A 
ATOM     76  C   UNL A   1      40.025  26.757  29.323  1.00  0.00     0.012 A 
ATOM     77  C   UNL A   1      41.630  28.272  28.299  1.00  0.00     0.148 A 
ATOM     78  C   UNL A   1      40.083  25.924  28.207  1.00  0.00     0.002 A 
ATOM     79  C   UNL A   1      41.651  27.458  27.171  1.00  0.00     0.091 A 
ATOM     80  F   UNL A   1      42.386  29.375  28.389  1.00  0.00    -0.205 F 
ATOM     81  C   UNL A   1      40.888  26.280  27.128  1.00  0.00     0.022 A 
BRANCH  79  82
ATOM     82  S   UNL A   1      42.598  27.868  25.701  1.00  0.00     0.127 S 
ATOM     83  O   UNL A   1      43.939  28.053  26.255  1.00  0.00    -0.237 OA
ATOM     84  O   UNL A   1      42.437  26.665  24.882  1.00  0.00    -0.237 OA
ATOM     85  O   UNL A   1      41.978  29.064  25.147  1.00  0.00    -0.744 OA
ENDBRANCH  79  82
ENDBRANCH  61  75
BRANCH  62  86
ATOM     86  C   UNL A   1      39.574  33.783  37.391  1.00  0.00     0.023 A 
ATOM     87  C   UNL A   1      40.087  35.094  37.399  1.00  0.00     0.012 A 
ATOM     88  C   UNL A   1      38.860  33.318  38.512  1.00  0.00     0.148 A 
ATOM     89  C   UNL A   1      39.920  35.918  38.513  1.00  0.00     0.002 A 
ATOM     90  C   UNL A   1      38.651  34.161  39.598  1.00  0.00     0.091 A 
ATOM     91  F   UNL A   1      38.391  32.062  38.491  1.00  0.00    -0.205 F 
ATOM     92  C   UNL A   1      39.194  35.456  39.607  1.00  0.00     0.022 A 
BRANCH  90  93
ATOM     93  S   UNL A   1      37.618  33.695  40.992  1.00  0.00     0.127 S 
ATOM     94  O   UNL A   1      38.470  32.733  41.686  1.00  0.00    -0.237 OA
ATOM     95  O   UNL A   1      37.443  34.973  41.682  1.00  0.00    -0.237 OA
ATOM     96  O   UNL A   1      36.396  33.158  40.409  1.00  0.00    -0.744 OA
ENDBRANCH  90  93
ENDBRANCH  62  86
BRANCH  74  97
ATOM     97  C   UNL A   1      44.278  28.931  35.631  1.00  0.00     0.023 A 
ATOM     98  C   UNL A   1      45.543  29.521  35.453  1.00  0.00     0.012 A 
ATOM     99  C   UNL A   1      44.133  27.861  36.537  1.00  0.00     0.148 A 
ATOM    100  C   UNL A   1      46.654  29.038  36.145  1.00  0.00     0.002 A 
ATOM    101  C   UNL A   1      45.235  27.416  37.258  1.00  0.00     0.091 A 
ATOM    102  F   UNL A   1      42.924  27.300  36.677  1.00  0.00    -0.205 F 
ATOM    103  C   UNL A   1      46.498  27.996  37.056  1.00  0.00     0.022 A 
BRANCH 101 104
ATOM    104  S   UNL A   1      45.106  26.142  38.519  1.00  0.00     0.127 S 
ATOM    105  O   UNL A   1      46.489  26.039  38.981  1.00  0.00    -0.237 OA
ATOM    106  O   UNL A   1      44.185  26.748  39.481  1.00  0.00    -0.237 OA
ATOM    107  O   UNL A   1      44.581  24.964  37.843  1.00  0.00    -0.744 OA
ENDBRANCH 101 104
ENDBRANCH  74  97
ENDBRANCH  48  49
ENDBRANCH  40  43
ENDBRANCH  38  39
ENDBRANCH  37  38
ENDBRANCH   1  37
TORSDOF 18
ENDMDL
