MODEL 1
REMARK VINA RESULT:     -11.3      0.000      0.000
REMARK SMILES O=C(C[C@H]1CN(c2nc(C3CC3)ns2)CCO1)NCCCCNC(=O)c1ccc(-c2c3nc(c(-c4cccc(S(=O)(=O)[O-])c4F)c4ccc([nH]4)c(-c4cccc(S(=O)(=O)[O-])c4F)c4nc(c(-c5cccc(S(=O)(=O)[O-])c5F)c5ccc2[nH]5)C=C4)C=C3)cc1
REMARK SMILES IDX 20 1 19 2 18 3 1 4 2 5 3 7 4 8 5 9 17 10 6 11 16 12 15 13
REMARK SMILES IDX 7 14 8 15 14 16 9 17 13 18 10 19 11 20 12 21 21 22 22 23
REMARK SMILES IDX 23 24 24 25 25 27 26 28 27 29 88 30 28 31 87 32 29 33 30 34
REMARK SMILES IDX 31 35 81 36 32 37 86 38 80 39 82 40 33 41 85 42 79 43 78 44
REMARK SMILES IDX 34 46 66 47 46 48 65 49 47 50 50 51 64 52 83 53 48 54 49 55
REMARK SMILES IDX 63 57 84 58 51 59 35 60 36 61 44 62 37 63 39 64 45 65 38 66
REMARK SMILES IDX 40 67 41 68 42 69 43 70 67 71 68 72 76 73 69 74 71 75 77 76
REMARK SMILES IDX 70 77 72 78 73 79 74 80 75 81 52 82 53 83 61 84 54 85 56 86
REMARK SMILES IDX 62 87 55 88 57 89 58 90 59 91 60 92
REMARK H PARENT 18 6 23 26 82 45 50 56
REMARK Flexibility Score: inf
ROOT
ATOM      1  C   UNL A   1      31.823  28.063  27.129  1.00  0.00     0.023 C 
ENDROOT
BRANCH   1   2
ATOM      2  C   UNL A   1      30.994  26.815  26.860  1.00  0.00     0.116 C 
BRANCH   2   3
ATOM      3  N   UNL A   1      31.765  25.614  26.617  1.00  0.00    -0.356 N 
ATOM      4  O   UNL A   1      30.046  24.114  26.903  1.00  0.00    -0.275 OA
ATOM      5  C   UNL A   1      31.174  24.375  26.493  1.00  0.00     0.222 C 
ATOM      6  H   UNL A   1      32.744  25.684  26.538  1.00  0.00     0.163 HD
BRANCH   5   7
ATOM      7  C   UNL A   1      32.041  23.304  25.863  1.00  0.00     0.133 C 
BRANCH   7   8
ATOM      8  C   UNL A   1      31.638  22.790  24.470  1.00  0.00     0.147 C 
ATOM      9  C   UNL A   1      31.048  23.805  23.480  1.00  0.00     0.151 C 
ATOM     10  O   UNL A   1      32.645  21.970  23.843  1.00  0.00    -0.374 OA
ATOM     11  N   UNL A   1      32.104  24.582  22.840  1.00  0.00    -0.342 N 
ATOM     12  C   UNL A   1      33.673  22.696  23.164  1.00  0.00     0.182 C 
ATOM     13  C   UNL A   1      33.172  23.809  22.217  1.00  0.00     0.147 C 
BRANCH  11  14
ATOM     14  C   UNL A   1      31.989  25.934  22.784  1.00  0.00     0.205 A 
ATOM     15  N   UNL A   1      30.846  26.574  22.913  1.00  0.00    -0.203 NA
ATOM     16  S   UNL A   1      33.282  27.070  22.576  1.00  0.00     0.004 S 
ATOM     17  C   UNL A   1      31.057  27.941  22.933  1.00  0.00     0.147 A 
ATOM     18  N   UNL A   1      32.285  28.406  22.694  1.00  0.00    -0.174 NA
BRANCH  17  19
ATOM     19  C   UNL A   1      29.914  28.926  23.209  1.00  0.00     0.059 C 
ATOM     20  C   UNL A   1      29.043  29.403  22.062  1.00  0.00     0.012 C 
ATOM     21  C   UNL A   1      28.470  28.481  23.080  1.00  0.00     0.012 C 
ENDBRANCH  17  19
ENDBRANCH  11  14
ENDBRANCH   7   8
ENDBRANCH   5   7
ENDBRANCH   2   3
ENDBRANCH   1   2
BRANCH   1  22
ATOM     22  C   UNL A   1      31.525  29.248  26.212  1.00  0.00     0.023 C 
BRANCH  22  23
ATOM     23  C   UNL A   1      32.712  30.155  25.894  1.00  0.00     0.116 C 
BRANCH  23  24
ATOM     24  N   UNL A   1      32.542  31.519  26.368  1.00  0.00    -0.352 N 
ATOM     25  C   UNL A   1      33.278  32.226  27.292  1.00  0.00     0.251 C 
ATOM     26  H   UNL A   1      31.789  32.010  25.968  1.00  0.00     0.163 HD
ATOM     27  O   UNL A   1      32.892  33.336  27.659  1.00  0.00    -0.269 OA
BRANCH  25  28
ATOM     28  C   UNL A   1      34.512  31.650  27.873  1.00  0.00     0.039 A 
ATOM     29  C   UNL A   1      35.605  32.490  28.100  1.00  0.00     0.014 A 
ATOM     30  C   UNL A   1      34.600  30.292  28.195  1.00  0.00     0.014 A 
ATOM     31  C   UNL A   1      36.751  31.989  28.723  1.00  0.00     0.010 A 
ATOM     32  C   UNL A   1      35.711  29.813  28.888  1.00  0.00     0.010 A 
ATOM     33  C   UNL A   1      36.799  30.655  29.163  1.00  0.00    -0.014 A 
BRANCH  33  34
ATOM     34  C   UNL A   1      37.967  30.143  29.931  1.00  0.00     0.031 A 
ATOM     35  C   UNL A   1      38.245  30.635  31.327  1.00  0.00     0.074 A 
ATOM     36  C   UNL A   1      38.826  29.284  29.345  1.00  0.00     0.049 A 
ATOM     37  N   UNL A   1      39.234  30.330  32.127  1.00  0.00    -0.248 NA
ATOM     38  C   UNL A   1      37.301  31.613  31.891  1.00  0.00     0.031 C 
ATOM     39  C   UNL A   1      38.719  28.787  27.972  1.00  0.00     0.029 A 
ATOM     40  N   UNL A   1      39.975  28.697  29.820  1.00  0.00    -0.354 N 
ATOM     41  C   UNL A   1      39.051  31.097  33.271  1.00  0.00     0.074 A 
ATOM     42  C   UNL A   1      37.876  31.910  33.047  1.00  0.00     0.031 C 
ATOM     43  C   UNL A   1      39.752  27.969  27.717  1.00  0.00     0.029 A 
ATOM     44  C   UNL A   1      40.616  27.909  28.892  1.00  0.00     0.049 A 
ATOM     45  H   UNL A   1      40.307  28.829  30.737  1.00  0.00     0.167 HD
ATOM     46  C   UNL A   1      39.775  31.104  34.417  1.00  0.00     0.034 A 
ATOM     47  C   UNL A   1      41.775  27.224  28.969  1.00  0.00     0.034 A 
ATOM     48  C   UNL A   1      40.927  30.276  34.652  1.00  0.00     0.049 A 
ATOM     49  C   UNL A   1      42.549  27.233  30.259  1.00  0.00     0.074 A 
ATOM     50  C   UNL A   1      41.680  30.157  35.807  1.00  0.00     0.029 A 
ATOM     51  N   UNL A   1      41.505  29.435  33.714  1.00  0.00    -0.354 N 
ATOM     52  N   UNL A   1      42.274  27.849  31.382  1.00  0.00    -0.248 NA
ATOM     53  C   UNL A   1      43.776  26.422  30.304  1.00  0.00     0.031 C 
ATOM     54  C   UNL A   1      42.732  29.270  35.557  1.00  0.00     0.029 A 
ATOM     55  C   UNL A   1      42.611  28.804  34.259  1.00  0.00     0.049 A 
ATOM     56  H   UNL A   1      41.177  29.304  32.795  1.00  0.00     0.167 HD
ATOM     57  C   UNL A   1      43.270  27.474  32.278  1.00  0.00     0.074 A 
ATOM     58  C   UNL A   1      44.143  26.559  31.570  1.00  0.00     0.031 C 
ATOM     59  C   UNL A   1      43.449  27.860  33.564  1.00  0.00     0.034 A 
BRANCH  46  60
ATOM     60  C   UNL A   1      39.315  32.014  35.529  1.00  0.00     0.023 A 
ATOM     61  C   UNL A   1      38.392  31.537  36.483  1.00  0.00     0.012 A 
ATOM     62  C   UNL A   1      39.836  33.315  35.665  1.00  0.00     0.148 A 
ATOM     63  C   UNL A   1      37.963  32.354  37.529  1.00  0.00     0.002 A 
ATOM     64  C   UNL A   1      39.441  34.106  36.738  1.00  0.00     0.091 A 
ATOM     65  F   UNL A   1      40.700  33.759  34.740  1.00  0.00    -0.205 F 
ATOM     66  C   UNL A   1      38.496  33.633  37.662  1.00  0.00     0.022 A 
BRANCH  64  67
ATOM     67  S   UNL A   1      40.129  35.737  37.045  1.00  0.00     0.127 S 
ATOM     68  O   UNL A   1      39.680  36.472  35.863  1.00  0.00    -0.237 OA
ATOM     69  O   UNL A   1      39.463  36.122  38.291  1.00  0.00    -0.237 OA
ATOM     70  O   UNL A   1      41.569  35.552  37.156  1.00  0.00    -0.744 OA
ENDBRANCH  64  67
ENDBRANCH  46  60
BRANCH  47  71
ATOM     71  C   UNL A   1      42.251  26.435  27.797  1.00  0.00     0.023 A 
ATOM     72  C   UNL A   1      43.122  27.030  26.863  1.00  0.00     0.012 A 
ATOM     73  C   UNL A   1      41.865  25.093  27.618  1.00  0.00     0.148 A 
ATOM     74  C   UNL A   1      43.571  26.313  25.753  1.00  0.00     0.002 A 
ATOM     75  C   UNL A   1      42.364  24.366  26.544  1.00  0.00     0.091 A 
ATOM     76  F   UNL A   1      41.029  24.549  28.514  1.00  0.00    -0.205 F 
ATOM     77  C   UNL A   1      43.201  24.979  25.600  1.00  0.00     0.022 A 
BRANCH  75  78
ATOM     78  S   UNL A   1      42.049  22.610  26.341  1.00  0.00     0.127 S 
ATOM     79  O   UNL A   1      42.717  22.330  25.073  1.00  0.00    -0.237 OA
ATOM     80  O   UNL A   1      42.706  22.049  27.523  1.00  0.00    -0.237 OA
ATOM     81  O   UNL A   1      40.599  22.466  26.336  1.00  0.00    -0.744 OA
ENDBRANCH  75  78
ENDBRANCH  47  71
BRANCH  59  82
ATOM     82  C   UNL A   1      44.612  27.267  34.319  1.00  0.00     0.023 A 
ATOM     83  C   UNL A   1      45.865  27.913  34.309  1.00  0.00     0.012 A 
ATOM     84  C   UNL A   1      44.441  26.104  35.095  1.00  0.00     0.148 A 
ATOM     85  C   UNL A   1      46.937  27.391  35.033  1.00  0.00     0.002 A 
ATOM     86  C   UNL A   1      45.499  25.619  35.855  1.00  0.00     0.091 A 
ATOM     87  F   UNL A   1      43.248  25.493  35.078  1.00  0.00    -0.205 F 
ATOM     88  C   UNL A   1      46.752  26.253  35.814  1.00  0.00     0.022 A 
BRANCH  86  89
ATOM     89  S   UNL A   1      45.328  24.219  36.967  1.00  0.00     0.127 S 
ATOM     90  O   UNL A   1      46.695  24.064  37.462  1.00  0.00    -0.237 OA
ATOM     91  O   UNL A   1      44.374  24.722  37.954  1.00  0.00    -0.237 OA
ATOM     92  O   UNL A   1      44.833  23.116  36.153  1.00  0.00    -0.744 OA
ENDBRANCH  86  89
ENDBRANCH  59  82
ENDBRANCH  33  34
ENDBRANCH  25  28
ENDBRANCH  23  24
ENDBRANCH  22  23
ENDBRANCH   1  22
TORSDOF 17
ENDMDL
MODEL 2
REMARK VINA RESULT:     -11.3      4.773      9.785
REMARK SMILES O=C(C[C@H]1CN(c2nc(C3CC3)ns2)CCO1)NCCCCNC(=O)c1ccc(-c2c3nc(c(-c4cccc(S(=O)(=O)[O-])c4F)c4ccc([nH]4)c(-c4cccc(S(=O)(=O)[O-])c4F)c4nc(c(-c5cccc(S(=O)(=O)[O-])c5F)c5ccc2[nH]5)C=C4)C=C3)cc1
REMARK SMILES IDX 20 1 19 2 18 3 1 4 2 5 3 7 4 8 5 9 17 10 6 11 16 12 15 13
REMARK SMILES IDX 7 14 8 15 14 16 9 17 13 18 10 19 11 20 12 21 21 22 22 23
REMARK SMILES IDX 23 24 24 25 25 27 26 28 27 29 88 30 28 31 87 32 29 33 30 34
REMARK SMILES IDX 31 35 81 36 32 37 86 38 80 39 82 40 33 41 85 42 79 43 78 44
REMARK SMILES IDX 34 46 66 47 46 48 65 49 47 50 50 51 64 52 83 53 48 54 49 55
REMARK SMILES IDX 63 57 84 58 51 59 35 60 36 61 44 62 37 63 39 64 45 65 38 66
REMARK SMILES IDX 40 67 41 68 42 69 43 70 67 71 68 72 76 73 69 74 71 75 77 76
REMARK SMILES IDX 70 77 72 78 73 79 74 80 75 81 52 82 53 83 61 84 54 85 56 86
REMARK SMILES IDX 62 87 55 88 57 89 58 90 59 91 60 92
REMARK H PARENT 18 6 23 26 82 45 50 56
REMARK Flexibility Score: inf
ROOT
ATOM      1  C   UNL A   1      34.951  21.449  26.539  1.00  0.00     0.023 C 
ENDROOT
BRANCH   1   2
ATOM      2  C   UNL A   1      33.452  21.386  26.794  1.00  0.00     0.116 C 
BRANCH   2   3
ATOM      3  N   UNL A   1      32.651  22.217  25.919  1.00  0.00    -0.356 N 
ATOM      4  O   UNL A   1      31.413  23.243  27.563  1.00  0.00    -0.275 OA
ATOM      5  C   UNL A   1      31.817  23.201  26.403  1.00  0.00     0.222 C 
ATOM      6  H   UNL A   1      32.705  22.074  24.946  1.00  0.00     0.163 HD
BRANCH   5   7
ATOM      7  C   UNL A   1      31.360  24.223  25.381  1.00  0.00     0.133 C 
BRANCH   7   8
ATOM      8  C   UNL A   1      32.181  24.352  24.086  1.00  0.00     0.147 C 
ATOM      9  C   UNL A   1      31.780  25.454  23.096  1.00  0.00     0.151 C 
ATOM     10  O   UNL A   1      33.606  24.333  24.303  1.00  0.00    -0.374 OA
ATOM     11  N   UNL A   1      32.314  26.747  23.511  1.00  0.00    -0.342 N 
ATOM     12  C   UNL A   1      34.175  25.594  24.666  1.00  0.00     0.182 C 
ATOM     13  C   UNL A   1      33.747  26.785  23.779  1.00  0.00     0.147 C 
BRANCH  11  14
ATOM     14  C   UNL A   1      31.489  27.826  23.536  1.00  0.00     0.205 A 
ATOM     15  N   UNL A   1      30.440  27.959  22.752  1.00  0.00    -0.203 NA
ATOM     16  S   UNL A   1      31.615  29.194  24.594  1.00  0.00     0.004 S 
ATOM     17  C   UNL A   1      29.729  29.097  23.088  1.00  0.00     0.147 A 
ATOM     18  N   UNL A   1      30.237  29.929  24.000  1.00  0.00    -0.174 NA
BRANCH  17  19
ATOM     19  C   UNL A   1      28.384  29.428  22.427  1.00  0.00     0.059 C 
ATOM     20  C   UNL A   1      27.104  28.862  23.011  1.00  0.00     0.012 C 
ATOM     21  C   UNL A   1      27.381  30.318  23.135  1.00  0.00     0.012 C 
ENDBRANCH  17  19
ENDBRANCH  11  14
ENDBRANCH   7   8
ENDBRANCH   5   7
ENDBRANCH   2   3
ENDBRANCH   1   2
BRANCH   1  22
ATOM     22  C   UNL A   1      35.351  21.581  25.070  1.00  0.00     0.023 C 
BRANCH  22  23
ATOM     23  C   UNL A   1      36.820  21.911  24.811  1.00  0.00     0.116 C 
BRANCH  23  24
ATOM     24  N   UNL A   1      37.732  20.856  25.223  1.00  0.00    -0.352 N 
ATOM     25  C   UNL A   1      38.943  20.946  25.870  1.00  0.00     0.251 C 
ATOM     26  H   UNL A   1      37.440  19.942  25.006  1.00  0.00     0.163 HD
ATOM     27  O   UNL A   1      39.635  19.937  26.014  1.00  0.00    -0.269 OA
BRANCH  25  28
ATOM     28  C   UNL A   1      39.438  22.250  26.367  1.00  0.00     0.039 A 
ATOM     29  C   UNL A   1      40.500  22.265  27.275  1.00  0.00     0.014 A 
ATOM     30  C   UNL A   1      38.866  23.454  25.947  1.00  0.00     0.014 A 
ATOM     31  C   UNL A   1      41.038  23.484  27.696  1.00  0.00     0.010 A 
ATOM     32  C   UNL A   1      39.455  24.666  26.304  1.00  0.00     0.010 A 
ATOM     33  C   UNL A   1      40.550  24.697  27.181  1.00  0.00    -0.014 A 
BRANCH  33  34
ATOM     34  C   UNL A   1      41.192  25.994  27.532  1.00  0.00     0.031 A 
ATOM     35  C   UNL A   1      42.626  26.267  27.158  1.00  0.00     0.074 A 
ATOM     36  C   UNL A   1      40.508  26.904  28.254  1.00  0.00     0.049 A 
ATOM     37  N   UNL A   1      43.358  27.320  27.416  1.00  0.00    -0.248 NA
ATOM     38  C   UNL A   1      43.336  25.211  26.418  1.00  0.00     0.031 C 
ATOM     39  C   UNL A   1      39.139  26.735  28.747  1.00  0.00     0.029 A 
ATOM     40  N   UNL A   1      40.877  28.142  28.722  1.00  0.00    -0.354 N 
ATOM     41  C   UNL A   1      44.618  27.045  26.900  1.00  0.00     0.074 A 
ATOM     42  C   UNL A   1      44.562  25.709  26.347  1.00  0.00     0.031 C 
ATOM     43  C   UNL A   1      38.783  27.826  29.442  1.00  0.00     0.029 A 
ATOM     44  C   UNL A   1      39.906  28.758  29.477  1.00  0.00     0.049 A 
ATOM     45  H   UNL A   1      41.753  28.548  28.536  1.00  0.00     0.167 HD
ATOM     46  C   UNL A   1      45.716  27.840  26.861  1.00  0.00     0.034 A 
ATOM     47  C   UNL A   1      39.917  29.935  30.135  1.00  0.00     0.034 A 
ATOM     48  C   UNL A   1      45.764  29.179  27.385  1.00  0.00     0.049 A 
ATOM     49  C   UNL A   1      41.140  30.808  30.060  1.00  0.00     0.074 A 
ATOM     50  C   UNL A   1      46.805  30.089  27.324  1.00  0.00     0.029 A 
ATOM     51  N   UNL A   1      44.736  29.797  28.079  1.00  0.00    -0.354 N 
ATOM     52  N   UNL A   1      42.271  30.590  29.436  1.00  0.00    -0.248 NA
ATOM     53  C   UNL A   1      41.076  32.105  30.750  1.00  0.00     0.031 C 
ATOM     54  C   UNL A   1      46.419  31.244  28.011  1.00  0.00     0.029 A 
ATOM     55  C   UNL A   1      45.122  31.071  28.464  1.00  0.00     0.049 A 
ATOM     56  H   UNL A   1      43.860  29.391  28.271  1.00  0.00     0.167 HD
ATOM     57  C   UNL A   1      43.039  31.734  29.625  1.00  0.00     0.074 A 
ATOM     58  C   UNL A   1      42.233  32.652  30.406  1.00  0.00     0.031 C 
ATOM     59  C   UNL A   1      44.299  31.996  29.201  1.00  0.00     0.034 A 
BRANCH  46  60
ATOM     60  C   UNL A   1      46.950  27.295  26.188  1.00  0.00     0.023 A 
ATOM     61  C   UNL A   1      47.154  27.524  24.811  1.00  0.00     0.012 A 
ATOM     62  C   UNL A   1      47.935  26.608  26.924  1.00  0.00     0.148 A 
ATOM     63  C   UNL A   1      48.295  27.043  24.170  1.00  0.00     0.002 A 
ATOM     64  C   UNL A   1      49.093  26.175  26.289  1.00  0.00     0.091 A 
ATOM     65  F   UNL A   1      47.719  26.384  28.229  1.00  0.00    -0.205 F 
ATOM     66  C   UNL A   1      49.268  26.380  24.910  1.00  0.00     0.022 A 
BRANCH  64  67
ATOM     67  S   UNL A   1      50.444  25.382  27.168  1.00  0.00     0.127 S 
ATOM     68  O   UNL A   1      50.833  26.429  28.112  1.00  0.00    -0.237 OA
ATOM     69  O   UNL A   1      49.781  24.228  27.776  1.00  0.00    -0.237 OA
ATOM     70  O   UNL A   1      51.441  25.050  26.160  1.00  0.00    -0.744 OA
ENDBRANCH  64  67
ENDBRANCH  46  60
BRANCH  47  71
ATOM     71  C   UNL A   1      38.709  30.376  30.890  1.00  0.00     0.023 A 
ATOM     72  C   UNL A   1      38.615  30.112  32.271  1.00  0.00     0.012 A 
ATOM     73  C   UNL A   1      37.667  31.075  30.252  1.00  0.00     0.148 A 
ATOM     74  C   UNL A   1      37.489  30.507  32.995  1.00  0.00     0.002 A 
ATOM     75  C   UNL A   1      36.576  31.517  30.990  1.00  0.00     0.091 A 
ATOM     76  F   UNL A   1      37.773  31.307  28.936  1.00  0.00    -0.205 F 
ATOM     77  C   UNL A   1      36.475  31.218  32.357  1.00  0.00     0.022 A 
BRANCH  75  78
ATOM     78  S   UNL A   1      35.292  32.553  30.282  1.00  0.00     0.127 S 
ATOM     79  O   UNL A   1      36.038  33.759  29.933  1.00  0.00    -0.237 OA
ATOM     80  O   UNL A   1      34.851  31.747  29.142  1.00  0.00    -0.237 OA
ATOM     81  O   UNL A   1      34.289  32.711  31.328  1.00  0.00    -0.744 OA
ENDBRANCH  75  78
ENDBRANCH  47  71
BRANCH  59  82
ATOM     82  C   UNL A   1      44.884  33.346  29.529  1.00  0.00     0.023 A 
ATOM     83  C   UNL A   1      45.633  33.524  30.710  1.00  0.00     0.012 A 
ATOM     84  C   UNL A   1      44.748  34.422  28.629  1.00  0.00     0.148 A 
ATOM     85  C   UNL A   1      46.207  34.760  31.005  1.00  0.00     0.002 A 
ATOM     86  C   UNL A   1      45.366  35.635  28.905  1.00  0.00     0.091 A 
ATOM     87  F   UNL A   1      44.017  34.239  27.521  1.00  0.00    -0.205 F 
ATOM     88  C   UNL A   1      46.084  35.811  30.099  1.00  0.00     0.022 A 
BRANCH  86  89
ATOM     89  S   UNL A   1      45.347  37.013  27.753  1.00  0.00     0.127 S 
ATOM     90  O   UNL A   1      43.913  37.203  27.541  1.00  0.00    -0.237 OA
ATOM     91  O   UNL A   1      45.996  38.072  28.526  1.00  0.00    -0.237 OA
ATOM     92  O   UNL A   1      46.095  36.571  26.583  1.00  0.00    -0.744 OA
ENDBRANCH  86  89
ENDBRANCH  59  82
ENDBRANCH  33  34
ENDBRANCH  25  28
ENDBRANCH  23  24
ENDBRANCH  22  23
ENDBRANCH   1  22
TORSDOF 17
ENDMDL
MODEL 3
REMARK VINA RESULT:     -11.3      2.072      2.797
REMARK SMILES O=C(C[C@H]1CN(c2nc(C3CC3)ns2)CCO1)NCCCCNC(=O)c1ccc(-c2c3nc(c(-c4cccc(S(=O)(=O)[O-])c4F)c4ccc([nH]4)c(-c4cccc(S(=O)(=O)[O-])c4F)c4nc(c(-c5cccc(S(=O)(=O)[O-])c5F)c5ccc2[nH]5)C=C4)C=C3)cc1
REMARK SMILES IDX 20 1 19 2 18 3 1 4 2 5 3 7 4 8 5 9 17 10 6 11 16 12 15 13
REMARK SMILES IDX 7 14 8 15 14 16 9 17 13 18 10 19 11 20 12 21 21 22 22 23
REMARK SMILES IDX 23 24 24 25 25 27 26 28 27 29 88 30 28 31 87 32 29 33 30 34
REMARK SMILES IDX 31 35 81 36 32 37 86 38 80 39 82 40 33 41 85 42 79 43 78 44
REMARK SMILES IDX 34 46 66 47 46 48 65 49 47 50 50 51 64 52 83 53 48 54 49 55
REMARK SMILES IDX 63 57 84 58 51 59 35 60 36 61 44 62 37 63 39 64 45 65 38 66
REMARK SMILES IDX 40 67 41 68 42 69 43 70 67 71 68 72 76 73 69 74 71 75 77 76
REMARK SMILES IDX 70 77 72 78 73 79 74 80 75 81 52 82 53 83 61 84 54 85 56 86
REMARK SMILES IDX 62 87 55 88 57 89 58 90 59 91 60 92
REMARK H PARENT 18 6 23 26 82 45 50 56
REMARK Flexibility Score: inf
ROOT
ATOM      1  C   UNL A   1      31.755  28.008  26.963  1.00  0.00     0.023 C 
ENDROOT
BRANCH   1   2
ATOM      2  C   UNL A   1      31.017  26.815  26.371  1.00  0.00     0.116 C 
BRANCH   2   3
ATOM      3  N   UNL A   1      31.716  25.551  26.486  1.00  0.00    -0.356 N 
ATOM      4  O   UNL A   1      29.868  24.244  26.889  1.00  0.00    -0.275 OA
ATOM      5  C   UNL A   1      31.049  24.348  26.566  1.00  0.00     0.222 C 
ATOM      6  H   UNL A   1      32.701  25.552  26.507  1.00  0.00     0.163 HD
BRANCH   5   7
ATOM      7  C   UNL A   1      31.892  23.120  26.288  1.00  0.00     0.133 C 
BRANCH   7   8
ATOM      8  C   UNL A   1      31.730  22.441  24.917  1.00  0.00     0.147 C 
ATOM      9  C   UNL A   1      31.261  23.312  23.743  1.00  0.00     0.151 C 
ATOM     10  O   UNL A   1      32.854  21.618  24.544  1.00  0.00    -0.374 OA
ATOM     11  N   UNL A   1      32.372  24.077  23.185  1.00  0.00    -0.342 N 
ATOM     12  C   UNL A   1      33.946  22.327  23.950  1.00  0.00     0.182 C 
ATOM     13  C   UNL A   1      33.554  23.304  22.820  1.00  0.00     0.147 C 
BRANCH  11  14
ATOM     14  C   UNL A   1      32.213  25.407  22.962  1.00  0.00     0.205 A 
ATOM     15  N   UNL A   1      31.041  25.984  22.800  1.00  0.00    -0.203 NA
ATOM     16  S   UNL A   1      33.473  26.596  22.882  1.00  0.00     0.004 S 
ATOM     17  C   UNL A   1      31.186  27.357  22.712  1.00  0.00     0.147 A 
ATOM     18  N   UNL A   1      32.416  27.872  22.662  1.00  0.00    -0.174 NA
BRANCH  17  19
ATOM     19  C   UNL A   1      29.971  28.291  22.657  1.00  0.00     0.059 C 
ATOM     20  C   UNL A   1      29.916  29.504  23.566  1.00  0.00     0.012 C 
ATOM     21  C   UNL A   1      30.109  29.697  22.104  1.00  0.00     0.012 C 
ENDBRANCH  17  19
ENDBRANCH  11  14
ENDBRANCH   7   8
ENDBRANCH   5   7
ENDBRANCH   2   3
ENDBRANCH   1   2
BRANCH   1  22
ATOM     22  C   UNL A   1      33.275  27.961  26.826  1.00  0.00     0.023 C 
BRANCH  22  23
ATOM     23  C   UNL A   1      33.907  29.121  26.060  1.00  0.00     0.116 C 
BRANCH  23  24
ATOM     24  N   UNL A   1      33.789  30.399  26.744  1.00  0.00    -0.352 N 
ATOM     25  C   UNL A   1      34.582  30.947  27.726  1.00  0.00     0.251 C 
ATOM     26  H   UNL A   1      33.028  30.956  26.461  1.00  0.00     0.163 HD
ATOM     27  O   UNL A   1      34.238  31.993  28.276  1.00  0.00    -0.269 OA
BRANCH  25  28
ATOM     28  C   UNL A   1      35.830  30.272  28.151  1.00  0.00     0.039 A 
ATOM     29  C   UNL A   1      36.955  30.357  27.327  1.00  0.00     0.014 A 
ATOM     30  C   UNL A   1      35.899  29.557  29.350  1.00  0.00     0.014 A 
ATOM     31  C   UNL A   1      38.167  29.799  27.744  1.00  0.00     0.010 A 
ATOM     32  C   UNL A   1      37.126  29.072  29.800  1.00  0.00     0.010 A 
ATOM     33  C   UNL A   1      38.276  29.188  29.004  1.00  0.00    -0.014 A 
BRANCH  33  34
ATOM     34  C   UNL A   1      39.588  28.695  29.507  1.00  0.00     0.031 A 
ATOM     35  C   UNL A   1      40.298  29.406  30.629  1.00  0.00     0.074 A 
ATOM     36  C   UNL A   1      40.181  27.645  28.905  1.00  0.00     0.049 A 
ATOM     37  N   UNL A   1      41.461  29.143  31.165  1.00  0.00    -0.248 NA
ATOM     38  C   UNL A   1      39.624  30.580  31.208  1.00  0.00     0.031 C 
ATOM     39  C   UNL A   1      39.640  26.912  27.758  1.00  0.00     0.029 A 
ATOM     40  N   UNL A   1      41.382  27.025  29.154  1.00  0.00    -0.354 N 
ATOM     41  C   UNL A   1      41.673  30.130  32.121  1.00  0.00     0.074 A 
ATOM     42  C   UNL A   1      40.535  31.020  32.064  1.00  0.00     0.031 C 
ATOM     43  C   UNL A   1      40.499  25.943  27.408  1.00  0.00     0.029 A 
ATOM     44  C   UNL A   1      41.670  26.005  28.277  1.00  0.00     0.049 A 
ATOM     45  H   UNL A   1      41.980  27.288  29.890  1.00  0.00     0.167 HD
ATOM     46  C   UNL A   1      42.706  30.268  32.989  1.00  0.00     0.034 A 
ATOM     47  C   UNL A   1      42.756  25.214  28.174  1.00  0.00     0.034 A 
ATOM     48  C   UNL A   1      43.825  29.367  33.065  1.00  0.00     0.049 A 
ATOM     49  C   UNL A   1      43.880  25.374  29.161  1.00  0.00     0.074 A 
ATOM     50  C   UNL A   1      44.880  29.381  33.961  1.00  0.00     0.029 A 
ATOM     51  N   UNL A   1      44.046  28.301  32.208  1.00  0.00    -0.354 N 
ATOM     52  N   UNL A   1      43.990  26.221  30.155  1.00  0.00    -0.248 NA
ATOM     53  C   UNL A   1      45.014  24.447  29.036  1.00  0.00     0.031 C 
ATOM     54  C   UNL A   1      45.756  28.344  33.624  1.00  0.00     0.029 A 
ATOM     55  C   UNL A   1      45.226  27.658  32.544  1.00  0.00     0.049 A 
ATOM     56  H   UNL A   1      43.451  28.039  31.469  1.00  0.00     0.167 HD
ATOM     57  C   UNL A   1      45.183  25.906  30.795  1.00  0.00     0.074 A 
ATOM     58  C   UNL A   1      45.750  24.776  30.088  1.00  0.00     0.031 C 
ATOM     59  C   UNL A   1      45.761  26.506  31.865  1.00  0.00     0.034 A 
BRANCH  46  60
ATOM     60  C   UNL A   1      42.652  31.420  33.961  1.00  0.00     0.023 A 
ATOM     61  C   UNL A   1      43.318  32.625  33.652  1.00  0.00     0.012 A 
ATOM     62  C   UNL A   1      41.900  31.334  35.148  1.00  0.00     0.148 A 
ATOM     63  C   UNL A   1      43.270  33.709  34.528  1.00  0.00     0.002 A 
ATOM     64  C   UNL A   1      41.816  32.435  35.993  1.00  0.00     0.091 A 
ATOM     65  F   UNL A   1      41.287  30.176  35.435  1.00  0.00    -0.205 F 
ATOM     66  C   UNL A   1      42.511  33.618  35.691  1.00  0.00     0.022 A 
BRANCH  64  67
ATOM     67  S   UNL A   1      40.800  32.448  37.473  1.00  0.00     0.127 S 
ATOM     68  O   UNL A   1      41.701  31.840  38.452  1.00  0.00    -0.237 OA
ATOM     69  O   UNL A   1      40.561  33.877  37.670  1.00  0.00    -0.237 OA
ATOM     70  O   UNL A   1      39.611  31.670  37.152  1.00  0.00    -0.744 OA
ENDBRANCH  64  67
ENDBRANCH  46  60
BRANCH  47  71
ATOM     71  C   UNL A   1      42.814  24.165  27.115  1.00  0.00     0.023 A 
ATOM     72  C   UNL A   1      43.536  24.410  25.930  1.00  0.00     0.012 A 
ATOM     73  C   UNL A   1      42.178  22.921  27.288  1.00  0.00     0.148 A 
ATOM     74  C   UNL A   1      43.594  23.446  24.922  1.00  0.00     0.002 A 
ATOM     75  C   UNL A   1      42.290  21.944  26.305  1.00  0.00     0.091 A 
ATOM     76  F   UNL A   1      41.489  22.713  28.418  1.00  0.00    -0.205 F 
ATOM     77  C   UNL A   1      42.980  22.211  25.114  1.00  0.00     0.022 A 
BRANCH  75  78
ATOM     78  S   UNL A   1      41.648  20.282  26.525  1.00  0.00     0.127 S 
ATOM     79  O   UNL A   1      42.251  19.893  27.797  1.00  0.00    -0.237 OA
ATOM     80  O   UNL A   1      40.205  20.522  26.573  1.00  0.00    -0.237 OA
ATOM     81  O   UNL A   1      42.091  19.529  25.359  1.00  0.00    -0.744 OA
ENDBRANCH  75  78
ENDBRANCH  47  71
BRANCH  59  82
ATOM     82  C   UNL A   1      47.060  25.933  32.374  1.00  0.00     0.023 A 
ATOM     83  C   UNL A   1      48.288  26.429  31.893  1.00  0.00     0.012 A 
ATOM     84  C   UNL A   1      47.059  24.948  33.381  1.00  0.00     0.148 A 
ATOM     85  C   UNL A   1      49.495  25.929  32.383  1.00  0.00     0.002 A 
ATOM     86  C   UNL A   1      48.264  24.493  33.902  1.00  0.00     0.091 A 
ATOM     87  F   UNL A   1      45.882  24.475  33.813  1.00  0.00    -0.205 F 
ATOM     88  C   UNL A   1      49.483  24.971  33.394  1.00  0.00     0.022 A 
BRANCH  86  89
ATOM     89  S   UNL A   1      48.348  23.335  35.273  1.00  0.00     0.127 S 
ATOM     90  O   UNL A   1      49.792  23.198  35.459  1.00  0.00    -0.237 OA
ATOM     91  O   UNL A   1      47.662  24.065  36.338  1.00  0.00    -0.237 OA
ATOM     92  O   UNL A   1      47.663  22.130  34.825  1.00  0.00    -0.744 OA
ENDBRANCH  86  89
ENDBRANCH  59  82
ENDBRANCH  33  34
ENDBRANCH  25  28
ENDBRANCH  23  24
ENDBRANCH  22  23
ENDBRANCH   1  22
TORSDOF 17
ENDMDL
