MODEL 1
REMARK VINA RESULT:     -11.4      0.000      0.000
REMARK SMILES C[NH2+][C@@]1(C(=O)NCCCCNC(=O)c2ccc(-c3c4nc(c(-c5cccc(S(=O)(=O)[O-])c5F)c5ccc([nH]5)c(-c5cccc(S(=O)(=O)[O-])c5F)c5nc(c(-c6cccc(S(=O)(=O)[O-])c6F)c6ccc3[nH]6)C=C5)C=C4)cc2)CCC[C@H]1CCn1ccc(C(F)(F)F)n1
REMARK SMILES IDX 8 1 7 2 6 3 4 4 5 5 3 7 77 8 80 9 78 10 79 11 2 12 1 13
REMARK SMILES IDX 81 16 82 17 83 18 84 19 91 20 85 21 86 22 87 23 88 24 89 25
REMARK SMILES IDX 90 26 9 27 10 28 11 29 12 30 13 32 14 33 15 34 76 35 16 36
REMARK SMILES IDX 75 37 17 38 18 39 19 40 69 41 20 42 74 43 68 44 70 45 21 46
REMARK SMILES IDX 73 47 67 48 66 49 22 51 54 52 34 53 53 54 35 55 38 56 52 57
REMARK SMILES IDX 71 58 36 59 37 60 51 62 72 63 39 64 23 65 24 66 32 67 25 68
REMARK SMILES IDX 27 69 33 70 26 71 28 72 29 73 30 74 31 75 55 76 56 77 64 78
REMARK SMILES IDX 57 79 59 80 65 81 58 82 60 83 61 84 62 85 63 86 40 87 41 88
REMARK SMILES IDX 49 89 42 90 44 91 50 92 43 93 45 94 46 95 47 96 48 97
REMARK H PARENT 6 6 2 14 2 15 11 31 70 50 38 61
REMARK Flexibility Score: inf
ROOT
ATOM      1  C   UNL A   1      36.064  23.170  23.201  1.00  0.00     0.023 C 
ENDROOT
BRANCH   1   2
ATOM      2  C   UNL A   1      34.589  23.399  23.503  1.00  0.00     0.116 C 
BRANCH   2   3
ATOM      3  N   UNL A   1      33.936  24.220  22.516  1.00  0.00    -0.351 N 
ATOM      4  C   UNL A   1      33.386  25.454  22.649  1.00  0.00     0.281 C 
ATOM      5  O   UNL A   1      33.692  26.234  21.733  1.00  0.00    -0.268 OA
ATOM      6  H   UNL A   1      33.880  23.829  21.614  1.00  0.00     0.163 HD
BRANCH   4   7
ATOM      7  C   UNL A   1      32.457  25.947  23.855  1.00  0.00     0.178 C 
ATOM      8  C   UNL A   1      32.515  27.489  23.912  1.00  0.00     0.079 C 
ATOM      9  C   UNL A   1      32.811  25.493  25.314  1.00  0.00     0.062 C 
ATOM     10  C   UNL A   1      33.405  27.890  25.076  1.00  0.00     0.008 C 
ATOM     11  C   UNL A   1      33.700  26.632  25.879  1.00  0.00     0.011 C 
BRANCH   7  12
ATOM     12  N   UNL A   1      31.033  25.608  23.498  1.00  0.00    -0.336 N 
ATOM     13  C   UNL A   1      30.150  26.773  23.341  1.00  0.00     0.331 C 
ATOM     14  H   UNL A   1      31.040  25.092  22.619  1.00  0.00     0.346 HD
ATOM     15  H   UNL A   1      30.661  25.065  24.277  1.00  0.00     0.346 HD
ENDBRANCH   7  12
BRANCH   9  16
ATOM     16  C   UNL A   1      31.657  25.353  26.357  1.00  0.00     0.034 C 
BRANCH  16  17
ATOM     17  C   UNL A   1      31.244  23.975  26.870  1.00  0.00     0.144 C 
BRANCH  17  18
ATOM     18  N   UNL A   1      32.223  22.924  26.677  1.00  0.00    -0.272 N 
ATOM     19  C   UNL A   1      33.277  22.620  27.488  1.00  0.00     0.109 A 
ATOM     20  N   UNL A   1      32.065  22.049  25.673  1.00  0.00    -0.168 NA
ATOM     21  C   UNL A   1      33.860  21.496  26.949  1.00  0.00     0.055 A 
ATOM     22  C   UNL A   1      33.078  21.174  25.806  1.00  0.00     0.166 A 
BRANCH  22  23
ATOM     23  C   UNL A   1      33.289  20.018  24.864  1.00  0.00     0.435 C 
ATOM     24  F   UNL A   1      32.397  19.017  25.095  1.00  0.00    -0.164 F 
ATOM     25  F   UNL A   1      33.114  20.396  23.568  1.00  0.00    -0.164 F 
ATOM     26  F   UNL A   1      34.529  19.468  24.947  1.00  0.00    -0.164 F 
ENDBRANCH  22  23
ENDBRANCH  17  18
ENDBRANCH  16  17
ENDBRANCH   9  16
ENDBRANCH   4   7
ENDBRANCH   2   3
ENDBRANCH   1   2
BRANCH   1  27
ATOM     27  C   UNL A   1      36.623  21.847  23.733  1.00  0.00     0.023 C 
BRANCH  27  28
ATOM     28  C   UNL A   1      37.158  21.885  25.164  1.00  0.00     0.116 C 
BRANCH  28  29
ATOM     29  N   UNL A   1      38.114  20.826  25.466  1.00  0.00    -0.352 N 
ATOM     30  C   UNL A   1      39.319  20.938  26.121  1.00  0.00     0.251 C 
ATOM     31  H   UNL A   1      37.867  19.922  25.167  1.00  0.00     0.163 HD
ATOM     32  O   UNL A   1      40.056  19.964  26.243  1.00  0.00    -0.269 OA
BRANCH  30  33
ATOM     33  C   UNL A   1      39.730  22.259  26.632  1.00  0.00     0.039 A 
ATOM     34  C   UNL A   1      40.722  22.326  27.613  1.00  0.00     0.014 A 
ATOM     35  C   UNL A   1      39.195  23.424  26.079  1.00  0.00     0.014 A 
ATOM     36  C   UNL A   1      41.236  23.569  27.985  1.00  0.00     0.010 A 
ATOM     37  C   UNL A   1      39.757  24.655  26.399  1.00  0.00     0.010 A 
ATOM     38  C   UNL A   1      40.785  24.740  27.350  1.00  0.00    -0.014 A 
BRANCH  38  39
ATOM     39  C   UNL A   1      41.394  26.061  27.646  1.00  0.00     0.031 A 
ATOM     40  C   UNL A   1      42.820  26.338  27.260  1.00  0.00     0.074 A 
ATOM     41  C   UNL A   1      40.695  26.970  28.356  1.00  0.00     0.049 A 
ATOM     42  N   UNL A   1      43.544  27.401  27.490  1.00  0.00    -0.248 NA
ATOM     43  C   UNL A   1      43.539  25.265  26.552  1.00  0.00     0.031 C 
ATOM     44  C   UNL A   1      39.338  26.781  28.873  1.00  0.00     0.029 A 
ATOM     45  N   UNL A   1      41.043  28.225  28.792  1.00  0.00    -0.354 N 
ATOM     46  C   UNL A   1      44.808  27.114  26.993  1.00  0.00     0.074 A 
ATOM     47  C   UNL A   1      44.765  25.762  26.481  1.00  0.00     0.031 C 
ATOM     48  C   UNL A   1      38.967  27.880  29.550  1.00  0.00     0.029 A 
ATOM     49  C   UNL A   1      40.064  28.843  29.535  1.00  0.00     0.049 A 
ATOM     50  H   UNL A   1      41.911  28.643  28.591  1.00  0.00     0.167 HD
ATOM     51  C   UNL A   1      45.899  27.914  26.935  1.00  0.00     0.034 A 
ATOM     52  C   UNL A   1      40.051  30.050  30.133  1.00  0.00     0.034 A 
ATOM     53  C   UNL A   1      45.921  29.277  27.391  1.00  0.00     0.049 A 
ATOM     54  C   UNL A   1      41.251  30.947  29.989  1.00  0.00     0.074 A 
ATOM     55  C   UNL A   1      46.941  30.205  27.283  1.00  0.00     0.029 A 
ATOM     56  N   UNL A   1      44.871  29.910  28.037  1.00  0.00    -0.354 N 
ATOM     57  N   UNL A   1      42.379  30.722  29.360  1.00  0.00    -0.248 NA
ATOM     58  C   UNL A   1      41.163  32.281  30.603  1.00  0.00     0.031 C 
ATOM     59  C   UNL A   1      46.510  31.398  27.873  1.00  0.00     0.029 A 
ATOM     60  C   UNL A   1      45.216  31.215  28.336  1.00  0.00     0.049 A 
ATOM     61  H   UNL A   1      44.005  29.492  28.251  1.00  0.00     0.167 HD
ATOM     62  C   UNL A   1      43.119  31.893  29.470  1.00  0.00     0.074 A 
ATOM     63  C   UNL A   1      42.303  32.834  30.209  1.00  0.00     0.031 C 
ATOM     64  C   UNL A   1      44.369  32.159  29.018  1.00  0.00     0.034 A 
BRANCH  51  65
ATOM     65  C   UNL A   1      47.139  27.355  26.290  1.00  0.00     0.023 A 
ATOM     66  C   UNL A   1      47.364  27.580  24.916  1.00  0.00     0.012 A 
ATOM     67  C   UNL A   1      48.102  26.654  27.041  1.00  0.00     0.148 A 
ATOM     68  C   UNL A   1      48.507  27.087  24.291  1.00  0.00     0.002 A 
ATOM     69  C   UNL A   1      49.262  26.201  26.420  1.00  0.00     0.091 A 
ATOM     70  F   UNL A   1      47.863  26.428  28.341  1.00  0.00    -0.205 F 
ATOM     71  C   UNL A   1      49.460  26.407  25.045  1.00  0.00     0.022 A 
BRANCH  69  72
ATOM     72  S   UNL A   1      50.582  25.380  27.318  1.00  0.00     0.127 S 
ATOM     73  O   UNL A   1      50.925  26.385  28.323  1.00  0.00    -0.237 OA
ATOM     74  O   UNL A   1      49.906  24.194  27.848  1.00  0.00    -0.237 OA
ATOM     75  O   UNL A   1      51.618  25.096  26.335  1.00  0.00    -0.744 OA
ENDBRANCH  69  72
ENDBRANCH  51  65
BRANCH  52  76
ATOM     76  C   UNL A   1      38.826  30.516  30.842  1.00  0.00     0.023 A 
ATOM     77  C   UNL A   1      38.658  30.197  32.204  1.00  0.00     0.012 A 
ATOM     78  C   UNL A   1      37.849  31.296  30.195  1.00  0.00     0.148 A 
ATOM     79  C   UNL A   1      37.526  30.620  32.901  1.00  0.00     0.002 A 
ATOM     80  C   UNL A   1      36.748  31.758  30.909  1.00  0.00     0.091 A 
ATOM     81  F   UNL A   1      38.018  31.578  28.896  1.00  0.00    -0.205 F 
ATOM     82  C   UNL A   1      36.577  31.408  32.257  1.00  0.00     0.022 A 
BRANCH  80  83
ATOM     83  S   UNL A   1      35.545  32.886  30.193  1.00  0.00     0.127 S 
ATOM     84  O   UNL A   1      34.742  31.985  29.371  1.00  0.00    -0.237 OA
ATOM     85  O   UNL A   1      34.868  33.403  31.383  1.00  0.00    -0.237 OA
ATOM     86  O   UNL A   1      36.328  33.881  29.473  1.00  0.00    -0.744 OA
ENDBRANCH  80  83
ENDBRANCH  52  76
BRANCH  64  87
ATOM     87  C   UNL A   1      44.928  33.532  29.278  1.00  0.00     0.023 A 
ATOM     88  C   UNL A   1      45.585  33.797  30.496  1.00  0.00     0.012 A 
ATOM     89  C   UNL A   1      44.877  34.532  28.286  1.00  0.00     0.148 A 
ATOM     90  C   UNL A   1      46.159  35.044  30.734  1.00  0.00     0.002 A 
ATOM     91  C   UNL A   1      45.492  35.758  28.513  1.00  0.00     0.091 A 
ATOM     92  F   UNL A   1      44.228  34.268  27.143  1.00  0.00    -0.205 F 
ATOM     93  C   UNL A   1      46.124  36.019  29.739  1.00  0.00     0.022 A 
BRANCH  91  94
ATOM     94  S   UNL A   1      45.574  37.034  27.251  1.00  0.00     0.127 S 
ATOM     95  O   UNL A   1      44.159  37.325  27.028  1.00  0.00    -0.237 OA
ATOM     96  O   UNL A   1      46.315  38.098  27.929  1.00  0.00    -0.237 OA
ATOM     97  O   UNL A   1      46.278  36.435  26.125  1.00  0.00    -0.744 OA
ENDBRANCH  91  94
ENDBRANCH  64  87
ENDBRANCH  38  39
ENDBRANCH  30  33
ENDBRANCH  28  29
ENDBRANCH  27  28
ENDBRANCH   1  27
TORSDOF 19
ENDMDL
MODEL 2
REMARK VINA RESULT:     -11.3      5.471      8.569
REMARK SMILES C[NH2+][C@@]1(C(=O)NCCCCNC(=O)c2ccc(-c3c4nc(c(-c5cccc(S(=O)(=O)[O-])c5F)c5ccc([nH]5)c(-c5cccc(S(=O)(=O)[O-])c5F)c5nc(c(-c6cccc(S(=O)(=O)[O-])c6F)c6ccc3[nH]6)C=C5)C=C4)cc2)CCC[C@H]1CCn1ccc(C(F)(F)F)n1
REMARK SMILES IDX 8 1 7 2 6 3 4 4 5 5 3 7 77 8 80 9 78 10 79 11 2 12 1 13
REMARK SMILES IDX 81 16 82 17 83 18 84 19 91 20 85 21 86 22 87 23 88 24 89 25
REMARK SMILES IDX 90 26 9 27 10 28 11 29 12 30 13 32 14 33 15 34 76 35 16 36
REMARK SMILES IDX 75 37 17 38 18 39 19 40 69 41 20 42 74 43 68 44 70 45 21 46
REMARK SMILES IDX 73 47 67 48 66 49 22 51 54 52 34 53 53 54 35 55 38 56 52 57
REMARK SMILES IDX 71 58 36 59 37 60 51 62 72 63 39 64 23 65 24 66 32 67 25 68
REMARK SMILES IDX 27 69 33 70 26 71 28 72 29 73 30 74 31 75 55 76 56 77 64 78
REMARK SMILES IDX 57 79 59 80 65 81 58 82 60 83 61 84 62 85 63 86 40 87 41 88
REMARK SMILES IDX 49 89 42 90 44 91 50 92 43 93 45 94 46 95 47 96 48 97
REMARK H PARENT 6 6 2 14 2 15 11 31 70 50 38 61
REMARK Flexibility Score: inf
ROOT
ATOM      1  C   UNL A   1      32.233  29.793  27.231  1.00  0.00     0.023 C 
ENDROOT
BRANCH   1   2
ATOM      2  C   UNL A   1      31.905  28.814  26.111  1.00  0.00     0.116 C 
BRANCH   2   3
ATOM      3  N   UNL A   1      33.075  28.360  25.403  1.00  0.00    -0.351 N 
ATOM      4  C   UNL A   1      33.168  27.754  24.192  1.00  0.00     0.281 C 
ATOM      5  O   UNL A   1      34.063  28.223  23.471  1.00  0.00    -0.268 OA
ATOM      6  H   UNL A   1      33.931  28.511  25.865  1.00  0.00     0.163 HD
BRANCH   4   7
ATOM      7  C   UNL A   1      32.231  26.572  23.655  1.00  0.00     0.178 C 
ATOM      8  C   UNL A   1      31.173  27.184  22.711  1.00  0.00     0.079 C 
ATOM      9  C   UNL A   1      31.393  25.744  24.690  1.00  0.00     0.062 C 
ATOM     10  C   UNL A   1      29.849  27.240  23.453  1.00  0.00     0.008 C 
ATOM     11  C   UNL A   1      30.017  26.457  24.746  1.00  0.00     0.011 C 
BRANCH   7  12
ATOM     12  N   UNL A   1      33.081  25.681  22.787  1.00  0.00    -0.336 N 
ATOM     13  C   UNL A   1      32.756  25.735  21.354  1.00  0.00     0.331 C 
ATOM     14  H   UNL A   1      34.055  25.957  22.904  1.00  0.00     0.346 HD
ATOM     15  H   UNL A   1      32.899  24.723  23.090  1.00  0.00     0.346 HD
ENDBRANCH   7  12
BRANCH   9  16
ATOM     16  C   UNL A   1      31.045  24.259  24.356  1.00  0.00     0.034 C 
BRANCH  16  17
ATOM     17  C   UNL A   1      31.201  23.172  25.417  1.00  0.00     0.144 C 
BRANCH  17  18
ATOM     18  N   UNL A   1      32.139  22.117  25.088  1.00  0.00    -0.272 N 
ATOM     19  C   UNL A   1      33.466  22.253  24.800  1.00  0.00     0.109 A 
ATOM     20  N   UNL A   1      31.749  20.836  25.169  1.00  0.00    -0.168 NA
ATOM     21  C   UNL A   1      33.955  20.976  24.650  1.00  0.00     0.055 A 
ATOM     22  C   UNL A   1      32.846  20.115  24.877  1.00  0.00     0.166 A 
BRANCH  22  23
ATOM     23  C   UNL A   1      32.850  18.610  24.840  1.00  0.00     0.435 C 
ATOM     24  F   UNL A   1      31.980  18.132  23.909  1.00  0.00    -0.164 F 
ATOM     25  F   UNL A   1      34.076  18.124  24.504  1.00  0.00    -0.164 F 
ATOM     26  F   UNL A   1      32.513  18.035  26.024  1.00  0.00    -0.164 F 
ENDBRANCH  22  23
ENDBRANCH  17  18
ENDBRANCH  16  17
ENDBRANCH   9  16
ENDBRANCH   4   7
ENDBRANCH   2   3
ENDBRANCH   1   2
BRANCH   1  27
ATOM     27  C   UNL A   1      32.039  31.266  26.861  1.00  0.00     0.023 C 
BRANCH  27  28
ATOM     28  C   UNL A   1      33.120  32.222  27.368  1.00  0.00     0.116 C 
BRANCH  28  29
ATOM     29  N   UNL A   1      32.648  33.582  27.596  1.00  0.00    -0.352 N 
ATOM     30  C   UNL A   1      33.119  34.498  28.509  1.00  0.00     0.251 C 
ATOM     31  H   UNL A   1      31.902  33.882  27.028  1.00  0.00     0.163 HD
ATOM     32  O   UNL A   1      32.573  35.590  28.636  1.00  0.00    -0.269 OA
BRANCH  30  33
ATOM     33  C   UNL A   1      34.262  34.125  29.362  1.00  0.00     0.039 A 
ATOM     34  C   UNL A   1      34.022  33.423  30.546  1.00  0.00     0.014 A 
ATOM     35  C   UNL A   1      35.568  34.395  28.946  1.00  0.00     0.014 A 
ATOM     36  C   UNL A   1      35.101  32.921  31.276  1.00  0.00     0.010 A 
ATOM     37  C   UNL A   1      36.636  33.834  29.636  1.00  0.00     0.010 A 
ATOM     38  C   UNL A   1      36.414  33.088  30.804  1.00  0.00    -0.014 A 
BRANCH  38  39
ATOM     39  C   UNL A   1      37.569  32.469  31.501  1.00  0.00     0.031 A 
ATOM     40  C   UNL A   1      38.304  31.320  30.868  1.00  0.00     0.074 A 
ATOM     41  C   UNL A   1      37.886  32.871  32.749  1.00  0.00     0.049 A 
ATOM     42  N   UNL A   1      39.291  30.610  31.347  1.00  0.00    -0.248 NA
ATOM     43  C   UNL A   1      37.850  30.892  29.535  1.00  0.00     0.031 C 
ATOM     44  C   UNL A   1      37.185  33.909  33.508  1.00  0.00     0.029 A 
ATOM     45  N   UNL A   1      38.862  32.434  33.609  1.00  0.00    -0.354 N 
ATOM     46  C   UNL A   1      39.549  29.630  30.398  1.00  0.00     0.074 A 
ATOM     47  C   UNL A   1      38.591  29.814  29.329  1.00  0.00     0.031 C 
ATOM     48  C   UNL A   1      37.756  34.030  34.718  1.00  0.00     0.029 A 
ATOM     49  C   UNL A   1      38.847  33.069  34.830  1.00  0.00     0.049 A 
ATOM     50  H   UNL A   1      39.511  31.732  33.375  1.00  0.00     0.167 HD
ATOM     51  C   UNL A   1      40.517  28.684  30.396  1.00  0.00     0.034 A 
ATOM     52  C   UNL A   1      39.628  32.897  35.914  1.00  0.00     0.034 A 
ATOM     53  C   UNL A   1      41.504  28.543  31.431  1.00  0.00     0.049 A 
ATOM     54  C   UNL A   1      40.744  31.888  35.856  1.00  0.00     0.074 A 
ATOM     55  C   UNL A   1      42.589  27.686  31.476  1.00  0.00     0.029 A 
ATOM     56  N   UNL A   1      41.530  29.282  32.604  1.00  0.00    -0.354 N 
ATOM     57  N   UNL A   1      41.083  31.089  34.874  1.00  0.00    -0.248 NA
ATOM     58  C   UNL A   1      41.611  31.785  37.040  1.00  0.00     0.031 C 
ATOM     59  C   UNL A   1      43.266  27.902  32.681  1.00  0.00     0.029 A 
ATOM     60  C   UNL A   1      42.609  28.902  33.380  1.00  0.00     0.049 A 
ATOM     61  H   UNL A   1      40.875  29.976  32.848  1.00  0.00     0.167 HD
ATOM     62  C   UNL A   1      42.219  30.415  35.305  1.00  0.00     0.074 A 
ATOM     63  C   UNL A   1      42.524  30.915  36.630  1.00  0.00     0.031 C 
ATOM     64  C   UNL A   1      42.935  29.454  34.670  1.00  0.00     0.034 A 
BRANCH  51  65
ATOM     65  C   UNL A   1      40.599  27.773  29.201  1.00  0.00     0.023 A 
ATOM     66  C   UNL A   1      39.746  26.652  29.127  1.00  0.00     0.012 A 
ATOM     67  C   UNL A   1      41.477  28.043  28.133  1.00  0.00     0.148 A 
ATOM     68  C   UNL A   1      39.789  25.795  28.029  1.00  0.00     0.002 A 
ATOM     69  C   UNL A   1      41.484  27.208  27.021  1.00  0.00     0.091 A 
ATOM     70  F   UNL A   1      42.298  29.099  28.230  1.00  0.00    -0.205 F 
ATOM     71  C   UNL A   1      40.649  26.079  26.972  1.00  0.00     0.022 A 
BRANCH  69  72
ATOM     72  S   UNL A   1      42.503  27.529  25.577  1.00  0.00     0.127 S 
ATOM     73  O   UNL A   1      43.842  27.562  26.163  1.00  0.00    -0.237 OA
ATOM     74  O   UNL A   1      42.232  26.360  24.740  1.00  0.00    -0.237 OA
ATOM     75  O   UNL A   1      42.026  28.790  25.026  1.00  0.00    -0.744 OA
ENDBRANCH  69  72
ENDBRANCH  51  65
BRANCH  52  76
ATOM     76  C   UNL A   1      39.441  33.765  37.111  1.00  0.00     0.023 A 
ATOM     77  C   UNL A   1      39.885  35.101  37.066  1.00  0.00     0.012 A 
ATOM     78  C   UNL A   1      38.801  33.293  38.274  1.00  0.00     0.148 A 
ATOM     79  C   UNL A   1      39.723  35.944  38.166  1.00  0.00     0.002 A 
ATOM     80  C   UNL A   1      38.596  34.153  39.348  1.00  0.00     0.091 A 
ATOM     81  F   UNL A   1      38.399  32.016  38.304  1.00  0.00    -0.205 F 
ATOM     82  C   UNL A   1      39.070  35.474  39.302  1.00  0.00     0.022 A 
BRANCH  80  83
ATOM     83  S   UNL A   1      37.651  33.669  40.797  1.00  0.00     0.127 S 
ATOM     84  O   UNL A   1      38.543  32.700  41.426  1.00  0.00    -0.237 OA
ATOM     85  O   UNL A   1      37.519  34.940  41.512  1.00  0.00    -0.237 OA
ATOM     86  O   UNL A   1      36.394  33.142  40.282  1.00  0.00    -0.744 OA
ENDBRANCH  80  83
ENDBRANCH  52  76
BRANCH  64  87
ATOM     87  C   UNL A   1      44.139  28.896  35.379  1.00  0.00     0.023 A 
ATOM     88  C   UNL A   1      45.398  29.500  35.192  1.00  0.00     0.012 A 
ATOM     89  C   UNL A   1      44.011  27.830  36.292  1.00  0.00     0.148 A 
ATOM     90  C   UNL A   1      46.516  29.035  35.883  1.00  0.00     0.002 A 
ATOM     91  C   UNL A   1      45.120  27.402  37.010  1.00  0.00     0.091 A 
ATOM     92  F   UNL A   1      42.808  27.255  36.438  1.00  0.00    -0.205 F 
ATOM     93  C   UNL A   1      46.374  27.995  36.801  1.00  0.00     0.022 A 
BRANCH  91  94
ATOM     94  S   UNL A   1      45.007  26.134  38.278  1.00  0.00     0.127 S 
ATOM     95  O   UNL A   1      44.550  24.979  37.506  1.00  0.00    -0.237 OA
ATOM     96  O   UNL A   1      46.387  26.041  38.754  1.00  0.00    -0.237 OA
ATOM     97  O   UNL A   1      44.063  26.642  39.266  1.00  0.00    -0.744 OA
ENDBRANCH  91  94
ENDBRANCH  64  87
ENDBRANCH  38  39
ENDBRANCH  30  33
ENDBRANCH  28  29
ENDBRANCH  27  28
ENDBRANCH   1  27
TORSDOF 19
ENDMDL
MODEL 3
REMARK VINA RESULT:     -11.3      5.261      7.539
REMARK SMILES C[NH2+][C@@]1(C(=O)NCCCCNC(=O)c2ccc(-c3c4nc(c(-c5cccc(S(=O)(=O)[O-])c5F)c5ccc([nH]5)c(-c5cccc(S(=O)(=O)[O-])c5F)c5nc(c(-c6cccc(S(=O)(=O)[O-])c6F)c6ccc3[nH]6)C=C5)C=C4)cc2)CCC[C@H]1CCn1ccc(C(F)(F)F)n1
REMARK SMILES IDX 8 1 7 2 6 3 4 4 5 5 3 7 77 8 80 9 78 10 79 11 2 12 1 13
REMARK SMILES IDX 81 16 82 17 83 18 84 19 91 20 85 21 86 22 87 23 88 24 89 25
REMARK SMILES IDX 90 26 9 27 10 28 11 29 12 30 13 32 14 33 15 34 76 35 16 36
REMARK SMILES IDX 75 37 17 38 18 39 19 40 69 41 20 42 74 43 68 44 70 45 21 46
REMARK SMILES IDX 73 47 67 48 66 49 22 51 54 52 34 53 53 54 35 55 38 56 52 57
REMARK SMILES IDX 71 58 36 59 37 60 51 62 72 63 39 64 23 65 24 66 32 67 25 68
REMARK SMILES IDX 27 69 33 70 26 71 28 72 29 73 30 74 31 75 55 76 56 77 64 78
REMARK SMILES IDX 57 79 59 80 65 81 58 82 60 83 61 84 62 85 63 86 40 87 41 88
REMARK SMILES IDX 49 89 42 90 44 91 50 92 43 93 45 94 46 95 47 96 48 97
REMARK H PARENT 6 6 2 14 2 15 11 31 70 50 38 61
REMARK Flexibility Score: inf
ROOT
ATOM      1  C   UNL A   1      32.774  29.023  23.725  1.00  0.00     0.023 C 
ENDROOT
BRANCH   1   2
ATOM      2  C   UNL A   1      32.117  28.053  22.751  1.00  0.00     0.116 C 
BRANCH   2   3
ATOM      3  N   UNL A   1      33.061  27.169  22.118  1.00  0.00    -0.351 N 
ATOM      4  C   UNL A   1      33.068  25.813  22.060  1.00  0.00     0.281 C 
ATOM      5  O   UNL A   1      33.314  25.366  20.928  1.00  0.00    -0.268 OA
ATOM      6  H   UNL A   1      33.812  27.613  21.661  1.00  0.00     0.163 HD
BRANCH   4   7
ATOM      7  C   UNL A   1      32.759  24.816  23.274  1.00  0.00     0.178 C 
ATOM      8  C   UNL A   1      32.387  25.661  24.512  1.00  0.00     0.079 C 
ATOM      9  C   UNL A   1      33.902  23.870  23.781  1.00  0.00     0.062 C 
ATOM     10  C   UNL A   1      33.575  25.668  25.459  1.00  0.00     0.008 C 
ATOM     11  C   UNL A   1      34.579  24.651  24.938  1.00  0.00     0.011 C 
BRANCH   7  12
ATOM     12  N   UNL A   1      31.515  24.045  22.921  1.00  0.00    -0.336 N 
ATOM     13  C   UNL A   1      30.274  24.596  23.485  1.00  0.00     0.331 C 
ATOM     14  H   UNL A   1      31.425  24.032  21.906  1.00  0.00     0.346 HD
ATOM     15  H   UNL A   1      31.627  23.114  23.322  1.00  0.00     0.346 HD
ENDBRANCH   7  12
BRANCH   9  16
ATOM     16  C   UNL A   1      33.513  22.499  24.419  1.00  0.00     0.034 C 
BRANCH  16  17
ATOM     17  C   UNL A   1      34.482  21.319  24.363  1.00  0.00     0.144 C 
BRANCH  17  18
ATOM     18  N   UNL A   1      33.898  20.025  24.657  1.00  0.00    -0.272 N 
ATOM     19  C   UNL A   1      32.674  19.779  25.207  1.00  0.00     0.109 A 
ATOM     20  N   UNL A   1      34.531  18.910  24.266  1.00  0.00    -0.168 NA
ATOM     21  C   UNL A   1      32.524  18.411  25.203  1.00  0.00     0.055 A 
ATOM     22  C   UNL A   1      33.714  17.901  24.615  1.00  0.00     0.166 A 
BRANCH  22  23
ATOM     23  C   UNL A   1      34.050  16.453  24.369  1.00  0.00     0.435 C 
ATOM     24  F   UNL A   1      35.086  16.042  25.150  1.00  0.00    -0.164 F 
ATOM     25  F   UNL A   1      32.999  15.641  24.668  1.00  0.00    -0.164 F 
ATOM     26  F   UNL A   1      34.397  16.186  23.083  1.00  0.00    -0.164 F 
ENDBRANCH  22  23
ENDBRANCH  17  18
ENDBRANCH  16  17
ENDBRANCH   9  16
ENDBRANCH   4   7
ENDBRANCH   2   3
ENDBRANCH   1   2
BRANCH   1  27
ATOM     27  C   UNL A   1      31.833  29.576  24.800  1.00  0.00     0.023 C 
BRANCH  27  28
ATOM     28  C   UNL A   1      32.504  30.011  26.103  1.00  0.00     0.116 C 
BRANCH  28  29
ATOM     29  N   UNL A   1      32.187  31.377  26.504  1.00  0.00    -0.352 N 
ATOM     30  C   UNL A   1      32.934  32.220  27.295  1.00  0.00     0.251 C 
ATOM     31  H   UNL A   1      31.336  31.740  26.168  1.00  0.00     0.163 HD
ATOM     32  O   UNL A   1      32.504  33.326  27.608  1.00  0.00    -0.269 OA
BRANCH  30  33
ATOM     33  C   UNL A   1      34.239  31.752  27.797  1.00  0.00     0.039 A 
ATOM     34  C   UNL A   1      35.264  32.682  27.986  1.00  0.00     0.014 A 
ATOM     35  C   UNL A   1      34.415  30.414  28.160  1.00  0.00     0.014 A 
ATOM     36  C   UNL A   1      36.445  32.283  28.613  1.00  0.00     0.010 A 
ATOM     37  C   UNL A   1      35.562  30.037  28.847  1.00  0.00     0.010 A 
ATOM     38  C   UNL A   1      36.586  30.967  29.086  1.00  0.00    -0.014 A 
BRANCH  38  39
ATOM     39  C   UNL A   1      37.784  30.548  29.855  1.00  0.00     0.031 A 
ATOM     40  C   UNL A   1      38.760  29.572  29.259  1.00  0.00     0.074 A 
ATOM     41  C   UNL A   1      37.934  30.963  31.130  1.00  0.00     0.049 A 
ATOM     42  N   UNL A   1      39.825  29.040  29.798  1.00  0.00    -0.248 NA
ATOM     43  C   UNL A   1      38.486  29.109  27.889  1.00  0.00     0.031 C 
ATOM     44  C   UNL A   1      37.002  31.832  31.853  1.00  0.00     0.029 A 
ATOM     45  N   UNL A   1      38.911  30.686  32.052  1.00  0.00    -0.354 N 
ATOM     46  C   UNL A   1      40.324  28.153  28.853  1.00  0.00     0.074 A 
ATOM     47  C   UNL A   1      39.426  28.191  27.720  1.00  0.00     0.031 C 
ATOM     48  C   UNL A   1      37.456  32.019  33.103  1.00  0.00     0.029 A 
ATOM     49  C   UNL A   1      38.696  31.270  33.279  1.00  0.00     0.049 A 
ATOM     50  H   UNL A   1      39.693  30.121  31.855  1.00  0.00     0.167 HD
ATOM     51  C   UNL A   1      41.448  27.399  28.907  1.00  0.00     0.034 A 
ATOM     52  C   UNL A   1      39.417  31.211  34.415  1.00  0.00     0.034 A 
ATOM     53  C   UNL A   1      42.370  27.410  30.010  1.00  0.00     0.049 A 
ATOM     54  C   UNL A   1      40.702  30.425  34.423  1.00  0.00     0.074 A 
ATOM     55  C   UNL A   1      43.588  26.764  30.120  1.00  0.00     0.029 A 
ATOM     56  N   UNL A   1      42.177  28.105  31.193  1.00  0.00    -0.354 N 
ATOM     57  N   UNL A   1      41.249  29.731  33.455  1.00  0.00    -0.248 NA
ATOM     58  C   UNL A   1      41.488  30.446  35.665  1.00  0.00     0.031 C 
ATOM     59  C   UNL A   1      44.129  27.064  31.375  1.00  0.00     0.029 A 
ATOM     60  C   UNL A   1      43.252  27.905  32.041  1.00  0.00     0.049 A 
ATOM     61  H   UNL A   1      41.391  28.661  31.400  1.00  0.00     0.167 HD
ATOM     62  C   UNL A   1      42.457  29.263  33.956  1.00  0.00     0.074 A 
ATOM     63  C   UNL A   1      42.572  29.770  35.309  1.00  0.00     0.031 C 
ATOM     64  C   UNL A   1      43.380  28.468  33.360  1.00  0.00     0.034 A 
BRANCH  51  65
ATOM     65  C   UNL A   1      41.779  26.555  27.706  1.00  0.00     0.023 A 
ATOM     66  C   UNL A   1      42.397  27.156  26.589  1.00  0.00     0.012 A 
ATOM     67  C   UNL A   1      41.527  25.170  27.692  1.00  0.00     0.148 A 
ATOM     68  C   UNL A   1      42.728  26.401  25.466  1.00  0.00     0.002 A 
ATOM     69  C   UNL A   1      41.898  24.415  26.585  1.00  0.00     0.091 A 
ATOM     70  F   UNL A   1      40.917  24.618  28.751  1.00  0.00    -0.205 F 
ATOM     71  C   UNL A   1      42.488  25.030  25.468  1.00  0.00     0.022 A 
BRANCH  69  72
ATOM     72  S   UNL A   1      41.700  22.631  26.521  1.00  0.00     0.127 S 
ATOM     73  O   UNL A   1      42.377  22.214  27.747  1.00  0.00    -0.237 OA
ATOM     74  O   UNL A   1      40.244  22.480  26.547  1.00  0.00    -0.237 OA
ATOM     75  O   UNL A   1      42.329  22.204  25.279  1.00  0.00    -0.744 OA
ENDBRANCH  69  72
ENDBRANCH  51  65
BRANCH  52  76
ATOM     76  C   UNL A   1      38.991  31.994  35.610  1.00  0.00     0.023 A 
ATOM     77  C   UNL A   1      39.266  33.374  35.659  1.00  0.00     0.012 A 
ATOM     78  C   UNL A   1      38.290  31.395  36.674  1.00  0.00     0.148 A 
ATOM     79  C   UNL A   1      38.878  34.139  36.760  1.00  0.00     0.002 A 
ATOM     80  C   UNL A   1      37.861  32.173  37.744  1.00  0.00     0.091 A 
ATOM     81  F   UNL A   1      38.049  30.078  36.616  1.00  0.00    -0.205 F 
ATOM     82  C   UNL A   1      38.167  33.542  37.796  1.00  0.00     0.022 A 
BRANCH  80  83
ATOM     83  S   UNL A   1      36.827  31.512  39.057  1.00  0.00     0.127 S 
ATOM     84  O   UNL A   1      35.624  32.328  38.931  1.00  0.00    -0.237 OA
ATOM     85  O   UNL A   1      36.671  30.115  38.647  1.00  0.00    -0.237 OA
ATOM     86  O   UNL A   1      37.595  31.690  40.282  1.00  0.00    -0.744 OA
ENDBRANCH  80  83
ENDBRANCH  52  76
BRANCH  64  87
ATOM     87  C   UNL A   1      44.614  28.118  34.147  1.00  0.00     0.023 A 
ATOM     88  C   UNL A   1      45.764  28.925  34.033  1.00  0.00     0.012 A 
ATOM     89  C   UNL A   1      44.609  27.044  35.058  1.00  0.00     0.148 A 
ATOM     90  C   UNL A   1      46.898  28.652  34.795  1.00  0.00     0.002 A 
ATOM     91  C   UNL A   1      45.728  26.805  35.847  1.00  0.00     0.091 A 
ATOM     92  F   UNL A   1      43.513  26.275  35.135  1.00  0.00    -0.205 F 
ATOM     93  C   UNL A   1      46.876  27.601  35.711  1.00  0.00     0.022 A 
BRANCH  91  94
ATOM     94  S   UNL A   1      45.750  25.533  37.116  1.00  0.00     0.127 S 
ATOM     95  O   UNL A   1      44.621  25.929  37.955  1.00  0.00    -0.237 OA
ATOM     96  O   UNL A   1      45.533  24.312  36.340  1.00  0.00    -0.237 OA
ATOM     97  O   UNL A   1      47.062  25.621  37.744  1.00  0.00    -0.744 OA
ENDBRANCH  91  94
ENDBRANCH  64  87
ENDBRANCH  38  39
ENDBRANCH  30  33
ENDBRANCH  28  29
ENDBRANCH  27  28
ENDBRANCH   1  27
TORSDOF 19
ENDMDL
