MODEL 1
REMARK VINA RESULT:     -12.3      0.000      0.000
REMARK SMILES C[C@@H](C(=O)NCCCCNC(=O)c1ccc(-c2c3nc(c(-c4cccc(S(=O)(=O)[O-])c4F)c4ccc([nH]4)c(-c4cccc(S(=O)(=O)[O-])c4F)c4nc(c(-c5cccc(S(=O)(=O)[O-])c5F)c5ccc2[nH]5)C=C4)C=C3)cc1)c1cc(/C=C/S(C)(=O)=O)cc(C(=O)c2ccccc2)c1
REMARK SMILES IDX 7 1 6 2 5 3 3 4 4 5 2 7 1 8 76 9 77 10 95 11 78 12 86 13
REMARK SMILES IDX 85 14 79 15 80 16 81 17 82 18 83 19 84 20 87 21 88 22 89 23
REMARK SMILES IDX 90 24 94 25 91 26 93 27 92 28 8 29 9 30 10 31 11 32 12 34
REMARK SMILES IDX 13 35 14 36 75 37 15 38 74 39 16 40 17 41 18 42 68 43 19 44
REMARK SMILES IDX 73 45 67 46 69 47 20 48 72 49 66 50 65 51 21 53 53 54 33 55
REMARK SMILES IDX 52 56 34 57 37 58 51 59 70 60 35 61 36 62 50 64 71 65 38 66
REMARK SMILES IDX 22 67 23 68 31 69 24 70 26 71 32 72 25 73 27 74 28 75 29 76
REMARK SMILES IDX 30 77 54 78 55 79 63 80 56 81 58 82 64 83 57 84 59 85 60 86
REMARK SMILES IDX 61 87 62 88 39 89 40 90 48 91 41 92 43 93 49 94 42 95 44 96
REMARK SMILES IDX 45 97 46 98 47 99
REMARK H PARENT 5 6 10 33 69 52 37 63
REMARK Flexibility Score: inf
ROOT
ATOM      1  C   UNL A   1      31.112  27.400  26.293  1.00  0.00     0.023 C 
ENDROOT
BRANCH   1   2
ATOM      2  C   UNL A   1      32.001  26.191  26.583  1.00  0.00     0.116 C 
BRANCH   2   3
ATOM      3  N   UNL A   1      31.225  24.977  26.718  1.00  0.00    -0.356 N 
ATOM      4  C   UNL A   1      31.047  23.938  25.855  1.00  0.00     0.227 C 
ATOM      5  O   UNL A   1      30.426  22.970  26.300  1.00  0.00    -0.274 OA
ATOM      6  H   UNL A   1      30.749  24.887  27.574  1.00  0.00     0.163 HD
BRANCH   4   7
ATOM      7  C   UNL A   1      31.662  23.975  24.443  1.00  0.00     0.105 C 
ATOM      8  C   UNL A   1      30.658  23.681  23.321  1.00  0.00     0.023 C 
BRANCH   7   9
ATOM      9  C   UNL A   1      32.819  22.997  24.216  1.00  0.00    -0.035 A 
ATOM     10  C   UNL A   1      32.592  21.620  24.357  1.00  0.00     0.012 A 
ATOM     11  C   UNL A   1      34.136  23.446  24.062  1.00  0.00     0.016 A 
ATOM     12  C   UNL A   1      33.652  20.699  24.390  1.00  0.00    -0.024 A 
ATOM     13  C   UNL A   1      35.212  22.555  24.071  1.00  0.00     0.023 A 
ATOM     14  C   UNL A   1      34.962  21.183  24.229  1.00  0.00     0.020 A 
BRANCH  12  15
ATOM     15  C   UNL A   1      33.442  19.260  24.657  1.00  0.00     0.020 C 
ATOM     16  C   UNL A   1      34.342  18.297  24.400  1.00  0.00     0.106 C 
BRANCH  16  17
ATOM     17  S   UNL A   1      33.952  16.625  24.649  1.00  0.00     0.168 S 
ATOM     18  C   UNL A   1      32.429  16.764  25.557  1.00  0.00     0.163 C 
ATOM     19  O   UNL A   1      33.627  16.033  23.367  1.00  0.00    -0.225 OA
ATOM     20  O   UNL A   1      34.917  15.997  25.534  1.00  0.00    -0.225 OA
ENDBRANCH  16  17
ENDBRANCH  12  15
BRANCH  13  21
ATOM     21  C   UNL A   1      36.619  23.042  23.926  1.00  0.00     0.193 C 
ATOM     22  O   UNL A   1      37.007  23.499  22.854  1.00  0.00    -0.289 OA
BRANCH  21  23
ATOM     23  C   UNL A   1      37.557  23.017  25.077  1.00  0.00     0.022 A 
ATOM     24  C   UNL A   1      38.282  21.848  25.325  1.00  0.00     0.012 A 
ATOM     25  C   UNL A   1      37.752  24.149  25.880  1.00  0.00     0.012 A 
ATOM     26  C   UNL A   1      39.242  21.831  26.339  1.00  0.00     0.001 A 
ATOM     27  C   UNL A   1      38.720  24.129  26.886  1.00  0.00     0.001 A 
ATOM     28  C   UNL A   1      39.468  22.972  27.109  1.00  0.00     0.000 A 
ENDBRANCH  21  23
ENDBRANCH  13  21
ENDBRANCH   7   9
ENDBRANCH   4   7
ENDBRANCH   2   3
ENDBRANCH   1   2
BRANCH   1  29
ATOM     29  C   UNL A   1      31.659  28.362  25.236  1.00  0.00     0.023 C 
BRANCH  29  30
ATOM     30  C   UNL A   1      32.892  29.155  25.654  1.00  0.00     0.116 C 
BRANCH  30  31
ATOM     31  N   UNL A   1      32.564  30.484  26.150  1.00  0.00    -0.352 N 
ATOM     32  C   UNL A   1      33.239  31.260  27.061  1.00  0.00     0.251 C 
ATOM     33  H   UNL A   1      31.743  30.882  25.780  1.00  0.00     0.163 HD
ATOM     34  O   UNL A   1      32.734  32.301  27.471  1.00  0.00    -0.269 OA
BRANCH  32  35
ATOM     35  C   UNL A   1      34.552  30.814  27.570  1.00  0.00     0.039 A 
ATOM     36  C   UNL A   1      35.508  31.777  27.898  1.00  0.00     0.014 A 
ATOM     37  C   UNL A   1      34.822  29.455  27.765  1.00  0.00     0.014 A 
ATOM     38  C   UNL A   1      36.702  31.383  28.505  1.00  0.00     0.010 A 
ATOM     39  C   UNL A   1      35.981  29.072  28.434  1.00  0.00     0.010 A 
ATOM     40  C   UNL A   1      36.926  30.034  28.825  1.00  0.00    -0.014 A 
BRANCH  40  41
ATOM     41  C   UNL A   1      38.103  29.625  29.637  1.00  0.00     0.031 A 
ATOM     42  C   UNL A   1      38.312  30.174  31.020  1.00  0.00     0.074 A 
ATOM     43  C   UNL A   1      39.036  28.826  29.079  1.00  0.00     0.049 A 
ATOM     44  N   UNL A   1      39.309  29.970  31.842  1.00  0.00    -0.248 NA
ATOM     45  C   UNL A   1      37.282  31.086  31.544  1.00  0.00     0.031 C 
ATOM     46  C   UNL A   1      38.988  28.293  27.715  1.00  0.00     0.029 A 
ATOM     47  N   UNL A   1      40.224  28.348  29.578  1.00  0.00    -0.354 N 
ATOM     48  C   UNL A   1      39.047  30.748  32.963  1.00  0.00     0.074 A 
ATOM     49  C   UNL A   1      37.805  31.446  32.710  1.00  0.00     0.031 C 
ATOM     50  C   UNL A   1      40.094  27.568  27.485  1.00  0.00     0.029 A 
ATOM     51  C   UNL A   1      40.949  27.616  28.666  1.00  0.00     0.049 A 
ATOM     52  H   UNL A   1      40.528  28.514  30.500  1.00  0.00     0.167 HD
ATOM     53  C   UNL A   1      39.766  30.856  34.105  1.00  0.00     0.034 A 
ATOM     54  C   UNL A   1      42.177  27.065  28.758  1.00  0.00     0.034 A 
ATOM     55  C   UNL A   1      40.983  30.136  34.366  1.00  0.00     0.049 A 
ATOM     56  C   UNL A   1      42.940  27.191  30.048  1.00  0.00     0.074 A 
ATOM     57  C   UNL A   1      41.725  30.103  35.534  1.00  0.00     0.029 A 
ATOM     58  N   UNL A   1      41.652  29.345  33.448  1.00  0.00    -0.354 N 
ATOM     59  N   UNL A   1      42.584  27.781  31.163  1.00  0.00    -0.248 NA
ATOM     60  C   UNL A   1      44.262  26.549  30.104  1.00  0.00     0.031 C 
ATOM     61  C   UNL A   1      42.865  29.327  35.308  1.00  0.00     0.029 A 
ATOM     62  C   UNL A   1      42.813  28.843  34.011  1.00  0.00     0.049 A 
ATOM     63  H   UNL A   1      41.348  29.166  32.528  1.00  0.00     0.167 HD
ATOM     64  C   UNL A   1      43.624  27.559  32.059  1.00  0.00     0.074 A 
ATOM     65  C   UNL A   1      44.607  26.750  31.368  1.00  0.00     0.031 C 
ATOM     66  C   UNL A   1      43.764  28.002  33.332  1.00  0.00     0.034 A 
BRANCH  53  67
ATOM     67  C   UNL A   1      39.244  31.758  35.192  1.00  0.00     0.023 A 
ATOM     68  C   UNL A   1      38.379  31.238  36.176  1.00  0.00     0.012 A 
ATOM     69  C   UNL A   1      39.697  33.088  35.300  1.00  0.00     0.148 A 
ATOM     70  C   UNL A   1      37.960  32.032  37.243  1.00  0.00     0.002 A 
ATOM     71  C   UNL A   1      39.310  33.859  36.389  1.00  0.00     0.091 A 
ATOM     72  F   UNL A   1      40.504  33.567  34.344  1.00  0.00    -0.205 F 
ATOM     73  C   UNL A   1      38.436  33.336  37.356  1.00  0.00     0.022 A 
BRANCH  71  74
ATOM     74  S   UNL A   1      39.930  35.520  36.674  1.00  0.00     0.127 S 
ATOM     75  O   UNL A   1      39.468  36.216  35.475  1.00  0.00    -0.237 OA
ATOM     76  O   UNL A   1      39.237  35.898  37.906  1.00  0.00    -0.237 OA
ATOM     77  O   UNL A   1      41.376  35.396  36.799  1.00  0.00    -0.744 OA
ENDBRANCH  71  74
ENDBRANCH  53  67
BRANCH  54  78
ATOM     78  C   UNL A   1      42.759  26.324  27.600  1.00  0.00     0.023 A 
ATOM     79  C   UNL A   1      43.388  27.038  26.562  1.00  0.00     0.012 A 
ATOM     80  C   UNL A   1      42.681  24.921  27.520  1.00  0.00     0.148 A 
ATOM     81  C   UNL A   1      43.888  26.370  25.442  1.00  0.00     0.002 A 
ATOM     82  C   UNL A   1      43.238  24.257  26.433  1.00  0.00     0.091 A 
ATOM     83  F   UNL A   1      42.067  24.259  28.511  1.00  0.00    -0.205 F 
ATOM     84  C   UNL A   1      43.821  24.981  25.382  1.00  0.00     0.022 A 
BRANCH  82  85
ATOM     85  S   UNL A   1      43.319  22.466  26.345  1.00  0.00     0.127 S 
ATOM     86  O   UNL A   1      42.465  22.183  25.195  1.00  0.00    -0.237 OA
ATOM     87  O   UNL A   1      44.747  22.237  26.124  1.00  0.00    -0.237 OA
ATOM     88  O   UNL A   1      42.831  21.988  27.632  1.00  0.00    -0.744 OA
ENDBRANCH  82  85
ENDBRANCH  54  78
BRANCH  66  89
ATOM     89  C   UNL A   1      45.011  27.604  34.078  1.00  0.00     0.023 A 
ATOM     90  C   UNL A   1      46.132  28.458  34.075  1.00  0.00     0.012 A 
ATOM     91  C   UNL A   1      45.049  26.417  34.835  1.00  0.00     0.148 A 
ATOM     92  C   UNL A   1      47.283  28.118  34.783  1.00  0.00     0.002 A 
ATOM     93  C   UNL A   1      46.180  26.111  35.581  1.00  0.00     0.091 A 
ATOM     94  F   UNL A   1      43.977  25.611  34.814  1.00  0.00    -0.205 F 
ATOM     95  C   UNL A   1      47.304  26.952  35.544  1.00  0.00     0.022 A 
BRANCH  93  96
ATOM     96  S   UNL A   1      46.266  24.682  36.666  1.00  0.00     0.127 S 
ATOM     97  O   UNL A   1      44.884  24.582  37.136  1.00  0.00    -0.237 OA
ATOM     98  O   UNL A   1      46.675  23.621  35.746  1.00  0.00    -0.237 OA
ATOM     99  O   UNL A   1      47.248  25.010  37.690  1.00  0.00    -0.744 OA
ENDBRANCH  93  96
ENDBRANCH  66  89
ENDBRANCH  40  41
ENDBRANCH  32  35
ENDBRANCH  30  31
ENDBRANCH  29  30
ENDBRANCH   1  29
TORSDOF 19
ENDMDL
MODEL 2
REMARK VINA RESULT:     -11.7      4.938      7.821
REMARK SMILES C[C@@H](C(=O)NCCCCNC(=O)c1ccc(-c2c3nc(c(-c4cccc(S(=O)(=O)[O-])c4F)c4ccc([nH]4)c(-c4cccc(S(=O)(=O)[O-])c4F)c4nc(c(-c5cccc(S(=O)(=O)[O-])c5F)c5ccc2[nH]5)C=C4)C=C3)cc1)c1cc(/C=C/S(C)(=O)=O)cc(C(=O)c2ccccc2)c1
REMARK SMILES IDX 7 1 6 2 5 3 3 4 4 5 2 7 1 8 76 9 77 10 95 11 78 12 86 13
REMARK SMILES IDX 85 14 79 15 80 16 81 17 82 18 83 19 84 20 87 21 88 22 89 23
REMARK SMILES IDX 90 24 94 25 91 26 93 27 92 28 8 29 9 30 10 31 11 32 12 34
REMARK SMILES IDX 13 35 14 36 75 37 15 38 74 39 16 40 17 41 18 42 68 43 19 44
REMARK SMILES IDX 73 45 67 46 69 47 20 48 72 49 66 50 65 51 21 53 53 54 33 55
REMARK SMILES IDX 52 56 34 57 37 58 51 59 70 60 35 61 36 62 50 64 71 65 38 66
REMARK SMILES IDX 22 67 23 68 31 69 24 70 26 71 32 72 25 73 27 74 28 75 29 76
REMARK SMILES IDX 30 77 54 78 55 79 63 80 56 81 58 82 64 83 57 84 59 85 60 86
REMARK SMILES IDX 61 87 62 88 39 89 40 90 48 91 41 92 43 93 49 94 42 95 44 96
REMARK SMILES IDX 45 97 46 98 47 99
REMARK H PARENT 5 6 10 33 69 52 37 63
REMARK Flexibility Score: inf
ROOT
ATOM      1  C   UNL A   1      38.241  33.666  33.075  1.00  0.00     0.023 C 
ENDROOT
BRANCH   1   2
ATOM      2  C   UNL A   1      37.139  34.529  32.460  1.00  0.00     0.116 C 
BRANCH   2   3
ATOM      3  N   UNL A   1      35.929  33.769  32.234  1.00  0.00    -0.356 N 
ATOM      4  C   UNL A   1      35.410  33.249  31.087  1.00  0.00     0.227 C 
ATOM      5  O   UNL A   1      34.417  32.530  31.223  1.00  0.00    -0.274 OA
ATOM      6  H   UNL A   1      35.392  33.600  33.041  1.00  0.00     0.163 HD
BRANCH   4   7
ATOM      7  C   UNL A   1      36.095  33.502  29.730  1.00  0.00     0.105 C 
ATOM      8  C   UNL A   1      35.234  34.300  28.741  1.00  0.00     0.023 C 
BRANCH   7   9
ATOM      9  C   UNL A   1      36.514  32.239  28.972  1.00  0.00    -0.035 A 
ATOM     10  C   UNL A   1      35.545  31.500  28.278  1.00  0.00     0.012 A 
ATOM     11  C   UNL A   1      37.797  31.696  29.110  1.00  0.00     0.016 A 
ATOM     12  C   UNL A   1      35.822  30.223  27.763  1.00  0.00    -0.024 A 
ATOM     13  C   UNL A   1      38.112  30.437  28.594  1.00  0.00     0.023 A 
ATOM     14  C   UNL A   1      37.121  29.709  27.917  1.00  0.00     0.020 A 
BRANCH  12  15
ATOM     15  C   UNL A   1      34.783  29.380  27.135  1.00  0.00     0.020 C 
ATOM     16  C   UNL A   1      33.596  29.831  26.697  1.00  0.00     0.106 C 
BRANCH  16  17
ATOM     17  S   UNL A   1      32.401  28.737  26.076  1.00  0.00     0.168 S 
ATOM     18  C   UNL A   1      31.573  28.254  27.574  1.00  0.00     0.163 C 
ATOM     19  O   UNL A   1      31.447  29.495  25.292  1.00  0.00    -0.225 OA
ATOM     20  O   UNL A   1      33.028  27.544  25.534  1.00  0.00    -0.225 OA
ENDBRANCH  16  17
ENDBRANCH  12  15
BRANCH  13  21
ATOM     21  C   UNL A   1      39.479  29.853  28.763  1.00  0.00     0.193 C 
ATOM     22  O   UNL A   1      40.344  30.474  29.373  1.00  0.00    -0.289 OA
BRANCH  21  23
ATOM     23  C   UNL A   1      39.803  28.504  28.231  1.00  0.00     0.022 A 
ATOM     24  C   UNL A   1      39.325  27.383  28.914  1.00  0.00     0.012 A 
ATOM     25  C   UNL A   1      40.537  28.348  27.047  1.00  0.00     0.012 A 
ATOM     26  C   UNL A   1      39.533  26.108  28.382  1.00  0.00     0.001 A 
ATOM     27  C   UNL A   1      40.732  27.073  26.515  1.00  0.00     0.001 A 
ATOM     28  C   UNL A   1      40.224  25.956  27.179  1.00  0.00     0.000 A 
ENDBRANCH  21  23
ENDBRANCH  13  21
ENDBRANCH   7   9
ENDBRANCH   4   7
ENDBRANCH   2   3
ENDBRANCH   1   2
BRANCH   1  29
ATOM     29  C   UNL A   1      37.924  33.113  34.466  1.00  0.00     0.023 C 
BRANCH  29  30
ATOM     30  C   UNL A   1      37.891  31.593  34.570  1.00  0.00     0.116 C 
BRANCH  30  31
ATOM     31  N   UNL A   1      36.948  30.987  33.641  1.00  0.00    -0.352 N 
ATOM     32  C   UNL A   1      37.185  30.086  32.630  1.00  0.00     0.251 C 
ATOM     33  H   UNL A   1      36.008  31.261  33.752  1.00  0.00     0.163 HD
ATOM     34  O   UNL A   1      36.285  29.793  31.849  1.00  0.00    -0.269 OA
BRANCH  32  35
ATOM     35  C   UNL A   1      38.534  29.507  32.469  1.00  0.00     0.039 A 
ATOM     36  C   UNL A   1      39.634  30.366  32.435  1.00  0.00     0.014 A 
ATOM     37  C   UNL A   1      38.717  28.122  32.399  1.00  0.00     0.014 A 
ATOM     38  C   UNL A   1      40.924  29.833  32.419  1.00  0.00     0.010 A 
ATOM     39  C   UNL A   1      40.003  27.593  32.454  1.00  0.00     0.010 A 
ATOM     40  C   UNL A   1      41.120  28.443  32.481  1.00  0.00    -0.014 A 
BRANCH  40  41
ATOM     41  C   UNL A   1      42.481  27.869  32.654  1.00  0.00     0.031 A 
ATOM     42  C   UNL A   1      43.077  27.700  34.024  1.00  0.00     0.074 A 
ATOM     43  C   UNL A   1      43.217  27.588  31.559  1.00  0.00     0.049 A 
ATOM     44  N   UNL A   1      44.267  27.271  34.354  1.00  0.00    -0.248 NA
ATOM     45  C   UNL A   1      42.238  28.080  35.173  1.00  0.00     0.031 C 
ATOM     46  C   UNL A   1      42.781  27.785  30.174  1.00  0.00     0.029 A 
ATOM     47  N   UNL A   1      44.499  27.109  31.436  1.00  0.00    -0.354 N 
ATOM     48  C   UNL A   1      44.336  27.358  35.738  1.00  0.00     0.074 A 
ATOM     49  C   UNL A   1      43.072  27.900  36.189  1.00  0.00     0.031 C 
ATOM     50  C   UNL A   1      43.776  27.435  29.344  1.00  0.00     0.029 A 
ATOM     51  C   UNL A   1      44.933  27.028  30.132  1.00  0.00     0.049 A 
ATOM     52  H   UNL A   1      45.053  26.849  32.207  1.00  0.00     0.167 HD
ATOM     53  C   UNL A   1      45.352  27.002  36.560  1.00  0.00     0.034 A 
ATOM     54  C   UNL A   1      46.137  26.689  29.627  1.00  0.00     0.034 A 
ATOM     55  C   UNL A   1      46.594  26.433  36.111  1.00  0.00     0.049 A 
ATOM     56  C   UNL A   1      47.237  26.282  30.569  1.00  0.00     0.074 A 
ATOM     57  C   UNL A   1      47.639  25.945  36.876  1.00  0.00     0.029 A 
ATOM     58  N   UNL A   1      46.973  26.296  34.786  1.00  0.00    -0.354 N 
ATOM     59  N   UNL A   1      47.214  26.196  31.876  1.00  0.00    -0.248 NA
ATOM     60  C   UNL A   1      48.521  25.896  29.963  1.00  0.00     0.031 C 
ATOM     61  C   UNL A   1      48.668  25.554  36.014  1.00  0.00     0.029 A 
ATOM     62  C   UNL A   1      48.247  25.759  34.711  1.00  0.00     0.049 A 
ATOM     63  H   UNL A   1      46.419  26.544  34.011  1.00  0.00     0.167 HD
ATOM     64  C   UNL A   1      48.468  25.722  32.247  1.00  0.00     0.074 A 
ATOM     65  C   UNL A   1      49.213  25.505  31.025  1.00  0.00     0.031 C 
ATOM     66  C   UNL A   1      48.965  25.505  33.489  1.00  0.00     0.034 A 
BRANCH  53  67
ATOM     67  C   UNL A   1      45.161  27.173  38.043  1.00  0.00     0.023 A 
ATOM     68  C   UNL A   1      44.628  26.115  38.806  1.00  0.00     0.012 A 
ATOM     69  C   UNL A   1      45.612  28.339  38.695  1.00  0.00     0.148 A 
ATOM     70  C   UNL A   1      44.531  26.220  40.193  1.00  0.00     0.002 A 
ATOM     71  C   UNL A   1      45.554  28.418  40.080  1.00  0.00     0.091 A 
ATOM     72  F   UNL A   1      46.100  29.339  37.948  1.00  0.00    -0.205 F 
ATOM     73  C   UNL A   1      45.005  27.364  40.830  1.00  0.00     0.022 A 
BRANCH  71  74
ATOM     74  S   UNL A   1      46.213  29.810  41.004  1.00  0.00     0.127 S 
ATOM     75  O   UNL A   1      45.315  30.888  40.592  1.00  0.00    -0.237 OA
ATOM     76  O   UNL A   1      46.040  29.367  42.387  1.00  0.00    -0.237 OA
ATOM     77  O   UNL A   1      47.597  29.959  40.577  1.00  0.00    -0.744 OA
ENDBRANCH  71  74
ENDBRANCH  53  67
BRANCH  54  78
ATOM     78  C   UNL A   1      46.364  26.699  28.152  1.00  0.00     0.023 A 
ATOM     79  C   UNL A   1      46.853  27.864  27.530  1.00  0.00     0.012 A 
ATOM     80  C   UNL A   1      46.088  25.565  27.365  1.00  0.00     0.148 A 
ATOM     81  C   UNL A   1      47.019  27.915  26.145  1.00  0.00     0.002 A 
ATOM     82  C   UNL A   1      46.316  25.601  25.994  1.00  0.00     0.091 A 
ATOM     83  F   UNL A   1      45.610  24.469  27.971  1.00  0.00    -0.205 F 
ATOM     84  C   UNL A   1      46.758  26.782  25.379  1.00  0.00     0.022 A 
BRANCH  82  85
ATOM     85  S   UNL A   1      46.140  24.146  24.956  1.00  0.00     0.127 S 
ATOM     86  O   UNL A   1      44.729  24.210  24.586  1.00  0.00    -0.237 OA
ATOM     87  O   UNL A   1      47.077  24.434  23.870  1.00  0.00    -0.237 OA
ATOM     88  O   UNL A   1      46.527  23.019  25.793  1.00  0.00    -0.744 OA
ENDBRANCH  82  85
ENDBRANCH  54  78
BRANCH  66  89
ATOM     89  C   UNL A   1      50.374  24.983  33.596  1.00  0.00     0.023 A 
ATOM     90  C   UNL A   1      51.429  25.868  33.893  1.00  0.00     0.012 A 
ATOM     91  C   UNL A   1      50.643  23.606  33.468  1.00  0.00     0.148 A 
ATOM     92  C   UNL A   1      52.735  25.397  34.024  1.00  0.00     0.002 A 
ATOM     93  C   UNL A   1      51.938  23.137  33.652  1.00  0.00     0.091 A 
ATOM     94  F   UNL A   1      49.628  22.781  33.172  1.00  0.00    -0.205 F 
ATOM     95  C   UNL A   1      52.987  24.032  33.915  1.00  0.00     0.022 A 
BRANCH  93  96
ATOM     96  S   UNL A   1      52.345  21.387  33.626  1.00  0.00     0.127 S 
ATOM     97  O   UNL A   1      51.231  20.811  34.378  1.00  0.00    -0.237 OA
ATOM     98  O   UNL A   1      52.332  21.090  32.194  1.00  0.00    -0.237 OA
ATOM     99  O   UNL A   1      53.651  21.266  34.259  1.00  0.00    -0.744 OA
ENDBRANCH  93  96
ENDBRANCH  66  89
ENDBRANCH  40  41
ENDBRANCH  32  35
ENDBRANCH  30  31
ENDBRANCH  29  30
ENDBRANCH   1  29
TORSDOF 19
ENDMDL
MODEL 3
REMARK VINA RESULT:     -11.6      2.192      2.498
REMARK SMILES C[C@@H](C(=O)NCCCCNC(=O)c1ccc(-c2c3nc(c(-c4cccc(S(=O)(=O)[O-])c4F)c4ccc([nH]4)c(-c4cccc(S(=O)(=O)[O-])c4F)c4nc(c(-c5cccc(S(=O)(=O)[O-])c5F)c5ccc2[nH]5)C=C4)C=C3)cc1)c1cc(/C=C/S(C)(=O)=O)cc(C(=O)c2ccccc2)c1
REMARK SMILES IDX 7 1 6 2 5 3 3 4 4 5 2 7 1 8 76 9 77 10 95 11 78 12 86 13
REMARK SMILES IDX 85 14 79 15 80 16 81 17 82 18 83 19 84 20 87 21 88 22 89 23
REMARK SMILES IDX 90 24 94 25 91 26 93 27 92 28 8 29 9 30 10 31 11 32 12 34
REMARK SMILES IDX 13 35 14 36 75 37 15 38 74 39 16 40 17 41 18 42 68 43 19 44
REMARK SMILES IDX 73 45 67 46 69 47 20 48 72 49 66 50 65 51 21 53 53 54 33 55
REMARK SMILES IDX 52 56 34 57 37 58 51 59 70 60 35 61 36 62 50 64 71 65 38 66
REMARK SMILES IDX 22 67 23 68 31 69 24 70 26 71 32 72 25 73 27 74 28 75 29 76
REMARK SMILES IDX 30 77 54 78 55 79 63 80 56 81 58 82 64 83 57 84 59 85 60 86
REMARK SMILES IDX 61 87 62 88 39 89 40 90 48 91 41 92 43 93 49 94 42 95 44 96
REMARK SMILES IDX 45 97 46 98 47 99
REMARK H PARENT 5 6 10 33 69 52 37 63
REMARK Flexibility Score: inf
ROOT
ATOM      1  C   UNL A   1      31.391  27.467  25.702  1.00  0.00     0.023 C 
ENDROOT
BRANCH   1   2
ATOM      2  C   UNL A   1      32.241  26.509  26.538  1.00  0.00     0.116 C 
BRANCH   2   3
ATOM      3  N   UNL A   1      31.510  25.310  26.885  1.00  0.00    -0.356 N 
ATOM      4  C   UNL A   1      31.240  24.193  26.153  1.00  0.00     0.227 C 
ATOM      5  O   UNL A   1      30.699  23.268  26.764  1.00  0.00    -0.274 OA
ATOM      6  H   UNL A   1      31.149  25.299  27.800  1.00  0.00     0.163 HD
BRANCH   4   7
ATOM      7  C   UNL A   1      31.668  24.100  24.676  1.00  0.00     0.105 C 
ATOM      8  C   UNL A   1      30.521  23.745  23.720  1.00  0.00     0.023 C 
BRANCH   7   9
ATOM      9  C   UNL A   1      32.767  23.074  24.386  1.00  0.00    -0.035 A 
ATOM     10  C   UNL A   1      32.481  21.706  24.507  1.00  0.00     0.012 A 
ATOM     11  C   UNL A   1      34.098  23.463  24.191  1.00  0.00     0.016 A 
ATOM     12  C   UNL A   1      33.496  20.736  24.480  1.00  0.00    -0.024 A 
ATOM     13  C   UNL A   1      35.130  22.523  24.141  1.00  0.00     0.023 A 
ATOM     14  C   UNL A   1      34.821  21.162  24.280  1.00  0.00     0.020 A 
BRANCH  12  15
ATOM     15  C   UNL A   1      33.228  19.303  24.725  1.00  0.00     0.020 C 
ATOM     16  C   UNL A   1      34.061  18.303  24.394  1.00  0.00     0.106 C 
BRANCH  16  17
ATOM     17  S   UNL A   1      33.600  16.646  24.626  1.00  0.00     0.168 S 
ATOM     18  C   UNL A   1      35.058  15.996  25.411  1.00  0.00     0.163 C 
ATOM     19  O   UNL A   1      32.535  16.599  25.608  1.00  0.00    -0.225 OA
ATOM     20  O   UNL A   1      33.466  15.965  23.351  1.00  0.00    -0.225 OA
ENDBRANCH  16  17
ENDBRANCH  12  15
BRANCH  13  21
ATOM     21  C   UNL A   1      36.552  22.947  23.953  1.00  0.00     0.193 C 
ATOM     22  O   UNL A   1      36.955  23.282  22.842  1.00  0.00    -0.289 OA
BRANCH  21  23
ATOM     23  C   UNL A   1      37.489  23.007  25.104  1.00  0.00     0.022 A 
ATOM     24  C   UNL A   1      38.291  21.894  25.373  1.00  0.00     0.012 A 
ATOM     25  C   UNL A   1      37.606  24.164  25.886  1.00  0.00     0.012 A 
ATOM     26  C   UNL A   1      39.249  21.960  26.387  1.00  0.00     0.001 A 
ATOM     27  C   UNL A   1      38.572  24.227  26.892  1.00  0.00     0.001 A 
ATOM     28  C   UNL A   1      39.396  23.128  27.136  1.00  0.00     0.000 A 
ENDBRANCH  21  23
ENDBRANCH  13  21
ENDBRANCH   7   9
ENDBRANCH   4   7
ENDBRANCH   2   3
ENDBRANCH   1   2
BRANCH   1  29
ATOM     29  C   UNL A   1      32.187  28.500  24.901  1.00  0.00     0.023 C 
BRANCH  29  30
ATOM     30  C   UNL A   1      33.283  29.221  25.678  1.00  0.00     0.116 C 
BRANCH  30  31
ATOM     31  N   UNL A   1      32.825  30.471  26.267  1.00  0.00    -0.352 N 
ATOM     32  C   UNL A   1      33.427  31.250  27.226  1.00  0.00     0.251 C 
ATOM     33  H   UNL A   1      31.962  30.807  25.930  1.00  0.00     0.163 HD
ATOM     34  O   UNL A   1      32.823  32.202  27.710  1.00  0.00    -0.269 OA
BRANCH  32  35
ATOM     35  C   UNL A   1      34.786  30.909  27.696  1.00  0.00     0.039 A 
ATOM     36  C   UNL A   1      35.729  31.931  27.822  1.00  0.00     0.014 A 
ATOM     37  C   UNL A   1      35.114  29.597  28.052  1.00  0.00     0.014 A 
ATOM     38  C   UNL A   1      36.973  31.653  28.391  1.00  0.00     0.010 A 
ATOM     39  C   UNL A   1      36.328  29.337  28.682  1.00  0.00     0.010 A 
ATOM     40  C   UNL A   1      37.263  30.365  28.873  1.00  0.00    -0.014 A 
BRANCH  40  41
ATOM     41  C   UNL A   1      38.505  30.100  29.647  1.00  0.00     0.031 A 
ATOM     42  C   UNL A   1      38.687  30.664  31.028  1.00  0.00     0.074 A 
ATOM     43  C   UNL A   1      39.513  29.424  29.055  1.00  0.00     0.049 A 
ATOM     44  N   UNL A   1      39.725  30.579  31.818  1.00  0.00    -0.248 NA
ATOM     45  C   UNL A   1      37.569  31.440  31.589  1.00  0.00     0.031 C 
ATOM     46  C   UNL A   1      39.490  28.896  27.688  1.00  0.00     0.029 A 
ATOM     47  N   UNL A   1      40.764  29.093  29.515  1.00  0.00    -0.354 N 
ATOM     48  C   UNL A   1      39.404  31.313  32.953  1.00  0.00     0.074 A 
ATOM     49  C   UNL A   1      38.079  31.855  32.742  1.00  0.00     0.031 C 
ATOM     50  C   UNL A   1      40.668  28.313  27.420  1.00  0.00     0.029 A 
ATOM     51  C   UNL A   1      41.546  28.460  28.576  1.00  0.00     0.049 A 
ATOM     52  H   UNL A   1      41.073  29.291  30.429  1.00  0.00     0.167 HD
ATOM     53  C   UNL A   1      40.138  31.503  34.075  1.00  0.00     0.034 A 
ATOM     54  C   UNL A   1      42.834  28.063  28.627  1.00  0.00     0.034 A 
ATOM     55  C   UNL A   1      41.441  30.937  34.295  1.00  0.00     0.049 A 
ATOM     56  C   UNL A   1      43.614  28.275  29.896  1.00  0.00     0.074 A 
ATOM     57  C   UNL A   1      42.216  30.988  35.440  1.00  0.00     0.029 A 
ATOM     58  N   UNL A   1      42.175  30.238  33.350  1.00  0.00    -0.354 N 
ATOM     59  N   UNL A   1      43.222  28.812  31.026  1.00  0.00    -0.248 NA
ATOM     60  C   UNL A   1      45.006  27.800  29.908  1.00  0.00     0.031 C 
ATOM     61  C   UNL A   1      43.436  30.359  35.174  1.00  0.00     0.029 A 
ATOM     62  C   UNL A   1      43.404  29.879  33.875  1.00  0.00     0.049 A 
ATOM     63  H   UNL A   1      41.867  30.027  32.438  1.00  0.00     0.167 HD
ATOM     64  C   UNL A   1      44.308  28.714  31.889  1.00  0.00     0.074 A 
ATOM     65  C   UNL A   1      45.361  28.035  31.163  1.00  0.00     0.031 C 
ATOM     66  C   UNL A   1      44.430  29.164  33.161  1.00  0.00     0.034 A 
BRANCH  53  67
ATOM     67  C   UNL A   1      39.542  32.328  35.184  1.00  0.00     0.023 A 
ATOM     68  C   UNL A   1      39.511  33.733  35.071  1.00  0.00     0.012 A 
ATOM     69  C   UNL A   1      38.914  31.707  36.283  1.00  0.00     0.148 A 
ATOM     70  C   UNL A   1      38.880  34.509  36.043  1.00  0.00     0.002 A 
ATOM     71  C   UNL A   1      38.249  32.484  37.223  1.00  0.00     0.091 A 
ATOM     72  F   UNL A   1      38.971  30.371  36.379  1.00  0.00    -0.205 F 
ATOM     73  C   UNL A   1      38.238  33.884  37.110  1.00  0.00     0.022 A 
BRANCH  71  74
ATOM     74  S   UNL A   1      37.322  31.776  38.589  1.00  0.00     0.127 S 
ATOM     75  O   UNL A   1      38.270  31.919  39.693  1.00  0.00    -0.237 OA
ATOM     76  O   UNL A   1      36.161  32.663  38.662  1.00  0.00    -0.237 OA
ATOM     77  O   UNL A   1      37.022  30.404  38.205  1.00  0.00    -0.744 OA
ENDBRANCH  71  74
ENDBRANCH  53  67
BRANCH  54  78
ATOM     78  C   UNL A   1      43.467  27.406  27.447  1.00  0.00     0.023 A 
ATOM     79  C   UNL A   1      44.180  28.185  26.514  1.00  0.00     0.012 A 
ATOM     80  C   UNL A   1      43.358  26.018  27.240  1.00  0.00     0.148 A 
ATOM     81  C   UNL A   1      44.732  27.599  25.373  1.00  0.00     0.002 A 
ATOM     82  C   UNL A   1      43.964  25.431  26.135  1.00  0.00     0.091 A 
ATOM     83  F   UNL A   1      42.664  25.294  28.131  1.00  0.00    -0.205 F 
ATOM     84  C   UNL A   1      44.631  26.223  25.188  1.00  0.00     0.022 A 
BRANCH  82  85
ATOM     85  S   UNL A   1      44.001  23.652  25.897  1.00  0.00     0.127 S 
ATOM     86  O   UNL A   1      44.668  23.200  27.115  1.00  0.00    -0.237 OA
ATOM     87  O   UNL A   1      42.576  23.327  25.816  1.00  0.00    -0.237 OA
ATOM     88  O   UNL A   1      44.732  23.438  24.655  1.00  0.00    -0.744 OA
ENDBRANCH  82  85
ENDBRANCH  54  78
BRANCH  66  89
ATOM     89  C   UNL A   1      45.738  28.919  33.867  1.00  0.00     0.023 A 
ATOM     90  C   UNL A   1      45.932  27.725  34.590  1.00  0.00     0.012 A 
ATOM     91  C   UNL A   1      46.798  29.841  33.760  1.00  0.00     0.148 A 
ATOM     92  C   UNL A   1      47.146  27.470  35.226  1.00  0.00     0.002 A 
ATOM     93  C   UNL A   1      48.022  29.555  34.351  1.00  0.00     0.091 A 
ATOM     94  F   UNL A   1      46.590  30.978  33.079  1.00  0.00    -0.205 F 
ATOM     95  C   UNL A   1      48.193  28.379  35.097  1.00  0.00     0.022 A 
BRANCH  93  96
ATOM     96  S   UNL A   1      49.459  30.618  34.162  1.00  0.00     0.127 S 
ATOM     97  O   UNL A   1      49.188  31.257  32.874  1.00  0.00    -0.237 OA
ATOM     98  O   UNL A   1      49.341  31.504  35.319  1.00  0.00    -0.237 OA
ATOM     99  O   UNL A   1      50.618  29.738  34.186  1.00  0.00    -0.744 OA
ENDBRANCH  93  96
ENDBRANCH  66  89
ENDBRANCH  40  41
ENDBRANCH  32  35
ENDBRANCH  30  31
ENDBRANCH  29  30
ENDBRANCH   1  29
TORSDOF 19
ENDMDL
