MODEL 1
REMARK VINA RESULT:      -9.7      0.000      0.000
REMARK SMILES C[C@H](O)[C@H](NC(=O)C[NH3+])C(=O)NCCCCNC(=O)c1ccc(-c2c3nc(c(-c4cccc(S(=O)(=O)[O-])c4F)c4ccc([nH]4)c(-c4cccc(S(=O)(=O)[O-])c4F)c4nc(c(-c5cccc(S(=O)(=O)[O-])c5F)c5ccc2[nH]5)C=C4)C=C3)cc1
REMARK SMILES IDX 14 1 13 2 12 3 10 4 11 5 4 7 2 8 1 9 3 10 5 12 6 13 7 15
REMARK SMILES IDX 8 16 9 17 15 21 16 22 17 23 18 24 19 26 20 27 21 28 82 29
REMARK SMILES IDX 22 30 81 31 23 32 24 33 25 34 75 35 26 36 80 37 74 38 76 39
REMARK SMILES IDX 27 40 79 41 73 42 72 43 28 45 60 46 40 47 59 48 41 49 44 50
REMARK SMILES IDX 58 51 77 52 42 53 43 54 57 56 78 57 45 58 29 59 30 60 38 61
REMARK SMILES IDX 31 62 33 63 39 64 32 65 34 66 35 67 36 68 37 69 61 70 62 71
REMARK SMILES IDX 70 72 63 73 65 74 71 75 64 76 66 77 67 78 68 79 69 80 46 81
REMARK SMILES IDX 47 82 55 83 48 84 50 85 56 86 49 87 51 88 52 89 53 90 54 91
REMARK H PARENT 12 6 3 11 5 14 9 18 9 19 9 20 17 25 76 44 44 55
REMARK Flexibility Score: inf
ROOT
ATOM      1  C   UNL A   1      42.564  22.948  27.839  1.00  0.00     0.023 C 
ENDROOT
BRANCH   1   2
ATOM      2  C   UNL A   1      43.440  23.840  26.967  1.00  0.00     0.116 C 
BRANCH   2   3
ATOM      3  N   UNL A   1      44.842  23.862  27.345  1.00  0.00    -0.354 N 
ATOM      4  C   UNL A   1      45.920  23.276  26.748  1.00  0.00     0.245 C 
ATOM      5  O   UNL A   1      47.041  23.644  27.109  1.00  0.00    -0.273 OA
ATOM      6  H   UNL A   1      45.047  24.379  28.156  1.00  0.00     0.163 HD
BRANCH   4   7
ATOM      7  C   UNL A   1      45.754  22.307  25.574  1.00  0.00     0.200 C 
BRANCH   7   8
ATOM      8  C   UNL A   1      45.547  23.094  24.236  1.00  0.00     0.143 C 
ATOM      9  C   UNL A   1      44.559  22.545  23.201  1.00  0.00     0.041 C 
BRANCH   8  10
ATOM     10  O   UNL A   1      46.812  23.272  23.570  1.00  0.00    -0.391 OA
ATOM     11  H   UNL A   1      46.881  24.182  23.244  1.00  0.00     0.211 HD
ENDBRANCH   8  10
ENDBRANCH   7   8
BRANCH   7  12
ATOM     12  N   UNL A   1      44.742  21.257  25.752  1.00  0.00    -0.337 N 
ATOM     13  C   UNL A   1      44.711  20.002  25.212  1.00  0.00     0.275 C 
ATOM     14  H   UNL A   1      43.985  21.489  26.337  1.00  0.00     0.164 HD
ATOM     15  O   UNL A   1      43.607  19.453  25.135  1.00  0.00    -0.268 OA
BRANCH  13  16
ATOM     16  C   UNL A   1      45.994  19.246  24.845  1.00  0.00     0.360 C 
BRANCH  16  17
ATOM     17  N   UNL A   1      46.699  18.728  26.021  1.00  0.00    -0.350 N 
ATOM     18  H   UNL A   1      46.423  17.759  26.182  1.00  0.00     0.344 HD
ATOM     19  H   UNL A   1      46.459  19.290  26.837  1.00  0.00     0.344 HD
ATOM     20  H   UNL A   1      47.706  18.773  25.861  1.00  0.00     0.344 HD
ENDBRANCH  16  17
ENDBRANCH  13  16
ENDBRANCH   7  12
ENDBRANCH   4   7
ENDBRANCH   2   3
ENDBRANCH   1   2
BRANCH   1  21
ATOM     21  C   UNL A   1      41.829  21.847  27.085  1.00  0.00     0.023 C 
BRANCH  21  22
ATOM     22  C   UNL A   1      40.426  21.579  27.604  1.00  0.00     0.116 C 
BRANCH  22  23
ATOM     23  N   UNL A   1      39.415  21.836  26.589  1.00  0.00    -0.352 N 
ATOM     24  C   UNL A   1      38.800  23.023  26.280  1.00  0.00     0.251 C 
ATOM     25  H   UNL A   1      39.134  21.057  26.057  1.00  0.00     0.163 HD
ATOM     26  O   UNL A   1      37.805  23.042  25.570  1.00  0.00    -0.269 OA
BRANCH  24  27
ATOM     27  C   UNL A   1      39.366  24.268  26.831  1.00  0.00     0.039 A 
ATOM     28  C   UNL A   1      40.063  25.135  25.988  1.00  0.00     0.014 A 
ATOM     29  C   UNL A   1      39.154  24.590  28.175  1.00  0.00     0.014 A 
ATOM     30  C   UNL A   1      40.511  26.355  26.490  1.00  0.00     0.010 A 
ATOM     31  C   UNL A   1      39.508  25.846  28.640  1.00  0.00     0.010 A 
ATOM     32  C   UNL A   1      40.211  26.731  27.811  1.00  0.00    -0.014 A 
BRANCH  32  33
ATOM     33  C   UNL A   1      40.646  28.036  28.361  1.00  0.00     0.031 A 
ATOM     34  C   UNL A   1      42.112  28.304  28.570  1.00  0.00     0.074 A 
ATOM     35  C   UNL A   1      39.723  28.937  28.748  1.00  0.00     0.049 A 
ATOM     36  N   UNL A   1      42.691  29.351  29.095  1.00  0.00    -0.248 NA
ATOM     37  C   UNL A   1      43.050  27.242  28.167  1.00  0.00     0.031 C 
ATOM     38  C   UNL A   1      38.271  28.751  28.669  1.00  0.00     0.029 A 
ATOM     39  N   UNL A   1      39.867  30.180  29.309  1.00  0.00    -0.354 N 
ATOM     40  C   UNL A   1      44.049  29.057  29.124  1.00  0.00     0.074 A 
ATOM     41  C   UNL A   1      44.205  27.718  28.606  1.00  0.00     0.031 C 
ATOM     42  C   UNL A   1      37.661  29.845  29.152  1.00  0.00     0.029 A 
ATOM     43  C   UNL A   1      38.673  30.793  29.606  1.00  0.00     0.049 A 
ATOM     44  H   UNL A   1      40.743  30.595  29.482  1.00  0.00     0.167 HD
ATOM     45  C   UNL A   1      45.078  29.846  29.513  1.00  0.00     0.034 A 
ATOM     46  C   UNL A   1      38.424  31.981  30.189  1.00  0.00     0.034 A 
ATOM     47  C   UNL A   1      44.914  31.192  29.985  1.00  0.00     0.049 A 
ATOM     48  C   UNL A   1      39.586  32.853  30.580  1.00  0.00     0.074 A 
ATOM     49  C   UNL A   1      45.892  32.110  30.322  1.00  0.00     0.029 A 
ATOM     50  N   UNL A   1      43.692  31.811  30.198  1.00  0.00    -0.354 N 
ATOM     51  N   UNL A   1      40.871  32.620  30.455  1.00  0.00    -0.248 NA
ATOM     52  C   UNL A   1      39.267  34.165  31.159  1.00  0.00     0.031 C 
ATOM     53  C   UNL A   1      45.259  33.273  30.771  1.00  0.00     0.029 A 
ATOM     54  C   UNL A   1      43.888  33.094  30.674  1.00  0.00     0.049 A 
ATOM     55  H   UNL A   1      42.813  31.397  30.034  1.00  0.00     0.167 HD
ATOM     56  C   UNL A   1      41.512  33.770  30.903  1.00  0.00     0.074 A 
ATOM     57  C   UNL A   1      40.472  34.704  31.283  1.00  0.00     0.031 C 
ATOM     58  C   UNL A   1      42.840  34.025  31.001  1.00  0.00     0.034 A 
BRANCH  45  59
ATOM     59  C   UNL A   1      46.471  29.285  29.400  1.00  0.00     0.023 A 
ATOM     60  C   UNL A   1      47.036  28.586  30.488  1.00  0.00     0.012 A 
ATOM     61  C   UNL A   1      47.205  29.408  28.204  1.00  0.00     0.148 A 
ATOM     62  C   UNL A   1      48.321  28.054  30.402  1.00  0.00     0.002 A 
ATOM     63  C   UNL A   1      48.466  28.832  28.109  1.00  0.00     0.091 A 
ATOM     64  F   UNL A   1      46.663  30.095  27.189  1.00  0.00    -0.205 F 
ATOM     65  C   UNL A   1      49.031  28.167  29.210  1.00  0.00     0.022 A 
BRANCH  63  66
ATOM     66  S   UNL A   1      49.428  28.849  26.593  1.00  0.00     0.127 S 
ATOM     67  O   UNL A   1      49.834  30.252  26.518  1.00  0.00    -0.237 OA
ATOM     68  O   UNL A   1      50.512  27.918  26.907  1.00  0.00    -0.237 OA
ATOM     69  O   UNL A   1      48.528  28.403  25.539  1.00  0.00    -0.744 OA
ENDBRANCH  63  66
ENDBRANCH  45  59
BRANCH  46  70
ATOM     70  C   UNL A   1      37.020  32.440  30.382  1.00  0.00     0.023 A 
ATOM     71  C   UNL A   1      36.366  32.180  31.603  1.00  0.00     0.012 A 
ATOM     72  C   UNL A   1      36.337  33.152  29.377  1.00  0.00     0.148 A 
ATOM     73  C   UNL A   1      35.047  32.586  31.805  1.00  0.00     0.002 A 
ATOM     74  C   UNL A   1      35.044  33.606  29.607  1.00  0.00     0.091 A 
ATOM     75  F   UNL A   1      36.974  33.385  28.221  1.00  0.00    -0.205 F 
ATOM     76  C   UNL A   1      34.389  33.307  30.812  1.00  0.00     0.022 A 
BRANCH  74  77
ATOM     77  S   UNL A   1      34.169  34.653  28.439  1.00  0.00     0.127 S 
ATOM     78  O   UNL A   1      34.763  34.246  27.169  1.00  0.00    -0.237 OA
ATOM     79  O   UNL A   1      32.782  34.228  28.637  1.00  0.00    -0.237 OA
ATOM     80  O   UNL A   1      34.442  36.022  28.855  1.00  0.00    -0.744 OA
ENDBRANCH  74  77
ENDBRANCH  46  70
BRANCH  58  81
ATOM     81  C   UNL A   1      43.253  35.386  31.497  1.00  0.00     0.023 A 
ATOM     82  C   UNL A   1      43.473  35.599  32.872  1.00  0.00     0.012 A 
ATOM     83  C   UNL A   1      43.500  36.431  30.586  1.00  0.00     0.148 A 
ATOM     84  C   UNL A   1      43.899  36.843  33.335  1.00  0.00     0.002 A 
ATOM     85  C   UNL A   1      43.978  37.650  31.048  1.00  0.00     0.091 A 
ATOM     86  F   UNL A   1      43.269  36.211  29.283  1.00  0.00    -0.205 F 
ATOM     87  C   UNL A   1      44.164  37.863  32.423  1.00  0.00     0.022 A 
BRANCH  85  88
ATOM     88  S   UNL A   1      44.443  38.985  29.941  1.00  0.00     0.127 S 
ATOM     89  O   UNL A   1      43.183  39.250  29.248  1.00  0.00    -0.237 OA
ATOM     90  O   UNL A   1      44.857  40.030  30.877  1.00  0.00    -0.237 OA
ATOM     91  O   UNL A   1      45.515  38.461  29.106  1.00  0.00    -0.744 OA
ENDBRANCH  85  88
ENDBRANCH  58  81
ENDBRANCH  32  33
ENDBRANCH  24  27
ENDBRANCH  22  23
ENDBRANCH  21  22
ENDBRANCH   1  21
TORSDOF 19
ENDMDL
MODEL 2
REMARK VINA RESULT:      -9.6      3.131      5.592
REMARK SMILES C[C@H](O)[C@H](NC(=O)C[NH3+])C(=O)NCCCCNC(=O)c1ccc(-c2c3nc(c(-c4cccc(S(=O)(=O)[O-])c4F)c4ccc([nH]4)c(-c4cccc(S(=O)(=O)[O-])c4F)c4nc(c(-c5cccc(S(=O)(=O)[O-])c5F)c5ccc2[nH]5)C=C4)C=C3)cc1
REMARK SMILES IDX 14 1 13 2 12 3 10 4 11 5 4 7 2 8 1 9 3 10 5 12 6 13 7 15
REMARK SMILES IDX 8 16 9 17 15 21 16 22 17 23 18 24 19 26 20 27 21 28 82 29
REMARK SMILES IDX 22 30 81 31 23 32 24 33 25 34 75 35 26 36 80 37 74 38 76 39
REMARK SMILES IDX 27 40 79 41 73 42 72 43 28 45 60 46 40 47 59 48 41 49 44 50
REMARK SMILES IDX 58 51 77 52 42 53 43 54 57 56 78 57 45 58 29 59 30 60 38 61
REMARK SMILES IDX 31 62 33 63 39 64 32 65 34 66 35 67 36 68 37 69 61 70 62 71
REMARK SMILES IDX 70 72 63 73 65 74 71 75 64 76 66 77 67 78 68 79 69 80 46 81
REMARK SMILES IDX 47 82 55 83 48 84 50 85 56 86 49 87 51 88 52 89 53 90 54 91
REMARK H PARENT 12 6 3 11 5 14 9 18 9 19 9 20 17 25 76 44 44 55
REMARK Flexibility Score: inf
ROOT
ATOM      1  C   UNL A   1      36.340  21.685  24.290  1.00  0.00     0.023 C 
ENDROOT
BRANCH   1   2
ATOM      2  C   UNL A   1      35.922  22.833  25.201  1.00  0.00     0.116 C 
BRANCH   2   3
ATOM      3  N   UNL A   1      35.375  22.418  26.481  1.00  0.00    -0.354 N 
ATOM      4  C   UNL A   1      34.196  21.796  26.771  1.00  0.00     0.245 C 
ATOM      5  O   UNL A   1      34.067  21.320  27.902  1.00  0.00    -0.273 OA
ATOM      6  H   UNL A   1      35.943  22.616  27.260  1.00  0.00     0.163 HD
BRANCH   4   7
ATOM      7  C   UNL A   1      33.130  21.565  25.697  1.00  0.00     0.200 C 
BRANCH   7   8
ATOM      8  C   UNL A   1      32.093  22.737  25.688  1.00  0.00     0.143 C 
ATOM      9  C   UNL A   1      32.174  23.788  24.575  1.00  0.00     0.041 C 
BRANCH   8  10
ATOM     10  O   UNL A   1      32.134  23.439  26.946  1.00  0.00    -0.391 OA
ATOM     11  H   UNL A   1      31.816  24.347  26.821  1.00  0.00     0.211 HD
ENDBRANCH   8  10
ENDBRANCH   7   8
BRANCH   7  12
ATOM     12  N   UNL A   1      32.470  20.252  25.725  1.00  0.00    -0.337 N 
ATOM     13  C   UNL A   1      32.808  19.112  25.051  1.00  0.00     0.275 C 
ATOM     14  H   UNL A   1      31.678  20.186  26.306  1.00  0.00     0.164 HD
ATOM     15  O   UNL A   1      31.913  18.279  24.878  1.00  0.00    -0.268 OA
BRANCH  13  16
ATOM     16  C   UNL A   1      34.257  18.809  24.649  1.00  0.00     0.360 C 
BRANCH  16  17
ATOM     17  N   UNL A   1      34.417  17.468  24.082  1.00  0.00    -0.350 N 
ATOM     18  H   UNL A   1      35.393  17.324  23.822  1.00  0.00     0.344 HD
ATOM     19  H   UNL A   1      33.828  17.375  23.256  1.00  0.00     0.344 HD
ATOM     20  H   UNL A   1      34.143  16.771  24.775  1.00  0.00     0.344 HD
ENDBRANCH  16  17
ENDBRANCH  13  16
ENDBRANCH   7  12
ENDBRANCH   4   7
ENDBRANCH   2   3
ENDBRANCH   1   2
BRANCH   1  21
ATOM     21  C   UNL A   1      37.394  20.756  24.880  1.00  0.00     0.023 C 
BRANCH  21  22
ATOM     22  C   UNL A   1      38.535  21.485  25.569  1.00  0.00     0.116 C 
BRANCH  22  23
ATOM     23  N   UNL A   1      39.497  20.559  26.150  1.00  0.00    -0.352 N 
ATOM     24  C   UNL A   1      40.689  20.843  26.766  1.00  0.00     0.251 C 
ATOM     25  H   UNL A   1      39.261  19.605  26.092  1.00  0.00     0.163 HD
ATOM     26  O   UNL A   1      41.499  19.956  26.992  1.00  0.00    -0.269 OA
BRANCH  24  27
ATOM     27  C   UNL A   1      40.967  22.242  27.139  1.00  0.00     0.039 A 
ATOM     28  C   UNL A   1      41.636  22.512  28.333  1.00  0.00     0.014 A 
ATOM     29  C   UNL A   1      40.606  23.276  26.270  1.00  0.00     0.014 A 
ATOM     30  C   UNL A   1      41.984  23.827  28.634  1.00  0.00     0.010 A 
ATOM     31  C   UNL A   1      41.045  24.565  26.522  1.00  0.00     0.010 A 
ATOM     32  C   UNL A   1      41.716  24.858  27.717  1.00  0.00    -0.014 A 
BRANCH  32  33
ATOM     33  C   UNL A   1      42.104  26.261  27.995  1.00  0.00     0.031 A 
ATOM     34  C   UNL A   1      43.505  26.719  27.691  1.00  0.00     0.074 A 
ATOM     35  C   UNL A   1      41.228  27.089  28.596  1.00  0.00     0.049 A 
ATOM     36  N   UNL A   1      44.059  27.880  27.917  1.00  0.00    -0.248 NA
ATOM     37  C   UNL A   1      44.414  25.731  27.082  1.00  0.00     0.031 C 
ATOM     38  C   UNL A   1      39.870  26.729  29.013  1.00  0.00     0.029 A 
ATOM     39  N   UNL A   1      41.357  28.398  28.985  1.00  0.00    -0.354 N 
ATOM     40  C   UNL A   1      45.385  27.750  27.519  1.00  0.00     0.074 A 
ATOM     41  C   UNL A   1      45.565  26.386  27.080  1.00  0.00     0.031 C 
ATOM     42  C   UNL A   1      39.289  27.794  29.587  1.00  0.00     0.029 A 
ATOM     43  C   UNL A   1      40.241  28.900  29.611  1.00  0.00     0.049 A 
ATOM     44  H   UNL A   1      42.172  28.928  28.828  1.00  0.00     0.167 HD
ATOM     45  C   UNL A   1      46.356  28.692  27.489  1.00  0.00     0.034 A 
ATOM     46  C   UNL A   1      40.018  30.112  30.153  1.00  0.00     0.034 A 
ATOM     47  C   UNL A   1      46.153  30.057  27.887  1.00  0.00     0.049 A 
ATOM     48  C   UNL A   1      41.102  31.152  30.075  1.00  0.00     0.074 A 
ATOM     49  C   UNL A   1      47.041  31.115  27.814  1.00  0.00     0.029 A 
ATOM     50  N   UNL A   1      44.984  30.551  28.444  1.00  0.00    -0.354 N 
ATOM     51  N   UNL A   1      42.301  31.056  29.552  1.00  0.00    -0.248 NA
ATOM     52  C   UNL A   1      40.792  32.478  30.628  1.00  0.00     0.031 C 
ATOM     53  C   UNL A   1      46.418  32.242  28.359  1.00  0.00     0.029 A 
ATOM     54  C   UNL A   1      45.129  31.896  28.731  1.00  0.00     0.049 A 
ATOM     55  H   UNL A   1      44.169  30.023  28.608  1.00  0.00     0.167 HD
ATOM     56  C   UNL A   1      42.874  32.316  29.678  1.00  0.00     0.074 A 
ATOM     57  C   UNL A   1      41.882  33.163  30.308  1.00  0.00     0.031 C 
ATOM     58  C   UNL A   1      44.112  32.733  29.315  1.00  0.00     0.034 A 
BRANCH  45  59
ATOM     59  C   UNL A   1      47.709  28.286  26.966  1.00  0.00     0.023 A 
ATOM     60  C   UNL A   1      48.785  28.119  27.863  1.00  0.00     0.012 A 
ATOM     61  C   UNL A   1      47.906  28.026  25.597  1.00  0.00     0.148 A 
ATOM     62  C   UNL A   1      50.044  27.738  27.402  1.00  0.00     0.002 A 
ATOM     63  C   UNL A   1      49.151  27.598  25.150  1.00  0.00     0.091 A 
ATOM     64  F   UNL A   1      46.879  28.212  24.756  1.00  0.00    -0.205 F 
ATOM     65  C   UNL A   1      50.224  27.467  26.048  1.00  0.00     0.022 A 
BRANCH  63  66
ATOM     66  S   UNL A   1      49.465  27.143  23.442  1.00  0.00     0.127 S 
ATOM     67  O   UNL A   1      50.807  26.568  23.532  1.00  0.00    -0.237 OA
ATOM     68  O   UNL A   1      48.402  26.172  23.183  1.00  0.00    -0.237 OA
ATOM     69  O   UNL A   1      49.366  28.375  22.672  1.00  0.00    -0.744 OA
ENDBRANCH  63  66
ENDBRANCH  45  59
BRANCH  46  70
ATOM     70  C   UNL A   1      38.694  30.425  30.762  1.00  0.00     0.023 A 
ATOM     71  C   UNL A   1      38.431  30.032  32.090  1.00  0.00     0.012 A 
ATOM     72  C   UNL A   1      37.707  31.130  30.048  1.00  0.00     0.148 A 
ATOM     73  C   UNL A   1      37.196  30.301  32.680  1.00  0.00     0.002 A 
ATOM     74  C   UNL A   1      36.501  31.447  30.661  1.00  0.00     0.091 A 
ATOM     75  F   UNL A   1      37.975  31.490  28.785  1.00  0.00    -0.205 F 
ATOM     76  C   UNL A   1      36.235  31.016  31.970  1.00  0.00     0.022 A 
BRANCH  74  77
ATOM     77  S   UNL A   1      35.260  32.476  29.871  1.00  0.00     0.127 S 
ATOM     78  O   UNL A   1      34.779  31.601  28.806  1.00  0.00    -0.237 OA
ATOM     79  O   UNL A   1      34.313  32.697  30.964  1.00  0.00    -0.237 OA
ATOM     80  O   UNL A   1      35.962  33.676  29.434  1.00  0.00    -0.744 OA
ENDBRANCH  74  77
ENDBRANCH  46  70
BRANCH  58  81
ATOM     81  C   UNL A   1      44.455  34.181  29.545  1.00  0.00     0.023 A 
ATOM     82  C   UNL A   1      44.983  34.593  30.785  1.00  0.00     0.012 A 
ATOM     83  C   UNL A   1      44.328  35.118  28.501  1.00  0.00     0.148 A 
ATOM     84  C   UNL A   1      45.347  35.923  30.991  1.00  0.00     0.002 A 
ATOM     85  C   UNL A   1      44.743  36.428  28.695  1.00  0.00     0.091 A 
ATOM     86  F   UNL A   1      43.808  34.707  27.334  1.00  0.00    -0.205 F 
ATOM     87  C   UNL A   1      45.239  36.836  29.944  1.00  0.00     0.022 A 
BRANCH  85  88
ATOM     88  S   UNL A   1      44.738  37.647  27.377  1.00  0.00     0.127 S 
ATOM     89  O   UNL A   1      43.355  37.573  26.909  1.00  0.00    -0.237 OA
ATOM     90  O   UNL A   1      45.075  38.876  28.093  1.00  0.00    -0.237 OA
ATOM     91  O   UNL A   1      45.744  37.209  26.419  1.00  0.00    -0.744 OA
ENDBRANCH  85  88
ENDBRANCH  58  81
ENDBRANCH  32  33
ENDBRANCH  24  27
ENDBRANCH  22  23
ENDBRANCH  21  22
ENDBRANCH   1  21
TORSDOF 19
ENDMDL
MODEL 3
REMARK VINA RESULT:      -9.6      6.774     10.806
REMARK SMILES C[C@H](O)[C@H](NC(=O)C[NH3+])C(=O)NCCCCNC(=O)c1ccc(-c2c3nc(c(-c4cccc(S(=O)(=O)[O-])c4F)c4ccc([nH]4)c(-c4cccc(S(=O)(=O)[O-])c4F)c4nc(c(-c5cccc(S(=O)(=O)[O-])c5F)c5ccc2[nH]5)C=C4)C=C3)cc1
REMARK SMILES IDX 14 1 13 2 12 3 10 4 11 5 4 7 2 8 1 9 3 10 5 12 6 13 7 15
REMARK SMILES IDX 8 16 9 17 15 21 16 22 17 23 18 24 19 26 20 27 21 28 82 29
REMARK SMILES IDX 22 30 81 31 23 32 24 33 25 34 75 35 26 36 80 37 74 38 76 39
REMARK SMILES IDX 27 40 79 41 73 42 72 43 28 45 60 46 40 47 59 48 41 49 44 50
REMARK SMILES IDX 58 51 77 52 42 53 43 54 57 56 78 57 45 58 29 59 30 60 38 61
REMARK SMILES IDX 31 62 33 63 39 64 32 65 34 66 35 67 36 68 37 69 61 70 62 71
REMARK SMILES IDX 70 72 63 73 65 74 71 75 64 76 66 77 67 78 68 79 69 80 46 81
REMARK SMILES IDX 47 82 55 83 48 84 50 85 56 86 49 87 51 88 52 89 53 90 54 91
REMARK H PARENT 12 6 3 11 5 14 9 18 9 19 9 20 17 25 76 44 44 55
REMARK Flexibility Score: inf
ROOT
ATOM      1  C   UNL A   1      32.165  30.513  26.934  1.00  0.00     0.023 C 
ENDROOT
BRANCH   1   2
ATOM      2  C   UNL A   1      31.713  30.056  25.551  1.00  0.00     0.116 C 
BRANCH   2   3
ATOM      3  N   UNL A   1      32.794  29.671  24.661  1.00  0.00    -0.354 N 
ATOM      4  C   UNL A   1      32.756  28.995  23.477  1.00  0.00     0.245 C 
ATOM      5  O   UNL A   1      33.774  29.008  22.781  1.00  0.00    -0.273 OA
ATOM      6  H   UNL A   1      33.692  29.940  24.957  1.00  0.00     0.163 HD
BRANCH   4   7
ATOM      7  C   UNL A   1      31.459  28.367  22.957  1.00  0.00     0.200 C 
BRANCH   7   8
ATOM      8  C   UNL A   1      31.701  26.883  22.523  1.00  0.00     0.143 C 
ATOM      9  C   UNL A   1      33.039  26.220  22.867  1.00  0.00     0.041 C 
BRANCH   8  10
ATOM     10  O   UNL A   1      31.509  26.750  21.100  1.00  0.00    -0.391 OA
ATOM     11  H   UNL A   1      31.764  27.575  20.661  1.00  0.00     0.211 HD
ENDBRANCH   8  10
ENDBRANCH   7   8
BRANCH   7  12
ATOM     12  N   UNL A   1      30.751  29.131  21.921  1.00  0.00    -0.337 N 
ATOM     13  C   UNL A   1      29.602  29.862  22.034  1.00  0.00     0.275 C 
ATOM     14  H   UNL A   1      31.159  29.112  21.024  1.00  0.00     0.164 HD
ATOM     15  O   UNL A   1      28.960  30.059  20.998  1.00  0.00    -0.268 OA
BRANCH  13  16
ATOM     16  C   UNL A   1      29.195  30.529  23.354  1.00  0.00     0.360 C 
BRANCH  16  17
ATOM     17  N   UNL A   1      29.242  31.992  23.285  1.00  0.00    -0.350 N 
ATOM     18  H   UNL A   1      29.512  32.279  22.343  1.00  0.00     0.344 HD
ATOM     19  H   UNL A   1      29.924  32.343  23.956  1.00  0.00     0.344 HD
ATOM     20  H   UNL A   1      28.321  32.373  23.505  1.00  0.00     0.344 HD
ENDBRANCH  16  17
ENDBRANCH  13  16
ENDBRANCH   7  12
ENDBRANCH   4   7
ENDBRANCH   2   3
ENDBRANCH   1   2
BRANCH   1  21
ATOM     21  C   UNL A   1      31.860  31.972  27.252  1.00  0.00     0.023 C 
BRANCH  21  22
ATOM     22  C   UNL A   1      33.101  32.837  27.403  1.00  0.00     0.116 C 
BRANCH  22  23
ATOM     23  N   UNL A   1      32.763  34.215  27.727  1.00  0.00    -0.352 N 
ATOM     24  C   UNL A   1      33.195  34.972  28.786  1.00  0.00     0.251 C 
ATOM     25  H   UNL A   1      32.142  34.661  27.107  1.00  0.00     0.163 HD
ATOM     26  O   UNL A   1      32.645  36.030  29.060  1.00  0.00    -0.269 OA
BRANCH  24  27
ATOM     27  C   UNL A   1      34.330  34.475  29.585  1.00  0.00     0.039 A 
ATOM     28  C   UNL A   1      34.081  33.784  30.772  1.00  0.00     0.014 A 
ATOM     29  C   UNL A   1      35.635  34.654  29.119  1.00  0.00     0.014 A 
ATOM     30  C   UNL A   1      35.151  33.231  31.471  1.00  0.00     0.010 A 
ATOM     31  C   UNL A   1      36.683  34.014  29.761  1.00  0.00     0.010 A 
ATOM     32  C   UNL A   1      36.455  33.318  30.956  1.00  0.00    -0.014 A 
BRANCH  32  33
ATOM     33  C   UNL A   1      37.608  32.710  31.662  1.00  0.00     0.031 A 
ATOM     34  C   UNL A   1      38.380  31.598  31.004  1.00  0.00     0.074 A 
ATOM     35  C   UNL A   1      37.901  33.098  32.918  1.00  0.00     0.049 A 
ATOM     36  N   UNL A   1      39.374  30.895  31.477  1.00  0.00    -0.248 NA
ATOM     37  C   UNL A   1      37.958  31.200  29.649  1.00  0.00     0.031 C 
ATOM     38  C   UNL A   1      37.169  34.108  33.686  1.00  0.00     0.029 A 
ATOM     39  N   UNL A   1      38.877  32.670  33.781  1.00  0.00    -0.354 N 
ATOM     40  C   UNL A   1      39.667  29.950  30.500  1.00  0.00     0.074 A 
ATOM     41  C   UNL A   1      38.717  30.139  29.428  1.00  0.00     0.031 C 
ATOM     42  C   UNL A   1      37.729  34.231  34.899  1.00  0.00     0.029 A 
ATOM     43  C   UNL A   1      38.836  33.286  35.009  1.00  0.00     0.049 A 
ATOM     44  H   UNL A   1      39.546  31.988  33.542  1.00  0.00     0.167 HD
ATOM     45  C   UNL A   1      40.660  29.031  30.481  1.00  0.00     0.034 A 
ATOM     46  C   UNL A   1      39.598  33.099  36.104  1.00  0.00     0.034 A 
ATOM     47  C   UNL A   1      41.625  28.881  31.534  1.00  0.00     0.049 A 
ATOM     48  C   UNL A   1      40.717  32.095  36.044  1.00  0.00     0.074 A 
ATOM     49  C   UNL A   1      42.725  28.044  31.579  1.00  0.00     0.029 A 
ATOM     50  N   UNL A   1      41.601  29.578  32.732  1.00  0.00    -0.354 N 
ATOM     51  N   UNL A   1      41.076  31.319  35.051  1.00  0.00    -0.248 NA
ATOM     52  C   UNL A   1      41.559  31.968  37.242  1.00  0.00     0.031 C 
ATOM     53  C   UNL A   1      43.346  28.211  32.820  1.00  0.00     0.029 A 
ATOM     54  C   UNL A   1      42.659  29.182  33.531  1.00  0.00     0.049 A 
ATOM     55  H   UNL A   1      40.931  30.256  32.978  1.00  0.00     0.167 HD
ATOM     56  C   UNL A   1      42.207  30.638  35.488  1.00  0.00     0.074 A 
ATOM     57  C   UNL A   1      42.484  31.111  36.830  1.00  0.00     0.031 C 
ATOM     58  C   UNL A   1      42.944  29.700  34.844  1.00  0.00     0.034 A 
BRANCH  45  59
ATOM     59  C   UNL A   1      40.776  28.150  29.265  1.00  0.00     0.023 A 
ATOM     60  C   UNL A   1      39.848  27.106  29.065  1.00  0.00     0.012 A 
ATOM     61  C   UNL A   1      41.772  28.381  28.298  1.00  0.00     0.148 A 
ATOM     62  C   UNL A   1      39.933  26.283  27.944  1.00  0.00     0.002 A 
ATOM     63  C   UNL A   1      41.821  27.588  27.157  1.00  0.00     0.091 A 
ATOM     64  F   UNL A   1      42.660  29.362  28.515  1.00  0.00    -0.205 F 
ATOM     65  C   UNL A   1      40.912  26.531  26.985  1.00  0.00     0.022 A 
BRANCH  63  66
ATOM     66  S   UNL A   1      42.989  27.877  25.824  1.00  0.00     0.127 S 
ATOM     67  O   UNL A   1      43.782  28.982  26.362  1.00  0.00    -0.237 OA
ATOM     68  O   UNL A   1      43.696  26.598  25.754  1.00  0.00    -0.237 OA
ATOM     69  O   UNL A   1      42.190  28.196  24.650  1.00  0.00    -0.744 OA
ENDBRANCH  63  66
ENDBRANCH  45  59
BRANCH  46  70
ATOM     70  C   UNL A   1      39.366  33.921  37.325  1.00  0.00     0.023 A 
ATOM     71  C   UNL A   1      39.769  35.271  37.339  1.00  0.00     0.012 A 
ATOM     72  C   UNL A   1      38.728  33.384  38.459  1.00  0.00     0.148 A 
ATOM     73  C   UNL A   1      39.576  36.059  38.474  1.00  0.00     0.002 A 
ATOM     74  C   UNL A   1      38.485  34.190  39.564  1.00  0.00     0.091 A 
ATOM     75  F   UNL A   1      38.358  32.096  38.427  1.00  0.00    -0.205 F 
ATOM     76  C   UNL A   1      38.926  35.523  39.582  1.00  0.00     0.022 A 
BRANCH  74  77
ATOM     77  S   UNL A   1      37.540  33.623  40.982  1.00  0.00     0.127 S 
ATOM     78  O   UNL A   1      38.465  32.676  41.598  1.00  0.00    -0.237 OA
ATOM     79  O   UNL A   1      37.341  34.866  41.727  1.00  0.00    -0.237 OA
ATOM     80  O   UNL A   1      36.317  33.048  40.436  1.00  0.00    -0.744 OA
ENDBRANCH  74  77
ENDBRANCH  46  70
BRANCH  58  81
ATOM     81  C   UNL A   1      44.151  29.150  35.558  1.00  0.00     0.023 A 
ATOM     82  C   UNL A   1      45.410  29.757  35.384  1.00  0.00     0.012 A 
ATOM     83  C   UNL A   1      44.016  28.080  36.464  1.00  0.00     0.148 A 
ATOM     84  C   UNL A   1      46.524  29.283  36.076  1.00  0.00     0.002 A 
ATOM     85  C   UNL A   1      45.118  27.649  37.191  1.00  0.00     0.091 A 
ATOM     86  F   UNL A   1      42.811  27.507  36.602  1.00  0.00    -0.205 F 
ATOM     87  C   UNL A   1      46.375  28.240  36.987  1.00  0.00     0.022 A 
BRANCH  85  88
ATOM     88  S   UNL A   1      45.001  26.383  38.459  1.00  0.00     0.127 S 
ATOM     89  O   UNL A   1      46.343  25.804  38.426  1.00  0.00    -0.237 OA
ATOM     90  O   UNL A   1      44.706  27.173  39.655  1.00  0.00    -0.237 OA
ATOM     91  O   UNL A   1      43.927  25.493  38.041  1.00  0.00    -0.744 OA
ENDBRANCH  85  88
ENDBRANCH  58  81
ENDBRANCH  32  33
ENDBRANCH  24  27
ENDBRANCH  22  23
ENDBRANCH  21  22
ENDBRANCH   1  21
TORSDOF 19
ENDMDL
