MODEL 1
REMARK VINA RESULT:     -11.6      0.000      0.000
REMARK SMILES CCOc1ccc(NC(=O)N2CC[C@@H](C(=O)NCCCCNC(=O)c3ccc(-c4c5nc(c(-c6cccc(S(=O)(=O)[O-])c6F)c6ccc([nH]6)c(-c6cccc(S(=O)(=O)[O-])c6F)c6nc(c(-c7cccc(S(=O)(=O)[O-])c7F)c7ccc4[nH]7)C=C6)C=C5)cc3)[C@@H]2C)cc1
REMARK SMILES IDX 19 1 18 2 17 3 15 4 16 5 14 7 11 8 12 9 88 10 13 11 89 12
REMARK SMILES IDX 9 13 8 14 10 16 7 17 4 18 5 19 91 20 6 21 90 22 3 23 2 24
REMARK SMILES IDX 1 25 20 26 21 27 22 28 23 29 24 31 25 32 26 33 87 34 27 35
REMARK SMILES IDX 86 36 28 37 29 38 30 39 80 40 31 41 85 42 79 43 81 44 32 45
REMARK SMILES IDX 84 46 78 47 77 48 33 50 65 51 45 52 64 53 46 54 49 55 63 56
REMARK SMILES IDX 82 57 47 58 48 59 62 61 83 62 50 63 34 64 35 65 43 66 36 67
REMARK SMILES IDX 38 68 44 69 37 70 39 71 40 72 41 73 42 74 66 75 67 76 75 77
REMARK SMILES IDX 68 78 70 79 76 80 69 81 71 82 72 83 73 84 74 85 51 86 52 87
REMARK SMILES IDX 60 88 53 89 55 90 61 91 54 92 56 93 57 94 58 95 59 96
REMARK H PARENT 17 6 8 15 22 30 81 49 49 60
REMARK Flexibility Score: inf
ROOT
ATOM      1  C   UNL A   1      32.392  27.675  27.061  1.00  0.00     0.023 C 
ENDROOT
BRANCH   1   2
ATOM      2  C   UNL A   1      32.455  26.372  26.273  1.00  0.00     0.116 C 
BRANCH   2   3
ATOM      3  N   UNL A   1      31.300  25.500  26.430  1.00  0.00    -0.356 N 
ATOM      4  C   UNL A   1      31.138  24.157  26.566  1.00  0.00     0.225 C 
ATOM      5  O   UNL A   1      29.981  23.774  26.785  1.00  0.00    -0.275 OA
ATOM      6  H   UNL A   1      30.447  25.990  26.440  1.00  0.00     0.163 HD
BRANCH   4   7
ATOM      7  C   UNL A   1      32.225  23.089  26.395  1.00  0.00     0.102 C 
ATOM      8  N   UNL A   1      33.548  23.428  24.500  1.00  0.00    -0.321 N 
ATOM      9  C   UNL A   1      34.486  23.501  25.614  1.00  0.00     0.122 C 
ATOM     10  C   UNL A   1      32.401  22.638  24.935  1.00  0.00     0.096 C 
ATOM     11  C   UNL A   1      33.629  23.454  26.879  1.00  0.00     0.037 C 
ATOM     12  C   UNL A   1      32.671  21.135  24.800  1.00  0.00     0.032 C 
BRANCH   8  13
ATOM     13  C   UNL A   1      33.976  23.789  23.266  1.00  0.00     0.322 C 
ATOM     14  N   UNL A   1      33.508  24.826  22.534  1.00  0.00    -0.308 N 
ATOM     15  H   UNL A   1      33.801  24.752  21.598  1.00  0.00     0.171 HD
ATOM     16  O   UNL A   1      34.956  23.208  22.772  1.00  0.00    -0.248 OA
BRANCH  14  17
ATOM     17  C   UNL A   1      32.721  25.983  22.723  1.00  0.00     0.043 A 
ATOM     18  C   UNL A   1      30.963  28.181  22.571  1.00  0.00     0.119 A 
ATOM     19  C   UNL A   1      32.319  28.398  22.611  1.00  0.00     0.048 A 
ATOM     20  C   UNL A   1      30.455  26.892  22.706  1.00  0.00     0.048 A 
ATOM     21  C   UNL A   1      33.164  27.294  22.620  1.00  0.00     0.030 A 
ATOM     22  C   UNL A   1      31.332  25.801  22.833  1.00  0.00     0.030 A 
BRANCH  18  23
ATOM     23  O   UNL A   1      30.200  29.179  22.045  1.00  0.00    -0.494 OA
BRANCH  23  24
ATOM     24  C   UNL A   1      28.899  29.259  22.616  1.00  0.00     0.226 C 
ATOM     25  C   UNL A   1      28.065  30.090  21.666  1.00  0.00     0.049 C 
ENDBRANCH  23  24
ENDBRANCH  18  23
ENDBRANCH  14  17
ENDBRANCH   8  13
ENDBRANCH   4   7
ENDBRANCH   2   3
ENDBRANCH   1   2
BRANCH   1  26
ATOM     26  C   UNL A   1      31.858  28.893  26.317  1.00  0.00     0.023 C 
BRANCH  26  27
ATOM     27  C   UNL A   1      32.964  29.807  25.830  1.00  0.00     0.116 C 
BRANCH  27  28
ATOM     28  N   UNL A   1      32.724  31.194  26.227  1.00  0.00    -0.352 N 
ATOM     29  C   UNL A   1      33.310  31.937  27.221  1.00  0.00     0.251 C 
ATOM     30  H   UNL A   1      32.038  31.666  25.701  1.00  0.00     0.163 HD
ATOM     31  O   UNL A   1      32.803  32.992  27.581  1.00  0.00    -0.269 OA
BRANCH  29  32
ATOM     32  C   UNL A   1      34.555  31.451  27.842  1.00  0.00     0.039 A 
ATOM     33  C   UNL A   1      35.639  32.320  27.991  1.00  0.00     0.014 A 
ATOM     34  C   UNL A   1      34.640  30.130  28.285  1.00  0.00     0.014 A 
ATOM     35  C   UNL A   1      36.790  31.869  28.636  1.00  0.00     0.010 A 
ATOM     36  C   UNL A   1      35.727  29.728  29.040  1.00  0.00     0.010 A 
ATOM     37  C   UNL A   1      36.828  30.580  29.194  1.00  0.00    -0.014 A 
BRANCH  37  38
ATOM     38  C   UNL A   1      38.018  30.072  29.913  1.00  0.00     0.031 A 
ATOM     39  C   UNL A   1      38.301  30.558  31.311  1.00  0.00     0.074 A 
ATOM     40  C   UNL A   1      38.886  29.265  29.275  1.00  0.00     0.049 A 
ATOM     41  N   UNL A   1      39.330  30.309  32.076  1.00  0.00    -0.248 NA
ATOM     42  C   UNL A   1      37.323  31.483  31.912  1.00  0.00     0.031 C 
ATOM     43  C   UNL A   1      38.757  28.808  27.888  1.00  0.00     0.029 A 
ATOM     44  N   UNL A   1      40.063  28.706  29.700  1.00  0.00    -0.354 N 
ATOM     45  C   UNL A   1      39.147  31.080  33.218  1.00  0.00     0.074 A 
ATOM     46  C   UNL A   1      37.937  31.845  33.027  1.00  0.00     0.031 C 
ATOM     47  C   UNL A   1      39.803  28.023  27.585  1.00  0.00     0.029 A 
ATOM     48  C   UNL A   1      40.694  27.953  28.737  1.00  0.00     0.049 A 
ATOM     49  H   UNL A   1      40.422  28.831  30.607  1.00  0.00     0.167 HD
ATOM     50  C   UNL A   1      39.899  31.121  34.342  1.00  0.00     0.034 A 
ATOM     51  C   UNL A   1      41.863  27.287  28.783  1.00  0.00     0.034 A 
ATOM     52  C   UNL A   1      41.067  30.309  34.541  1.00  0.00     0.049 A 
ATOM     53  C   UNL A   1      42.651  27.302  30.065  1.00  0.00     0.074 A 
ATOM     54  C   UNL A   1      41.846  30.189  35.676  1.00  0.00     0.029 A 
ATOM     55  N   UNL A   1      41.626  29.485  33.577  1.00  0.00    -0.354 N 
ATOM     56  N   UNL A   1      42.378  27.912  31.193  1.00  0.00    -0.248 NA
ATOM     57  C   UNL A   1      43.888  26.510  30.093  1.00  0.00     0.031 C 
ATOM     58  C   UNL A   1      42.898  29.315  35.387  1.00  0.00     0.029 A 
ATOM     59  C   UNL A   1      42.749  28.859  34.087  1.00  0.00     0.049 A 
ATOM     60  H   UNL A   1      41.275  29.362  32.666  1.00  0.00     0.167 HD
ATOM     61  C   UNL A   1      43.386  27.546  32.078  1.00  0.00     0.074 A 
ATOM     62  C   UNL A   1      44.263  26.647  31.357  1.00  0.00     0.031 C 
ATOM     63  C   UNL A   1      43.578  27.928  33.365  1.00  0.00     0.034 A 
BRANCH  50  64
ATOM     64  C   UNL A   1      39.453  32.033  35.454  1.00  0.00     0.023 A 
ATOM     65  C   UNL A   1      38.555  31.559  36.434  1.00  0.00     0.012 A 
ATOM     66  C   UNL A   1      39.955  33.345  35.557  1.00  0.00     0.148 A 
ATOM     67  C   UNL A   1      38.133  32.388  37.474  1.00  0.00     0.002 A 
ATOM     68  C   UNL A   1      39.572  34.147  36.625  1.00  0.00     0.091 A 
ATOM     69  F   UNL A   1      40.789  33.786  34.605  1.00  0.00    -0.205 F 
ATOM     70  C   UNL A   1      38.650  33.676  37.576  1.00  0.00     0.022 A 
BRANCH  68  71
ATOM     71  S   UNL A   1      40.243  35.790  36.895  1.00  0.00     0.127 S 
ATOM     72  O   UNL A   1      39.682  36.528  35.763  1.00  0.00    -0.237 OA
ATOM     73  O   UNL A   1      39.675  36.143  38.196  1.00  0.00    -0.237 OA
ATOM     74  O   UNL A   1      41.692  35.641  36.884  1.00  0.00    -0.744 OA
ENDBRANCH  68  71
ENDBRANCH  50  64
BRANCH  51  75
ATOM     75  C   UNL A   1      42.320  26.497  27.604  1.00  0.00     0.023 A 
ATOM     76  C   UNL A   1      43.116  27.119  26.622  1.00  0.00     0.012 A 
ATOM     77  C   UNL A   1      41.998  25.134  27.464  1.00  0.00     0.148 A 
ATOM     78  C   UNL A   1      43.548  26.409  25.502  1.00  0.00     0.002 A 
ATOM     79  C   UNL A   1      42.481  24.417  26.375  1.00  0.00     0.091 A 
ATOM     80  F   UNL A   1      41.236  24.561  28.406  1.00  0.00    -0.205 F 
ATOM     81  C   UNL A   1      43.239  25.057  25.382  1.00  0.00     0.022 A 
BRANCH  79  82
ATOM     82  S   UNL A   1      42.247  22.644  26.207  1.00  0.00     0.127 S 
ATOM     83  O   UNL A   1      40.791  22.539  26.139  1.00  0.00    -0.237 OA
ATOM     84  O   UNL A   1      42.945  22.365  24.952  1.00  0.00    -0.237 OA
ATOM     85  O   UNL A   1      42.869  22.050  27.383  1.00  0.00    -0.744 OA
ENDBRANCH  79  82
ENDBRANCH  51  75
BRANCH  63  86
ATOM     86  C   UNL A   1      44.755  27.342  34.097  1.00  0.00     0.023 A 
ATOM     87  C   UNL A   1      45.999  28.002  34.077  1.00  0.00     0.012 A 
ATOM     88  C   UNL A   1      44.600  26.174  34.869  1.00  0.00     0.148 A 
ATOM     89  C   UNL A   1      47.082  27.487  34.787  1.00  0.00     0.002 A 
ATOM     90  C   UNL A   1      45.668  25.699  35.618  1.00  0.00     0.091 A 
ATOM     91  F   UNL A   1      43.411  25.554  34.860  1.00  0.00    -0.205 F 
ATOM     92  C   UNL A   1      46.914  26.345  35.567  1.00  0.00     0.022 A 
BRANCH  90  93
ATOM     93  S   UNL A   1      45.515  24.299  36.731  1.00  0.00     0.127 S 
ATOM     94  O   UNL A   1      45.081  23.241  35.821  1.00  0.00    -0.237 OA
ATOM     95  O   UNL A   1      46.882  24.151  37.232  1.00  0.00    -0.237 OA
ATOM     96  O   UNL A   1      44.541  24.691  37.741  1.00  0.00    -0.744 OA
ENDBRANCH  90  93
ENDBRANCH  63  86
ENDBRANCH  37  38
ENDBRANCH  29  32
ENDBRANCH  27  28
ENDBRANCH  26  27
ENDBRANCH   1  26
TORSDOF 18
ENDMDL
MODEL 2
REMARK VINA RESULT:     -11.5      4.602      9.781
REMARK SMILES CCOc1ccc(NC(=O)N2CC[C@@H](C(=O)NCCCCNC(=O)c3ccc(-c4c5nc(c(-c6cccc(S(=O)(=O)[O-])c6F)c6ccc([nH]6)c(-c6cccc(S(=O)(=O)[O-])c6F)c6nc(c(-c7cccc(S(=O)(=O)[O-])c7F)c7ccc4[nH]7)C=C6)C=C5)cc3)[C@@H]2C)cc1
REMARK SMILES IDX 19 1 18 2 17 3 15 4 16 5 14 7 11 8 12 9 88 10 13 11 89 12
REMARK SMILES IDX 9 13 8 14 10 16 7 17 4 18 5 19 91 20 6 21 90 22 3 23 2 24
REMARK SMILES IDX 1 25 20 26 21 27 22 28 23 29 24 31 25 32 26 33 87 34 27 35
REMARK SMILES IDX 86 36 28 37 29 38 30 39 80 40 31 41 85 42 79 43 81 44 32 45
REMARK SMILES IDX 84 46 78 47 77 48 33 50 65 51 45 52 64 53 46 54 49 55 63 56
REMARK SMILES IDX 82 57 47 58 48 59 62 61 83 62 50 63 34 64 35 65 43 66 36 67
REMARK SMILES IDX 38 68 44 69 37 70 39 71 40 72 41 73 42 74 66 75 67 76 75 77
REMARK SMILES IDX 68 78 70 79 76 80 69 81 71 82 72 83 73 84 74 85 51 86 52 87
REMARK SMILES IDX 60 88 53 89 55 90 61 91 54 92 56 93 57 94 58 95 59 96
REMARK H PARENT 17 6 8 15 22 30 81 49 49 60
REMARK Flexibility Score: inf
ROOT
ATOM      1  C   UNL A   1      35.564  23.008  23.443  1.00  0.00     0.023 C 
ENDROOT
BRANCH   1   2
ATOM      2  C   UNL A   1      34.587  24.128  23.781  1.00  0.00     0.116 C 
BRANCH   2   3
ATOM      3  N   UNL A   1      34.023  24.822  22.632  1.00  0.00    -0.356 N 
ATOM      4  C   UNL A   1      33.343  25.988  22.469  1.00  0.00     0.225 C 
ATOM      5  O   UNL A   1      33.106  26.312  21.297  1.00  0.00    -0.275 OA
ATOM      6  H   UNL A   1      34.165  24.341  21.785  1.00  0.00     0.163 HD
BRANCH   4   7
ATOM      7  C   UNL A   1      32.781  26.876  23.585  1.00  0.00     0.102 C 
ATOM      8  N   UNL A   1      31.544  25.683  25.166  1.00  0.00    -0.321 N 
ATOM      9  C   UNL A   1      32.643  26.262  25.930  1.00  0.00     0.122 C 
ATOM     10  C   UNL A   1      31.341  26.509  23.981  1.00  0.00     0.096 C 
ATOM     11  C   UNL A   1      33.567  26.908  24.898  1.00  0.00     0.037 C 
ATOM     12  C   UNL A   1      30.474  27.733  24.291  1.00  0.00     0.032 C 
BRANCH   8  13
ATOM     13  C   UNL A   1      30.754  24.759  25.765  1.00  0.00     0.322 C 
ATOM     14  N   UNL A   1      30.925  23.418  25.721  1.00  0.00    -0.308 N 
ATOM     15  H   UNL A   1      30.114  22.953  26.028  1.00  0.00     0.171 HD
ATOM     16  O   UNL A   1      29.842  25.139  26.518  1.00  0.00    -0.248 OA
BRANCH  14  17
ATOM     17  C   UNL A   1      31.929  22.492  25.363  1.00  0.00     0.043 A 
ATOM     18  C   UNL A   1      33.505  20.263  24.662  1.00  0.00     0.119 A 
ATOM     19  C   UNL A   1      33.699  20.876  25.875  1.00  0.00     0.048 A 
ATOM     20  C   UNL A   1      32.607  20.796  23.742  1.00  0.00     0.048 A 
ATOM     21  C   UNL A   1      32.864  21.932  26.222  1.00  0.00     0.030 A 
ATOM     22  C   UNL A   1      31.858  21.939  24.073  1.00  0.00     0.030 A 
BRANCH  18  23
ATOM     23  O   UNL A   1      33.926  18.972  24.555  1.00  0.00    -0.494 OA
BRANCH  23  24
ATOM     24  C   UNL A   1      32.983  18.118  23.918  1.00  0.00     0.226 C 
ATOM     25  C   UNL A   1      33.779  17.003  23.276  1.00  0.00     0.049 C 
ENDBRANCH  23  24
ENDBRANCH  18  23
ENDBRANCH  14  17
ENDBRANCH   8  13
ENDBRANCH   4   7
ENDBRANCH   2   3
ENDBRANCH   1   2
BRANCH   1  26
ATOM     26  C   UNL A   1      36.988  23.172  23.958  1.00  0.00     0.023 C 
BRANCH  26  27
ATOM     27  C   UNL A   1      37.050  23.307  25.466  1.00  0.00     0.116 C 
BRANCH  27  28
ATOM     28  N   UNL A   1      38.041  22.399  26.043  1.00  0.00    -0.352 N 
ATOM     29  C   UNL A   1      39.249  22.676  26.633  1.00  0.00     0.251 C 
ATOM     30  H   UNL A   1      37.805  21.444  26.003  1.00  0.00     0.163 HD
ATOM     31  O   UNL A   1      40.062  21.781  26.821  1.00  0.00    -0.269 OA
BRANCH  29  32
ATOM     32  C   UNL A   1      39.549  24.062  27.038  1.00  0.00     0.039 A 
ATOM     33  C   UNL A   1      39.335  24.456  28.360  1.00  0.00     0.014 A 
ATOM     34  C   UNL A   1      40.052  24.965  26.101  1.00  0.00     0.014 A 
ATOM     35  C   UNL A   1      39.680  25.751  28.749  1.00  0.00     0.010 A 
ATOM     36  C   UNL A   1      40.516  26.199  26.519  1.00  0.00     0.010 A 
ATOM     37  C   UNL A   1      40.304  26.619  27.837  1.00  0.00    -0.014 A 
BRANCH  37  38
ATOM     38  C   UNL A   1      40.715  27.990  28.217  1.00  0.00     0.031 A 
ATOM     39  C   UNL A   1      42.175  28.358  28.196  1.00  0.00     0.074 A 
ATOM     40  C   UNL A   1      39.792  28.857  28.675  1.00  0.00     0.049 A 
ATOM     41  N   UNL A   1      42.750  29.468  28.575  1.00  0.00    -0.248 NA
ATOM     42  C   UNL A   1      43.122  27.327  27.731  1.00  0.00     0.031 C 
ATOM     43  C   UNL A   1      38.361  28.573  28.825  1.00  0.00     0.029 A 
ATOM     44  N   UNL A   1      39.922  30.146  29.121  1.00  0.00    -0.354 N 
ATOM     45  C   UNL A   1      44.116  29.250  28.442  1.00  0.00     0.074 A 
ATOM     46  C   UNL A   1      44.290  27.888  27.997  1.00  0.00     0.031 C 
ATOM     47  C   UNL A   1      37.745  29.662  29.311  1.00  0.00     0.029 A 
ATOM     48  C   UNL A   1      38.738  30.705  29.542  1.00  0.00     0.049 A 
ATOM     49  H   UNL A   1      40.781  30.626  29.139  1.00  0.00     0.167 HD
ATOM     50  C   UNL A   1      45.135  30.119  28.637  1.00  0.00     0.034 A 
ATOM     51  C   UNL A   1      38.488  31.923  30.061  1.00  0.00     0.034 A 
ATOM     52  C   UNL A   1      44.942  31.489  29.022  1.00  0.00     0.049 A 
ATOM     53  C   UNL A   1      39.630  32.889  30.214  1.00  0.00     0.074 A 
ATOM     54  C   UNL A   1      45.890  32.488  29.148  1.00  0.00     0.029 A 
ATOM     55  N   UNL A   1      43.718  32.050  29.350  1.00  0.00    -0.354 N 
ATOM     56  N   UNL A   1      40.900  32.718  29.930  1.00  0.00    -0.248 NA
ATOM     57  C   UNL A   1      39.304  34.228  30.723  1.00  0.00     0.031 C 
ATOM     58  C   UNL A   1      45.240  33.646  29.585  1.00  0.00     0.029 A 
ATOM     59  C   UNL A   1      43.884  33.380  29.690  1.00  0.00     0.049 A 
ATOM     60  H   UNL A   1      42.857  31.573  29.341  1.00  0.00     0.167 HD
ATOM     61  C   UNL A   1      41.516  33.936  30.188  1.00  0.00     0.074 A 
ATOM     62  C   UNL A   1      40.476  34.841  30.632  1.00  0.00     0.031 C 
ATOM     63  C   UNL A   1      42.825  34.274  30.081  1.00  0.00     0.034 A 
BRANCH  50  64
ATOM     64  C   UNL A   1      46.537  29.627  28.390  1.00  0.00     0.023 A 
ATOM     65  C   UNL A   1      47.127  29.796  27.119  1.00  0.00     0.012 A 
ATOM     66  C   UNL A   1      47.287  29.037  29.425  1.00  0.00     0.148 A 
ATOM     67  C   UNL A   1      48.425  29.350  26.872  1.00  0.00     0.002 A 
ATOM     68  C   UNL A   1      48.599  28.643  29.186  1.00  0.00     0.091 A 
ATOM     69  F   UNL A   1      46.703  28.863  30.619  1.00  0.00    -0.205 F 
ATOM     70  C   UNL A   1      49.164  28.785  27.907  1.00  0.00     0.022 A 
BRANCH  68  71
ATOM     71  S   UNL A   1      49.663  27.982  30.472  1.00  0.00     0.127 S 
ATOM     72  O   UNL A   1      49.644  29.064  31.456  1.00  0.00    -0.237 OA
ATOM     73  O   UNL A   1      48.941  26.776  30.876  1.00  0.00    -0.237 OA
ATOM     74  O   UNL A   1      50.953  27.738  29.841  1.00  0.00    -0.744 OA
ENDBRANCH  68  71
ENDBRANCH  50  64
BRANCH  51  75
ATOM     75  C   UNL A   1      37.092  32.316  30.406  1.00  0.00     0.023 A 
ATOM     76  C   UNL A   1      36.615  32.093  31.713  1.00  0.00     0.012 A 
ATOM     77  C   UNL A   1      36.247  32.930  29.463  1.00  0.00     0.148 A 
ATOM     78  C   UNL A   1      35.309  32.439  32.062  1.00  0.00     0.002 A 
ATOM     79  C   UNL A   1      34.967  33.325  29.834  1.00  0.00     0.091 A 
ATOM     80  F   UNL A   1      36.717  33.128  28.223  1.00  0.00    -0.205 F 
ATOM     81  C   UNL A   1      34.488  33.062  31.126  1.00  0.00     0.022 A 
BRANCH  79  82
ATOM     82  S   UNL A   1      33.889  34.254  28.737  1.00  0.00     0.127 S 
ATOM     83  O   UNL A   1      33.583  33.263  27.708  1.00  0.00    -0.237 OA
ATOM     84  O   UNL A   1      32.773  34.589  29.623  1.00  0.00    -0.237 OA
ATOM     85  O   UNL A   1      34.669  35.403  28.296  1.00  0.00    -0.744 OA
ENDBRANCH  79  82
ENDBRANCH  51  75
BRANCH  63  86
ATOM     86  C   UNL A   1      43.205  35.694  30.403  1.00  0.00     0.023 A 
ATOM     87  C   UNL A   1      43.591  36.042  31.713  1.00  0.00     0.012 A 
ATOM     88  C   UNL A   1      43.254  36.665  29.383  1.00  0.00     0.148 A 
ATOM     89  C   UNL A   1      43.985  37.345  32.010  1.00  0.00     0.002 A 
ATOM     90  C   UNL A   1      43.701  37.947  29.676  1.00  0.00     0.091 A 
ATOM     91  F   UNL A   1      42.867  36.315  28.148  1.00  0.00    -0.205 F 
ATOM     92  C   UNL A   1      44.052  38.293  30.991  1.00  0.00     0.022 A 
BRANCH  90  93
ATOM     93  S   UNL A   1      43.921  39.200  28.410  1.00  0.00     0.127 S 
ATOM     94  O   UNL A   1      44.850  38.540  27.495  1.00  0.00    -0.237 OA
ATOM     95  O   UNL A   1      42.562  39.357  27.892  1.00  0.00    -0.237 OA
ATOM     96  O   UNL A   1      44.447  40.375  29.092  1.00  0.00    -0.744 OA
ENDBRANCH  90  93
ENDBRANCH  63  86
ENDBRANCH  37  38
ENDBRANCH  29  32
ENDBRANCH  27  28
ENDBRANCH  26  27
ENDBRANCH   1  26
TORSDOF 18
ENDMDL
MODEL 3
REMARK VINA RESULT:     -11.5      5.340      8.452
REMARK SMILES CCOc1ccc(NC(=O)N2CC[C@@H](C(=O)NCCCCNC(=O)c3ccc(-c4c5nc(c(-c6cccc(S(=O)(=O)[O-])c6F)c6ccc([nH]6)c(-c6cccc(S(=O)(=O)[O-])c6F)c6nc(c(-c7cccc(S(=O)(=O)[O-])c7F)c7ccc4[nH]7)C=C6)C=C5)cc3)[C@@H]2C)cc1
REMARK SMILES IDX 19 1 18 2 17 3 15 4 16 5 14 7 11 8 12 9 88 10 13 11 89 12
REMARK SMILES IDX 9 13 8 14 10 16 7 17 4 18 5 19 91 20 6 21 90 22 3 23 2 24
REMARK SMILES IDX 1 25 20 26 21 27 22 28 23 29 24 31 25 32 26 33 87 34 27 35
REMARK SMILES IDX 86 36 28 37 29 38 30 39 80 40 31 41 85 42 79 43 81 44 32 45
REMARK SMILES IDX 84 46 78 47 77 48 33 50 65 51 45 52 64 53 46 54 49 55 63 56
REMARK SMILES IDX 82 57 47 58 48 59 62 61 83 62 50 63 34 64 35 65 43 66 36 67
REMARK SMILES IDX 38 68 44 69 37 70 39 71 40 72 41 73 42 74 66 75 67 76 75 77
REMARK SMILES IDX 68 78 70 79 76 80 69 81 71 82 72 83 73 84 74 85 51 86 52 87
REMARK SMILES IDX 60 88 53 89 55 90 61 91 54 92 56 93 57 94 58 95 59 96
REMARK H PARENT 17 6 8 15 22 30 81 49 49 60
REMARK Flexibility Score: inf
ROOT
ATOM      1  C   UNL A   1      36.866  20.638  24.572  1.00  0.00     0.023 C 
ENDROOT
BRANCH   1   2
ATOM      2  C   UNL A   1      35.945  21.131  25.681  1.00  0.00     0.116 C 
BRANCH   2   3
ATOM      3  N   UNL A   1      34.589  20.600  25.639  1.00  0.00    -0.356 N 
ATOM      4  C   UNL A   1      33.451  20.959  24.988  1.00  0.00     0.225 C 
ATOM      5  O   UNL A   1      32.490  20.189  25.121  1.00  0.00    -0.275 OA
ATOM      6  H   UNL A   1      34.470  19.807  26.209  1.00  0.00     0.163 HD
BRANCH   4   7
ATOM      7  C   UNL A   1      33.230  22.247  24.187  1.00  0.00     0.102 C 
ATOM      8  N   UNL A   1      32.092  23.890  25.396  1.00  0.00    -0.321 N 
ATOM      9  C   UNL A   1      33.380  24.499  25.084  1.00  0.00     0.122 C 
ATOM     10  C   UNL A   1      31.834  22.857  24.400  1.00  0.00     0.096 C 
ATOM     11  C   UNL A   1      34.214  23.391  24.441  1.00  0.00     0.037 C 
ATOM     12  C   UNL A   1      31.236  23.449  23.119  1.00  0.00     0.032 C 
BRANCH   8  13
ATOM     13  C   UNL A   1      31.273  24.521  26.273  1.00  0.00     0.322 C 
ATOM     14  N   UNL A   1      30.765  25.767  26.130  1.00  0.00    -0.308 N 
ATOM     15  H   UNL A   1      30.395  26.091  26.983  1.00  0.00     0.171 HD
ATOM     16  O   UNL A   1      30.841  23.895  27.254  1.00  0.00    -0.248 OA
BRANCH  14  17
ATOM     17  C   UNL A   1      30.611  26.736  25.116  1.00  0.00     0.043 A 
ATOM     18  C   UNL A   1      30.075  28.989  23.509  1.00  0.00     0.119 A 
ATOM     19  C   UNL A   1      29.381  27.822  23.296  1.00  0.00     0.048 A 
ATOM     20  C   UNL A   1      31.105  29.031  24.444  1.00  0.00     0.048 A 
ATOM     21  C   UNL A   1      29.620  26.748  24.145  1.00  0.00     0.030 A 
ATOM     22  C   UNL A   1      31.406  27.891  25.209  1.00  0.00     0.030 A 
BRANCH  18  23
ATOM     23  O   UNL A   1      29.493  30.136  23.061  1.00  0.00    -0.494 OA
BRANCH  23  24
ATOM     24  C   UNL A   1      28.137  29.968  22.664  1.00  0.00     0.226 C 
ATOM     25  C   UNL A   1      28.028  30.528  21.263  1.00  0.00     0.049 C 
ENDBRANCH  23  24
ENDBRANCH  18  23
ENDBRANCH  14  17
ENDBRANCH   8  13
ENDBRANCH   4   7
ENDBRANCH   2   3
ENDBRANCH   1   2
BRANCH   1  26
ATOM     26  C   UNL A   1      37.881  19.569  24.959  1.00  0.00     0.023 C 
BRANCH  26  27
ATOM     27  C   UNL A   1      38.867  20.054  26.002  1.00  0.00     0.116 C 
BRANCH  27  28
ATOM     28  N   UNL A   1      40.046  19.192  26.065  1.00  0.00    -0.352 N 
ATOM     29  C   UNL A   1      41.376  19.524  26.133  1.00  0.00     0.251 C 
ATOM     30  H   UNL A   1      39.856  18.225  26.059  1.00  0.00     0.163 HD
ATOM     31  O   UNL A   1      42.234  18.678  25.913  1.00  0.00    -0.269 OA
BRANCH  29  32
ATOM     32  C   UNL A   1      41.754  20.907  26.476  1.00  0.00     0.039 A 
ATOM     33  C   UNL A   1      42.270  21.188  27.742  1.00  0.00     0.014 A 
ATOM     34  C   UNL A   1      41.602  21.923  25.531  1.00  0.00     0.014 A 
ATOM     35  C   UNL A   1      42.683  22.488  28.037  1.00  0.00     0.010 A 
ATOM     36  C   UNL A   1      42.134  23.175  25.778  1.00  0.00     0.010 A 
ATOM     37  C   UNL A   1      42.648  23.481  27.044  1.00  0.00    -0.014 A 
BRANCH  37  38
ATOM     38  C   UNL A   1      43.105  24.865  27.304  1.00  0.00     0.031 A 
ATOM     39  C   UNL A   1      42.162  25.849  27.946  1.00  0.00     0.074 A 
ATOM     40  C   UNL A   1      44.320  25.255  26.873  1.00  0.00     0.049 A 
ATOM     41  N   UNL A   1      42.333  27.123  28.177  1.00  0.00    -0.248 NA
ATOM     42  C   UNL A   1      40.832  25.347  28.337  1.00  0.00     0.031 C 
ATOM     43  C   UNL A   1      45.278  24.409  26.156  1.00  0.00     0.029 A 
ATOM     44  N   UNL A   1      44.946  26.471  26.952  1.00  0.00    -0.354 N 
ATOM     45  C   UNL A   1      41.125  27.579  28.690  1.00  0.00     0.074 A 
ATOM     46  C   UNL A   1      40.211  26.461  28.689  1.00  0.00     0.031 C 
ATOM     47  C   UNL A   1      46.378  25.127  25.879  1.00  0.00     0.029 A 
ATOM     48  C   UNL A   1      46.188  26.490  26.362  1.00  0.00     0.049 A 
ATOM     49  H   UNL A   1      44.546  27.257  27.389  1.00  0.00     0.167 HD
ATOM     50  C   UNL A   1      40.814  28.812  29.155  1.00  0.00     0.034 A 
ATOM     51  C   UNL A   1      47.070  27.499  26.223  1.00  0.00     0.034 A 
ATOM     52  C   UNL A   1      41.752  29.897  29.204  1.00  0.00     0.049 A 
ATOM     53  C   UNL A   1      46.722  28.844  26.800  1.00  0.00     0.074 A 
ATOM     54  C   UNL A   1      41.581  31.157  29.749  1.00  0.00     0.029 A 
ATOM     55  N   UNL A   1      43.035  29.854  28.682  1.00  0.00    -0.354 N 
ATOM     56  N   UNL A   1      45.632  29.215  27.427  1.00  0.00    -0.248 NA
ATOM     57  C   UNL A   1      47.737  29.899  26.683  1.00  0.00     0.031 C 
ATOM     58  C   UNL A   1      42.752  31.886  29.525  1.00  0.00     0.029 A 
ATOM     59  C   UNL A   1      43.666  31.068  28.880  1.00  0.00     0.049 A 
ATOM     60  H   UNL A   1      43.438  29.074  28.237  1.00  0.00     0.167 HD
ATOM     61  C   UNL A   1      45.844  30.533  27.815  1.00  0.00     0.074 A 
ATOM     62  C   UNL A   1      47.176  30.886  27.368  1.00  0.00     0.031 C 
ATOM     63  C   UNL A   1      45.011  31.379  28.470  1.00  0.00     0.034 A 
BRANCH  50  64
ATOM     64  C   UNL A   1      39.423  29.031  29.690  1.00  0.00     0.023 A 
ATOM     65  C   UNL A   1      39.114  28.664  31.017  1.00  0.00     0.012 A 
ATOM     66  C   UNL A   1      38.432  29.641  28.896  1.00  0.00     0.148 A 
ATOM     67  C   UNL A   1      37.834  28.863  31.531  1.00  0.00     0.002 A 
ATOM     68  C   UNL A   1      37.174  29.884  29.432  1.00  0.00     0.091 A 
ATOM     69  F   UNL A   1      38.736  29.961  27.630  1.00  0.00    -0.205 F 
ATOM     70  C   UNL A   1      36.868  29.483  30.744  1.00  0.00     0.022 A 
BRANCH  68  71
ATOM     71  S   UNL A   1      35.886  30.751  28.531  1.00  0.00     0.127 S 
ATOM     72  O   UNL A   1      35.493  29.749  27.540  1.00  0.00    -0.237 OA
ATOM     73  O   UNL A   1      34.893  30.997  29.577  1.00  0.00    -0.237 OA
ATOM     74  O   UNL A   1      36.510  31.951  27.989  1.00  0.00    -0.744 OA
ENDBRANCH  68  71
ENDBRANCH  50  64
BRANCH  51  75
ATOM     75  C   UNL A   1      48.388  27.255  25.571  1.00  0.00     0.023 A 
ATOM     76  C   UNL A   1      49.468  26.791  26.348  1.00  0.00     0.012 A 
ATOM     77  C   UNL A   1      48.573  27.452  24.190  1.00  0.00     0.148 A 
ATOM     78  C   UNL A   1      50.716  26.565  25.769  1.00  0.00     0.002 A 
ATOM     79  C   UNL A   1      49.803  27.169  23.608  1.00  0.00     0.091 A 
ATOM     80  F   UNL A   1      47.535  27.900  23.468  1.00  0.00    -0.205 F 
ATOM     81  C   UNL A   1      50.883  26.746  24.399  1.00  0.00     0.022 A 
BRANCH  79  82
ATOM     82  S   UNL A   1      50.071  27.244  21.834  1.00  0.00     0.127 S 
ATOM     83  O   UNL A   1      49.046  26.329  21.337  1.00  0.00    -0.237 OA
ATOM     84  O   UNL A   1      49.826  28.658  21.550  1.00  0.00    -0.237 OA
ATOM     85  O   UNL A   1      51.450  26.821  21.624  1.00  0.00    -0.744 OA
ENDBRANCH  79  82
ENDBRANCH  51  75
BRANCH  63  86
ATOM     86  C   UNL A   1      45.528  32.757  28.787  1.00  0.00     0.023 A 
ATOM     87  C   UNL A   1      46.341  32.962  29.919  1.00  0.00     0.012 A 
ATOM     88  C   UNL A   1      45.268  33.830  27.913  1.00  0.00     0.148 A 
ATOM     89  C   UNL A   1      46.858  34.227  30.196  1.00  0.00     0.002 A 
ATOM     90  C   UNL A   1      45.833  35.074  28.165  1.00  0.00     0.091 A 
ATOM     91  F   UNL A   1      44.478  33.615  26.851  1.00  0.00    -0.205 F 
ATOM     92  C   UNL A   1      46.615  35.278  29.314  1.00  0.00     0.022 A 
BRANCH  90  93
ATOM     93  S   UNL A   1      45.662  36.455  27.032  1.00  0.00     0.127 S 
ATOM     94  O   UNL A   1      46.387  35.970  25.859  1.00  0.00    -0.237 OA
ATOM     95  O   UNL A   1      44.212  36.538  26.863  1.00  0.00    -0.237 OA
ATOM     96  O   UNL A   1      46.259  37.603  27.702  1.00  0.00    -0.744 OA
ENDBRANCH  90  93
ENDBRANCH  63  86
ENDBRANCH  37  38
ENDBRANCH  29  32
ENDBRANCH  27  28
ENDBRANCH  26  27
ENDBRANCH   1  26
TORSDOF 18
ENDMDL
