MODEL 1
REMARK VINA RESULT:     -12.8      0.000      0.000
REMARK SMILES O=C(NCCCCNC(=O)c1ccc2c(c1O)C(=O)c1ccccc1C2=O)c1ccc(-c2c3nc(c(-c4cccc(S(=O)(=O)[O-])c4F)c4ccc([nH]4)c(-c4cccc(S(=O)(=O)[O-])c4F)c4nc(c(-c5cccc(S(=O)(=O)[O-])c5F)c5ccc2[nH]5)C=C4)C=C3)cc1
REMARK SMILES IDX 4 1 3 2 1 3 2 4 28 6 29 7 90 8 30 9 89 10 31 11 32 12 33 13
REMARK SMILES IDX 83 14 34 15 88 16 82 17 84 18 35 19 87 20 81 21 80 22 36 24
REMARK SMILES IDX 68 25 48 26 67 27 49 28 52 29 66 30 85 31 50 32 51 33 65 35
REMARK SMILES IDX 86 36 53 37 37 38 38 39 46 40 39 41 41 42 47 43 40 44 42 45
REMARK SMILES IDX 43 46 44 47 45 48 69 49 70 50 78 51 71 52 73 53 79 54 72 55
REMARK SMILES IDX 74 56 75 57 76 58 77 59 54 60 55 61 63 62 56 63 58 64 64 65
REMARK SMILES IDX 57 66 59 67 60 68 61 69 62 70 5 71 6 72 7 73 8 74 9 75 10 77
REMARK SMILES IDX 11 78 12 79 16 80 13 81 15 82 14 83 18 84 26 85 19 86 20 87
REMARK SMILES IDX 25 88 27 89 21 90 24 91 22 92 23 93 17 94
REMARK H PARENT 3 5 84 23 52 34 8 76 17 95
REMARK Flexibility Score: inf
ROOT
ATOM      1  C   UNL A   1      39.039  20.048  26.115  1.00  0.00     0.116 C 
ENDROOT
BRANCH   1   2
ATOM      2  N   UNL A   1      40.207  19.183  26.099  1.00  0.00    -0.352 N 
ATOM      3  O   UNL A   1      42.399  18.678  25.985  1.00  0.00    -0.269 OA
ATOM      4  C   UNL A   1      41.536  19.529  26.177  1.00  0.00     0.251 C 
ATOM      5  H   UNL A   1      40.022  18.219  26.023  1.00  0.00     0.163 HD
BRANCH   4   6
ATOM      6  C   UNL A   1      41.911  20.932  26.462  1.00  0.00     0.039 A 
ATOM      7  C   UNL A   1      42.189  21.342  27.769  1.00  0.00     0.014 A 
ATOM      8  C   UNL A   1      41.986  21.848  25.409  1.00  0.00     0.014 A 
ATOM      9  C   UNL A   1      42.407  22.688  28.041  1.00  0.00     0.010 A 
ATOM     10  C   UNL A   1      42.287  23.187  25.674  1.00  0.00     0.010 A 
ATOM     11  C   UNL A   1      42.477  23.623  26.995  1.00  0.00    -0.014 A 
BRANCH  11  12
ATOM     12  C   UNL A   1      42.862  25.023  27.301  1.00  0.00     0.031 A 
ATOM     13  C   UNL A   1      41.911  25.979  27.964  1.00  0.00     0.074 A 
ATOM     14  C   UNL A   1      44.100  25.430  26.951  1.00  0.00     0.049 A 
ATOM     15  N   UNL A   1      42.115  27.223  28.317  1.00  0.00    -0.248 NA
ATOM     16  C   UNL A   1      40.557  25.488  28.266  1.00  0.00     0.031 C 
ATOM     17  C   UNL A   1      45.086  24.606  26.247  1.00  0.00     0.029 A 
ATOM     18  N   UNL A   1      44.738  26.630  27.129  1.00  0.00    -0.354 N 
ATOM     19  C   UNL A   1      40.913  27.677  28.844  1.00  0.00     0.074 A 
ATOM     20  C   UNL A   1      39.978  26.574  28.768  1.00  0.00     0.031 C 
ATOM     21  C   UNL A   1      46.208  25.317  26.067  1.00  0.00     0.029 A 
ATOM     22  C   UNL A   1      46.006  26.659  26.598  1.00  0.00     0.049 A 
ATOM     23  H   UNL A   1      44.329  27.397  27.592  1.00  0.00     0.167 HD
ATOM     24  C   UNL A   1      40.622  28.897  29.356  1.00  0.00     0.034 A 
ATOM     25  C   UNL A   1      46.904  27.660  26.525  1.00  0.00     0.034 A 
ATOM     26  C   UNL A   1      41.571  29.974  29.470  1.00  0.00     0.049 A 
ATOM     27  C   UNL A   1      46.559  28.988  27.133  1.00  0.00     0.074 A 
ATOM     28  C   UNL A   1      41.398  31.211  30.066  1.00  0.00     0.029 A 
ATOM     29  N   UNL A   1      42.863  29.951  28.969  1.00  0.00    -0.354 N 
ATOM     30  N   UNL A   1      45.473  29.341  27.777  1.00  0.00    -0.248 NA
ATOM     31  C   UNL A   1      47.570  30.048  27.027  1.00  0.00     0.031 C 
ATOM     32  C   UNL A   1      42.578  31.945  29.905  1.00  0.00     0.029 A 
ATOM     33  C   UNL A   1      43.491  31.159  29.222  1.00  0.00     0.049 A 
ATOM     34  H   UNL A   1      43.274  29.188  28.501  1.00  0.00     0.167 HD
ATOM     35  C   UNL A   1      45.675  30.659  28.164  1.00  0.00     0.074 A 
ATOM     36  C   UNL A   1      47.003  31.028  27.717  1.00  0.00     0.031 C 
ATOM     37  C   UNL A   1      44.827  31.497  28.809  1.00  0.00     0.034 A 
BRANCH  24  38
ATOM     38  C   UNL A   1      39.233  29.139  29.884  1.00  0.00     0.023 A 
ATOM     39  C   UNL A   1      38.908  28.729  31.192  1.00  0.00     0.012 A 
ATOM     40  C   UNL A   1      38.293  29.879  29.136  1.00  0.00     0.148 A 
ATOM     41  C   UNL A   1      37.666  29.041  31.746  1.00  0.00     0.002 A 
ATOM     42  C   UNL A   1      37.071  30.216  29.707  1.00  0.00     0.091 A 
ATOM     43  F   UNL A   1      38.619  30.246  27.889  1.00  0.00    -0.205 F 
ATOM     44  C   UNL A   1      36.755  29.793  31.008  1.00  0.00     0.022 A 
BRANCH  42  45
ATOM     45  S   UNL A   1      35.855  31.241  28.871  1.00  0.00     0.127 S 
ATOM     46  O   UNL A   1      35.301  30.303  27.895  1.00  0.00    -0.237 OA
ATOM     47  O   UNL A   1      34.946  31.592  29.962  1.00  0.00    -0.237 OA
ATOM     48  O   UNL A   1      36.593  32.362  28.307  1.00  0.00    -0.744 OA
ENDBRANCH  42  45
ENDBRANCH  24  38
BRANCH  25  49
ATOM     49  C   UNL A   1      48.225  27.422  25.880  1.00  0.00     0.023 A 
ATOM     50  C   UNL A   1      49.315  27.002  26.664  1.00  0.00     0.012 A 
ATOM     51  C   UNL A   1      48.394  27.567  24.490  1.00  0.00     0.148 A 
ATOM     52  C   UNL A   1      50.557  26.754  26.077  1.00  0.00     0.002 A 
ATOM     53  C   UNL A   1      49.616  27.259  23.904  1.00  0.00     0.091 A 
ATOM     54  F   UNL A   1      47.352  27.991  23.760  1.00  0.00    -0.205 F 
ATOM     55  C   UNL A   1      50.705  26.869  24.696  1.00  0.00     0.022 A 
BRANCH  53  56
ATOM     56  S   UNL A   1      49.819  27.239  22.119  1.00  0.00     0.127 S 
ATOM     57  O   UNL A   1      48.772  26.310  21.707  1.00  0.00    -0.237 OA
ATOM     58  O   UNL A   1      49.576  28.638  21.761  1.00  0.00    -0.237 OA
ATOM     59  O   UNL A   1      51.192  26.803  21.902  1.00  0.00    -0.744 OA
ENDBRANCH  53  56
ENDBRANCH  25  49
BRANCH  37  60
ATOM     60  C   UNL A   1      45.310  32.899  29.069  1.00  0.00     0.023 A 
ATOM     61  C   UNL A   1      45.972  33.187  30.280  1.00  0.00     0.012 A 
ATOM     62  C   UNL A   1      45.161  33.911  28.102  1.00  0.00     0.148 A 
ATOM     63  C   UNL A   1      46.451  34.470  30.536  1.00  0.00     0.002 A 
ATOM     64  C   UNL A   1      45.680  35.176  28.346  1.00  0.00     0.091 A 
ATOM     65  F   UNL A   1      44.508  33.621  26.966  1.00  0.00    -0.205 F 
ATOM     66  C   UNL A   1      46.315  35.461  29.566  1.00  0.00     0.022 A 
BRANCH  64  67
ATOM     67  S   UNL A   1      45.625  36.487  27.119  1.00  0.00     0.127 S 
ATOM     68  O   UNL A   1      44.188  36.715  26.990  1.00  0.00    -0.237 OA
ATOM     69  O   UNL A   1      46.357  37.568  27.783  1.00  0.00    -0.237 OA
ATOM     70  O   UNL A   1      46.286  35.952  25.937  1.00  0.00    -0.744 OA
ENDBRANCH  64  67
ENDBRANCH  37  60
ENDBRANCH  11  12
ENDBRANCH   4   6
ENDBRANCH   1   2
BRANCH   1  71
ATOM     71  C   UNL A   1      38.080  19.767  24.966  1.00  0.00     0.023 C 
BRANCH  71  72
ATOM     72  C   UNL A   1      37.124  20.906  24.620  1.00  0.00     0.023 C 
BRANCH  72  73
ATOM     73  C   UNL A   1      35.868  20.985  25.483  1.00  0.00     0.116 C 
BRANCH  73  74
ATOM     74  N   UNL A   1      34.693  20.429  24.820  1.00  0.00    -0.352 N 
ATOM     75  C   UNL A   1      33.581  21.078  24.347  1.00  0.00     0.255 C 
ATOM     76  H   UNL A   1      34.699  19.452  24.695  1.00  0.00     0.163 HD
ATOM     77  O   UNL A   1      32.607  20.454  23.941  1.00  0.00    -0.269 OA
BRANCH  75  78
ATOM     78  C   UNL A   1      33.564  22.553  24.318  1.00  0.00     0.082 A 
ATOM     79  C   UNL A   1      34.095  23.176  23.186  1.00  0.00     0.018 A 
ATOM     80  C   UNL A   1      33.027  23.312  25.367  1.00  0.00     0.140 A 
ATOM     81  C   UNL A   1      34.045  24.564  23.079  1.00  0.00     0.014 A 
ATOM     82  C   UNL A   1      32.905  24.704  25.227  1.00  0.00     0.076 A 
ATOM     83  C   UNL A   1      33.441  25.325  24.092  1.00  0.00     0.037 A 
ATOM     84  C   UNL A   1      32.169  25.529  26.220  1.00  0.00     0.198 C 
ATOM     85  C   UNL A   1      33.400  26.794  23.944  1.00  0.00     0.194 C 
ATOM     86  O   UNL A   1      31.456  25.036  27.085  1.00  0.00    -0.288 OA
ATOM     87  C   UNL A   1      32.244  26.999  26.132  1.00  0.00     0.034 A 
ATOM     88  C   UNL A   1      32.844  27.611  25.037  1.00  0.00     0.034 A 
ATOM     89  O   UNL A   1      33.837  27.329  22.931  1.00  0.00    -0.289 OA
ATOM     90  C   UNL A   1      31.692  27.781  27.155  1.00  0.00     0.013 A 
ATOM     91  C   UNL A   1      32.909  29.008  24.965  1.00  0.00     0.013 A 
ATOM     92  C   UNL A   1      31.759  29.173  27.084  1.00  0.00     0.001 A 
ATOM     93  C   UNL A   1      32.371  29.785  25.992  1.00  0.00     0.001 A 
BRANCH  80  94
ATOM     94  O   UNL A   1      32.634  22.719  26.538  1.00  0.00    -0.506 OA
ATOM     95  H   UNL A   1      31.785  22.327  26.602  1.00  0.00     0.293 HD
ENDBRANCH  80  94
ENDBRANCH  75  78
ENDBRANCH  73  74
ENDBRANCH  72  73
ENDBRANCH  71  72
ENDBRANCH   1  71
TORSDOF 15
ENDMDL
MODEL 2
REMARK VINA RESULT:     -12.7      5.834     11.277
REMARK SMILES O=C(NCCCCNC(=O)c1ccc2c(c1O)C(=O)c1ccccc1C2=O)c1ccc(-c2c3nc(c(-c4cccc(S(=O)(=O)[O-])c4F)c4ccc([nH]4)c(-c4cccc(S(=O)(=O)[O-])c4F)c4nc(c(-c5cccc(S(=O)(=O)[O-])c5F)c5ccc2[nH]5)C=C4)C=C3)cc1
REMARK SMILES IDX 4 1 3 2 1 3 2 4 28 6 29 7 90 8 30 9 89 10 31 11 32 12 33 13
REMARK SMILES IDX 83 14 34 15 88 16 82 17 84 18 35 19 87 20 81 21 80 22 36 24
REMARK SMILES IDX 68 25 48 26 67 27 49 28 52 29 66 30 85 31 50 32 51 33 65 35
REMARK SMILES IDX 86 36 53 37 37 38 38 39 46 40 39 41 41 42 47 43 40 44 42 45
REMARK SMILES IDX 43 46 44 47 45 48 69 49 70 50 78 51 71 52 73 53 79 54 72 55
REMARK SMILES IDX 74 56 75 57 76 58 77 59 54 60 55 61 63 62 56 63 58 64 64 65
REMARK SMILES IDX 57 66 59 67 60 68 61 69 62 70 5 71 6 72 7 73 8 74 9 75 10 77
REMARK SMILES IDX 11 78 12 79 16 80 13 81 15 82 14 83 18 84 26 85 19 86 20 87
REMARK SMILES IDX 25 88 27 89 21 90 24 91 22 92 23 93 17 94
REMARK H PARENT 3 5 84 23 52 34 8 76 17 95
REMARK Flexibility Score: inf
ROOT
ATOM      1  C   UNL A   1      32.715  32.833  26.951  1.00  0.00     0.116 C 
ENDROOT
BRANCH   1   2
ATOM      2  N   UNL A   1      32.539  34.137  27.569  1.00  0.00    -0.352 N 
ATOM      3  O   UNL A   1      32.799  35.725  29.144  1.00  0.00    -0.269 OA
ATOM      4  C   UNL A   1      33.188  34.667  28.659  1.00  0.00     0.251 C 
ATOM      5  H   UNL A   1      31.865  34.718  27.150  1.00  0.00     0.163 HD
BRANCH   4   6
ATOM      6  C   UNL A   1      34.332  33.942  29.254  1.00  0.00     0.039 A 
ATOM      7  C   UNL A   1      35.644  34.273  28.904  1.00  0.00     0.014 A 
ATOM      8  C   UNL A   1      34.090  32.918  30.174  1.00  0.00     0.014 A 
ATOM      9  C   UNL A   1      36.701  33.497  29.365  1.00  0.00     0.010 A 
ATOM     10  C   UNL A   1      35.161  32.191  30.702  1.00  0.00     0.010 A 
ATOM     11  C   UNL A   1      36.474  32.459  30.284  1.00  0.00    -0.014 A 
BRANCH  11  12
ATOM     12  C   UNL A   1      37.635  31.748  30.875  1.00  0.00     0.031 A 
ATOM     13  C   UNL A   1      38.396  30.701  30.110  1.00  0.00     0.074 A 
ATOM     14  C   UNL A   1      37.990  32.057  32.139  1.00  0.00     0.049 A 
ATOM     15  N   UNL A   1      39.446  30.016  30.485  1.00  0.00    -0.248 NA
ATOM     16  C   UNL A   1      37.921  30.372  28.757  1.00  0.00     0.031 C 
ATOM     17  C   UNL A   1      37.286  33.013  32.998  1.00  0.00     0.029 A 
ATOM     18  N   UNL A   1      39.016  31.601  32.925  1.00  0.00    -0.354 N 
ATOM     19  C   UNL A   1      39.735  29.150  29.440  1.00  0.00     0.074 A 
ATOM     20  C   UNL A   1      38.750  29.394  28.408  1.00  0.00     0.031 C 
ATOM     21  C   UNL A   1      37.909  33.084  34.182  1.00  0.00     0.029 A 
ATOM     22  C   UNL A   1      39.025  32.147  34.186  1.00  0.00     0.049 A 
ATOM     23  H   UNL A   1      39.683  30.946  32.616  1.00  0.00     0.167 HD
ATOM     24  C   UNL A   1      40.738  28.244  29.346  1.00  0.00     0.034 A 
ATOM     25  C   UNL A   1      39.827  31.909  35.241  1.00  0.00     0.034 A 
ATOM     26  C   UNL A   1      41.742  28.040  30.359  1.00  0.00     0.049 A 
ATOM     27  C   UNL A   1      40.949  30.924  35.088  1.00  0.00     0.074 A 
ATOM     28  C   UNL A   1      42.855  27.219  30.311  1.00  0.00     0.029 A 
ATOM     29  N   UNL A   1      41.750  28.649  31.603  1.00  0.00    -0.354 N 
ATOM     30  N   UNL A   1      41.303  30.237  34.029  1.00  0.00    -0.248 NA
ATOM     31  C   UNL A   1      41.796  30.696  36.267  1.00  0.00     0.031 C 
ATOM     32  C   UNL A   1      43.524  27.314  31.536  1.00  0.00     0.029 A 
ATOM     33  C   UNL A   1      42.836  28.206  32.341  1.00  0.00     0.049 A 
ATOM     34  H   UNL A   1      41.082  29.301  31.918  1.00  0.00     0.167 HD
ATOM     35  C   UNL A   1      42.422  29.507  34.409  1.00  0.00     0.074 A 
ATOM     36  C   UNL A   1      42.709  29.865  35.784  1.00  0.00     0.031 C 
ATOM     37  C   UNL A   1      43.132  28.602  33.692  1.00  0.00     0.034 A 
BRANCH  24  38
ATOM     38  C   UNL A   1      40.848  27.425  28.088  1.00  0.00     0.023 A 
ATOM     39  C   UNL A   1      41.502  27.967  26.963  1.00  0.00     0.012 A 
ATOM     40  C   UNL A   1      40.418  26.082  28.058  1.00  0.00     0.148 A 
ATOM     41  C   UNL A   1      41.717  27.190  25.825  1.00  0.00     0.002 A 
ATOM     42  C   UNL A   1      40.665  25.304  26.933  1.00  0.00     0.091 A 
ATOM     43  F   UNL A   1      39.785  25.592  29.134  1.00  0.00    -0.205 F 
ATOM     44  C   UNL A   1      41.310  25.857  25.815  1.00  0.00     0.022 A 
BRANCH  42  45
ATOM     45  S   UNL A   1      40.246  23.559  26.844  1.00  0.00     0.127 S 
ATOM     46  O   UNL A   1      38.849  23.614  26.414  1.00  0.00    -0.237 OA
ATOM     47  O   UNL A   1      41.177  23.071  25.826  1.00  0.00    -0.237 OA
ATOM     48  O   UNL A   1      40.466  23.023  28.180  1.00  0.00    -0.744 OA
ENDBRANCH  42  45
ENDBRANCH  24  38
BRANCH  25  49
ATOM     49  C   UNL A   1      39.611  32.646  36.516  1.00  0.00     0.023 A 
ATOM     50  C   UNL A   1      40.326  33.832  36.762  1.00  0.00     0.012 A 
ATOM     51  C   UNL A   1      38.668  32.202  37.464  1.00  0.00     0.148 A 
ATOM     52  C   UNL A   1      40.124  34.550  37.943  1.00  0.00     0.002 A 
ATOM     53  C   UNL A   1      38.429  32.955  38.607  1.00  0.00     0.091 A 
ATOM     54  F   UNL A   1      38.012  31.058  37.225  1.00  0.00    -0.205 F 
ATOM     55  C   UNL A   1      39.167  34.120  38.858  1.00  0.00     0.022 A 
BRANCH  53  56
ATOM     56  S   UNL A   1      37.100  32.534  39.742  1.00  0.00     0.127 S 
ATOM     57  O   UNL A   1      35.932  32.584  38.870  1.00  0.00    -0.237 OA
ATOM     58  O   UNL A   1      37.481  31.191  40.184  1.00  0.00    -0.237 OA
ATOM     59  O   UNL A   1      37.168  33.543  40.791  1.00  0.00    -0.744 OA
ENDBRANCH  53  56
ENDBRANCH  25  49
BRANCH  37  60
ATOM     60  C   UNL A   1      44.289  27.933  34.383  1.00  0.00     0.023 A 
ATOM     61  C   UNL A   1      45.551  28.562  34.380  1.00  0.00     0.012 A 
ATOM     62  C   UNL A   1      44.121  26.721  35.076  1.00  0.00     0.148 A 
ATOM     63  C   UNL A   1      46.635  27.977  35.033  1.00  0.00     0.002 A 
ATOM     64  C   UNL A   1      45.194  26.165  35.761  1.00  0.00     0.091 A 
ATOM     65  F   UNL A   1      42.917  26.127  35.046  1.00  0.00    -0.205 F 
ATOM     66  C   UNL A   1      46.454  26.785  35.732  1.00  0.00     0.022 A 
BRANCH  64  67
ATOM     67  S   UNL A   1      45.030  24.679  36.757  1.00  0.00     0.127 S 
ATOM     68  O   UNL A   1      46.420  24.401  37.111  1.00  0.00    -0.237 OA
ATOM     69  O   UNL A   1      44.196  25.138  37.870  1.00  0.00    -0.237 OA
ATOM     70  O   UNL A   1      44.392  23.693  35.896  1.00  0.00    -0.744 OA
ENDBRANCH  64  67
ENDBRANCH  37  60
ENDBRANCH  11  12
ENDBRANCH   4   6
ENDBRANCH   1   2
BRANCH   1  71
ATOM     71  C   UNL A   1      31.393  32.134  26.660  1.00  0.00     0.023 C 
BRANCH  71  72
ATOM     72  C   UNL A   1      31.449  30.609  26.651  1.00  0.00     0.023 C 
BRANCH  72  73
ATOM     73  C   UNL A   1      31.995  29.986  25.369  1.00  0.00     0.116 C 
BRANCH  73  74
ATOM     74  N   UNL A   1      30.940  29.533  24.468  1.00  0.00    -0.352 N 
ATOM     75  C   UNL A   1      30.695  28.270  23.992  1.00  0.00     0.255 C 
ATOM     76  H   UNL A   1      30.317  30.230  24.160  1.00  0.00     0.163 HD
ATOM     77  O   UNL A   1      29.852  28.072  23.125  1.00  0.00    -0.269 OA
BRANCH  75  78
ATOM     78  C   UNL A   1      31.454  27.132  24.543  1.00  0.00     0.082 A 
ATOM     79  C   UNL A   1      31.049  26.633  25.784  1.00  0.00     0.018 A 
ATOM     80  C   UNL A   1      32.530  26.551  23.856  1.00  0.00     0.140 A 
ATOM     81  C   UNL A   1      31.691  25.519  26.319  1.00  0.00     0.014 A 
ATOM     82  C   UNL A   1      33.125  25.381  24.356  1.00  0.00     0.076 A 
ATOM     83  C   UNL A   1      32.718  24.888  25.601  1.00  0.00     0.037 A 
ATOM     84  C   UNL A   1      34.132  24.620  23.572  1.00  0.00     0.198 C 
ATOM     85  C   UNL A   1      33.372  23.705  26.196  1.00  0.00     0.194 C 
ATOM     86  O   UNL A   1      34.341  24.834  22.385  1.00  0.00    -0.288 OA
ATOM     87  C   UNL A   1      34.869  23.521  24.223  1.00  0.00     0.034 A 
ATOM     88  C   UNL A   1      34.508  23.083  25.492  1.00  0.00     0.034 A 
ATOM     89  O   UNL A   1      32.987  23.255  27.268  1.00  0.00    -0.289 OA
ATOM     90  C   UNL A   1      35.931  22.907  23.547  1.00  0.00     0.013 A 
ATOM     91  C   UNL A   1      35.216  22.038  26.099  1.00  0.00     0.013 A 
ATOM     92  C   UNL A   1      36.639  21.868  24.153  1.00  0.00     0.001 A 
ATOM     93  C   UNL A   1      36.283  21.437  25.430  1.00  0.00     0.001 A 
BRANCH  80  94
ATOM     94  O   UNL A   1      33.023  27.117  22.710  1.00  0.00    -0.506 OA
ATOM     95  H   UNL A   1      32.495  27.142  21.936  1.00  0.00     0.293 HD
ENDBRANCH  80  94
ENDBRANCH  75  78
ENDBRANCH  73  74
ENDBRANCH  72  73
ENDBRANCH  71  72
ENDBRANCH   1  71
TORSDOF 15
ENDMDL
MODEL 3
REMARK VINA RESULT:     -12.6      5.276      8.547
REMARK SMILES O=C(NCCCCNC(=O)c1ccc2c(c1O)C(=O)c1ccccc1C2=O)c1ccc(-c2c3nc(c(-c4cccc(S(=O)(=O)[O-])c4F)c4ccc([nH]4)c(-c4cccc(S(=O)(=O)[O-])c4F)c4nc(c(-c5cccc(S(=O)(=O)[O-])c5F)c5ccc2[nH]5)C=C4)C=C3)cc1
REMARK SMILES IDX 4 1 3 2 1 3 2 4 28 6 29 7 90 8 30 9 89 10 31 11 32 12 33 13
REMARK SMILES IDX 83 14 34 15 88 16 82 17 84 18 35 19 87 20 81 21 80 22 36 24
REMARK SMILES IDX 68 25 48 26 67 27 49 28 52 29 66 30 85 31 50 32 51 33 65 35
REMARK SMILES IDX 86 36 53 37 37 38 38 39 46 40 39 41 41 42 47 43 40 44 42 45
REMARK SMILES IDX 43 46 44 47 45 48 69 49 70 50 78 51 71 52 73 53 79 54 72 55
REMARK SMILES IDX 74 56 75 57 76 58 77 59 54 60 55 61 63 62 56 63 58 64 64 65
REMARK SMILES IDX 57 66 59 67 60 68 61 69 62 70 5 71 6 72 7 73 8 74 9 75 10 77
REMARK SMILES IDX 11 78 12 79 16 80 13 81 15 82 14 83 18 84 26 85 19 86 20 87
REMARK SMILES IDX 25 88 27 89 21 90 24 91 22 92 23 93 17 94
REMARK H PARENT 3 5 84 23 52 34 8 76 17 95
REMARK Flexibility Score: inf
ROOT
ATOM      1  C   UNL A   1      33.578  29.130  24.751  1.00  0.00     0.116 C 
ENDROOT
BRANCH   1   2
ATOM      2  N   UNL A   1      32.821  30.215  25.352  1.00  0.00    -0.352 N 
ATOM      3  O   UNL A   1      32.200  31.645  26.978  1.00  0.00    -0.269 OA
ATOM      4  C   UNL A   1      33.037  30.856  26.550  1.00  0.00     0.251 C 
ATOM      5  H   UNL A   1      32.048  30.534  24.832  1.00  0.00     0.163 HD
BRANCH   4   6
ATOM      6  C   UNL A   1      34.265  30.567  27.323  1.00  0.00     0.039 A 
ATOM      7  C   UNL A   1      34.547  29.266  27.749  1.00  0.00     0.014 A 
ATOM      8  C   UNL A   1      35.145  31.610  27.626  1.00  0.00     0.014 A 
ATOM      9  C   UNL A   1      35.631  29.032  28.588  1.00  0.00     0.010 A 
ATOM     10  C   UNL A   1      36.280  31.358  28.401  1.00  0.00     0.010 A 
ATOM     11  C   UNL A   1      36.520  30.071  28.908  1.00  0.00    -0.014 A 
BRANCH  11  12
ATOM     12  C   UNL A   1      37.750  29.759  29.679  1.00  0.00     0.031 A 
ATOM     13  C   UNL A   1      38.000  30.343  31.041  1.00  0.00     0.074 A 
ATOM     14  C   UNL A   1      38.659  28.939  29.115  1.00  0.00     0.049 A 
ATOM     15  N   UNL A   1      39.014  30.141  31.843  1.00  0.00    -0.248 NA
ATOM     16  C   UNL A   1      36.994  31.276  31.574  1.00  0.00     0.031 C 
ATOM     17  C   UNL A   1      38.549  28.362  27.771  1.00  0.00     0.029 A 
ATOM     18  N   UNL A   1      39.851  28.453  29.586  1.00  0.00    -0.354 N 
ATOM     19  C   UNL A   1      38.794  30.946  32.953  1.00  0.00     0.074 A 
ATOM     20  C   UNL A   1      37.546  31.643  32.726  1.00  0.00     0.031 C 
ATOM     21  C   UNL A   1      39.619  27.590  27.534  1.00  0.00     0.029 A 
ATOM     22  C   UNL A   1      40.512  27.653  28.684  1.00  0.00     0.049 A 
ATOM     23  H   UNL A   1      40.200  28.657  30.484  1.00  0.00     0.167 HD
ATOM     24  C   UNL A   1      39.558  31.080  34.064  1.00  0.00     0.034 A 
ATOM     25  C   UNL A   1      41.714  27.052  28.760  1.00  0.00     0.034 A 
ATOM     26  C   UNL A   1      40.776  30.348  34.303  1.00  0.00     0.049 A 
ATOM     27  C   UNL A   1      42.516  27.195  30.020  1.00  0.00     0.074 A 
ATOM     28  C   UNL A   1      41.564  30.341  35.441  1.00  0.00     0.029 A 
ATOM     29  N   UNL A   1      41.388  29.507  33.388  1.00  0.00    -0.354 N 
ATOM     30  N   UNL A   1      42.208  27.829  31.125  1.00  0.00    -0.248 NA
ATOM     31  C   UNL A   1      43.822  26.522  30.055  1.00  0.00     0.031 C 
ATOM     32  C   UNL A   1      42.666  29.512  35.206  1.00  0.00     0.029 A 
ATOM     33  C   UNL A   1      42.556  28.992  33.927  1.00  0.00     0.049 A 
ATOM     34  H   UNL A   1      41.045  29.304  32.488  1.00  0.00     0.167 HD
ATOM     35  C   UNL A   1      43.273  27.621  31.991  1.00  0.00     0.074 A 
ATOM     36  C   UNL A   1      44.217  26.769  31.296  1.00  0.00     0.031 C 
ATOM     37  C   UNL A   1      43.464  28.112  33.240  1.00  0.00     0.034 A 
BRANCH  24  38
ATOM     38  C   UNL A   1      39.091  32.017  35.146  1.00  0.00     0.023 A 
ATOM     39  C   UNL A   1      38.153  31.566  36.096  1.00  0.00     0.012 A 
ATOM     40  C   UNL A   1      39.668  33.295  35.296  1.00  0.00     0.148 A 
ATOM     41  C   UNL A   1      37.788  32.374  37.173  1.00  0.00     0.002 A 
ATOM     42  C   UNL A   1      39.325  34.081  36.390  1.00  0.00     0.091 A 
ATOM     43  F   UNL A   1      40.547  33.710  34.372  1.00  0.00    -0.205 F 
ATOM     44  C   UNL A   1      38.383  33.625  37.326  1.00  0.00     0.022 A 
BRANCH  42  45
ATOM     45  S   UNL A   1      40.084  35.676  36.719  1.00  0.00     0.127 S 
ATOM     46  O   UNL A   1      39.653  36.453  35.557  1.00  0.00    -0.237 OA
ATOM     47  O   UNL A   1      39.451  36.065  37.980  1.00  0.00    -0.237 OA
ATOM     48  O   UNL A   1      41.517  35.430  36.807  1.00  0.00    -0.744 OA
ENDBRANCH  42  45
ENDBRANCH  24  38
BRANCH  25  49
ATOM     49  C   UNL A   1      42.205  26.233  27.617  1.00  0.00     0.023 A 
ATOM     50  C   UNL A   1      43.084  26.806  26.680  1.00  0.00     0.012 A 
ATOM     51  C   UNL A   1      41.841  24.880  27.480  1.00  0.00     0.148 A 
ATOM     52  C   UNL A   1      43.573  26.052  25.612  1.00  0.00     0.002 A 
ATOM     53  C   UNL A   1      42.379  24.119  26.450  1.00  0.00     0.091 A 
ATOM     54  F   UNL A   1      40.984  24.355  28.368  1.00  0.00    -0.205 F 
ATOM     55  C   UNL A   1      43.232  24.705  25.504  1.00  0.00     0.022 A 
BRANCH  53  56
ATOM     56  S   UNL A   1      42.100  22.346  26.353  1.00  0.00     0.127 S 
ATOM     57  O   UNL A   1      42.879  21.982  25.174  1.00  0.00    -0.237 OA
ATOM     58  O   UNL A   1      42.650  21.873  27.624  1.00  0.00    -0.237 OA
ATOM     59  O   UNL A   1      40.654  22.200  26.242  1.00  0.00    -0.744 OA
ENDBRANCH  53  56
ENDBRANCH  25  49
BRANCH  37  60
ATOM     60  C   UNL A   1      44.745  27.741  33.936  1.00  0.00     0.023 A 
ATOM     61  C   UNL A   1      45.864  28.591  33.822  1.00  0.00     0.012 A 
ATOM     62  C   UNL A   1      44.829  26.590  34.741  1.00  0.00     0.148 A 
ATOM     63  C   UNL A   1      47.056  28.284  34.476  1.00  0.00     0.002 A 
ATOM     64  C   UNL A   1      46.006  26.313  35.425  1.00  0.00     0.091 A 
ATOM     65  F   UNL A   1      43.760  25.781  34.817  1.00  0.00    -0.205 F 
ATOM     66  C   UNL A   1      47.123  27.153  35.286  1.00  0.00     0.022 A 
BRANCH  64  67
ATOM     67  S   UNL A   1      46.154  24.925  36.556  1.00  0.00     0.127 S 
ATOM     68  O   UNL A   1      46.061  23.786  35.645  1.00  0.00    -0.237 OA
ATOM     69  O   UNL A   1      47.482  25.134  37.137  1.00  0.00    -0.237 OA
ATOM     70  O   UNL A   1      45.056  25.065  37.502  1.00  0.00    -0.744 OA
ENDBRANCH  64  67
ENDBRANCH  37  60
ENDBRANCH  11  12
ENDBRANCH   4   6
ENDBRANCH   1   2
BRANCH   1  71
ATOM     71  C   UNL A   1      33.251  28.925  23.278  1.00  0.00     0.023 C 
BRANCH  71  72
ATOM     72  C   UNL A   1      31.792  28.595  22.973  1.00  0.00     0.023 C 
BRANCH  72  73
ATOM     73  C   UNL A   1      31.352  27.185  23.355  1.00  0.00     0.116 C 
BRANCH  73  74
ATOM     74  N   UNL A   1      30.745  27.123  24.681  1.00  0.00    -0.352 N 
ATOM     75  C   UNL A   1      30.972  26.225  25.693  1.00  0.00     0.255 C 
ATOM     76  H   UNL A   1      30.082  27.824  24.878  1.00  0.00     0.163 HD
ATOM     77  O   UNL A   1      30.278  26.218  26.702  1.00  0.00    -0.269 OA
BRANCH  75  78
ATOM     78  C   UNL A   1      32.079  25.258  25.564  1.00  0.00     0.082 A 
ATOM     79  C   UNL A   1      33.376  25.742  25.755  1.00  0.00     0.018 A 
ATOM     80  C   UNL A   1      31.856  23.903  25.280  1.00  0.00     0.140 A 
ATOM     81  C   UNL A   1      34.452  24.859  25.708  1.00  0.00     0.014 A 
ATOM     82  C   UNL A   1      32.930  22.999  25.311  1.00  0.00     0.076 A 
ATOM     83  C   UNL A   1      34.228  23.490  25.499  1.00  0.00     0.037 A 
ATOM     84  C   UNL A   1      32.720  21.532  25.212  1.00  0.00     0.198 C 
ATOM     85  C   UNL A   1      35.392  22.581  25.462  1.00  0.00     0.194 C 
ATOM     86  O   UNL A   1      31.614  21.017  25.311  1.00  0.00    -0.288 OA
ATOM     87  C   UNL A   1      33.889  20.648  25.046  1.00  0.00     0.034 A 
ATOM     88  C   UNL A   1      35.179  21.154  25.160  1.00  0.00     0.034 A 
ATOM     89  O   UNL A   1      36.522  23.009  25.664  1.00  0.00    -0.289 OA
ATOM     90  C   UNL A   1      33.693  19.285  24.787  1.00  0.00     0.013 A 
ATOM     91  C   UNL A   1      36.281  20.304  25.001  1.00  0.00     0.013 A 
ATOM     92  C   UNL A   1      34.790  18.439  24.626  1.00  0.00     0.001 A 
ATOM     93  C   UNL A   1      36.084  18.949  24.729  1.00  0.00     0.001 A 
BRANCH  80  94
ATOM     94  O   UNL A   1      30.605  23.448  24.954  1.00  0.00    -0.506 OA
ATOM     95  H   UNL A   1      29.848  23.943  25.200  1.00  0.00     0.293 HD
ENDBRANCH  80  94
ENDBRANCH  75  78
ENDBRANCH  73  74
ENDBRANCH  72  73
ENDBRANCH  71  72
ENDBRANCH   1  71
TORSDOF 15
ENDMDL
