MODEL 1
REMARK VINA RESULT:     -11.9      0.000      0.000
REMARK SMILES CCOC(=O)C1CCN(c2cc(NCC(=O)NCCCCNC(=O)c3ccc(-c4c5nc(c(-c6cccc(S(=O)(=O)[O-])c6F)c6ccc([nH]6)c(-c6cccc(S(=O)(=O)[O-])c6F)c6nc(c(-c7cccc(S(=O)(=O)[O-])c7F)c7ccc4[nH]7)C=C6)C=C5)cc3)c3c4c(onc24)-c2ccccc2C3=O)CC1
REMARK SMILES IDX 18 1 17 2 15 3 16 4 14 6 13 7 12 9 10 10 11 11 93 12 89 13
REMARK SMILES IDX 92 14 88 15 90 16 91 17 100 18 94 19 99 20 101 21 95 22
REMARK SMILES IDX 98 23 96 24 97 25 9 26 6 27 7 28 103 29 8 30 102 31 4 32
REMARK SMILES IDX 5 33 3 34 2 35 1 36 19 37 20 38 21 39 22 40 23 41 24 43
REMARK SMILES IDX 25 44 26 45 87 46 27 47 86 48 28 49 29 50 30 51 80 52 31 53
REMARK SMILES IDX 85 54 79 55 81 56 32 57 84 58 78 59 77 60 33 62 65 63 45 64
REMARK SMILES IDX 64 65 46 66 49 67 63 68 82 69 47 70 48 71 62 73 83 74 50 75
REMARK SMILES IDX 34 76 35 77 43 78 36 79 38 80 44 81 37 82 39 83 40 84 41 85
REMARK SMILES IDX 42 86 66 87 67 88 75 89 68 90 70 91 76 92 69 93 71 94 72 95
REMARK SMILES IDX 73 96 74 97 51 98 52 99 60 100 53 101 55 102 61 103 54 104
REMARK SMILES IDX 56 105 57 106 58 107 59 108
REMARK H PARENT 17 5 13 8 22 42 81 61 49 72
REMARK Flexibility Score: inf
ROOT
ATOM      1  C   UNL A   1      39.918  25.846  27.505  1.00  0.00     0.116 C 
ENDROOT
BRANCH   1   2
ATOM      2  N   UNL A   1      40.090  24.413  27.393  1.00  0.00    -0.355 N 
ATOM      3  C   UNL A   1      39.290  23.499  26.763  1.00  0.00     0.239 C 
ATOM      4  O   UNL A   1      39.653  22.320  26.744  1.00  0.00    -0.273 OA
ATOM      5  H   UNL A   1      40.892  24.045  27.830  1.00  0.00     0.163 HD
BRANCH   3   6
ATOM      6  C   UNL A   1      38.028  23.955  26.022  1.00  0.00     0.213 C 
BRANCH   6   7
ATOM      7  N   UNL A   1      37.008  22.914  25.945  1.00  0.00    -0.375 N 
ATOM      8  H   UNL A   1      37.239  22.050  26.358  1.00  0.00     0.161 HD
BRANCH   7   9
ATOM      9  C   UNL A   1      35.751  22.995  25.359  1.00  0.00     0.049 A 
ATOM     10  C   UNL A   1      33.723  24.480  24.744  1.00  0.00     0.069 A 
ATOM     11  C   UNL A   1      35.077  24.267  25.181  1.00  0.00     0.054 A 
ATOM     12  C   UNL A   1      33.095  23.257  24.397  1.00  0.00     0.138 A 
ATOM     13  C   UNL A   1      33.817  22.050  24.525  1.00  0.00     0.065 A 
ATOM     14  N   UNL A   1      31.871  22.955  23.900  1.00  0.00    -0.077 NA
ATOM     15  C   UNL A   1      35.094  21.806  24.976  1.00  0.00     0.059 A 
ATOM     16  C   UNL A   1      33.030  21.042  24.092  1.00  0.00     0.176 A 
ATOM     17  O   UNL A   1      31.840  21.562  23.707  1.00  0.00    -0.355 OA
ATOM     18  C   UNL A   1      35.586  20.404  25.014  1.00  0.00     0.196 C 
ATOM     19  C   UNL A   1      33.376  19.647  24.022  1.00  0.00     0.032 A 
ATOM     20  C   UNL A   1      34.668  19.315  24.507  1.00  0.00     0.034 A 
ATOM     21  O   UNL A   1      36.717  20.160  25.416  1.00  0.00    -0.288 OA
ATOM     22  C   UNL A   1      32.541  18.656  23.511  1.00  0.00     0.013 A 
ATOM     23  C   UNL A   1      35.097  17.988  24.493  1.00  0.00     0.013 A 
ATOM     24  C   UNL A   1      32.986  17.333  23.491  1.00  0.00     0.001 A 
ATOM     25  C   UNL A   1      34.253  16.999  23.985  1.00  0.00     0.001 A 
BRANCH  10  26
ATOM     26  N   UNL A   1      33.167  25.743  24.716  1.00  0.00    -0.370 N 
ATOM     27  C   UNL A   1      33.388  28.596  24.672  1.00  0.00     0.103 C 
ATOM     28  C   UNL A   1      33.683  27.751  23.421  1.00  0.00     0.037 C 
ATOM     29  C   UNL A   1      33.673  27.774  25.940  1.00  0.00     0.037 C 
ATOM     30  C   UNL A   1      32.932  26.423  23.447  1.00  0.00     0.117 C 
ATOM     31  C   UNL A   1      32.901  26.453  25.954  1.00  0.00     0.117 C 
BRANCH  27  32
ATOM     32  C   UNL A   1      31.976  29.167  24.602  1.00  0.00     0.309 C 
ATOM     33  O   UNL A   1      31.341  29.525  25.585  1.00  0.00    -0.252 OA
BRANCH  32  34
ATOM     34  O   UNL A   1      31.497  29.191  23.329  1.00  0.00    -0.466 OA
BRANCH  34  35
ATOM     35  C   UNL A   1      30.070  29.162  23.187  1.00  0.00     0.229 C 
ATOM     36  C   UNL A   1      29.631  30.206  22.180  1.00  0.00     0.049 C 
ENDBRANCH  34  35
ENDBRANCH  32  34
ENDBRANCH  27  32
ENDBRANCH  10  26
ENDBRANCH   7   9
ENDBRANCH   6   7
ENDBRANCH   3   6
ENDBRANCH   1   2
BRANCH   1  37
ATOM     37  C   UNL A   1      40.840  26.622  26.564  1.00  0.00     0.023 C 
BRANCH  37  38
ATOM     38  C   UNL A   1      40.770  28.139  26.747  1.00  0.00     0.023 C 
BRANCH  38  39
ATOM     39  C   UNL A   1      41.736  28.915  25.858  1.00  0.00     0.116 C 
BRANCH  39  40
ATOM     40  N   UNL A   1      43.126  28.538  26.058  1.00  0.00    -0.352 N 
ATOM     41  C   UNL A   1      44.089  29.170  26.818  1.00  0.00     0.251 C 
ATOM     42  H   UNL A   1      43.418  27.723  25.589  1.00  0.00     0.163 HD
ATOM     43  O   UNL A   1      45.238  28.766  26.828  1.00  0.00    -0.269 OA
BRANCH  41  44
ATOM     44  C   UNL A   1      43.687  30.357  27.599  1.00  0.00     0.039 A 
ATOM     45  C   UNL A   1      44.091  31.628  27.177  1.00  0.00     0.014 A 
ATOM     46  C   UNL A   1      42.993  30.181  28.797  1.00  0.00     0.014 A 
ATOM     47  C   UNL A   1      43.939  32.707  28.031  1.00  0.00     0.010 A 
ATOM     48  C   UNL A   1      42.788  31.279  29.629  1.00  0.00     0.010 A 
ATOM     49  C   UNL A   1      43.298  32.531  29.263  1.00  0.00    -0.014 A 
BRANCH  49  50
ATOM     50  C   UNL A   1      43.110  33.738  30.074  1.00  0.00     0.031 A 
ATOM     51  C   UNL A   1      41.683  34.122  30.252  1.00  0.00     0.074 A 
ATOM     52  C   UNL A   1      44.010  34.145  30.989  1.00  0.00     0.049 A 
ATOM     53  N   UNL A   1      40.928  33.577  31.157  1.00  0.00    -0.248 NA
ATOM     54  C   UNL A   1      40.955  34.912  29.261  1.00  0.00     0.031 C 
ATOM     55  C   UNL A   1      44.863  33.238  31.769  1.00  0.00     0.029 A 
ATOM     56  N   UNL A   1      44.176  35.371  31.586  1.00  0.00    -0.354 N 
ATOM     57  C   UNL A   1      39.622  33.882  30.831  1.00  0.00     0.074 A 
ATOM     58  C   UNL A   1      39.687  34.728  29.658  1.00  0.00     0.031 C 
ATOM     59  C   UNL A   1      45.302  33.900  32.860  1.00  0.00     0.029 A 
ATOM     60  C   UNL A   1      44.913  35.301  32.764  1.00  0.00     0.049 A 
ATOM     61  H   UNL A   1      43.814  36.209  31.217  1.00  0.00     0.167 HD
ATOM     62  C   UNL A   1      38.555  33.414  31.531  1.00  0.00     0.034 A 
ATOM     63  C   UNL A   1      44.783  36.168  33.806  1.00  0.00     0.034 A 
ATOM     64  C   UNL A   1      38.867  32.599  32.668  1.00  0.00     0.049 A 
ATOM     65  C   UNL A   1      43.445  35.733  34.361  1.00  0.00     0.074 A 
ATOM     66  C   UNL A   1      38.975  31.252  32.940  1.00  0.00     0.029 A 
ATOM     67  N   UNL A   1      39.297  33.223  33.816  1.00  0.00    -0.354 N 
ATOM     68  N   UNL A   1      43.231  34.670  35.095  1.00  0.00    -0.248 NA
ATOM     69  C   UNL A   1      42.242  36.295  33.745  1.00  0.00     0.031 C 
ATOM     70  C   UNL A   1      39.872  31.153  34.052  1.00  0.00     0.029 A 
ATOM     71  C   UNL A   1      40.287  32.446  34.366  1.00  0.00     0.049 A 
ATOM     72  H   UNL A   1      38.957  34.074  34.177  1.00  0.00     0.167 HD
ATOM     73  C   UNL A   1      41.938  34.250  34.766  1.00  0.00     0.074 A 
ATOM     74  C   UNL A   1      41.379  35.311  33.951  1.00  0.00     0.031 C 
ATOM     75  C   UNL A   1      41.452  32.999  35.023  1.00  0.00     0.034 A 
BRANCH  62  76
ATOM     76  C   UNL A   1      37.173  33.870  31.279  1.00  0.00     0.023 A 
ATOM     77  C   UNL A   1      36.519  34.527  32.338  1.00  0.00     0.012 A 
ATOM     78  C   UNL A   1      36.464  33.556  30.107  1.00  0.00     0.148 A 
ATOM     79  C   UNL A   1      35.167  34.840  32.253  1.00  0.00     0.002 A 
ATOM     80  C   UNL A   1      35.111  33.876  30.026  1.00  0.00     0.091 A 
ATOM     81  F   UNL A   1      37.110  32.932  29.112  1.00  0.00    -0.205 F 
ATOM     82  C   UNL A   1      34.462  34.509  31.102  1.00  0.00     0.022 A 
BRANCH  80  83
ATOM     83  S   UNL A   1      34.093  33.504  28.593  1.00  0.00     0.127 S 
ATOM     84  O   UNL A   1      34.838  34.154  27.517  1.00  0.00    -0.237 OA
ATOM     85  O   UNL A   1      34.133  32.042  28.565  1.00  0.00    -0.237 OA
ATOM     86  O   UNL A   1      32.781  34.068  28.875  1.00  0.00    -0.744 OA
ENDBRANCH  80  83
ENDBRANCH  62  76
BRANCH  63  87
ATOM     87  C   UNL A   1      45.131  37.592  33.461  1.00  0.00     0.023 A 
ATOM     88  C   UNL A   1      46.200  37.784  32.547  1.00  0.00     0.012 A 
ATOM     89  C   UNL A   1      44.488  38.742  33.951  1.00  0.00     0.148 A 
ATOM     90  C   UNL A   1      46.535  39.045  32.051  1.00  0.00     0.002 A 
ATOM     91  C   UNL A   1      44.790  39.996  33.416  1.00  0.00     0.091 A 
ATOM     92  F   UNL A   1      43.576  38.615  34.921  1.00  0.00    -0.205 F 
ATOM     93  C   UNL A   1      45.808  40.149  32.464  1.00  0.00     0.022 A 
BRANCH  91  94
ATOM     94  S   UNL A   1      43.854  41.474  33.832  1.00  0.00     0.127 S 
ATOM     95  O   UNL A   1      42.479  41.054  33.569  1.00  0.00    -0.237 OA
ATOM     96  O   UNL A   1      44.189  41.636  35.245  1.00  0.00    -0.237 OA
ATOM     97  O   UNL A   1      44.355  42.517  32.948  1.00  0.00    -0.744 OA
ENDBRANCH  91  94
ENDBRANCH  63  87
BRANCH  75  98
ATOM     98  C   UNL A   1      42.297  32.124  35.898  1.00  0.00     0.023 A 
ATOM     99  C   UNL A   1      43.098  31.147  35.277  1.00  0.00     0.012 A 
ATOM    100  C   UNL A   1      42.377  32.293  37.295  1.00  0.00     0.148 A 
ATOM    101  C   UNL A   1      43.980  30.366  36.022  1.00  0.00     0.002 A 
ATOM    102  C   UNL A   1      43.282  31.532  38.031  1.00  0.00     0.091 A 
ATOM    103  F   UNL A   1      41.591  33.206  37.884  1.00  0.00    -0.205 F 
ATOM    104  C   UNL A   1      44.082  30.568  37.395  1.00  0.00     0.022 A 
BRANCH 102 105
ATOM    105  S   UNL A   1      43.536  31.746  39.798  1.00  0.00     0.127 S 
ATOM    106  O   UNL A   1      44.403  30.613  40.125  1.00  0.00    -0.237 OA
ATOM    107  O   UNL A   1      44.198  33.049  39.852  1.00  0.00    -0.237 OA
ATOM    108  O   UNL A   1      42.217  31.699  40.412  1.00  0.00    -0.744 OA
ENDBRANCH 102 105
ENDBRANCH  75  98
ENDBRANCH  49  50
ENDBRANCH  41  44
ENDBRANCH  39  40
ENDBRANCH  38  39
ENDBRANCH  37  38
ENDBRANCH   1  37
TORSDOF 20
ENDMDL
MODEL 2
REMARK VINA RESULT:     -11.4      3.137      5.119
REMARK SMILES CCOC(=O)C1CCN(c2cc(NCC(=O)NCCCCNC(=O)c3ccc(-c4c5nc(c(-c6cccc(S(=O)(=O)[O-])c6F)c6ccc([nH]6)c(-c6cccc(S(=O)(=O)[O-])c6F)c6nc(c(-c7cccc(S(=O)(=O)[O-])c7F)c7ccc4[nH]7)C=C6)C=C5)cc3)c3c4c(onc24)-c2ccccc2C3=O)CC1
REMARK SMILES IDX 18 1 17 2 15 3 16 4 14 6 13 7 12 9 10 10 11 11 93 12 89 13
REMARK SMILES IDX 92 14 88 15 90 16 91 17 100 18 94 19 99 20 101 21 95 22
REMARK SMILES IDX 98 23 96 24 97 25 9 26 6 27 7 28 103 29 8 30 102 31 4 32
REMARK SMILES IDX 5 33 3 34 2 35 1 36 19 37 20 38 21 39 22 40 23 41 24 43
REMARK SMILES IDX 25 44 26 45 87 46 27 47 86 48 28 49 29 50 30 51 80 52 31 53
REMARK SMILES IDX 85 54 79 55 81 56 32 57 84 58 78 59 77 60 33 62 65 63 45 64
REMARK SMILES IDX 64 65 46 66 49 67 63 68 82 69 47 70 48 71 62 73 83 74 50 75
REMARK SMILES IDX 34 76 35 77 43 78 36 79 38 80 44 81 37 82 39 83 40 84 41 85
REMARK SMILES IDX 42 86 66 87 67 88 75 89 68 90 70 91 76 92 69 93 71 94 72 95
REMARK SMILES IDX 73 96 74 97 51 98 52 99 60 100 53 101 55 102 61 103 54 104
REMARK SMILES IDX 56 105 57 106 58 107 59 108
REMARK H PARENT 17 5 13 8 22 42 81 61 49 72
REMARK Flexibility Score: inf
ROOT
ATOM      1  C   UNL A   1      40.320  25.431  27.152  1.00  0.00     0.116 C 
ENDROOT
BRANCH   1   2
ATOM      2  N   UNL A   1      40.365  23.986  27.234  1.00  0.00    -0.355 N 
ATOM      3  C   UNL A   1      39.434  23.074  26.821  1.00  0.00     0.239 C 
ATOM      4  O   UNL A   1      39.698  21.874  26.941  1.00  0.00    -0.273 OA
ATOM      5  H   UNL A   1      41.177  23.608  27.644  1.00  0.00     0.163 HD
BRANCH   3   6
ATOM      6  C   UNL A   1      38.141  23.539  26.142  1.00  0.00     0.213 C 
BRANCH   6   7
ATOM      7  N   UNL A   1      37.251  22.435  25.796  1.00  0.00    -0.375 N 
ATOM      8  H   UNL A   1      37.677  21.553  25.693  1.00  0.00     0.161 HD
BRANCH   7   9
ATOM      9  C   UNL A   1      35.878  22.479  25.595  1.00  0.00     0.049 A 
ATOM     10  C   UNL A   1      33.696  23.863  25.734  1.00  0.00     0.069 A 
ATOM     11  C   UNL A   1      35.126  23.709  25.752  1.00  0.00     0.054 A 
ATOM     12  C   UNL A   1      33.049  22.636  25.442  1.00  0.00     0.138 A 
ATOM     13  C   UNL A   1      33.830  21.477  25.231  1.00  0.00     0.065 A 
ATOM     14  N   UNL A   1      31.749  22.293  25.274  1.00  0.00    -0.077 NA
ATOM     15  C   UNL A   1      35.192  21.286  25.280  1.00  0.00     0.059 A 
ATOM     16  C   UNL A   1      32.997  20.460  24.924  1.00  0.00     0.176 A 
ATOM     17  O   UNL A   1      31.725  20.925  24.945  1.00  0.00    -0.355 OA
ATOM     18  C   UNL A   1      35.735  19.926  25.025  1.00  0.00     0.196 C 
ATOM     19  C   UNL A   1      33.369  19.107  24.608  1.00  0.00     0.032 A 
ATOM     20  C   UNL A   1      34.759  18.825  24.676  1.00  0.00     0.034 A 
ATOM     21  O   UNL A   1      36.943  19.728  25.068  1.00  0.00    -0.288 OA
ATOM     22  C   UNL A   1      32.468  18.110  24.243  1.00  0.00     0.013 A 
ATOM     23  C   UNL A   1      35.224  17.541  24.398  1.00  0.00     0.013 A 
ATOM     24  C   UNL A   1      32.946  16.830  23.954  1.00  0.00     0.001 A 
ATOM     25  C   UNL A   1      34.314  16.545  24.037  1.00  0.00     0.001 A 
BRANCH  10  26
ATOM     26  N   UNL A   1      33.100  25.079  26.001  1.00  0.00    -0.370 N 
ATOM     27  C   UNL A   1      31.235  27.161  25.388  1.00  0.00     0.103 C 
ATOM     28  C   UNL A   1      30.770  25.821  25.982  1.00  0.00     0.037 C 
ATOM     29  C   UNL A   1      32.527  26.958  24.579  1.00  0.00     0.037 C 
ATOM     30  C   UNL A   1      31.876  25.149  26.791  1.00  0.00     0.117 C 
ATOM     31  C   UNL A   1      33.627  26.297  25.412  1.00  0.00     0.117 C 
BRANCH  27  32
ATOM     32  C   UNL A   1      31.342  28.214  26.485  1.00  0.00     0.309 C 
ATOM     33  O   UNL A   1      31.114  27.987  27.666  1.00  0.00    -0.252 OA
BRANCH  32  34
ATOM     34  O   UNL A   1      31.681  29.435  25.990  1.00  0.00    -0.466 OA
BRANCH  34  35
ATOM     35  C   UNL A   1      31.975  30.454  26.957  1.00  0.00     0.229 C 
ATOM     36  C   UNL A   1      33.475  30.628  27.083  1.00  0.00     0.049 C 
ENDBRANCH  34  35
ENDBRANCH  32  34
ENDBRANCH  27  32
ENDBRANCH  10  26
ENDBRANCH   7   9
ENDBRANCH   6   7
ENDBRANCH   3   6
ENDBRANCH   1   2
BRANCH   1  37
ATOM     37  C   UNL A   1      39.565  26.062  28.322  1.00  0.00     0.023 C 
BRANCH  37  38
ATOM     38  C   UNL A   1      40.101  27.434  28.732  1.00  0.00     0.023 C 
BRANCH  38  39
ATOM     39  C   UNL A   1      39.431  28.600  28.015  1.00  0.00     0.116 C 
BRANCH  39  40
ATOM     40  N   UNL A   1      37.981  28.584  28.125  1.00  0.00    -0.352 N 
ATOM     41  C   UNL A   1      37.165  29.414  28.866  1.00  0.00     0.251 C 
ATOM     42  H   UNL A   1      37.522  27.889  27.601  1.00  0.00     0.163 HD
ATOM     43  O   UNL A   1      35.962  29.227  28.910  1.00  0.00    -0.269 OA
BRANCH  41  44
ATOM     44  C   UNL A   1      37.796  30.519  29.615  1.00  0.00     0.039 A 
ATOM     45  C   UNL A   1      37.761  31.815  29.091  1.00  0.00     0.014 A 
ATOM     46  C   UNL A   1      38.499  30.234  30.787  1.00  0.00     0.014 A 
ATOM     47  C   UNL A   1      38.561  32.796  29.651  1.00  0.00     0.010 A 
ATOM     48  C   UNL A   1      39.257  31.238  31.384  1.00  0.00     0.010 A 
ATOM     49  C   UNL A   1      39.319  32.505  30.791  1.00  0.00    -0.014 A 
BRANCH  49  50
ATOM     50  C   UNL A   1      40.078  33.620  31.367  1.00  0.00     0.031 A 
ATOM     51  C   UNL A   1      39.764  33.881  32.797  1.00  0.00     0.074 A 
ATOM     52  C   UNL A   1      41.273  34.009  30.883  1.00  0.00     0.049 A 
ATOM     53  N   UNL A   1      40.313  33.206  33.761  1.00  0.00    -0.248 NA
ATOM     54  C   UNL A   1      38.627  34.700  33.212  1.00  0.00     0.031 C 
ATOM     55  C   UNL A   1      42.251  33.102  30.267  1.00  0.00     0.029 A 
ATOM     56  N   UNL A   1      41.959  35.187  31.055  1.00  0.00    -0.354 N 
ATOM     57  C   UNL A   1      39.567  33.442  34.897  1.00  0.00     0.074 A 
ATOM     58  C   UNL A   1      38.542  34.391  34.514  1.00  0.00     0.031 C 
ATOM     59  C   UNL A   1      43.462  33.696  30.299  1.00  0.00     0.029 A 
ATOM     60  C   UNL A   1      43.315  35.068  30.768  1.00  0.00     0.049 A 
ATOM     61  H   UNL A   1      41.535  36.026  31.349  1.00  0.00     0.167 HD
ATOM     62  C   UNL A   1      39.819  32.839  36.088  1.00  0.00     0.034 A 
ATOM     63  C   UNL A   1      44.291  35.829  31.335  1.00  0.00     0.034 A 
ATOM     64  C   UNL A   1      40.944  31.952  36.110  1.00  0.00     0.049 A 
ATOM     65  C   UNL A   1      44.315  35.250  32.732  1.00  0.00     0.074 A 
ATOM     66  C   UNL A   1      41.161  30.598  35.970  1.00  0.00     0.029 A 
ATOM     67  N   UNL A   1      42.203  32.503  36.167  1.00  0.00    -0.354 N 
ATOM     68  N   UNL A   1      44.865  34.115  33.080  1.00  0.00    -0.248 NA
ATOM     69  C   UNL A   1      43.348  35.776  33.697  1.00  0.00     0.031 C 
ATOM     70  C   UNL A   1      42.510  30.468  35.508  1.00  0.00     0.029 A 
ATOM     71  C   UNL A   1      43.022  31.755  35.356  1.00  0.00     0.049 A 
ATOM     72  H   UNL A   1      42.469  33.292  36.693  1.00  0.00     0.167 HD
ATOM     73  C   UNL A   1      44.079  33.633  34.132  1.00  0.00     0.074 A 
ATOM     74  C   UNL A   1      43.181  34.717  34.477  1.00  0.00     0.031 C 
ATOM     75  C   UNL A   1      44.078  32.332  34.551  1.00  0.00     0.034 A 
BRANCH  62  76
ATOM     76  C   UNL A   1      39.122  33.213  37.336  1.00  0.00     0.023 A 
ATOM     77  C   UNL A   1      39.541  34.402  37.964  1.00  0.00     0.012 A 
ATOM     78  C   UNL A   1      38.185  32.380  37.971  1.00  0.00     0.148 A 
ATOM     79  C   UNL A   1      39.064  34.746  39.223  1.00  0.00     0.002 A 
ATOM     80  C   UNL A   1      37.708  32.732  39.231  1.00  0.00     0.091 A 
ATOM     81  F   UNL A   1      37.801  31.255  37.352  1.00  0.00    -0.205 F 
ATOM     82  C   UNL A   1      38.154  33.909  39.860  1.00  0.00     0.022 A 
BRANCH  80  83
ATOM     83  S   UNL A   1      36.529  31.738  40.153  1.00  0.00     0.127 S 
ATOM     84  O   UNL A   1      37.283  30.505  40.374  1.00  0.00    -0.237 OA
ATOM     85  O   UNL A   1      36.323  32.550  41.353  1.00  0.00    -0.237 OA
ATOM     86  O   UNL A   1      35.357  31.610  39.300  1.00  0.00    -0.744 OA
ENDBRANCH  80  83
ENDBRANCH  62  76
BRANCH  63  87
ATOM     87  C   UNL A   1      44.173  37.299  31.031  1.00  0.00     0.023 A 
ATOM     88  C   UNL A   1      44.386  38.193  32.113  1.00  0.00     0.012 A 
ATOM     89  C   UNL A   1      43.884  37.864  29.776  1.00  0.00     0.148 A 
ATOM     90  C   UNL A   1      44.431  39.577  31.934  1.00  0.00     0.002 A 
ATOM     91  C   UNL A   1      43.980  39.244  29.590  1.00  0.00     0.091 A 
ATOM     92  F   UNL A   1      43.535  37.060  28.765  1.00  0.00    -0.205 F 
ATOM     93  C   UNL A   1      44.257  40.101  30.664  1.00  0.00     0.022 A 
BRANCH  91  94
ATOM     94  S   UNL A   1      43.845  40.010  27.968  1.00  0.00     0.127 S 
ATOM     95  O   UNL A   1      42.540  39.537  27.511  1.00  0.00    -0.237 OA
ATOM     96  O   UNL A   1      43.901  41.428  28.316  1.00  0.00    -0.237 OA
ATOM     97  O   UNL A   1      44.979  39.510  27.202  1.00  0.00    -0.744 OA
ENDBRANCH  91  94
ENDBRANCH  63  87
BRANCH  75  98
ATOM     98  C   UNL A   1      45.142  31.447  33.978  1.00  0.00     0.023 A 
ATOM     99  C   UNL A   1      46.351  31.322  34.689  1.00  0.00     0.012 A 
ATOM    100  C   UNL A   1      44.951  30.685  32.806  1.00  0.00     0.148 A 
ATOM    101  C   UNL A   1      47.343  30.441  34.264  1.00  0.00     0.002 A 
ATOM    102  C   UNL A   1      45.933  29.784  32.403  1.00  0.00     0.091 A 
ATOM    103  F   UNL A   1      43.810  30.831  32.117  1.00  0.00    -0.205 F 
ATOM    104  C   UNL A   1      47.129  29.663  33.130  1.00  0.00     0.022 A 
BRANCH 102 105
ATOM    105  S   UNL A   1      45.741  28.692  30.988  1.00  0.00     0.127 S 
ATOM    106  O   UNL A   1      44.529  27.947  31.334  1.00  0.00    -0.237 OA
ATOM    107  O   UNL A   1      45.571  29.645  29.891  1.00  0.00    -0.237 OA
ATOM    108  O   UNL A   1      46.952  27.886  30.922  1.00  0.00    -0.744 OA
ENDBRANCH 102 105
ENDBRANCH  75  98
ENDBRANCH  49  50
ENDBRANCH  41  44
ENDBRANCH  39  40
ENDBRANCH  38  39
ENDBRANCH  37  38
ENDBRANCH   1  37
TORSDOF 20
ENDMDL
MODEL 3
REMARK VINA RESULT:     -11.4      5.712     11.633
REMARK SMILES CCOC(=O)C1CCN(c2cc(NCC(=O)NCCCCNC(=O)c3ccc(-c4c5nc(c(-c6cccc(S(=O)(=O)[O-])c6F)c6ccc([nH]6)c(-c6cccc(S(=O)(=O)[O-])c6F)c6nc(c(-c7cccc(S(=O)(=O)[O-])c7F)c7ccc4[nH]7)C=C6)C=C5)cc3)c3c4c(onc24)-c2ccccc2C3=O)CC1
REMARK SMILES IDX 18 1 17 2 15 3 16 4 14 6 13 7 12 9 10 10 11 11 93 12 89 13
REMARK SMILES IDX 92 14 88 15 90 16 91 17 100 18 94 19 99 20 101 21 95 22
REMARK SMILES IDX 98 23 96 24 97 25 9 26 6 27 7 28 103 29 8 30 102 31 4 32
REMARK SMILES IDX 5 33 3 34 2 35 1 36 19 37 20 38 21 39 22 40 23 41 24 43
REMARK SMILES IDX 25 44 26 45 87 46 27 47 86 48 28 49 29 50 30 51 80 52 31 53
REMARK SMILES IDX 85 54 79 55 81 56 32 57 84 58 78 59 77 60 33 62 65 63 45 64
REMARK SMILES IDX 64 65 46 66 49 67 63 68 82 69 47 70 48 71 62 73 83 74 50 75
REMARK SMILES IDX 34 76 35 77 43 78 36 79 38 80 44 81 37 82 39 83 40 84 41 85
REMARK SMILES IDX 42 86 66 87 67 88 75 89 68 90 70 91 76 92 69 93 71 94 72 95
REMARK SMILES IDX 73 96 74 97 51 98 52 99 60 100 53 101 55 102 61 103 54 104
REMARK SMILES IDX 56 105 57 106 58 107 59 108
REMARK H PARENT 17 5 13 8 22 42 81 61 49 72
REMARK Flexibility Score: inf
ROOT
ATOM      1  C   UNL A   1      47.199  32.598  27.171  1.00  0.00     0.116 C 
ENDROOT
BRANCH   1   2
ATOM      2  N   UNL A   1      47.989  32.987  28.321  1.00  0.00    -0.355 N 
ATOM      3  C   UNL A   1      48.165  32.326  29.504  1.00  0.00     0.239 C 
ATOM      4  O   UNL A   1      48.930  32.815  30.339  1.00  0.00    -0.273 OA
ATOM      5  H   UNL A   1      48.466  33.844  28.238  1.00  0.00     0.163 HD
BRANCH   3   6
ATOM      6  C   UNL A   1      47.497  30.966  29.739  1.00  0.00     0.213 C 
BRANCH   6   7
ATOM      7  N   UNL A   1      47.259  30.685  31.152  1.00  0.00    -0.375 N 
ATOM      8  H   UNL A   1      47.192  31.470  31.743  1.00  0.00     0.161 HD
BRANCH   7   9
ATOM      9  C   UNL A   1      47.117  29.446  31.762  1.00  0.00     0.049 A 
ATOM     10  C   UNL A   1      46.210  27.027  31.602  1.00  0.00     0.069 A 
ATOM     11  C   UNL A   1      46.561  28.309  31.052  1.00  0.00     0.054 A 
ATOM     12  C   UNL A   1      46.561  26.940  32.972  1.00  0.00     0.138 A 
ATOM     13  C   UNL A   1      47.163  28.053  33.603  1.00  0.00     0.065 A 
ATOM     14  N   UNL A   1      46.476  25.945  33.888  1.00  0.00    -0.077 NA
ATOM     15  C   UNL A   1      47.475  29.303  33.120  1.00  0.00     0.059 A 
ATOM     16  C   UNL A   1      47.445  27.712  34.877  1.00  0.00     0.176 A 
ATOM     17  O   UNL A   1      47.038  26.436  35.080  1.00  0.00    -0.355 OA
ATOM     18  C   UNL A   1      48.098  30.292  34.038  1.00  0.00     0.196 C 
ATOM     19  C   UNL A   1      48.086  28.535  35.868  1.00  0.00     0.032 A 
ATOM     20  C   UNL A   1      48.403  29.854  35.452  1.00  0.00     0.034 A 
ATOM     21  O   UNL A   1      48.381  31.414  33.634  1.00  0.00    -0.288 OA
ATOM     22  C   UNL A   1      48.404  28.109  37.156  1.00  0.00     0.013 A 
ATOM     23  C   UNL A   1      49.016  30.737  36.341  1.00  0.00     0.013 A 
ATOM     24  C   UNL A   1      49.030  28.997  38.033  1.00  0.00     0.001 A 
ATOM     25  C   UNL A   1      49.328  30.305  37.632  1.00  0.00     0.001 A 
BRANCH  10  26
ATOM     26  N   UNL A   1      45.589  26.061  30.835  1.00  0.00    -0.370 N 
ATOM     27  C   UNL A   1      44.195  25.220  28.482  1.00  0.00     0.103 C 
ATOM     28  C   UNL A   1      45.707  25.506  28.457  1.00  0.00     0.037 C 
ATOM     29  C   UNL A   1      43.519  26.065  29.574  1.00  0.00     0.037 C 
ATOM     30  C   UNL A   1      46.340  25.313  29.833  1.00  0.00     0.117 C 
ATOM     31  C   UNL A   1      44.158  25.847  30.947  1.00  0.00     0.117 C 
BRANCH  27  32
ATOM     32  C   UNL A   1      43.944  23.722  28.606  1.00  0.00     0.309 C 
ATOM     33  O   UNL A   1      43.584  23.179  29.642  1.00  0.00    -0.252 OA
BRANCH  32  34
ATOM     34  O   UNL A   1      44.206  23.062  27.446  1.00  0.00    -0.466 OA
BRANCH  34  35
ATOM     35  C   UNL A   1      43.067  22.640  26.683  1.00  0.00     0.229 C 
ATOM     36  C   UNL A   1      42.998  23.420  25.385  1.00  0.00     0.049 C 
ENDBRANCH  34  35
ENDBRANCH  32  34
ENDBRANCH  27  32
ENDBRANCH  10  26
ENDBRANCH   7   9
ENDBRANCH   6   7
ENDBRANCH   3   6
ENDBRANCH   1   2
BRANCH   1  37
ATOM     37  C   UNL A   1      47.061  33.725  26.147  1.00  0.00     0.023 C 
BRANCH  37  38
ATOM     38  C   UNL A   1      45.782  34.549  26.308  1.00  0.00     0.023 C 
BRANCH  38  39
ATOM     39  C   UNL A   1      45.945  35.777  27.198  1.00  0.00     0.116 C 
BRANCH  39  40
ATOM     40  N   UNL A   1      45.024  36.851  26.866  1.00  0.00    -0.352 N 
ATOM     41  C   UNL A   1      43.764  37.093  27.375  1.00  0.00     0.251 C 
ATOM     42  H   UNL A   1      45.342  37.491  26.189  1.00  0.00     0.163 HD
ATOM     43  O   UNL A   1      43.081  38.002  26.941  1.00  0.00    -0.269 OA
BRANCH  41  44
ATOM     44  C   UNL A   1      43.267  36.205  28.445  1.00  0.00     0.039 A 
ATOM     45  C   UNL A   1      43.811  36.302  29.730  1.00  0.00     0.014 A 
ATOM     46  C   UNL A   1      42.330  35.219  28.131  1.00  0.00     0.014 A 
ATOM     47  C   UNL A   1      43.537  35.314  30.661  1.00  0.00     0.010 A 
ATOM     48  C   UNL A   1      42.009  34.259  29.089  1.00  0.00     0.010 A 
ATOM     49  C   UNL A   1      42.645  34.285  30.336  1.00  0.00    -0.014 A 
BRANCH  49  50
ATOM     50  C   UNL A   1      42.350  33.323  31.403  1.00  0.00     0.031 A 
ATOM     51  C   UNL A   1      40.956  33.407  31.916  1.00  0.00     0.074 A 
ATOM     52  C   UNL A   1      43.024  32.165  31.541  1.00  0.00     0.049 A 
ATOM     53  N   UNL A   1      39.963  32.822  31.318  1.00  0.00    -0.248 NA
ATOM     54  C   UNL A   1      40.556  34.368  32.941  1.00  0.00     0.031 C 
ATOM     55  C   UNL A   1      43.588  31.398  30.422  1.00  0.00     0.029 A 
ATOM     56  N   UNL A   1      43.126  31.322  32.620  1.00  0.00    -0.354 N 
ATOM     57  C   UNL A   1      38.804  33.375  31.824  1.00  0.00     0.074 A 
ATOM     58  C   UNL A   1      39.219  34.316  32.843  1.00  0.00     0.031 C 
ATOM     59  C   UNL A   1      43.791  30.130  30.834  1.00  0.00     0.029 A 
ATOM     60  C   UNL A   1      43.541  30.042  32.267  1.00  0.00     0.049 A 
ATOM     61  H   UNL A   1      42.929  31.595  33.546  1.00  0.00     0.167 HD
ATOM     62  C   UNL A   1      37.566  33.042  31.374  1.00  0.00     0.034 A 
ATOM     63  C   UNL A   1      43.221  28.912  32.955  1.00  0.00     0.034 A 
ATOM     64  C   UNL A   1      37.526  32.042  30.348  1.00  0.00     0.049 A 
ATOM     65  C   UNL A   1      41.759  28.773  32.592  1.00  0.00     0.074 A 
ATOM     66  C   UNL A   1      37.465  32.016  28.971  1.00  0.00     0.029 A 
ATOM     67  N   UNL A   1      37.703  30.729  30.715  1.00  0.00    -0.354 N 
ATOM     68  N   UNL A   1      41.293  28.326  31.453  1.00  0.00    -0.248 NA
ATOM     69  C   UNL A   1      40.791  29.529  33.388  1.00  0.00     0.031 C 
ATOM     70  C   UNL A   1      38.049  30.768  28.581  1.00  0.00     0.029 A 
ATOM     71  C   UNL A   1      38.467  30.126  29.745  1.00  0.00     0.049 A 
ATOM     72  H   UNL A   1      37.347  30.299  31.526  1.00  0.00     0.167 HD
ATOM     73  C   UNL A   1      40.095  29.017  31.250  1.00  0.00     0.074 A 
ATOM     74  C   UNL A   1      39.834  29.720  32.491  1.00  0.00     0.031 C 
ATOM     75  C   UNL A   1      39.470  29.124  30.039  1.00  0.00     0.034 A 
BRANCH  62  76
ATOM     76  C   UNL A   1      36.326  33.513  32.024  1.00  0.00     0.023 A 
ATOM     77  C   UNL A   1      36.045  32.994  33.303  1.00  0.00     0.012 A 
ATOM     78  C   UNL A   1      35.380  34.325  31.376  1.00  0.00     0.148 A 
ATOM     79  C   UNL A   1      34.824  33.247  33.919  1.00  0.00     0.002 A 
ATOM     80  C   UNL A   1      34.161  34.577  32.000  1.00  0.00     0.091 A 
ATOM     81  F   UNL A   1      35.673  34.808  30.161  1.00  0.00    -0.205 F 
ATOM     82  C   UNL A   1      33.881  34.032  33.266  1.00  0.00     0.022 A 
BRANCH  80  83
ATOM     83  S   UNL A   1      32.864  35.577  31.262  1.00  0.00     0.127 S 
ATOM     84  O   UNL A   1      32.632  34.884  29.996  1.00  0.00    -0.237 OA
ATOM     85  O   UNL A   1      31.784  35.440  32.239  1.00  0.00    -0.237 OA
ATOM     86  O   UNL A   1      33.409  36.923  31.147  1.00  0.00    -0.744 OA
ENDBRANCH  80  83
ENDBRANCH  62  76
BRANCH  63  87
ATOM     87  C   UNL A   1      43.747  28.886  34.366  1.00  0.00     0.023 A 
ATOM     88  C   UNL A   1      44.310  30.092  34.858  1.00  0.00     0.012 A 
ATOM     89  C   UNL A   1      43.719  27.785  35.239  1.00  0.00     0.148 A 
ATOM     90  C   UNL A   1      44.714  30.235  36.187  1.00  0.00     0.002 A 
ATOM     91  C   UNL A   1      44.075  27.944  36.580  1.00  0.00     0.091 A 
ATOM     92  F   UNL A   1      43.332  26.593  34.772  1.00  0.00    -0.205 F 
ATOM     93  C   UNL A   1      44.568  29.167  37.057  1.00  0.00     0.022 A 
BRANCH  91  94
ATOM     94  S   UNL A   1      43.851  26.641  37.799  1.00  0.00     0.127 S 
ATOM     95  O   UNL A   1      44.653  25.554  37.240  1.00  0.00    -0.237 OA
ATOM     96  O   UNL A   1      44.410  27.268  38.994  1.00  0.00    -0.237 OA
ATOM     97  O   UNL A   1      42.418  26.384  37.840  1.00  0.00    -0.744 OA
ENDBRANCH  91  94
ENDBRANCH  63  87
BRANCH  75  98
ATOM     98  C   UNL A   1      40.007  28.264  28.936  1.00  0.00     0.023 A 
ATOM     99  C   UNL A   1      39.370  27.032  28.690  1.00  0.00     0.012 A 
ATOM    100  C   UNL A   1      41.063  28.672  28.096  1.00  0.00     0.148 A 
ATOM    101  C   UNL A   1      39.756  26.230  27.618  1.00  0.00     0.002 A 
ATOM    102  C   UNL A   1      41.423  27.881  27.008  1.00  0.00     0.091 A 
ATOM    103  F   UNL A   1      41.683  29.833  28.353  1.00  0.00    -0.205 F 
ATOM    104  C   UNL A   1      40.772  26.659  26.770  1.00  0.00     0.022 A 
BRANCH 102 105
ATOM    105  S   UNL A   1      42.682  28.364  25.817  1.00  0.00     0.127 S 
ATOM    106  O   UNL A   1      43.914  27.928  26.476  1.00  0.00    -0.237 OA
ATOM    107  O   UNL A   1      42.309  27.571  24.646  1.00  0.00    -0.237 OA
ATOM    108  O   UNL A   1      42.559  29.805  25.650  1.00  0.00    -0.744 OA
ENDBRANCH 102 105
ENDBRANCH  75  98
ENDBRANCH  49  50
ENDBRANCH  41  44
ENDBRANCH  39  40
ENDBRANCH  38  39
ENDBRANCH  37  38
ENDBRANCH   1  37
TORSDOF 20
ENDMDL
