MODEL 1
REMARK VINA RESULT:     -12.2      0.000      0.000
REMARK SMILES O=C(NCCCCNC(=O)c1ccccc1-c1ccccc1C(=O)NCCc1ccccc1)c1ccc(-c2c3nc(c(-c4cccc(S(=O)(=O)[O-])c4F)c4ccc([nH]4)c(-c4cccc(S(=O)(=O)[O-])c4F)c4nc(c(-c5cccc(S(=O)(=O)[O-])c5F)c5ccc2[nH]5)C=C4)C=C3)cc1
REMARK SMILES IDX 6 1 5 2 4 3 3 4 1 5 2 6 34 8 35 9 96 10 36 11 95 12 37 13
REMARK SMILES IDX 38 14 39 15 89 16 40 17 94 18 88 19 90 20 41 21 93 22 87 23
REMARK SMILES IDX 86 24 42 26 74 27 54 28 73 29 55 30 58 31 72 32 91 33 56 34
REMARK SMILES IDX 57 35 71 37 92 38 59 39 43 40 44 41 52 42 45 43 47 44 53 45
REMARK SMILES IDX 46 46 48 47 49 48 50 49 51 50 75 51 76 52 84 53 77 54 79 55
REMARK SMILES IDX 85 56 78 57 80 58 81 59 82 60 83 61 60 62 61 63 69 64 62 65
REMARK SMILES IDX 64 66 70 67 63 68 65 69 66 70 67 71 68 72 7 73 8 74 9 75
REMARK SMILES IDX 10 77 11 78 12 79 16 80 13 81 15 82 14 83 17 84 18 85 22 86
REMARK SMILES IDX 19 87 21 88 20 89 23 90 24 91 25 92 26 94 27 95 28 96 29 97
REMARK SMILES IDX 33 98 30 99 32 100 31 101
REMARK H PARENT 3 7 90 25 58 36 8 76 25 93
REMARK Flexibility Score: inf
ROOT
ATOM      1  C   UNL A   1      37.689  21.258  24.952  1.00  0.00     0.023 C 
ENDROOT
BRANCH   1   2
ATOM      2  C   UNL A   1      38.342  19.883  24.957  1.00  0.00     0.023 C 
BRANCH   2   3
ATOM      3  C   UNL A   1      39.094  19.559  26.241  1.00  0.00     0.116 C 
BRANCH   3   4
ATOM      4  N   UNL A   1      40.397  18.940  25.997  1.00  0.00    -0.352 N 
ATOM      5  O   UNL A   1      42.635  18.896  25.654  1.00  0.00    -0.269 OA
ATOM      6  C   UNL A   1      41.643  19.517  26.027  1.00  0.00     0.251 C 
ATOM      7  H   UNL A   1      40.378  17.979  25.783  1.00  0.00     0.163 HD
BRANCH   6   8
ATOM      8  C   UNL A   1      41.736  20.911  26.487  1.00  0.00     0.039 A 
ATOM      9  C   UNL A   1      41.361  21.927  25.610  1.00  0.00     0.014 A 
ATOM     10  C   UNL A   1      42.345  21.199  27.709  1.00  0.00     0.014 A 
ATOM     11  C   UNL A   1      41.801  23.216  25.852  1.00  0.00     0.010 A 
ATOM     12  C   UNL A   1      42.660  22.524  28.011  1.00  0.00     0.010 A 
ATOM     13  C   UNL A   1      42.443  23.535  27.061  1.00  0.00    -0.014 A 
BRANCH  13  14
ATOM     14  C   UNL A   1      42.818  24.949  27.314  1.00  0.00     0.031 A 
ATOM     15  C   UNL A   1      41.889  25.903  28.016  1.00  0.00     0.074 A 
ATOM     16  C   UNL A   1      44.040  25.357  26.918  1.00  0.00     0.049 A 
ATOM     17  N   UNL A   1      42.092  27.155  28.336  1.00  0.00    -0.248 NA
ATOM     18  C   UNL A   1      40.560  25.399  28.398  1.00  0.00     0.031 C 
ATOM     19  C   UNL A   1      45.011  24.524  26.200  1.00  0.00     0.029 A 
ATOM     20  N   UNL A   1      44.684  26.555  27.072  1.00  0.00    -0.354 N 
ATOM     21  C   UNL A   1      40.905  27.608  28.900  1.00  0.00     0.074 A 
ATOM     22  C   UNL A   1      39.982  26.492  28.882  1.00  0.00     0.031 C 
ATOM     23  C   UNL A   1      46.144  25.215  26.027  1.00  0.00     0.029 A 
ATOM     24  C   UNL A   1      45.952  26.563  26.542  1.00  0.00     0.049 A 
ATOM     25  H   UNL A   1      44.279  27.333  27.517  1.00  0.00     0.167 HD
ATOM     26  C   UNL A   1      40.614  28.838  29.391  1.00  0.00     0.034 A 
ATOM     27  C   UNL A   1      46.859  27.552  26.457  1.00  0.00     0.034 A 
ATOM     28  C   UNL A   1      41.557  29.926  29.440  1.00  0.00     0.049 A 
ATOM     29  C   UNL A   1      46.515  28.893  27.031  1.00  0.00     0.074 A 
ATOM     30  C   UNL A   1      41.386  31.187  29.984  1.00  0.00     0.029 A 
ATOM     31  N   UNL A   1      42.841  29.891  28.916  1.00  0.00    -0.354 N 
ATOM     32  N   UNL A   1      45.427  29.265  27.661  1.00  0.00    -0.248 NA
ATOM     33  C   UNL A   1      47.532  29.944  26.904  1.00  0.00     0.031 C 
ATOM     34  C   UNL A   1      42.552  31.926  29.755  1.00  0.00     0.029 A 
ATOM     35  C   UNL A   1      43.467  31.111  29.107  1.00  0.00     0.049 A 
ATOM     36  H   UNL A   1      43.248  29.112  28.473  1.00  0.00     0.167 HD
ATOM     37  C   UNL A   1      45.642  30.584  28.038  1.00  0.00     0.074 A 
ATOM     38  C   UNL A   1      46.974  30.934  27.584  1.00  0.00     0.031 C 
ATOM     39  C   UNL A   1      44.808  31.432  28.688  1.00  0.00     0.034 A 
BRANCH  26  40
ATOM     40  C   UNL A   1      39.224  29.079  29.926  1.00  0.00     0.023 A 
ATOM     41  C   UNL A   1      38.897  28.703  31.244  1.00  0.00     0.012 A 
ATOM     42  C   UNL A   1      38.259  29.743  29.140  1.00  0.00     0.148 A 
ATOM     43  C   UNL A   1      37.624  28.951  31.759  1.00  0.00     0.002 A 
ATOM     44  C   UNL A   1      37.009  30.029  29.675  1.00  0.00     0.091 A 
ATOM     45  F   UNL A   1      38.580  30.077  27.882  1.00  0.00    -0.205 F 
ATOM     46  C   UNL A   1      36.684  29.622  30.980  1.00  0.00     0.022 A 
BRANCH  44  47
ATOM     47  S   UNL A   1      35.761  30.962  28.780  1.00  0.00     0.127 S 
ATOM     48  O   UNL A   1      36.585  31.900  28.018  1.00  0.00    -0.237 OA
ATOM     49  O   UNL A   1      35.118  29.923  27.975  1.00  0.00    -0.237 OA
ATOM     50  O   UNL A   1      34.905  31.562  29.793  1.00  0.00    -0.744 OA
ENDBRANCH  44  47
ENDBRANCH  26  40
BRANCH  27  51
ATOM     51  C   UNL A   1      48.185  27.288  25.835  1.00  0.00     0.023 A 
ATOM     52  C   UNL A   1      49.232  26.779  26.626  1.00  0.00     0.012 A 
ATOM     53  C   UNL A   1      48.400  27.495  24.459  1.00  0.00     0.148 A 
ATOM     54  C   UNL A   1      50.479  26.509  26.064  1.00  0.00     0.002 A 
ATOM     55  C   UNL A   1      49.624  27.165  23.893  1.00  0.00     0.091 A 
ATOM     56  F   UNL A   1      47.391  27.987  23.725  1.00  0.00    -0.205 F 
ATOM     57  C   UNL A   1      50.671  26.692  24.696  1.00  0.00     0.022 A 
BRANCH  55  58
ATOM     58  S   UNL A   1      49.913  27.233  22.122  1.00  0.00     0.127 S 
ATOM     59  O   UNL A   1      48.863  26.354  21.614  1.00  0.00    -0.237 OA
ATOM     60  O   UNL A   1      49.718  28.655  21.838  1.00  0.00    -0.237 OA
ATOM     61  O   UNL A   1      51.278  26.764  21.927  1.00  0.00    -0.744 OA
ENDBRANCH  55  58
ENDBRANCH  27  51
BRANCH  39  62
ATOM     62  C   UNL A   1      45.332  32.810  28.994  1.00  0.00     0.023 A 
ATOM     63  C   UNL A   1      46.114  33.031  30.146  1.00  0.00     0.012 A 
ATOM     64  C   UNL A   1      45.082  33.880  28.112  1.00  0.00     0.148 A 
ATOM     65  C   UNL A   1      46.599  34.304  30.438  1.00  0.00     0.002 A 
ATOM     66  C   UNL A   1      45.616  35.133  28.380  1.00  0.00     0.091 A 
ATOM     67  F   UNL A   1      44.318  33.655  27.034  1.00  0.00    -0.205 F 
ATOM     68  C   UNL A   1      46.361  35.352  29.551  1.00  0.00     0.022 A 
BRANCH  66  69
ATOM     69  S   UNL A   1      45.445  36.512  27.243  1.00  0.00     0.127 S 
ATOM     70  O   UNL A   1      46.162  37.572  27.949  1.00  0.00    -0.237 OA
ATOM     71  O   UNL A   1      46.121  36.011  26.045  1.00  0.00    -0.237 OA
ATOM     72  O   UNL A   1      44.013  36.724  27.083  1.00  0.00    -0.744 OA
ENDBRANCH  66  69
ENDBRANCH  39  62
ENDBRANCH  13  14
ENDBRANCH   6   8
ENDBRANCH   3   4
ENDBRANCH   2   3
ENDBRANCH   1   2
BRANCH   1  73
ATOM     73  C   UNL A   1      36.197  21.210  24.685  1.00  0.00     0.116 C 
BRANCH  73  74
ATOM     74  N   UNL A   1      35.450  20.948  25.896  1.00  0.00    -0.352 N 
ATOM     75  C   UNL A   1      34.102  21.054  26.058  1.00  0.00     0.251 C 
ATOM     76  H   UNL A   1      35.969  20.665  26.684  1.00  0.00     0.163 HD
ATOM     77  O   UNL A   1      33.588  21.061  27.174  1.00  0.00    -0.269 OA
BRANCH  75  78
ATOM     78  C   UNL A   1      33.254  21.196  24.858  1.00  0.00     0.047 A 
ATOM     79  C   UNL A   1      32.984  20.009  24.153  1.00  0.00     0.014 A 
ATOM     80  C   UNL A   1      32.816  22.451  24.379  1.00  0.00    -0.005 A 
ATOM     81  C   UNL A   1      32.242  20.044  22.977  1.00  0.00     0.001 A 
ATOM     82  C   UNL A   1      32.024  22.439  23.206  1.00  0.00     0.009 A 
ATOM     83  C   UNL A   1      31.752  21.257  22.509  1.00  0.00     0.001 A 
BRANCH  80  84
ATOM     84  C   UNL A   1      33.123  23.766  25.010  1.00  0.00    -0.005 A 
ATOM     85  C   UNL A   1      34.382  24.322  24.627  1.00  0.00     0.009 A 
ATOM     86  C   UNL A   1      32.308  24.531  25.887  1.00  0.00     0.047 A 
ATOM     87  C   UNL A   1      34.812  25.587  25.025  1.00  0.00     0.001 A 
ATOM     88  C   UNL A   1      32.776  25.822  26.263  1.00  0.00     0.014 A 
ATOM     89  C   UNL A   1      33.997  26.347  25.837  1.00  0.00     0.001 A 
BRANCH  86  90
ATOM     90  C   UNL A   1      30.955  24.238  26.500  1.00  0.00     0.251 C 
ATOM     91  O   UNL A   1      30.884  23.342  27.349  1.00  0.00    -0.269 OA
ATOM     92  N   UNL A   1      29.755  24.800  26.133  1.00  0.00    -0.352 N 
ATOM     93  H   UNL A   1      28.954  24.330  26.462  1.00  0.00     0.163 HD
BRANCH  92  94
ATOM     94  C   UNL A   1      29.493  25.969  25.341  1.00  0.00     0.121 C 
BRANCH  94  95
ATOM     95  C   UNL A   1      29.660  25.879  23.835  1.00  0.00     0.057 C 
BRANCH  95  96
ATOM     96  C   UNL A   1      30.908  26.563  23.347  1.00  0.00    -0.046 A 
ATOM     97  C   UNL A   1      31.213  27.872  23.756  1.00  0.00     0.004 A 
ATOM     98  C   UNL A   1      31.753  25.913  22.445  1.00  0.00     0.004 A 
ATOM     99  C   UNL A   1      32.358  28.511  23.279  1.00  0.00     0.000 A 
ATOM    100  C   UNL A   1      32.896  26.554  21.969  1.00  0.00     0.000 A 
ATOM    101  C   UNL A   1      33.199  27.850  22.387  1.00  0.00     0.000 A 
ENDBRANCH  95  96
ENDBRANCH  94  95
ENDBRANCH  92  94
ENDBRANCH  86  90
ENDBRANCH  80  84
ENDBRANCH  75  78
ENDBRANCH  73  74
ENDBRANCH   1  73
TORSDOF 19
ENDMDL
MODEL 2
REMARK VINA RESULT:     -11.7      1.722      7.692
REMARK SMILES O=C(NCCCCNC(=O)c1ccccc1-c1ccccc1C(=O)NCCc1ccccc1)c1ccc(-c2c3nc(c(-c4cccc(S(=O)(=O)[O-])c4F)c4ccc([nH]4)c(-c4cccc(S(=O)(=O)[O-])c4F)c4nc(c(-c5cccc(S(=O)(=O)[O-])c5F)c5ccc2[nH]5)C=C4)C=C3)cc1
REMARK SMILES IDX 6 1 5 2 4 3 3 4 1 5 2 6 34 8 35 9 96 10 36 11 95 12 37 13
REMARK SMILES IDX 38 14 39 15 89 16 40 17 94 18 88 19 90 20 41 21 93 22 87 23
REMARK SMILES IDX 86 24 42 26 74 27 54 28 73 29 55 30 58 31 72 32 91 33 56 34
REMARK SMILES IDX 57 35 71 37 92 38 59 39 43 40 44 41 52 42 45 43 47 44 53 45
REMARK SMILES IDX 46 46 48 47 49 48 50 49 51 50 75 51 76 52 84 53 77 54 79 55
REMARK SMILES IDX 85 56 78 57 80 58 81 59 82 60 83 61 60 62 61 63 69 64 62 65
REMARK SMILES IDX 64 66 70 67 63 68 65 69 66 70 67 71 68 72 7 73 8 74 9 75
REMARK SMILES IDX 10 77 11 78 12 79 16 80 13 81 15 82 14 83 17 84 18 85 22 86
REMARK SMILES IDX 19 87 21 88 20 89 23 90 24 91 25 92 26 94 27 95 28 96 29 97
REMARK SMILES IDX 33 98 30 99 32 100 31 101
REMARK H PARENT 3 7 90 25 58 36 8 76 25 93
REMARK Flexibility Score: inf
ROOT
ATOM      1  C   UNL A   1      35.347  22.841  26.011  1.00  0.00     0.023 C 
ENDROOT
BRANCH   1   2
ATOM      2  C   UNL A   1      36.183  21.883  25.175  1.00  0.00     0.023 C 
BRANCH   2   3
ATOM      3  C   UNL A   1      37.660  22.247  25.108  1.00  0.00     0.116 C 
BRANCH   3   4
ATOM      4  N   UNL A   1      38.536  21.150  25.524  1.00  0.00    -0.352 N 
ATOM      5  O   UNL A   1      40.383  20.209  26.434  1.00  0.00    -0.269 OA
ATOM      6  C   UNL A   1      39.672  21.201  26.293  1.00  0.00     0.251 C 
ATOM      7  H   UNL A   1      38.273  20.254  25.211  1.00  0.00     0.163 HD
BRANCH   6   8
ATOM      8  C   UNL A   1      40.022  22.491  26.906  1.00  0.00     0.039 A 
ATOM      9  C   UNL A   1      39.506  23.657  26.344  1.00  0.00     0.014 A 
ATOM     10  C   UNL A   1      40.979  22.540  27.920  1.00  0.00     0.014 A 
ATOM     11  C   UNL A   1      40.115  24.865  26.633  1.00  0.00     0.010 A 
ATOM     12  C   UNL A   1      41.489  23.779  28.309  1.00  0.00     0.010 A 
ATOM     13  C   UNL A   1      41.103  24.946  27.630  1.00  0.00    -0.014 A 
BRANCH  13  14
ATOM     14  C   UNL A   1      41.663  26.278  27.968  1.00  0.00     0.031 A 
ATOM     15  C   UNL A   1      43.056  26.679  27.563  1.00  0.00     0.074 A 
ATOM     16  C   UNL A   1      40.872  27.143  28.632  1.00  0.00     0.049 A 
ATOM     17  N   UNL A   1      43.668  27.819  27.758  1.00  0.00    -0.248 NA
ATOM     18  C   UNL A   1      43.876  25.676  26.863  1.00  0.00     0.031 C 
ATOM     19  C   UNL A   1      39.514  26.849  29.101  1.00  0.00     0.029 A 
ATOM     20  N   UNL A   1      41.078  28.442  29.013  1.00  0.00    -0.354 N 
ATOM     21  C   UNL A   1      44.957  27.656  27.263  1.00  0.00     0.074 A 
ATOM     22  C   UNL A   1      45.040  26.304  26.753  1.00  0.00     0.031 C 
ATOM     23  C   UNL A   1      38.989  27.948  29.655  1.00  0.00     0.029 A 
ATOM     24  C   UNL A   1      39.998  28.997  29.658  1.00  0.00     0.049 A 
ATOM     25  H   UNL A   1      41.915  28.929  28.843  1.00  0.00     0.167 HD
ATOM     26  C   UNL A   1      45.973  28.553  27.232  1.00  0.00     0.034 A 
ATOM     27  C   UNL A   1      39.840  30.211  30.213  1.00  0.00     0.034 A 
ATOM     28  C   UNL A   1      45.862  29.909  27.705  1.00  0.00     0.049 A 
ATOM     29  C   UNL A   1      40.975  31.188  30.141  1.00  0.00     0.074 A 
ATOM     30  C   UNL A   1      46.807  30.918  27.652  1.00  0.00     0.029 A 
ATOM     31  N   UNL A   1      44.745  30.444  28.330  1.00  0.00    -0.354 N 
ATOM     32  N   UNL A   1      42.145  31.049  29.568  1.00  0.00    -0.248 NA
ATOM     33  C   UNL A   1      40.759  32.495  30.772  1.00  0.00     0.031 C 
ATOM     34  C   UNL A   1      46.276  32.051  28.279  1.00  0.00     0.029 A 
ATOM     35  C   UNL A   1      44.983  31.762  28.684  1.00  0.00     0.049 A 
ATOM     36  H   UNL A   1      43.905  29.958  28.499  1.00  0.00     0.167 HD
ATOM     37  C   UNL A   1      42.794  32.265  29.736  1.00  0.00     0.074 A 
ATOM     38  C   UNL A   1      41.873  33.132  30.445  1.00  0.00     0.031 C 
ATOM     39  C   UNL A   1      44.042  32.626  29.351  1.00  0.00     0.034 A 
BRANCH  26  40
ATOM     40  C   UNL A   1      47.296  28.108  26.661  1.00  0.00     0.023 A 
ATOM     41  C   UNL A   1      48.354  27.745  27.519  1.00  0.00     0.012 A 
ATOM     42  C   UNL A   1      47.470  27.985  25.266  1.00  0.00     0.148 A 
ATOM     43  C   UNL A   1      49.571  27.301  27.001  1.00  0.00     0.002 A 
ATOM     44  C   UNL A   1      48.669  27.499  24.758  1.00  0.00     0.091 A 
ATOM     45  F   UNL A   1      46.462  28.352  24.462  1.00  0.00    -0.205 F 
ATOM     46  C   UNL A   1      49.725  27.168  25.623  1.00  0.00     0.022 A 
BRANCH  44  47
ATOM     47  S   UNL A   1      48.934  27.212  23.004  1.00  0.00     0.127 S 
ATOM     48  O   UNL A   1      50.393  27.137  22.935  1.00  0.00    -0.237 OA
ATOM     49  O   UNL A   1      48.247  25.937  22.793  1.00  0.00    -0.237 OA
ATOM     50  O   UNL A   1      48.333  28.346  22.317  1.00  0.00    -0.744 OA
ENDBRANCH  44  47
ENDBRANCH  26  40
BRANCH  27  51
ATOM     51  C   UNL A   1      38.543  30.571  30.849  1.00  0.00     0.023 A 
ATOM     52  C   UNL A   1      38.333  30.278  32.209  1.00  0.00     0.012 A 
ATOM     53  C   UNL A   1      37.537  31.241  30.126  1.00  0.00     0.148 A 
ATOM     54  C   UNL A   1      37.132  30.617  32.831  1.00  0.00     0.002 A 
ATOM     55  C   UNL A   1      36.369  31.633  30.767  1.00  0.00     0.091 A 
ATOM     56  F   UNL A   1      37.755  31.505  28.830  1.00  0.00    -0.205 F 
ATOM     57  C   UNL A   1      36.156  31.304  32.114  1.00  0.00     0.022 A 
BRANCH  55  58
ATOM     58  S   UNL A   1      35.123  32.644  29.961  1.00  0.00     0.127 S 
ATOM     59  O   UNL A   1      34.220  32.943  31.068  1.00  0.00    -0.237 OA
ATOM     60  O   UNL A   1      35.916  33.779  29.487  1.00  0.00    -0.237 OA
ATOM     61  O   UNL A   1      34.569  31.815  28.899  1.00  0.00    -0.744 OA
ENDBRANCH  55  58
ENDBRANCH  27  51
BRANCH  39  62
ATOM     62  C   UNL A   1      44.469  34.040  29.645  1.00  0.00     0.023 A 
ATOM     63  C   UNL A   1      45.104  34.348  30.865  1.00  0.00     0.012 A 
ATOM     64  C   UNL A   1      44.276  35.057  28.690  1.00  0.00     0.148 A 
ATOM     65  C   UNL A   1      45.499  35.655  31.147  1.00  0.00     0.002 A 
ATOM     66  C   UNL A   1      44.723  36.344  28.954  1.00  0.00     0.091 A 
ATOM     67  F   UNL A   1      43.650  34.749  27.545  1.00  0.00    -0.205 F 
ATOM     68  C   UNL A   1      45.319  36.650  30.189  1.00  0.00     0.022 A 
BRANCH  66  69
ATOM     69  S   UNL A   1      44.624  37.663  27.739  1.00  0.00     0.127 S 
ATOM     70  O   UNL A   1      45.736  37.333  26.850  1.00  0.00    -0.237 OA
ATOM     71  O   UNL A   1      43.296  37.451  27.160  1.00  0.00    -0.237 OA
ATOM     72  O   UNL A   1      44.765  38.906  28.484  1.00  0.00    -0.744 OA
ENDBRANCH  66  69
ENDBRANCH  39  62
ENDBRANCH  13  14
ENDBRANCH   6   8
ENDBRANCH   3   4
ENDBRANCH   2   3
ENDBRANCH   1   2
BRANCH   1  73
ATOM     73  C   UNL A   1      35.299  24.246  25.443  1.00  0.00     0.116 C 
BRANCH  73  74
ATOM     74  N   UNL A   1      34.345  25.071  26.152  1.00  0.00    -0.352 N 
ATOM     75  C   UNL A   1      33.507  25.996  25.605  1.00  0.00     0.251 C 
ATOM     76  H   UNL A   1      34.295  24.952  27.128  1.00  0.00     0.163 HD
ATOM     77  O   UNL A   1      32.920  26.821  26.301  1.00  0.00    -0.269 OA
BRANCH  75  78
ATOM     78  C   UNL A   1      33.335  26.016  24.139  1.00  0.00     0.047 A 
ATOM     79  C   UNL A   1      33.656  27.227  23.499  1.00  0.00     0.014 A 
ATOM     80  C   UNL A   1      32.788  24.928  23.422  1.00  0.00    -0.005 A 
ATOM     81  C   UNL A   1      33.475  27.366  22.127  1.00  0.00     0.001 A 
ATOM     82  C   UNL A   1      32.663  25.093  22.021  1.00  0.00     0.009 A 
ATOM     83  C   UNL A   1      32.989  26.296  21.386  1.00  0.00     0.001 A 
BRANCH  80  84
ATOM     84  C   UNL A   1      32.340  23.641  24.023  1.00  0.00    -0.005 A 
ATOM     85  C   UNL A   1      32.932  22.480  23.438  1.00  0.00     0.009 A 
ATOM     86  C   UNL A   1      31.450  23.444  25.113  1.00  0.00     0.047 A 
ATOM     87  C   UNL A   1      32.723  21.189  23.921  1.00  0.00     0.001 A 
ATOM     88  C   UNL A   1      31.269  22.113  25.585  1.00  0.00     0.014 A 
ATOM     89  C   UNL A   1      31.897  21.006  25.010  1.00  0.00     0.001 A 
BRANCH  86  90
ATOM     90  C   UNL A   1      30.645  24.430  25.934  1.00  0.00     0.251 C 
ATOM     91  O   UNL A   1      30.689  24.332  27.166  1.00  0.00    -0.269 OA
ATOM     92  N   UNL A   1      29.774  25.376  25.448  1.00  0.00    -0.352 N 
ATOM     93  H   UNL A   1      29.163  25.765  26.115  1.00  0.00     0.163 HD
BRANCH  92  94
ATOM     94  C   UNL A   1      29.620  25.882  24.113  1.00  0.00     0.121 C 
BRANCH  94  95
ATOM     95  C   UNL A   1      28.375  26.686  23.780  1.00  0.00     0.057 C 
BRANCH  95  96
ATOM     96  C   UNL A   1      28.692  28.011  23.142  1.00  0.00    -0.046 A 
ATOM     97  C   UNL A   1      27.684  28.969  22.940  1.00  0.00     0.004 A 
ATOM     98  C   UNL A   1      29.991  28.281  22.703  1.00  0.00     0.004 A 
ATOM     99  C   UNL A   1      27.979  30.184  22.324  1.00  0.00     0.000 A 
ATOM    100  C   UNL A   1      30.283  29.496  22.085  1.00  0.00     0.000 A 
ATOM    101  C   UNL A   1      29.280  30.447  21.898  1.00  0.00     0.000 A 
ENDBRANCH  95  96
ENDBRANCH  94  95
ENDBRANCH  92  94
ENDBRANCH  86  90
ENDBRANCH  80  84
ENDBRANCH  75  78
ENDBRANCH  73  74
ENDBRANCH   1  73
TORSDOF 19
ENDMDL
MODEL 3
REMARK VINA RESULT:     -11.7      6.195     11.288
REMARK SMILES O=C(NCCCCNC(=O)c1ccccc1-c1ccccc1C(=O)NCCc1ccccc1)c1ccc(-c2c3nc(c(-c4cccc(S(=O)(=O)[O-])c4F)c4ccc([nH]4)c(-c4cccc(S(=O)(=O)[O-])c4F)c4nc(c(-c5cccc(S(=O)(=O)[O-])c5F)c5ccc2[nH]5)C=C4)C=C3)cc1
REMARK SMILES IDX 6 1 5 2 4 3 3 4 1 5 2 6 34 8 35 9 96 10 36 11 95 12 37 13
REMARK SMILES IDX 38 14 39 15 89 16 40 17 94 18 88 19 90 20 41 21 93 22 87 23
REMARK SMILES IDX 86 24 42 26 74 27 54 28 73 29 55 30 58 31 72 32 91 33 56 34
REMARK SMILES IDX 57 35 71 37 92 38 59 39 43 40 44 41 52 42 45 43 47 44 53 45
REMARK SMILES IDX 46 46 48 47 49 48 50 49 51 50 75 51 76 52 84 53 77 54 79 55
REMARK SMILES IDX 85 56 78 57 80 58 81 59 82 60 83 61 60 62 61 63 69 64 62 65
REMARK SMILES IDX 64 66 70 67 63 68 65 69 66 70 67 71 68 72 7 73 8 74 9 75
REMARK SMILES IDX 10 77 11 78 12 79 16 80 13 81 15 82 14 83 17 84 18 85 22 86
REMARK SMILES IDX 19 87 21 88 20 89 23 90 24 91 25 92 26 94 27 95 28 96 29 97
REMARK SMILES IDX 33 98 30 99 32 100 31 101
REMARK H PARENT 3 7 90 25 58 36 8 76 25 93
REMARK Flexibility Score: inf
ROOT
ATOM      1  C   UNL A   1      31.712  31.087  26.407  1.00  0.00     0.023 C 
ENDROOT
BRANCH   1   2
ATOM      2  C   UNL A   1      32.635  31.428  27.568  1.00  0.00     0.023 C 
BRANCH   2   3
ATOM      3  C   UNL A   1      33.575  32.594  27.292  1.00  0.00     0.116 C 
BRANCH   3   4
ATOM      4  N   UNL A   1      32.994  33.889  27.647  1.00  0.00    -0.352 N 
ATOM      5  O   UNL A   1      32.570  35.671  28.978  1.00  0.00    -0.269 OA
ATOM      6  C   UNL A   1      33.249  34.673  28.745  1.00  0.00     0.251 C 
ATOM      7  H   UNL A   1      32.333  34.247  27.011  1.00  0.00     0.163 HD
BRANCH   6   8
ATOM      8  C   UNL A   1      34.334  34.254  29.644  1.00  0.00     0.039 A 
ATOM      9  C   UNL A   1      35.650  34.526  29.271  1.00  0.00     0.014 A 
ATOM     10  C   UNL A   1      34.047  33.460  30.754  1.00  0.00     0.014 A 
ATOM     11  C   UNL A   1      36.674  33.815  29.870  1.00  0.00     0.010 A 
ATOM     12  C   UNL A   1      35.099  32.857  31.445  1.00  0.00     0.010 A 
ATOM     13  C   UNL A   1      36.416  32.983  30.974  1.00  0.00    -0.014 A 
BRANCH  13  14
ATOM     14  C   UNL A   1      37.560  32.312  31.640  1.00  0.00     0.031 A 
ATOM     15  C   UNL A   1      38.362  31.242  30.950  1.00  0.00     0.074 A 
ATOM     16  C   UNL A   1      37.885  32.710  32.886  1.00  0.00     0.049 A 
ATOM     17  N   UNL A   1      39.407  30.590  31.392  1.00  0.00    -0.248 NA
ATOM     18  C   UNL A   1      37.937  30.837  29.600  1.00  0.00     0.031 C 
ATOM     19  C   UNL A   1      37.156  33.718  33.662  1.00  0.00     0.029 A 
ATOM     20  N   UNL A   1      38.911  32.336  33.712  1.00  0.00    -0.354 N 
ATOM     21  C   UNL A   1      39.729  29.662  30.409  1.00  0.00     0.074 A 
ATOM     22  C   UNL A   1      38.768  29.835  29.340  1.00  0.00     0.031 C 
ATOM     23  C   UNL A   1      37.787  33.923  34.824  1.00  0.00     0.029 A 
ATOM     24  C   UNL A   1      38.913  33.004  34.913  1.00  0.00     0.049 A 
ATOM     25  H   UNL A   1      39.579  31.656  33.471  1.00  0.00     0.167 HD
ATOM     26  C   UNL A   1      40.736  28.754  30.398  1.00  0.00     0.034 A 
ATOM     27  C   UNL A   1      39.718  32.880  35.983  1.00  0.00     0.034 A 
ATOM     28  C   UNL A   1      41.711  28.621  31.450  1.00  0.00     0.049 A 
ATOM     29  C   UNL A   1      40.835  31.883  35.928  1.00  0.00     0.074 A 
ATOM     30  C   UNL A   1      42.812  27.786  31.502  1.00  0.00     0.029 A 
ATOM     31  N   UNL A   1      41.696  29.333  32.641  1.00  0.00    -0.354 N 
ATOM     32  N   UNL A   1      41.189  31.095  34.942  1.00  0.00    -0.248 NA
ATOM     33  C   UNL A   1      41.679  31.775  37.124  1.00  0.00     0.031 C 
ATOM     34  C   UNL A   1      43.440  27.963  32.739  1.00  0.00     0.029 A 
ATOM     35  C   UNL A   1      42.756  28.942  33.442  1.00  0.00     0.049 A 
ATOM     36  H   UNL A   1      41.029  30.015  32.883  1.00  0.00     0.167 HD
ATOM     37  C   UNL A   1      42.319  30.421  35.384  1.00  0.00     0.074 A 
ATOM     38  C   UNL A   1      42.602  30.914  36.718  1.00  0.00     0.031 C 
ATOM     39  C   UNL A   1      43.050  29.472  34.750  1.00  0.00     0.034 A 
BRANCH  26  40
ATOM     40  C   UNL A   1      40.848  27.833  29.208  1.00  0.00     0.023 A 
ATOM     41  C   UNL A   1      40.083  26.651  29.151  1.00  0.00     0.012 A 
ATOM     42  C   UNL A   1      41.666  28.176  28.111  1.00  0.00     0.148 A 
ATOM     43  C   UNL A   1      40.155  25.809  28.041  1.00  0.00     0.002 A 
ATOM     44  C   UNL A   1      41.698  27.356  26.989  1.00  0.00     0.091 A 
ATOM     45  F   UNL A   1      42.403  29.293  28.188  1.00  0.00    -0.205 F 
ATOM     46  C   UNL A   1      40.954  26.165  26.957  1.00  0.00     0.022 A 
BRANCH  44  47
ATOM     47  S   UNL A   1      42.630  27.772  25.510  1.00  0.00     0.127 S 
ATOM     48  O   UNL A   1      42.417  26.584  24.684  1.00  0.00    -0.237 OA
ATOM     49  O   UNL A   1      41.939  28.973  25.039  1.00  0.00    -0.237 OA
ATOM     50  O   UNL A   1      44.000  27.993  25.947  1.00  0.00    -0.744 OA
ENDBRANCH  44  47
ENDBRANCH  26  40
BRANCH  27  51
ATOM     51  C   UNL A   1      39.508  33.750  37.172  1.00  0.00     0.023 A 
ATOM     52  C   UNL A   1      39.944  35.087  37.138  1.00  0.00     0.012 A 
ATOM     53  C   UNL A   1      38.837  33.274  38.316  1.00  0.00     0.148 A 
ATOM     54  C   UNL A   1      39.746  35.927  38.233  1.00  0.00     0.002 A 
ATOM     55  C   UNL A   1      38.587  34.132  39.378  1.00  0.00     0.091 A 
ATOM     56  F   UNL A   1      38.435  31.995  38.330  1.00  0.00    -0.205 F 
ATOM     57  C   UNL A   1      39.058  35.453  39.347  1.00  0.00     0.022 A 
BRANCH  55  58
ATOM     58  S   UNL A   1      37.587  33.648  40.788  1.00  0.00     0.127 S 
ATOM     59  O   UNL A   1      36.414  33.069  40.139  1.00  0.00    -0.237 OA
ATOM     60  O   UNL A   1      38.459  32.685  41.461  1.00  0.00    -0.237 OA
ATOM     61  O   UNL A   1      37.352  34.872  41.543  1.00  0.00    -0.744 OA
ENDBRANCH  55  58
ENDBRANCH  27  51
BRANCH  39  62
ATOM     62  C   UNL A   1      44.258  28.938  35.472  1.00  0.00     0.023 A 
ATOM     63  C   UNL A   1      45.524  29.519  35.259  1.00  0.00     0.012 A 
ATOM     64  C   UNL A   1      44.128  27.884  36.397  1.00  0.00     0.148 A 
ATOM     65  C   UNL A   1      46.649  29.028  35.921  1.00  0.00     0.002 A 
ATOM     66  C   UNL A   1      45.242  27.438  37.095  1.00  0.00     0.091 A 
ATOM     67  F   UNL A   1      42.919  27.330  36.570  1.00  0.00    -0.205 F 
ATOM     68  C   UNL A   1      46.506  27.997  36.847  1.00  0.00     0.022 A 
BRANCH  66  69
ATOM     69  S   UNL A   1      45.133  26.186  38.378  1.00  0.00     0.127 S 
ATOM     70  O   UNL A   1      46.541  25.872  38.609  1.00  0.00    -0.237 OA
ATOM     71  O   UNL A   1      44.483  26.915  39.468  1.00  0.00    -0.237 OA
ATOM     72  O   UNL A   1      44.334  25.105  37.816  1.00  0.00    -0.744 OA
ENDBRANCH  66  69
ENDBRANCH  39  62
ENDBRANCH  13  14
ENDBRANCH   6   8
ENDBRANCH   3   4
ENDBRANCH   2   3
ENDBRANCH   1   2
BRANCH   1  73
ATOM     73  C   UNL A   1      31.935  29.692  25.855  1.00  0.00     0.116 C 
BRANCH  73  74
ATOM     74  N   UNL A   1      32.505  29.734  24.526  1.00  0.00    -0.352 N 
ATOM     75  C   UNL A   1      32.275  28.851  23.514  1.00  0.00     0.251 C 
ATOM     76  H   UNL A   1      33.123  30.477  24.332  1.00  0.00     0.163 HD
ATOM     77  O   UNL A   1      32.990  28.818  22.516  1.00  0.00    -0.269 OA
BRANCH  75  78
ATOM     78  C   UNL A   1      31.157  27.897  23.650  1.00  0.00     0.047 A 
ATOM     79  C   UNL A   1      29.870  28.424  23.438  1.00  0.00     0.014 A 
ATOM     80  C   UNL A   1      31.344  26.559  24.063  1.00  0.00    -0.005 A 
ATOM     81  C   UNL A   1      28.747  27.619  23.597  1.00  0.00     0.001 A 
ATOM     82  C   UNL A   1      30.180  25.760  24.169  1.00  0.00     0.009 A 
ATOM     83  C   UNL A   1      28.901  26.284  23.951  1.00  0.00     0.001 A 
BRANCH  80  84
ATOM     84  C   UNL A   1      32.658  25.937  24.393  1.00  0.00    -0.005 A 
ATOM     85  C   UNL A   1      33.202  26.344  25.649  1.00  0.00     0.009 A 
ATOM     86  C   UNL A   1      33.389  24.978  23.641  1.00  0.00     0.047 A 
ATOM     87  C   UNL A   1      34.370  25.803  26.187  1.00  0.00     0.001 A 
ATOM     88  C   UNL A   1      34.570  24.441  24.228  1.00  0.00     0.014 A 
ATOM     89  C   UNL A   1      35.050  24.836  25.478  1.00  0.00     0.001 A 
BRANCH  86  90
ATOM     90  C   UNL A   1      33.119  24.357  22.286  1.00  0.00     0.251 C 
ATOM     91  O   UNL A   1      33.624  24.891  21.293  1.00  0.00    -0.269 OA
ATOM     92  N   UNL A   1      32.273  23.304  22.025  1.00  0.00    -0.352 N 
ATOM     93  H   UNL A   1      32.034  23.185  21.077  1.00  0.00     0.163 HD
BRANCH  92  94
ATOM     94  C   UNL A   1      31.686  22.353  22.927  1.00  0.00     0.121 C 
BRANCH  94  95
ATOM     95  C   UNL A   1      32.597  21.370  23.640  1.00  0.00     0.057 C 
BRANCH  95  96
ATOM     96  C   UNL A   1      32.777  21.696  25.097  1.00  0.00    -0.046 A 
ATOM     97  C   UNL A   1      31.854  22.520  25.765  1.00  0.00     0.004 A 
ATOM     98  C   UNL A   1      33.891  21.216  25.788  1.00  0.00     0.004 A 
ATOM     99  C   UNL A   1      32.041  22.841  27.109  1.00  0.00     0.000 A 
ATOM    100  C   UNL A   1      34.076  21.540  27.131  1.00  0.00     0.000 A 
ATOM    101  C   UNL A   1      33.151  22.349  27.791  1.00  0.00     0.000 A 
ENDBRANCH  95  96
ENDBRANCH  94  95
ENDBRANCH  92  94
ENDBRANCH  86  90
ENDBRANCH  80  84
ENDBRANCH  75  78
ENDBRANCH  73  74
ENDBRANCH   1  73
TORSDOF 19
ENDMDL
