MODEL 1
REMARK VINA RESULT:     -13.3      0.000      0.000
REMARK SMILES CC[C@@H](C)[C@@H](NC(=O)Cn1nc(-c2ccc3ccccc3c2)ccc1=O)C(=O)NCCCCNC(=O)c1ccc(-c2c3nc(c(-c4cccc(S(=O)(=O)[O-])c4F)c4ccc([nH]4)c(-c4cccc(S(=O)(=O)[O-])c4F)c4nc(c(-c5cccc(S(=O)(=O)[O-])c5F)c5ccc2[nH]5)C=C4)C=C3)cc1
REMARK SMILES IDX 31 1 30 2 29 3 27 4 28 5 5 7 3 8 4 9 2 10 1 11 6 12 7 13
REMARK SMILES IDX 8 15 9 16 10 17 11 18 25 19 12 20 24 21 26 22 23 23 13 24
REMARK SMILES IDX 14 25 22 26 15 27 21 28 16 29 20 30 17 31 19 32 18 33 32 34
REMARK SMILES IDX 33 35 34 36 35 37 36 39 37 40 38 41 99 42 39 43 98 44 40 45
REMARK SMILES IDX 41 46 42 47 92 48 43 49 97 50 91 51 93 52 44 53 96 54 90 55
REMARK SMILES IDX 89 56 45 58 77 59 57 60 76 61 58 62 61 63 75 64 94 65 59 66
REMARK SMILES IDX 60 67 74 69 95 70 62 71 46 72 47 73 55 74 48 75 50 76 56 77
REMARK SMILES IDX 49 78 51 79 52 80 53 81 54 82 78 83 79 84 87 85 80 86 82 87
REMARK SMILES IDX 88 88 81 89 83 90 84 91 85 92 86 93 63 94 64 95 72 96 65 97
REMARK SMILES IDX 67 98 73 99 66 100 68 101 69 102 70 103 71 104
REMARK H PARENT 29 6 6 14 34 38 93 57 61 68
REMARK Flexibility Score: inf
ROOT
ATOM      1  C   UNL A   1      38.245  22.620  25.751  1.00  0.00     0.023 C 
ENDROOT
BRANCH   1   2
ATOM      2  C   UNL A   1      36.547  22.807  25.669  1.00  0.00     0.116 C 
BRANCH   2   3
ATOM      3  N   UNL A   1      35.042  22.538  27.084  1.00  0.00    -0.354 N 
ATOM      4  C   UNL A   1      33.584  22.457  27.247  1.00  0.00     0.242 C 
ATOM      5  O   UNL A   1      33.243  22.294  28.434  1.00  0.00    -0.273 OA
ATOM      6  H   UNL A   1      35.462  22.423  27.966  1.00  0.00     0.163 HD
BRANCH   4   7
ATOM      7  C   UNL A   1      32.372  22.583  26.098  1.00  0.00     0.174 C 
BRANCH   7   8
ATOM      8  C   UNL A   1      32.311  21.482  24.960  1.00  0.00     0.018 C 
ATOM      9  C   UNL A   1      32.765  20.124  25.510  1.00  0.00     0.010 C 
BRANCH   8  10
ATOM     10  C   UNL A   1      33.011  21.790  23.608  1.00  0.00     0.002 C 
ATOM     11  C   UNL A   1      32.085  21.552  22.408  1.00  0.00     0.004 C 
ENDBRANCH   8  10
ENDBRANCH   7   8
BRANCH   7  12
ATOM     12  N   UNL A   1      31.031  23.115  26.402  1.00  0.00    -0.342 N 
ATOM     13  C   UNL A   1      30.543  24.378  26.315  1.00  0.00     0.242 C 
ATOM     14  H   UNL A   1      30.384  22.445  26.719  1.00  0.00     0.164 HD
ATOM     15  O   UNL A   1      29.447  24.631  26.818  1.00  0.00    -0.273 OA
BRANCH  13  16
ATOM     16  C   UNL A   1      31.190  25.300  25.345  1.00  0.00     0.248 C 
BRANCH  16  17
ATOM     17  N   UNL A   1      30.934  26.695  25.518  1.00  0.00    -0.220 N 
ATOM     18  N   UNL A   1      31.813  27.838  26.743  1.00  0.00    -0.169 NA
ATOM     19  C   UNL A   1      30.219  27.375  24.028  1.00  0.00     0.267 A 
ATOM     20  C   UNL A   1      31.981  29.372  26.342  1.00  0.00     0.091 A 
ATOM     21  C   UNL A   1      30.291  29.283  23.873  1.00  0.00     0.075 A 
ATOM     22  O   UNL A   1      29.695  26.691  23.153  1.00  0.00    -0.268 OA
ATOM     23  C   UNL A   1      31.048  30.125  24.822  1.00  0.00     0.036 A 
BRANCH  20  24
ATOM     24  C   UNL A   1      33.013  30.351  26.816  1.00  0.00     0.003 A 
ATOM     25  C   UNL A   1      34.291  29.827  27.078  1.00  0.00     0.011 A 
ATOM     26  C   UNL A   1      32.735  31.673  27.143  1.00  0.00     0.019 A 
ATOM     27  C   UNL A   1      35.295  30.616  27.630  1.00  0.00     0.009 A 
ATOM     28  C   UNL A   1      33.718  32.456  27.787  1.00  0.00    -0.018 A 
ATOM     29  C   UNL A   1      35.016  31.927  28.005  1.00  0.00    -0.018 A 
ATOM     30  C   UNL A   1      33.433  33.739  28.277  1.00  0.00     0.009 A 
ATOM     31  C   UNL A   1      35.998  32.700  28.639  1.00  0.00     0.009 A 
ATOM     32  C   UNL A   1      34.406  34.481  28.955  1.00  0.00     0.001 A 
ATOM     33  C   UNL A   1      35.692  33.971  29.117  1.00  0.00     0.001 A 
ENDBRANCH  20  24
ENDBRANCH  16  17
ENDBRANCH  13  16
ENDBRANCH   7  12
ENDBRANCH   4   7
ENDBRANCH   2   3
ENDBRANCH   1   2
BRANCH   1  34
ATOM     34  C   UNL A   1      38.801  21.206  25.610  1.00  0.00     0.023 C 
BRANCH  34  35
ATOM     35  C   UNL A   1      39.891  20.827  26.587  1.00  0.00     0.116 C 
BRANCH  35  36
ATOM     36  N   UNL A   1      40.548  19.564  26.297  1.00  0.00    -0.352 N 
ATOM     37  C   UNL A   1      41.908  19.432  26.081  1.00  0.00     0.251 C 
ATOM     38  H   UNL A   1      39.992  18.753  26.253  1.00  0.00     0.163 HD
ATOM     39  O   UNL A   1      42.415  18.379  25.722  1.00  0.00    -0.269 OA
BRANCH  37  40
ATOM     40  C   UNL A   1      42.703  20.661  26.279  1.00  0.00     0.039 A 
ATOM     41  C   UNL A   1      42.841  21.148  27.583  1.00  0.00     0.014 A 
ATOM     42  C   UNL A   1      43.006  21.458  25.174  1.00  0.00     0.014 A 
ATOM     43  C   UNL A   1      43.149  22.489  27.773  1.00  0.00     0.010 A 
ATOM     44  C   UNL A   1      43.419  22.776  25.381  1.00  0.00     0.010 A 
ATOM     45  C   UNL A   1      43.463  23.313  26.678  1.00  0.00    -0.014 A 
BRANCH  45  46
ATOM     46  C   UNL A   1      43.913  24.713  26.907  1.00  0.00     0.031 A 
ATOM     47  C   UNL A   1      45.332  25.145  26.645  1.00  0.00     0.074 A 
ATOM     48  C   UNL A   1      43.021  25.595  27.401  1.00  0.00     0.049 A 
ATOM     49  N   UNL A   1      45.895  26.299  26.898  1.00  0.00    -0.248 NA
ATOM     50  C   UNL A   1      46.240  24.164  26.025  1.00  0.00     0.031 C 
ATOM     51  C   UNL A   1      41.619  25.296  27.709  1.00  0.00     0.029 A 
ATOM     52  N   UNL A   1      43.159  26.916  27.743  1.00  0.00    -0.354 N 
ATOM     53  C   UNL A   1      47.226  26.172  26.520  1.00  0.00     0.074 A 
ATOM     54  C   UNL A   1      47.391  24.827  26.011  1.00  0.00     0.031 C 
ATOM     55  C   UNL A   1      41.021  26.401  28.166  1.00  0.00     0.029 A 
ATOM     56  C   UNL A   1      42.011  27.465  28.263  1.00  0.00     0.049 A 
ATOM     57  H   UNL A   1      43.996  27.421  27.627  1.00  0.00     0.167 HD
ATOM     58  C   UNL A   1      48.215  27.096  26.585  1.00  0.00     0.034 A 
ATOM     59  C   UNL A   1      41.776  28.677  28.797  1.00  0.00     0.034 A 
ATOM     60  C   UNL A   1      48.036  28.442  27.058  1.00  0.00     0.049 A 
ATOM     61  C   UNL A   1      42.893  29.670  28.877  1.00  0.00     0.074 A 
ATOM     62  C   UNL A   1      48.973  29.461  27.111  1.00  0.00     0.029 A 
ATOM     63  N   UNL A   1      46.854  28.959  27.561  1.00  0.00    -0.354 N 
ATOM     64  N   UNL A   1      44.128  29.547  28.458  1.00  0.00    -0.248 NA
ATOM     65  C   UNL A   1      42.587  30.970  29.488  1.00  0.00     0.031 C 
ATOM     66  C   UNL A   1      48.362  30.587  27.670  1.00  0.00     0.029 A 
ATOM     67  C   UNL A   1      47.038  30.279  27.936  1.00  0.00     0.049 A 
ATOM     68  H   UNL A   1      46.007  28.462  27.641  1.00  0.00     0.167 HD
ATOM     69  C   UNL A   1      44.743  30.761  28.734  1.00  0.00     0.074 A 
ATOM     70  C   UNL A   1      43.741  31.609  29.346  1.00  0.00     0.031 C 
ATOM     71  C   UNL A   1      46.025  31.129  28.505  1.00  0.00     0.034 A 
BRANCH  58  72
ATOM     72  C   UNL A   1      49.589  26.714  26.102  1.00  0.00     0.023 A 
ATOM     73  C   UNL A   1      50.376  25.840  26.877  1.00  0.00     0.012 A 
ATOM     74  C   UNL A   1      50.041  27.111  24.827  1.00  0.00     0.148 A 
ATOM     75  C   UNL A   1      51.598  25.371  26.393  1.00  0.00     0.002 A 
ATOM     76  C   UNL A   1      51.246  26.617  24.340  1.00  0.00     0.091 A 
ATOM     77  F   UNL A   1      49.275  27.944  24.109  1.00  0.00    -0.205 F 
ATOM     78  C   UNL A   1      52.026  25.749  25.123  1.00  0.00     0.022 A 
BRANCH  76  79
ATOM     79  S   UNL A   1      51.872  27.005  22.702  1.00  0.00     0.127 S 
ATOM     80  O   UNL A   1      50.704  26.722  21.868  1.00  0.00    -0.237 OA
ATOM     81  O   UNL A   1      52.202  28.423  22.828  1.00  0.00    -0.237 OA
ATOM     82  O   UNL A   1      53.011  26.125  22.485  1.00  0.00    -0.744 OA
ENDBRANCH  76  79
ENDBRANCH  58  72
BRANCH  59  83
ATOM     83  C   UNL A   1      40.405  29.006  29.266  1.00  0.00     0.023 A 
ATOM     84  C   UNL A   1      39.445  29.425  28.327  1.00  0.00     0.012 A 
ATOM     85  C   UNL A   1      40.026  28.811  30.608  1.00  0.00     0.148 A 
ATOM     86  C   UNL A   1      38.125  29.651  28.719  1.00  0.00     0.002 A 
ATOM     87  C   UNL A   1      38.703  29.002  30.985  1.00  0.00     0.091 A 
ATOM     88  F   UNL A   1      40.960  28.399  31.476  1.00  0.00    -0.205 F 
ATOM     89  C   UNL A   1      37.753  29.429  30.043  1.00  0.00     0.022 A 
BRANCH  87  90
ATOM     90  S   UNL A   1      38.106  28.660  32.644  1.00  0.00     0.127 S 
ATOM     91  O   UNL A   1      39.033  29.443  33.459  1.00  0.00    -0.237 OA
ATOM     92  O   UNL A   1      36.743  29.188  32.583  1.00  0.00    -0.237 OA
ATOM     93  O   UNL A   1      38.196  27.218  32.811  1.00  0.00    -0.744 OA
ENDBRANCH  87  90
ENDBRANCH  59  83
BRANCH  71  94
ATOM     94  C   UNL A   1      46.439  32.522  28.887  1.00  0.00     0.023 A 
ATOM     95  C   UNL A   1      47.088  32.742  30.115  1.00  0.00     0.012 A 
ATOM     96  C   UNL A   1      46.303  33.580  27.967  1.00  0.00     0.148 A 
ATOM     97  C   UNL A   1      47.596  34.003  30.426  1.00  0.00     0.002 A 
ATOM     98  C   UNL A   1      46.841  34.824  28.270  1.00  0.00     0.091 A 
ATOM     99  F   UNL A   1      45.675  33.340  26.807  1.00  0.00    -0.205 F 
ATOM    100  C   UNL A   1      47.485  35.038  29.499  1.00  0.00     0.022 A 
BRANCH  98 101
ATOM    101  S   UNL A   1      46.805  36.201  27.117  1.00  0.00     0.127 S 
ATOM    102  O   UNL A   1      47.468  35.625  25.946  1.00  0.00    -0.237 OA
ATOM    103  O   UNL A   1      45.370  36.430  26.955  1.00  0.00    -0.237 OA
ATOM    104  O   UNL A   1      47.530  37.289  27.759  1.00  0.00    -0.744 OA
ENDBRANCH  98 101
ENDBRANCH  71  94
ENDBRANCH  45  46
ENDBRANCH  37  40
ENDBRANCH  35  36
ENDBRANCH  34  35
ENDBRANCH   1  34
TORSDOF 20
ENDMDL
MODEL 2
REMARK VINA RESULT:     -13.1      5.042      9.545
REMARK SMILES CC[C@@H](C)[C@@H](NC(=O)Cn1nc(-c2ccc3ccccc3c2)ccc1=O)C(=O)NCCCCNC(=O)c1ccc(-c2c3nc(c(-c4cccc(S(=O)(=O)[O-])c4F)c4ccc([nH]4)c(-c4cccc(S(=O)(=O)[O-])c4F)c4nc(c(-c5cccc(S(=O)(=O)[O-])c5F)c5ccc2[nH]5)C=C4)C=C3)cc1
REMARK SMILES IDX 31 1 30 2 29 3 27 4 28 5 5 7 3 8 4 9 2 10 1 11 6 12 7 13
REMARK SMILES IDX 8 15 9 16 10 17 11 18 25 19 12 20 24 21 26 22 23 23 13 24
REMARK SMILES IDX 14 25 22 26 15 27 21 28 16 29 20 30 17 31 19 32 18 33 32 34
REMARK SMILES IDX 33 35 34 36 35 37 36 39 37 40 38 41 99 42 39 43 98 44 40 45
REMARK SMILES IDX 41 46 42 47 92 48 43 49 97 50 91 51 93 52 44 53 96 54 90 55
REMARK SMILES IDX 89 56 45 58 77 59 57 60 76 61 58 62 61 63 75 64 94 65 59 66
REMARK SMILES IDX 60 67 74 69 95 70 62 71 46 72 47 73 55 74 48 75 50 76 56 77
REMARK SMILES IDX 49 78 51 79 52 80 53 81 54 82 78 83 79 84 87 85 80 86 82 87
REMARK SMILES IDX 88 88 81 89 83 90 84 91 85 92 86 93 63 94 64 95 72 96 65 97
REMARK SMILES IDX 67 98 73 99 66 100 68 101 69 102 70 103 71 104
REMARK H PARENT 29 6 6 14 34 38 93 57 61 68
REMARK Flexibility Score: inf
ROOT
ATOM      1  C   UNL A   1      32.997  27.571  25.661  1.00  0.00     0.023 C 
ENDROOT
BRANCH   1   2
ATOM      2  C   UNL A   1      33.888  26.113  25.734  1.00  0.00     0.116 C 
BRANCH   2   3
ATOM      3  N   UNL A   1      34.677  24.882  24.251  1.00  0.00    -0.354 N 
ATOM      4  C   UNL A   1      35.363  23.601  24.029  1.00  0.00     0.242 C 
ATOM      5  O   UNL A   1      35.619  23.397  22.827  1.00  0.00    -0.273 OA
ATOM      6  H   UNL A   1      34.539  25.318  23.379  1.00  0.00     0.163 HD
BRANCH   4   7
ATOM      7  C   UNL A   1      35.851  22.445  25.137  1.00  0.00     0.174 C 
BRANCH   7   8
ATOM      8  C   UNL A   1      37.289  21.804  24.957  1.00  0.00     0.018 C 
ATOM      9  C   UNL A   1      37.199  20.274  25.029  1.00  0.00     0.010 C 
BRANCH   8  10
ATOM     10  C   UNL A   1      38.442  22.331  25.853  1.00  0.00     0.002 C 
ATOM     11  C   UNL A   1      38.348  23.843  26.090  1.00  0.00     0.004 C 
ENDBRANCH   8  10
ENDBRANCH   7   8
BRANCH   7  12
ATOM     12  N   UNL A   1      35.452  22.476  26.556  1.00  0.00    -0.342 N 
ATOM     13  C   UNL A   1      34.348  21.983  27.172  1.00  0.00     0.242 C 
ATOM     14  H   UNL A   1      36.089  22.927  27.154  1.00  0.00     0.164 HD
ATOM     15  O   UNL A   1      34.121  22.305  28.340  1.00  0.00    -0.273 OA
BRANCH  13  16
ATOM     16  C   UNL A   1      33.656  20.835  26.529  1.00  0.00     0.248 C 
BRANCH  16  17
ATOM     17  N   UNL A   1      32.697  21.151  25.517  1.00  0.00    -0.220 N 
ATOM     18  N   UNL A   1      31.821  22.815  25.303  1.00  0.00    -0.169 NA
ATOM     19  C   UNL A   1      32.924  20.080  24.103  1.00  0.00     0.267 A 
ATOM     20  C   UNL A   1      31.409  23.255  23.826  1.00  0.00     0.091 A 
ATOM     21  C   UNL A   1      32.108  20.676  22.476  1.00  0.00     0.075 A 
ATOM     22  O   UNL A   1      33.541  19.020  24.148  1.00  0.00    -0.268 OA
ATOM     23  C   UNL A   1      31.495  22.013  22.343  1.00  0.00     0.036 A 
BRANCH  20  24
ATOM     24  C   UNL A   1      31.193  24.639  23.294  1.00  0.00     0.003 A 
ATOM     25  C   UNL A   1      32.260  25.199  22.570  1.00  0.00     0.011 A 
ATOM     26  C   UNL A   1      30.088  25.424  23.602  1.00  0.00     0.019 A 
ATOM     27  C   UNL A   1      32.218  26.517  22.126  1.00  0.00     0.009 A 
ATOM     28  C   UNL A   1      30.075  26.788  23.235  1.00  0.00    -0.018 A 
ATOM     29  C   UNL A   1      31.138  27.327  22.467  1.00  0.00    -0.018 A 
ATOM     30  C   UNL A   1      29.057  27.655  23.660  1.00  0.00     0.009 A 
ATOM     31  C   UNL A   1      31.130  28.678  22.097  1.00  0.00     0.009 A 
ATOM     32  C   UNL A   1      29.086  29.013  23.327  1.00  0.00     0.001 A 
ATOM     33  C   UNL A   1      30.109  29.520  22.529  1.00  0.00     0.001 A 
ENDBRANCH  20  24
ENDBRANCH  16  17
ENDBRANCH  13  16
ENDBRANCH   7  12
ENDBRANCH   4   7
ENDBRANCH   2   3
ENDBRANCH   1   2
BRANCH   1  34
ATOM     34  C   UNL A   1      33.073  28.499  26.870  1.00  0.00     0.023 C 
BRANCH  34  35
ATOM     35  C   UNL A   1      34.237  29.464  26.887  1.00  0.00     0.116 C 
BRANCH  35  36
ATOM     36  N   UNL A   1      34.030  30.644  27.708  1.00  0.00    -0.352 N 
ATOM     37  C   UNL A   1      34.896  31.054  28.706  1.00  0.00     0.251 C 
ATOM     38  H   UNL A   1      33.225  31.186  27.544  1.00  0.00     0.163 HD
ATOM     39  O   UNL A   1      34.637  31.981  29.459  1.00  0.00    -0.269 OA
BRANCH  37  40
ATOM     40  C   UNL A   1      36.143  30.269  28.823  1.00  0.00     0.039 A 
ATOM     41  C   UNL A   1      36.272  29.406  29.917  1.00  0.00     0.014 A 
ATOM     42  C   UNL A   1      37.250  30.638  28.058  1.00  0.00     0.014 A 
ATOM     43  C   UNL A   1      37.543  29.026  30.329  1.00  0.00     0.010 A 
ATOM     44  C   UNL A   1      38.512  30.162  28.418  1.00  0.00     0.010 A 
ATOM     45  C   UNL A   1      38.676  29.379  29.574  1.00  0.00    -0.014 A 
BRANCH  45  46
ATOM     46  C   UNL A   1      40.016  28.860  29.957  1.00  0.00     0.031 A 
ATOM     47  C   UNL A   1      40.847  29.517  31.028  1.00  0.00     0.074 A 
ATOM     48  C   UNL A   1      40.500  27.794  29.289  1.00  0.00     0.049 A 
ATOM     49  N   UNL A   1      42.074  29.243  31.394  1.00  0.00    -0.248 NA
ATOM     50  C   UNL A   1      40.235  30.623  31.785  1.00  0.00     0.031 C 
ATOM     51  C   UNL A   1      39.797  27.076  28.221  1.00  0.00     0.029 A 
ATOM     52  N   UNL A   1      41.697  27.134  29.395  1.00  0.00    -0.354 N 
ATOM     53  C   UNL A   1      42.399  30.166  32.380  1.00  0.00     0.074 A 
ATOM     54  C   UNL A   1      41.238  31.010  32.565  1.00  0.00     0.031 C 
ATOM     55  C   UNL A   1      40.559  26.064  27.792  1.00  0.00     0.029 A 
ATOM     56  C   UNL A   1      41.835  26.108  28.491  1.00  0.00     0.049 A 
ATOM     57  H   UNL A   1      42.389  27.372  30.054  1.00  0.00     0.167 HD
ATOM     58  C   UNL A   1      43.558  30.291  33.071  1.00  0.00     0.034 A 
ATOM     59  C   UNL A   1      42.881  25.307  28.217  1.00  0.00     0.034 A 
ATOM     60  C   UNL A   1      44.696  29.426  32.909  1.00  0.00     0.049 A 
ATOM     61  C   UNL A   1      44.156  25.483  28.981  1.00  0.00     0.074 A 
ATOM     62  C   UNL A   1      45.893  29.450  33.604  1.00  0.00     0.029 A 
ATOM     63  N   UNL A   1      44.785  28.392  31.992  1.00  0.00    -0.354 N 
ATOM     64  N   UNL A   1      44.419  26.324  29.950  1.00  0.00    -0.248 NA
ATOM     65  C   UNL A   1      45.273  24.597  28.627  1.00  0.00     0.031 C 
ATOM     66  C   UNL A   1      46.716  28.444  33.090  1.00  0.00     0.029 A 
ATOM     67  C   UNL A   1      46.020  27.776  32.096  1.00  0.00     0.049 A 
ATOM     68  H   UNL A   1      44.077  28.133  31.359  1.00  0.00     0.167 HD
ATOM     69  C   UNL A   1      45.725  26.055  30.339  1.00  0.00     0.074 A 
ATOM     70  C   UNL A   1      46.195  24.965  29.508  1.00  0.00     0.031 C 
ATOM     71  C   UNL A   1      46.464  26.666  31.294  1.00  0.00     0.034 A 
BRANCH  58  72
ATOM     72  C   UNL A   1      43.664  31.380  34.106  1.00  0.00     0.023 A 
ATOM     73  C   UNL A   1      44.111  32.659  33.720  1.00  0.00     0.012 A 
ATOM     74  C   UNL A   1      43.197  31.174  35.420  1.00  0.00     0.148 A 
ATOM     75  C   UNL A   1      44.099  33.717  34.629  1.00  0.00     0.002 A 
ATOM     76  C   UNL A   1      43.161  32.240  36.312  1.00  0.00     0.091 A 
ATOM     77  F   UNL A   1      42.777  29.948  35.764  1.00  0.00    -0.205 F 
ATOM     78  C   UNL A   1      43.614  33.511  35.918  1.00  0.00     0.022 A 
BRANCH  76  79
ATOM     79  S   UNL A   1      42.516  32.097  37.982  1.00  0.00     0.127 S 
ATOM     80  O   UNL A   1      42.799  33.427  38.520  1.00  0.00    -0.237 OA
ATOM     81  O   UNL A   1      41.101  31.823  37.743  1.00  0.00    -0.237 OA
ATOM     82  O   UNL A   1      43.255  31.010  38.609  1.00  0.00    -0.744 OA
ENDBRANCH  76  79
ENDBRANCH  58  72
BRANCH  59  83
ATOM     83  C   UNL A   1      42.730  24.251  27.183  1.00  0.00     0.023 A 
ATOM     84  C   UNL A   1      43.195  24.501  25.880  1.00  0.00     0.012 A 
ATOM     85  C   UNL A   1      42.224  22.978  27.509  1.00  0.00     0.148 A 
ATOM     86  C   UNL A   1      43.153  23.498  24.911  1.00  0.00     0.002 A 
ATOM     87  C   UNL A   1      42.219  21.973  26.551  1.00  0.00     0.091 A 
ATOM     88  F   UNL A   1      41.801  22.767  28.763  1.00  0.00    -0.205 F 
ATOM     89  C   UNL A   1      42.677  22.234  25.248  1.00  0.00     0.022 A 
BRANCH  87  90
ATOM     90  S   UNL A   1      41.707  20.290  26.910  1.00  0.00     0.127 S 
ATOM     91  O   UNL A   1      42.788  19.830  27.779  1.00  0.00    -0.237 OA
ATOM     92  O   UNL A   1      40.426  20.506  27.583  1.00  0.00    -0.237 OA
ATOM     93  O   UNL A   1      41.614  19.617  25.623  1.00  0.00    -0.744 OA
ENDBRANCH  87  90
ENDBRANCH  59  83
BRANCH  71  94
ATOM     94  C   UNL A   1      47.861  26.167  31.533  1.00  0.00     0.023 A 
ATOM     95  C   UNL A   1      48.927  26.701  30.786  1.00  0.00     0.012 A 
ATOM     96  C   UNL A   1      48.126  25.272  32.588  1.00  0.00     0.148 A 
ATOM     97  C   UNL A   1      50.242  26.347  31.084  1.00  0.00     0.002 A 
ATOM     98  C   UNL A   1      49.440  24.951  32.901  1.00  0.00     0.091 A 
ATOM     99  F   UNL A   1      47.089  24.776  33.279  1.00  0.00    -0.205 F 
ATOM    100  C   UNL A   1      50.499  25.485  32.149  1.00  0.00     0.022 A 
BRANCH  98 101
ATOM    101  S   UNL A   1      49.875  23.901  34.292  1.00  0.00     0.127 S 
ATOM    102  O   UNL A   1      50.062  22.605  33.639  1.00  0.00    -0.237 OA
ATOM    103  O   UNL A   1      51.106  24.524  34.775  1.00  0.00    -0.237 OA
ATOM    104  O   UNL A   1      48.753  23.966  35.217  1.00  0.00    -0.744 OA
ENDBRANCH  98 101
ENDBRANCH  71  94
ENDBRANCH  45  46
ENDBRANCH  37  40
ENDBRANCH  35  36
ENDBRANCH  34  35
ENDBRANCH   1  34
TORSDOF 20
ENDMDL
MODEL 3
REMARK VINA RESULT:     -12.7      4.695      8.569
REMARK SMILES CC[C@@H](C)[C@@H](NC(=O)Cn1nc(-c2ccc3ccccc3c2)ccc1=O)C(=O)NCCCCNC(=O)c1ccc(-c2c3nc(c(-c4cccc(S(=O)(=O)[O-])c4F)c4ccc([nH]4)c(-c4cccc(S(=O)(=O)[O-])c4F)c4nc(c(-c5cccc(S(=O)(=O)[O-])c5F)c5ccc2[nH]5)C=C4)C=C3)cc1
REMARK SMILES IDX 31 1 30 2 29 3 27 4 28 5 5 7 3 8 4 9 2 10 1 11 6 12 7 13
REMARK SMILES IDX 8 15 9 16 10 17 11 18 25 19 12 20 24 21 26 22 23 23 13 24
REMARK SMILES IDX 14 25 22 26 15 27 21 28 16 29 20 30 17 31 19 32 18 33 32 34
REMARK SMILES IDX 33 35 34 36 35 37 36 39 37 40 38 41 99 42 39 43 98 44 40 45
REMARK SMILES IDX 41 46 42 47 92 48 43 49 97 50 91 51 93 52 44 53 96 54 90 55
REMARK SMILES IDX 89 56 45 58 77 59 57 60 76 61 58 62 61 63 75 64 94 65 59 66
REMARK SMILES IDX 60 67 74 69 95 70 62 71 46 72 47 73 55 74 48 75 50 76 56 77
REMARK SMILES IDX 49 78 51 79 52 80 53 81 54 82 78 83 79 84 87 85 80 86 82 87
REMARK SMILES IDX 88 88 81 89 83 90 84 91 85 92 86 93 63 94 64 95 72 96 65 97
REMARK SMILES IDX 67 98 73 99 66 100 68 101 69 102 70 103 71 104
REMARK H PARENT 29 6 6 14 34 38 93 57 61 68
REMARK Flexibility Score: inf
ROOT
ATOM      1  C   UNL A   1      33.428  28.440  25.930  1.00  0.00     0.023 C 
ENDROOT
BRANCH   1   2
ATOM      2  C   UNL A   1      33.784  26.773  26.068  1.00  0.00     0.116 C 
BRANCH   2   3
ATOM      3  N   UNL A   1      34.426  25.361  24.678  1.00  0.00    -0.354 N 
ATOM      4  C   UNL A   1      35.039  24.032  24.550  1.00  0.00     0.242 C 
ATOM      5  O   UNL A   1      35.214  23.697  23.364  1.00  0.00    -0.273 OA
ATOM      6  H   UNL A   1      34.257  25.715  23.775  1.00  0.00     0.163 HD
BRANCH   4   7
ATOM      7  C   UNL A   1      35.540  22.968  25.743  1.00  0.00     0.174 C 
BRANCH   7   8
ATOM      8  C   UNL A   1      37.057  22.511  25.742  1.00  0.00     0.018 C 
ATOM      9  C   UNL A   1      37.976  23.724  25.929  1.00  0.00     0.010 C 
BRANCH   8  10
ATOM     10  C   UNL A   1      37.551  21.622  24.568  1.00  0.00     0.002 C 
ATOM     11  C   UNL A   1      37.342  20.128  24.845  1.00  0.00     0.004 C 
ENDBRANCH   8  10
ENDBRANCH   7   8
BRANCH   7  12
ATOM     12  N   UNL A   1      34.983  22.975  27.108  1.00  0.00    -0.342 N 
ATOM     13  C   UNL A   1      33.806  22.494  27.583  1.00  0.00     0.242 C 
ATOM     14  H   UNL A   1      35.558  23.396  27.786  1.00  0.00     0.164 HD
ATOM     15  O   UNL A   1      33.455  22.793  28.725  1.00  0.00    -0.273 OA
BRANCH  13  16
ATOM     16  C   UNL A   1      33.167  21.379  26.835  1.00  0.00     0.248 C 
BRANCH  16  17
ATOM     17  N   UNL A   1      32.288  21.744  25.768  1.00  0.00    -0.220 N 
ATOM     18  N   UNL A   1      31.123  23.236  25.755  1.00  0.00    -0.169 NA
ATOM     19  C   UNL A   1      32.890  21.076  24.223  1.00  0.00     0.267 A 
ATOM     20  C   UNL A   1      30.805  23.920  24.350  1.00  0.00     0.091 A 
ATOM     21  C   UNL A   1      32.165  21.874  22.640  1.00  0.00     0.075 A 
ATOM     22  O   UNL A   1      33.701  20.157  24.152  1.00  0.00    -0.268 OA
ATOM     23  C   UNL A   1      31.313  23.080  22.681  1.00  0.00     0.036 A 
BRANCH  20  24
ATOM     24  C   UNL A   1      30.375  25.329  24.077  1.00  0.00     0.003 A 
ATOM     25  C   UNL A   1      28.995  25.585  24.163  1.00  0.00     0.011 A 
ATOM     26  C   UNL A   1      31.227  26.323  23.610  1.00  0.00     0.019 A 
ATOM     27  C   UNL A   1      28.469  26.827  23.820  1.00  0.00     0.009 A 
ATOM     28  C   UNL A   1      30.693  27.556  23.174  1.00  0.00    -0.018 A 
ATOM     29  C   UNL A   1      29.305  27.815  23.309  1.00  0.00    -0.018 A 
ATOM     30  C   UNL A   1      31.492  28.526  22.550  1.00  0.00     0.009 A 
ATOM     31  C   UNL A   1      28.768  29.036  22.881  1.00  0.00     0.009 A 
ATOM     32  C   UNL A   1      30.935  29.720  22.082  1.00  0.00     0.001 A 
ATOM     33  C   UNL A   1      29.581  29.984  22.266  1.00  0.00     0.001 A 
ENDBRANCH  20  24
ENDBRANCH  16  17
ENDBRANCH  13  16
ENDBRANCH   7  12
ENDBRANCH   4   7
ENDBRANCH   2   3
ENDBRANCH   1   2
BRANCH   1  34
ATOM     34  C   UNL A   1      33.446  29.268  27.212  1.00  0.00     0.023 C 
BRANCH  34  35
ATOM     35  C   UNL A   1      34.268  30.535  27.166  1.00  0.00     0.116 C 
BRANCH  35  36
ATOM     36  N   UNL A   1      33.964  31.491  28.216  1.00  0.00    -0.352 N 
ATOM     37  C   UNL A   1      34.771  31.714  29.317  1.00  0.00     0.251 C 
ATOM     38  H   UNL A   1      33.132  32.012  28.140  1.00  0.00     0.163 HD
ATOM     39  O   UNL A   1      34.433  32.436  30.243  1.00  0.00    -0.269 OA
BRANCH  37  40
ATOM     40  C   UNL A   1      36.060  30.991  29.314  1.00  0.00     0.039 A 
ATOM     41  C   UNL A   1      36.144  29.802  30.045  1.00  0.00     0.014 A 
ATOM     42  C   UNL A   1      37.207  31.652  28.874  1.00  0.00     0.014 A 
ATOM     43  C   UNL A   1      37.392  29.352  30.460  1.00  0.00     0.010 A 
ATOM     44  C   UNL A   1      38.460  31.131  29.206  1.00  0.00     0.010 A 
ATOM     45  C   UNL A   1      38.565  29.996  30.027  1.00  0.00    -0.014 A 
BRANCH  45  46
ATOM     46  C   UNL A   1      39.895  29.429  30.375  1.00  0.00     0.031 A 
ATOM     47  C   UNL A   1      40.516  28.313  29.577  1.00  0.00     0.074 A 
ATOM     48  C   UNL A   1      40.529  29.914  31.462  1.00  0.00     0.049 A 
ATOM     49  N   UNL A   1      41.616  27.646  29.823  1.00  0.00    -0.248 NA
ATOM     50  C   UNL A   1      39.822  27.881  28.352  1.00  0.00     0.031 C 
ATOM     51  C   UNL A   1      40.025  30.986  32.325  1.00  0.00     0.029 A 
ATOM     52  N   UNL A   1      41.724  29.564  32.035  1.00  0.00    -0.354 N 
ATOM     53  C   UNL A   1      41.721  26.689  28.822  1.00  0.00     0.074 A 
ATOM     54  C   UNL A   1      40.576  26.862  27.954  1.00  0.00     0.031 C 
ATOM     55  C   UNL A   1      40.912  31.226  33.297  1.00  0.00     0.029 A 
ATOM     56  C   UNL A   1      42.007  30.273  33.179  1.00  0.00     0.049 A 
ATOM     57  H   UNL A   1      42.321  28.874  31.665  1.00  0.00     0.167 HD
ATOM     58  C   UNL A   1      42.690  25.759  28.640  1.00  0.00     0.034 A 
ATOM     59  C   UNL A   1      43.012  30.154  34.065  1.00  0.00     0.034 A 
ATOM     60  C   UNL A   1      43.845  25.617  29.484  1.00  0.00     0.049 A 
ATOM     61  C   UNL A   1      44.055  29.102  33.851  1.00  0.00     0.074 A 
ATOM     62  C   UNL A   1      44.902  24.733  29.344  1.00  0.00     0.029 A 
ATOM     63  N   UNL A   1      44.097  26.365  30.622  1.00  0.00    -0.354 N 
ATOM     64  N   UNL A   1      44.165  28.249  32.864  1.00  0.00    -0.248 NA
ATOM     65  C   UNL A   1      45.118  29.002  34.861  1.00  0.00     0.031 C 
ATOM     66  C   UNL A   1      45.781  24.931  30.412  1.00  0.00     0.029 A 
ATOM     67  C   UNL A   1      45.287  25.958  31.200  1.00  0.00     0.049 A 
ATOM     68  H   UNL A   1      43.516  27.080  30.970  1.00  0.00     0.167 HD
ATOM     69  C   UNL A   1      45.322  27.523  33.120  1.00  0.00     0.074 A 
ATOM     70  C   UNL A   1      45.882  28.046  34.349  1.00  0.00     0.031 C 
ATOM     71  C   UNL A   1      45.859  26.511  32.399  1.00  0.00     0.034 A 
BRANCH  58  72
ATOM     72  C   UNL A   1      42.581  24.829  27.460  1.00  0.00     0.023 A 
ATOM     73  C   UNL A   1      43.096  25.232  26.213  1.00  0.00     0.012 A 
ATOM     74  C   UNL A   1      42.096  23.515  27.620  1.00  0.00     0.148 A 
ATOM     75  C   UNL A   1      43.123  24.344  25.137  1.00  0.00     0.002 A 
ATOM     76  C   UNL A   1      42.153  22.627  26.552  1.00  0.00     0.091 A 
ATOM     77  F   UNL A   1      41.611  23.155  28.817  1.00  0.00    -0.205 F 
ATOM     78  C   UNL A   1      42.663  23.041  25.310  1.00  0.00     0.022 A 
BRANCH  76  79
ATOM     79  S   UNL A   1      41.627  20.913  26.677  1.00  0.00     0.127 S 
ATOM     80  O   UNL A   1      40.173  21.058  26.747  1.00  0.00    -0.237 OA
ATOM     81  O   UNL A   1      42.124  20.348  25.423  1.00  0.00    -0.237 OA
ATOM     82  O   UNL A   1      42.253  20.385  27.881  1.00  0.00    -0.744 OA
ENDBRANCH  76  79
ENDBRANCH  58  72
BRANCH  59  83
ATOM     83  C   UNL A   1      43.073  31.091  35.216  1.00  0.00     0.023 A 
ATOM     84  C   UNL A   1      42.496  30.707  36.440  1.00  0.00     0.012 A 
ATOM     85  C   UNL A   1      43.782  32.306  35.132  1.00  0.00     0.148 A 
ATOM     86  C   UNL A   1      42.617  31.523  37.565  1.00  0.00     0.002 A 
ATOM     87  C   UNL A   1      43.930  33.096  36.265  1.00  0.00     0.091 A 
ATOM     88  F   UNL A   1      44.331  32.637  33.957  1.00  0.00    -0.205 F 
ATOM     89  C   UNL A   1      43.342  32.709  37.480  1.00  0.00     0.022 A 
BRANCH  87  90
ATOM     90  S   UNL A   1      44.917  34.596  36.280  1.00  0.00     0.127 S 
ATOM     91  O   UNL A   1      46.244  34.081  35.947  1.00  0.00    -0.237 OA
ATOM     92  O   UNL A   1      44.279  35.382  35.224  1.00  0.00    -0.237 OA
ATOM     93  O   UNL A   1      44.781  35.149  37.619  1.00  0.00    -0.744 OA
ENDBRANCH  87  90
ENDBRANCH  59  83
BRANCH  71  94
ATOM     94  C   UNL A   1      47.140  25.899  32.890  1.00  0.00     0.023 A 
ATOM     95  C   UNL A   1      47.098  24.878  33.856  1.00  0.00     0.012 A 
ATOM     96  C   UNL A   1      48.368  26.246  32.291  1.00  0.00     0.148 A 
ATOM     97  C   UNL A   1      48.265  24.209  34.224  1.00  0.00     0.002 A 
ATOM     98  C   UNL A   1      49.520  25.552  32.639  1.00  0.00     0.091 A 
ATOM     99  F   UNL A   1      48.377  27.227  31.377  1.00  0.00    -0.205 F 
ATOM    100  C   UNL A   1      49.471  24.536  33.606  1.00  0.00     0.022 A 
BRANCH  98 101
ATOM    101  S   UNL A   1      51.106  25.856  31.854  1.00  0.00     0.127 S 
ATOM    102  O   UNL A   1      51.328  27.268  32.168  1.00  0.00    -0.237 OA
ATOM    103  O   UNL A   1      51.985  24.927  32.564  1.00  0.00    -0.237 OA
ATOM    104  O   UNL A   1      50.923  25.564  30.439  1.00  0.00    -0.744 OA
ENDBRANCH  98 101
ENDBRANCH  71  94
ENDBRANCH  45  46
ENDBRANCH  37  40
ENDBRANCH  35  36
ENDBRANCH  34  35
ENDBRANCH   1  34
TORSDOF 20
ENDMDL
