MODEL 1
REMARK VINA RESULT:      -9.6      0.000      0.000
REMARK SMILES CCOC(=O)c1cccc(NC(=O)CCC(=O)NCCCCNC(=O)c2ccc(-c3c4nc(c(-c5cccc(S(=O)(=O)[O-])c5F)c5ccc([nH]5)c(-c5cccc(S(=O)(=O)[O-])c5F)c5nc(c(-c6cccc(S(=O)(=O)[O-])c6F)c6ccc3[nH]6)C=C5)C=C4)cc2)c1
REMARK SMILES IDX 19 1 18 2 16 3 17 4 15 6 14 7 12 8 11 9 13 11 10 12 6 13
REMARK SMILES IDX 7 14 89 15 8 16 9 17 4 18 5 19 3 20 2 21 1 22 20 23 21 24
REMARK SMILES IDX 22 25 23 26 24 27 25 29 26 30 27 31 88 32 28 33 87 34 29 35
REMARK SMILES IDX 30 36 31 37 81 38 32 39 86 40 80 41 82 42 33 43 85 44 79 45
REMARK SMILES IDX 78 46 34 48 66 49 46 50 65 51 47 52 50 53 64 54 83 55 48 56
REMARK SMILES IDX 49 57 63 59 84 60 51 61 35 62 36 63 44 64 37 65 39 66 45 67
REMARK SMILES IDX 38 68 40 69 41 70 42 71 43 72 67 73 68 74 76 75 69 76 71 77
REMARK SMILES IDX 77 78 70 79 72 80 73 81 74 82 75 83 52 84 53 85 61 86 54 87
REMARK SMILES IDX 56 88 62 89 55 90 57 91 58 92 59 93 60 94
REMARK H PARENT 18 5 11 10 23 28 82 47 50 58
REMARK Flexibility Score: inf
ROOT
ATOM      1  C   UNL A   1      38.299  34.374  29.195  1.00  0.00     0.116 C 
ENDROOT
BRANCH   1   2
ATOM      2  N   UNL A   1      39.623  33.963  29.627  1.00  0.00    -0.356 N 
ATOM      3  C   UNL A   1      40.178  33.980  30.870  1.00  0.00     0.220 C 
ATOM      4  O   UNL A   1      41.256  33.415  31.053  1.00  0.00    -0.275 OA
ATOM      5  H   UNL A   1      40.208  33.620  28.914  1.00  0.00     0.163 HD
BRANCH   3   6
ATOM      6  C   UNL A   1      39.481  34.687  32.006  1.00  0.00     0.110 C 
BRANCH   6   7
ATOM      7  C   UNL A   1      39.838  34.160  33.391  1.00  0.00     0.110 C 
BRANCH   7   8
ATOM      8  C   UNL A   1      38.966  34.658  34.525  1.00  0.00     0.224 C 
ATOM      9  N   UNL A   1      37.606  34.537  34.549  1.00  0.00    -0.326 N 
ATOM     10  H   UNL A   1      37.183  34.940  35.341  1.00  0.00     0.169 HD
ATOM     11  O   UNL A   1      39.511  35.131  35.530  1.00  0.00    -0.275 OA
BRANCH   9  12
ATOM     12  C   UNL A   1      36.696  33.946  33.656  1.00  0.00     0.042 A 
ATOM     13  C   UNL A   1      34.622  34.231  32.433  1.00  0.00     0.062 A 
ATOM     14  C   UNL A   1      34.558  32.855  32.212  1.00  0.00     0.016 A 
ATOM     15  C   UNL A   1      35.722  34.786  33.098  1.00  0.00     0.041 A 
ATOM     16  C   UNL A   1      35.605  32.041  32.632  1.00  0.00     0.003 A 
ATOM     17  C   UNL A   1      36.670  32.588  33.352  1.00  0.00     0.026 A 
BRANCH  13  18
ATOM     18  C   UNL A   1      33.432  35.040  32.100  1.00  0.00     0.338 C 
ATOM     19  O   UNL A   1      32.341  34.836  32.606  1.00  0.00    -0.246 OA
BRANCH  18  20
ATOM     20  O   UNL A   1      33.740  35.976  31.172  1.00  0.00    -0.462 OA
BRANCH  20  21
ATOM     21  C   UNL A   1      32.959  35.910  29.963  1.00  0.00     0.230 C 
ATOM     22  C   UNL A   1      33.716  36.518  28.793  1.00  0.00     0.049 C 
ENDBRANCH  20  21
ENDBRANCH  18  20
ENDBRANCH  13  18
ENDBRANCH   9  12
ENDBRANCH   7   8
ENDBRANCH   6   7
ENDBRANCH   3   6
ENDBRANCH   1   2
BRANCH   1  23
ATOM     23  C   UNL A   1      37.266  33.251  29.246  1.00  0.00     0.023 C 
BRANCH  23  24
ATOM     24  C   UNL A   1      36.026  33.481  28.388  1.00  0.00     0.023 C 
BRANCH  24  25
ATOM     25  C   UNL A   1      34.738  32.944  28.984  1.00  0.00     0.116 C 
BRANCH  25  26
ATOM     26  N   UNL A   1      34.088  31.985  28.106  1.00  0.00    -0.352 N 
ATOM     27  C   UNL A   1      34.552  30.804  27.588  1.00  0.00     0.251 C 
ATOM     28  H   UNL A   1      33.169  32.222  27.841  1.00  0.00     0.163 HD
ATOM     29  O   UNL A   1      33.923  30.258  26.684  1.00  0.00    -0.269 OA
BRANCH  27  30
ATOM     30  C   UNL A   1      35.797  30.190  28.103  1.00  0.00     0.039 A 
ATOM     31  C   UNL A   1      35.810  29.672  29.400  1.00  0.00     0.014 A 
ATOM     32  C   UNL A   1      36.963  30.165  27.335  1.00  0.00     0.014 A 
ATOM     33  C   UNL A   1      36.983  29.113  29.911  1.00  0.00     0.010 A 
ATOM     34  C   UNL A   1      38.088  29.496  27.795  1.00  0.00     0.010 A 
ATOM     35  C   UNL A   1      38.130  29.010  29.107  1.00  0.00    -0.014 A 
BRANCH  35  36
ATOM     36  C   UNL A   1      39.403  28.467  29.641  1.00  0.00     0.031 A 
ATOM     37  C   UNL A   1      40.013  29.064  30.886  1.00  0.00     0.074 A 
ATOM     38  C   UNL A   1      40.048  27.492  28.974  1.00  0.00     0.049 A 
ATOM     39  N   UNL A   1      41.123  28.741  31.497  1.00  0.00    -0.248 NA
ATOM     40  C   UNL A   1      39.308  30.203  31.500  1.00  0.00     0.031 C 
ATOM     41  C   UNL A   1      39.620  26.914  27.697  1.00  0.00     0.029 A 
ATOM     42  N   UNL A   1      41.209  26.825  29.268  1.00  0.00    -0.354 N 
ATOM     43  C   UNL A   1      41.275  29.668  32.524  1.00  0.00     0.074 A 
ATOM     44  C   UNL A   1      40.172  30.595  32.423  1.00  0.00     0.031 C 
ATOM     45  C   UNL A   1      40.498  25.967  27.328  1.00  0.00     0.029 A 
ATOM     46  C   UNL A   1      41.554  25.878  28.332  1.00  0.00     0.049 A 
ATOM     47  H   UNL A   1      41.746  27.008  30.072  1.00  0.00     0.167 HD
ATOM     48  C   UNL A   1      42.219  29.719  33.492  1.00  0.00     0.034 A 
ATOM     49  C   UNL A   1      42.594  25.023  28.300  1.00  0.00     0.034 A 
ATOM     50  C   UNL A   1      43.260  28.740  33.638  1.00  0.00     0.049 A 
ATOM     51  C   UNL A   1      43.552  25.005  29.461  1.00  0.00     0.074 A 
ATOM     52  C   UNL A   1      44.197  28.619  34.648  1.00  0.00     0.029 A 
ATOM     53  N   UNL A   1      43.494  27.704  32.748  1.00  0.00    -0.354 N 
ATOM     54  N   UNL A   1      43.573  25.774  30.524  1.00  0.00    -0.248 NA
ATOM     55  C   UNL A   1      44.594  23.971  29.446  1.00  0.00     0.031 C 
ATOM     56  C   UNL A   1      45.003  27.511  34.363  1.00  0.00     0.029 A 
ATOM     57  C   UNL A   1      44.557  26.934  33.184  1.00  0.00     0.049 A 
ATOM     58  H   UNL A   1      42.979  27.540  31.925  1.00  0.00     0.167 HD
ATOM     59  C   UNL A   1      44.610  25.298  31.318  1.00  0.00     0.074 A 
ATOM     60  C   UNL A   1      45.173  24.156  30.625  1.00  0.00     0.031 C 
ATOM     61  C   UNL A   1      45.068  25.771  32.504  1.00  0.00     0.034 A 
BRANCH  48  62
ATOM     62  C   UNL A   1      42.116  30.829  34.507  1.00  0.00     0.023 A 
ATOM     63  C   UNL A   1      41.355  30.633  35.680  1.00  0.00     0.012 A 
ATOM     64  C   UNL A   1      42.786  32.053  34.320  1.00  0.00     0.148 A 
ATOM     65  C   UNL A   1      41.220  31.653  36.622  1.00  0.00     0.002 A 
ATOM     66  C   UNL A   1      42.686  33.048  35.287  1.00  0.00     0.091 A 
ATOM     67  F   UNL A   1      43.486  32.235  33.191  1.00  0.00    -0.205 F 
ATOM     68  C   UNL A   1      41.893  32.855  36.430  1.00  0.00     0.022 A 
BRANCH  66  69
ATOM     69  S   UNL A   1      43.582  34.601  35.169  1.00  0.00     0.127 S 
ATOM     70  O   UNL A   1      44.963  34.161  35.358  1.00  0.00    -0.237 OA
ATOM     71  O   UNL A   1      43.264  35.039  33.809  1.00  0.00    -0.237 OA
ATOM     72  O   UNL A   1      43.041  35.453  36.219  1.00  0.00    -0.744 OA
ENDBRANCH  66  69
ENDBRANCH  48  62
BRANCH  49  73
ATOM     73  C   UNL A   1      42.705  24.043  27.184  1.00  0.00     0.023 A 
ATOM     74  C   UNL A   1      43.483  24.367  26.056  1.00  0.00     0.012 A 
ATOM     75  C   UNL A   1      42.103  22.772  27.262  1.00  0.00     0.148 A 
ATOM     76  C   UNL A   1      43.637  23.454  25.012  1.00  0.00     0.002 A 
ATOM     77  C   UNL A   1      42.307  21.847  26.245  1.00  0.00     0.091 A 
ATOM     78  F   UNL A   1      41.361  22.485  28.341  1.00  0.00    -0.205 F 
ATOM     79  C   UNL A   1      43.060  22.191  25.110  1.00  0.00     0.022 A 
BRANCH  77  80
ATOM     80  S   UNL A   1      41.722  20.152  26.358  1.00  0.00     0.127 S 
ATOM     81  O   UNL A   1      42.391  19.528  25.220  1.00  0.00    -0.237 OA
ATOM     82  O   UNL A   1      42.227  19.744  27.670  1.00  0.00    -0.237 OA
ATOM     83  O   UNL A   1      40.270  20.233  26.277  1.00  0.00    -0.744 OA
ENDBRANCH  77  80
ENDBRANCH  49  73
BRANCH  61  84
ATOM     84  C   UNL A   1      46.220  25.043  33.141  1.00  0.00     0.023 A 
ATOM     85  C   UNL A   1      47.536  25.505  32.936  1.00  0.00     0.012 A 
ATOM     86  C   UNL A   1      45.999  23.944  33.992  1.00  0.00     0.148 A 
ATOM     87  C   UNL A   1      48.615  24.859  33.537  1.00  0.00     0.002 A 
ATOM     88  C   UNL A   1      47.074  23.335  34.625  1.00  0.00     0.091 A 
ATOM     89  F   UNL A   1      44.742  23.504  34.159  1.00  0.00    -0.205 F 
ATOM     90  C   UNL A   1      48.384  23.783  34.390  1.00  0.00     0.022 A 
BRANCH  88  91
ATOM     91  S   UNL A   1      46.846  22.006  35.813  1.00  0.00     0.127 S 
ATOM     92  O   UNL A   1      46.369  20.921  34.958  1.00  0.00    -0.237 OA
ATOM     93  O   UNL A   1      48.197  21.817  36.341  1.00  0.00    -0.237 OA
ATOM     94  O   UNL A   1      45.889  22.514  36.787  1.00  0.00    -0.744 OA
ENDBRANCH  88  91
ENDBRANCH  61  84
ENDBRANCH  35  36
ENDBRANCH  27  30
ENDBRANCH  25  26
ENDBRANCH  24  25
ENDBRANCH  23  24
ENDBRANCH   1  23
TORSDOF 20
ENDMDL
MODEL 2
REMARK VINA RESULT:      -9.5      5.490     11.241
REMARK SMILES CCOC(=O)c1cccc(NC(=O)CCC(=O)NCCCCNC(=O)c2ccc(-c3c4nc(c(-c5cccc(S(=O)(=O)[O-])c5F)c5ccc([nH]5)c(-c5cccc(S(=O)(=O)[O-])c5F)c5nc(c(-c6cccc(S(=O)(=O)[O-])c6F)c6ccc3[nH]6)C=C5)C=C4)cc2)c1
REMARK SMILES IDX 19 1 18 2 16 3 17 4 15 6 14 7 12 8 11 9 13 11 10 12 6 13
REMARK SMILES IDX 7 14 89 15 8 16 9 17 4 18 5 19 3 20 2 21 1 22 20 23 21 24
REMARK SMILES IDX 22 25 23 26 24 27 25 29 26 30 27 31 88 32 28 33 87 34 29 35
REMARK SMILES IDX 30 36 31 37 81 38 32 39 86 40 80 41 82 42 33 43 85 44 79 45
REMARK SMILES IDX 78 46 34 48 66 49 46 50 65 51 47 52 50 53 64 54 83 55 48 56
REMARK SMILES IDX 49 57 63 59 84 60 51 61 35 62 36 63 44 64 37 65 39 66 45 67
REMARK SMILES IDX 38 68 40 69 41 70 42 71 43 72 67 73 68 74 76 75 69 76 71 77
REMARK SMILES IDX 77 78 70 79 72 80 73 81 74 82 75 83 52 84 53 85 61 86 54 87
REMARK SMILES IDX 56 88 62 89 55 90 57 91 58 92 59 93 60 94
REMARK H PARENT 18 5 11 10 23 28 82 47 50 58
REMARK Flexibility Score: inf
ROOT
ATOM      1  C   UNL A   1      34.663  21.672  24.480  1.00  0.00     0.116 C 
ENDROOT
BRANCH   1   2
ATOM      2  N   UNL A   1      34.342  23.014  24.929  1.00  0.00    -0.356 N 
ATOM      3  C   UNL A   1      33.349  23.441  25.758  1.00  0.00     0.220 C 
ATOM      4  O   UNL A   1      33.362  24.605  26.159  1.00  0.00    -0.275 OA
ATOM      5  H   UNL A   1      34.930  23.724  24.583  1.00  0.00     0.163 HD
BRANCH   3   6
ATOM      6  C   UNL A   1      32.246  22.500  26.174  1.00  0.00     0.110 C 
BRANCH   6   7
ATOM      7  C   UNL A   1      30.861  22.890  25.673  1.00  0.00     0.110 C 
BRANCH   7   8
ATOM      8  C   UNL A   1      29.990  23.628  26.669  1.00  0.00     0.224 C 
ATOM      9  N   UNL A   1      29.637  24.941  26.545  1.00  0.00    -0.326 N 
ATOM     10  H   UNL A   1      29.093  25.282  27.292  1.00  0.00     0.169 HD
ATOM     11  O   UNL A   1      29.496  22.994  27.611  1.00  0.00    -0.275 OA
BRANCH   9  12
ATOM     12  C   UNL A   1      29.904  25.900  25.553  1.00  0.00     0.042 A 
ATOM     13  C   UNL A   1      31.095  27.942  25.014  1.00  0.00     0.062 A 
ATOM     14  C   UNL A   1      30.281  28.126  23.895  1.00  0.00     0.016 A 
ATOM     15  C   UNL A   1      30.951  26.798  25.807  1.00  0.00     0.041 A 
ATOM     16  C   UNL A   1      29.345  27.154  23.557  1.00  0.00     0.003 A 
ATOM     17  C   UNL A   1      29.159  26.045  24.386  1.00  0.00     0.026 A 
BRANCH  13  18
ATOM     18  C   UNL A   1      31.975  29.057  25.419  1.00  0.00     0.338 C 
ATOM     19  O   UNL A   1      31.947  29.536  26.540  1.00  0.00    -0.246 OA
BRANCH  18  20
ATOM     20  O   UNL A   1      32.753  29.447  24.383  1.00  0.00    -0.462 OA
BRANCH  20  21
ATOM     21  C   UNL A   1      33.821  28.537  24.051  1.00  0.00     0.230 C 
ATOM     22  C   UNL A   1      33.989  28.423  22.545  1.00  0.00     0.049 C 
ENDBRANCH  20  21
ENDBRANCH  18  20
ENDBRANCH  13  18
ENDBRANCH   9  12
ENDBRANCH   7   8
ENDBRANCH   6   7
ENDBRANCH   3   6
ENDBRANCH   1   2
BRANCH   1  23
ATOM     23  C   UNL A   1      35.973  21.135  25.050  1.00  0.00     0.023 C 
BRANCH  23  24
ATOM     24  C   UNL A   1      36.643  22.038  26.080  1.00  0.00     0.023 C 
BRANCH  24  25
ATOM     25  C   UNL A   1      37.908  22.720  25.594  1.00  0.00     0.116 C 
BRANCH  25  26
ATOM     26  N   UNL A   1      39.088  21.899  25.807  1.00  0.00    -0.352 N 
ATOM     27  C   UNL A   1      40.348  22.251  26.220  1.00  0.00     0.251 C 
ATOM     28  H   UNL A   1      38.965  20.939  25.626  1.00  0.00     0.163 HD
ATOM     29  O   UNL A   1      41.262  21.437  26.117  1.00  0.00    -0.269 OA
BRANCH  27  30
ATOM     30  C   UNL A   1      40.610  23.596  26.781  1.00  0.00     0.039 A 
ATOM     31  C   UNL A   1      40.487  24.712  25.950  1.00  0.00     0.014 A 
ATOM     32  C   UNL A   1      41.021  23.759  28.106  1.00  0.00     0.014 A 
ATOM     33  C   UNL A   1      40.756  25.985  26.457  1.00  0.00     0.010 A 
ATOM     34  C   UNL A   1      41.163  25.032  28.641  1.00  0.00     0.010 A 
ATOM     35  C   UNL A   1      41.086  26.157  27.811  1.00  0.00    -0.014 A 
BRANCH  35  36
ATOM     36  C   UNL A   1      41.425  27.492  28.362  1.00  0.00     0.031 A 
ATOM     37  C   UNL A   1      42.870  27.906  28.497  1.00  0.00     0.074 A 
ATOM     38  C   UNL A   1      40.446  28.302  28.806  1.00  0.00     0.049 A 
ATOM     39  N   UNL A   1      43.369  29.019  28.968  1.00  0.00    -0.248 NA
ATOM     40  C   UNL A   1      43.891  26.923  28.093  1.00  0.00     0.031 C 
ATOM     41  C   UNL A   1      39.020  27.967  28.838  1.00  0.00     0.029 A 
ATOM     42  N   UNL A   1      40.502  29.566  29.333  1.00  0.00    -0.354 N 
ATOM     43  C   UNL A   1      44.749  28.846  28.969  1.00  0.00     0.074 A 
ATOM     44  C   UNL A   1      45.008  27.505  28.500  1.00  0.00     0.031 C 
ATOM     45  C   UNL A   1      38.336  29.009  29.340  1.00  0.00     0.029 A 
ATOM     46  C   UNL A   1      39.273  30.077  29.675  1.00  0.00     0.049 A 
ATOM     47  H   UNL A   1      41.344  30.062  29.455  1.00  0.00     0.167 HD
ATOM     48  C   UNL A   1      45.718  29.736  29.286  1.00  0.00     0.034 A 
ATOM     49  C   UNL A   1      38.939  31.279  30.184  1.00  0.00     0.034 A 
ATOM     50  C   UNL A   1      45.454  31.096  29.665  1.00  0.00     0.049 A 
ATOM     51  C   UNL A   1      40.023  32.301  30.396  1.00  0.00     0.074 A 
ATOM     52  C   UNL A   1      46.355  32.121  29.890  1.00  0.00     0.029 A 
ATOM     53  N   UNL A   1      44.188  31.624  29.863  1.00  0.00    -0.354 N 
ATOM     54  N   UNL A   1      41.317  32.179  30.215  1.00  0.00    -0.248 NA
ATOM     55  C   UNL A   1      39.599  33.639  30.829  1.00  0.00     0.031 C 
ATOM     56  C   UNL A   1      45.631  33.269  30.233  1.00  0.00     0.029 A 
ATOM     57  C   UNL A   1      44.280  32.961  30.205  1.00  0.00     0.049 A 
ATOM     58  H   UNL A   1      43.346  31.121  29.775  1.00  0.00     0.167 HD
ATOM     59  C   UNL A   1      41.858  33.432  30.482  1.00  0.00     0.074 A 
ATOM     60  C   UNL A   1      40.747  34.303  30.809  1.00  0.00     0.031 C 
ATOM     61  C   UNL A   1      43.157  33.823  30.477  1.00  0.00     0.034 A 
BRANCH  48  62
ATOM     62  C   UNL A   1      47.150  29.280  29.162  1.00  0.00     0.023 A 
ATOM     63  C   UNL A   1      47.774  28.636  30.252  1.00  0.00     0.012 A 
ATOM     64  C   UNL A   1      47.874  29.465  27.968  1.00  0.00     0.148 A 
ATOM     65  C   UNL A   1      49.106  28.230  30.175  1.00  0.00     0.002 A 
ATOM     66  C   UNL A   1      49.187  29.013  27.881  1.00  0.00     0.091 A 
ATOM     67  F   UNL A   1      47.278  30.100  26.948  1.00  0.00    -0.205 F 
ATOM     68  C   UNL A   1      49.808  28.410  28.987  1.00  0.00     0.022 A 
BRANCH  66  69
ATOM     69  S   UNL A   1      50.147  29.125  26.367  1.00  0.00     0.127 S 
ATOM     70  O   UNL A   1      49.263  28.466  25.407  1.00  0.00    -0.237 OA
ATOM     71  O   UNL A   1      50.271  30.573  26.186  1.00  0.00    -0.237 OA
ATOM     72  O   UNL A   1      51.403  28.443  26.642  1.00  0.00    -0.744 OA
ENDBRANCH  66  69
ENDBRANCH  48  62
BRANCH  49  73
ATOM     73  C   UNL A   1      37.504  31.607  30.413  1.00  0.00     0.023 A 
ATOM     74  C   UNL A   1      36.984  31.555  31.721  1.00  0.00     0.012 A 
ATOM     75  C   UNL A   1      36.673  32.032  29.359  1.00  0.00     0.148 A 
ATOM     76  C   UNL A   1      35.654  31.894  31.971  1.00  0.00     0.002 A 
ATOM     77  C   UNL A   1      35.365  32.422  29.623  1.00  0.00     0.091 A 
ATOM     78  F   UNL A   1      37.185  32.069  28.120  1.00  0.00    -0.205 F 
ATOM     79  C   UNL A   1      34.848  32.339  30.926  1.00  0.00     0.022 A 
BRANCH  77  80
ATOM     80  S   UNL A   1      34.305  33.144  28.365  1.00  0.00     0.127 S 
ATOM     81  O   UNL A   1      35.247  33.972  27.618  1.00  0.00    -0.237 OA
ATOM     82  O   UNL A   1      33.828  31.957  27.653  1.00  0.00    -0.237 OA
ATOM     83  O   UNL A   1      33.266  33.860  29.093  1.00  0.00    -0.744 OA
ENDBRANCH  77  80
ENDBRANCH  49  73
BRANCH  61  84
ATOM     84  C   UNL A   1      43.448  35.260  30.812  1.00  0.00     0.023 A 
ATOM     85  C   UNL A   1      43.769  35.616  32.137  1.00  0.00     0.012 A 
ATOM     86  C   UNL A   1      43.468  36.246  29.807  1.00  0.00     0.148 A 
ATOM     87  C   UNL A   1      44.066  36.938  32.463  1.00  0.00     0.002 A 
ATOM     88  C   UNL A   1      43.811  37.553  30.131  1.00  0.00     0.091 A 
ATOM     89  F   UNL A   1      43.139  35.894  28.554  1.00  0.00    -0.205 F 
ATOM     90  C   UNL A   1      44.099  37.904  31.460  1.00  0.00     0.022 A 
BRANCH  88  91
ATOM     91  S   UNL A   1      43.969  38.829  28.876  1.00  0.00     0.127 S 
ATOM     92  O   UNL A   1      42.584  38.990  28.438  1.00  0.00    -0.237 OA
ATOM     93  O   UNL A   1      44.503  39.958  29.637  1.00  0.00    -0.237 OA
ATOM     94  O   UNL A   1      44.889  38.289  27.884  1.00  0.00    -0.744 OA
ENDBRANCH  88  91
ENDBRANCH  61  84
ENDBRANCH  35  36
ENDBRANCH  27  30
ENDBRANCH  25  26
ENDBRANCH  24  25
ENDBRANCH  23  24
ENDBRANCH   1  23
TORSDOF 20
ENDMDL
MODEL 3
REMARK VINA RESULT:      -9.4      5.478     11.517
REMARK SMILES CCOC(=O)c1cccc(NC(=O)CCC(=O)NCCCCNC(=O)c2ccc(-c3c4nc(c(-c5cccc(S(=O)(=O)[O-])c5F)c5ccc([nH]5)c(-c5cccc(S(=O)(=O)[O-])c5F)c5nc(c(-c6cccc(S(=O)(=O)[O-])c6F)c6ccc3[nH]6)C=C5)C=C4)cc2)c1
REMARK SMILES IDX 19 1 18 2 16 3 17 4 15 6 14 7 12 8 11 9 13 11 10 12 6 13
REMARK SMILES IDX 7 14 89 15 8 16 9 17 4 18 5 19 3 20 2 21 1 22 20 23 21 24
REMARK SMILES IDX 22 25 23 26 24 27 25 29 26 30 27 31 88 32 28 33 87 34 29 35
REMARK SMILES IDX 30 36 31 37 81 38 32 39 86 40 80 41 82 42 33 43 85 44 79 45
REMARK SMILES IDX 78 46 34 48 66 49 46 50 65 51 47 52 50 53 64 54 83 55 48 56
REMARK SMILES IDX 49 57 63 59 84 60 51 61 35 62 36 63 44 64 37 65 39 66 45 67
REMARK SMILES IDX 38 68 40 69 41 70 42 71 43 72 67 73 68 74 76 75 69 76 71 77
REMARK SMILES IDX 77 78 70 79 72 80 73 81 74 82 75 83 52 84 53 85 61 86 54 87
REMARK SMILES IDX 56 88 62 89 55 90 57 91 58 92 59 93 60 94
REMARK H PARENT 18 5 11 10 23 28 82 47 50 58
REMARK Flexibility Score: inf
ROOT
ATOM      1  C   UNL A   1      34.568  21.112  24.467  1.00  0.00     0.116 C 
ENDROOT
BRANCH   1   2
ATOM      2  N   UNL A   1      33.274  20.831  25.060  1.00  0.00    -0.356 N 
ATOM      3  C   UNL A   1      32.150  21.598  25.102  1.00  0.00     0.220 C 
ATOM      4  O   UNL A   1      31.096  21.097  25.497  1.00  0.00    -0.275 OA
ATOM      5  H   UNL A   1      33.197  19.953  25.499  1.00  0.00     0.163 HD
BRANCH   3   6
ATOM      6  C   UNL A   1      32.196  23.043  24.673  1.00  0.00     0.110 C 
BRANCH   6   7
ATOM      7  C   UNL A   1      30.912  23.820  24.933  1.00  0.00     0.110 C 
BRANCH   7   8
ATOM      8  C   UNL A   1      30.803  24.467  26.299  1.00  0.00     0.224 C 
ATOM      9  N   UNL A   1      31.214  25.740  26.572  1.00  0.00    -0.326 N 
ATOM     10  H   UNL A   1      31.106  26.001  27.516  1.00  0.00     0.169 HD
ATOM     11  O   UNL A   1      30.239  23.845  27.208  1.00  0.00    -0.275 OA
BRANCH   9  12
ATOM     12  C   UNL A   1      31.764  26.749  25.763  1.00  0.00     0.042 A 
ATOM     13  C   UNL A   1      31.329  28.370  24.014  1.00  0.00     0.062 A 
ATOM     14  C   UNL A   1      32.700  28.500  23.787  1.00  0.00     0.016 A 
ATOM     15  C   UNL A   1      30.862  27.544  25.044  1.00  0.00     0.041 A 
ATOM     16  C   UNL A   1      33.600  27.826  24.606  1.00  0.00     0.003 A 
ATOM     17  C   UNL A   1      33.131  26.953  25.590  1.00  0.00     0.026 A 
BRANCH  13  18
ATOM     18  C   UNL A   1      30.406  28.986  23.039  1.00  0.00     0.338 C 
ATOM     19  O   UNL A   1      30.335  28.611  21.881  1.00  0.00    -0.246 OA
BRANCH  18  20
ATOM     20  O   UNL A   1      29.713  29.996  23.614  1.00  0.00    -0.462 OA
BRANCH  20  21
ATOM     21  C   UNL A   1      28.375  30.175  23.112  1.00  0.00     0.230 C 
ATOM     22  C   UNL A   1      27.797  31.505  23.569  1.00  0.00     0.049 C 
ENDBRANCH  20  21
ENDBRANCH  18  20
ENDBRANCH  13  18
ENDBRANCH   9  12
ENDBRANCH   7   8
ENDBRANCH   6   7
ENDBRANCH   3   6
ENDBRANCH   1   2
BRANCH   1  23
ATOM     23  C   UNL A   1      35.670  21.358  25.494  1.00  0.00     0.023 C 
BRANCH  23  24
ATOM     24  C   UNL A   1      35.861  22.818  25.894  1.00  0.00     0.023 C 
BRANCH  24  25
ATOM     25  C   UNL A   1      37.244  23.374  25.612  1.00  0.00     0.116 C 
BRANCH  25  26
ATOM     26  N   UNL A   1      38.296  22.486  26.079  1.00  0.00    -0.352 N 
ATOM     27  C   UNL A   1      39.524  22.775  26.616  1.00  0.00     0.251 C 
ATOM     28  H   UNL A   1      38.095  21.525  25.995  1.00  0.00     0.163 HD
ATOM     29  O   UNL A   1      40.353  21.875  26.734  1.00  0.00    -0.269 OA
BRANCH  27  30
ATOM     30  C   UNL A   1      39.855  24.152  27.047  1.00  0.00     0.039 A 
ATOM     31  C   UNL A   1      40.276  25.078  26.090  1.00  0.00     0.014 A 
ATOM     32  C   UNL A   1      39.797  24.522  28.392  1.00  0.00     0.014 A 
ATOM     33  C   UNL A   1      40.616  26.374  26.484  1.00  0.00     0.010 A 
ATOM     34  C   UNL A   1      40.011  25.842  28.763  1.00  0.00     0.010 A 
ATOM     35  C   UNL A   1      40.475  26.770  27.823  1.00  0.00    -0.014 A 
BRANCH  35  36
ATOM     36  C   UNL A   1      40.878  28.125  28.276  1.00  0.00     0.031 A 
ATOM     37  C   UNL A   1      42.333  28.525  28.254  1.00  0.00     0.074 A 
ATOM     38  C   UNL A   1      39.952  28.967  28.773  1.00  0.00     0.049 A 
ATOM     39  N   UNL A   1      42.884  29.652  28.623  1.00  0.00    -0.248 NA
ATOM     40  C   UNL A   1      43.301  27.511  27.802  1.00  0.00     0.031 C 
ATOM     41  C   UNL A   1      38.533  28.653  28.955  1.00  0.00     0.029 A 
ATOM     42  N   UNL A   1      40.070  30.253  29.232  1.00  0.00    -0.354 N 
ATOM     43  C   UNL A   1      44.256  29.461  28.501  1.00  0.00     0.074 A 
ATOM     44  C   UNL A   1      44.457  28.096  28.074  1.00  0.00     0.031 C 
ATOM     45  C   UNL A   1      37.909  29.726  29.470  1.00  0.00     0.029 A 
ATOM     46  C   UNL A   1      38.883  30.796  29.665  1.00  0.00     0.049 A 
ATOM     47  H   UNL A   1      40.924  30.743  29.250  1.00  0.00     0.167 HD
ATOM     48  C   UNL A   1      45.259  30.351  28.684  1.00  0.00     0.034 A 
ATOM     49  C   UNL A   1      38.610  32.024  30.146  1.00  0.00     0.034 A 
ATOM     50  C   UNL A   1      45.045  31.731  29.021  1.00  0.00     0.049 A 
ATOM     51  C   UNL A   1      39.719  33.040  30.206  1.00  0.00     0.074 A 
ATOM     52  C   UNL A   1      45.972  32.753  29.112  1.00  0.00     0.029 A 
ATOM     53  N   UNL A   1      43.808  32.284  29.314  1.00  0.00    -0.354 N 
ATOM     54  N   UNL A   1      40.988  32.893  29.909  1.00  0.00    -0.248 NA
ATOM     55  C   UNL A   1      39.350  34.402  30.614  1.00  0.00     0.031 C 
ATOM     56  C   UNL A   1      45.294  33.924  29.467  1.00  0.00     0.029 A 
ATOM     57  C   UNL A   1      43.944  33.634  29.582  1.00  0.00     0.049 A 
ATOM     58  H   UNL A   1      42.957  31.789  29.329  1.00  0.00     0.167 HD
ATOM     59  C   UNL A   1      41.564  34.149  30.065  1.00  0.00     0.074 A 
ATOM     60  C   UNL A   1      40.497  35.049  30.455  1.00  0.00     0.031 C 
ATOM     61  C   UNL A   1      42.860  34.522  29.918  1.00  0.00     0.034 A 
BRANCH  48  62
ATOM     62  C   UNL A   1      46.669  29.871  28.446  1.00  0.00     0.023 A 
ATOM     63  C   UNL A   1      47.260  30.045  27.176  1.00  0.00     0.012 A 
ATOM     64  C   UNL A   1      47.419  29.271  29.476  1.00  0.00     0.148 A 
ATOM     65  C   UNL A   1      48.551  29.586  26.920  1.00  0.00     0.002 A 
ATOM     66  C   UNL A   1      48.724  28.859  29.227  1.00  0.00     0.091 A 
ATOM     67  F   UNL A   1      46.837  29.090  30.671  1.00  0.00    -0.205 F 
ATOM     68  C   UNL A   1      49.285  29.002  27.948  1.00  0.00     0.022 A 
BRANCH  66  69
ATOM     69  S   UNL A   1      49.778  28.171  30.508  1.00  0.00     0.127 S 
ATOM     70  O   UNL A   1      48.938  28.320  31.695  1.00  0.00    -0.237 OA
ATOM     71  O   UNL A   1      49.954  26.789  30.056  1.00  0.00    -0.237 OA
ATOM     72  O   UNL A   1      50.996  28.969  30.492  1.00  0.00    -0.744 OA
ENDBRANCH  66  69
ENDBRANCH  48  62
BRANCH  49  73
ATOM     73  C   UNL A   1      37.207  32.382  30.494  1.00  0.00     0.023 A 
ATOM     74  C   UNL A   1      36.775  32.264  31.829  1.00  0.00     0.012 A 
ATOM     75  C   UNL A   1      36.321  32.897  29.528  1.00  0.00     0.148 A 
ATOM     76  C   UNL A   1      35.478  32.627  32.192  1.00  0.00     0.002 A 
ATOM     77  C   UNL A   1      35.049  33.310  29.907  1.00  0.00     0.091 A 
ATOM     78  F   UNL A   1      36.749  32.995  28.261  1.00  0.00    -0.205 F 
ATOM     79  C   UNL A   1      34.619  33.161  31.235  1.00  0.00     0.022 A 
BRANCH  77  80
ATOM     80  S   UNL A   1      33.932  34.142  28.772  1.00  0.00     0.127 S 
ATOM     81  O   UNL A   1      34.790  35.182  28.214  1.00  0.00    -0.237 OA
ATOM     82  O   UNL A   1      33.586  33.064  27.843  1.00  0.00    -0.237 OA
ATOM     83  O   UNL A   1      32.818  34.605  29.589  1.00  0.00    -0.744 OA
ENDBRANCH  77  80
ENDBRANCH  49  73
BRANCH  61  84
ATOM     84  C   UNL A   1      43.194  35.969  30.156  1.00  0.00     0.023 A 
ATOM     85  C   UNL A   1      43.694  36.372  31.411  1.00  0.00     0.012 A 
ATOM     86  C   UNL A   1      43.076  36.918  29.122  1.00  0.00     0.148 A 
ATOM     87  C   UNL A   1      44.033  37.704  31.643  1.00  0.00     0.002 A 
ATOM     88  C   UNL A   1      43.460  38.233  29.347  1.00  0.00     0.091 A 
ATOM     89  F   UNL A   1      42.578  36.522  27.940  1.00  0.00    -0.205 F 
ATOM     90  C   UNL A   1      43.928  38.632  30.610  1.00  0.00     0.022 A 
BRANCH  88  91
ATOM     91  S   UNL A   1      43.445  39.461  28.035  1.00  0.00     0.127 S 
ATOM     92  O   UNL A   1      44.393  38.891  27.081  1.00  0.00    -0.237 OA
ATOM     93  O   UNL A   1      42.049  39.439  27.596  1.00  0.00    -0.237 OA
ATOM     94  O   UNL A   1      43.852  40.710  28.665  1.00  0.00    -0.744 OA
ENDBRANCH  88  91
ENDBRANCH  61  84
ENDBRANCH  35  36
ENDBRANCH  27  30
ENDBRANCH  25  26
ENDBRANCH  24  25
ENDBRANCH  23  24
ENDBRANCH   1  23
TORSDOF 20
ENDMDL
