MODEL 1
REMARK VINA RESULT:     -12.3      0.000      0.000
REMARK SMILES C[C@H]1[C@@H]([NH2+]C[C@H]2CC[C@@H](C(=O)NCCCCNC(=O)c3ccc(-c4c5nc(c(-c6cccc(S(=O)(=O)[O-])c6F)c6ccc([nH]6)c(-c6cccc(S(=O)(=O)[O-])c6F)c6nc(c(-c7cccc(S(=O)(=O)[O-])c7F)c7ccc4[nH]7)C=C6)C=C5)cc3)CC2)CCC[C@@H]1C
REMARK SMILES IDX 14 1 13 2 12 3 10 4 11 5 9 7 6 8 7 9 84 10 8 11 83 12 5 13
REMARK SMILES IDX 4 14 3 17 1 18 2 19 88 20 85 21 87 22 89 23 86 24 15 25
REMARK SMILES IDX 16 26 17 27 18 28 19 30 20 31 21 32 82 33 22 34 81 35 23 36
REMARK SMILES IDX 24 37 25 38 75 39 26 40 80 41 74 42 76 43 27 44 79 45 73 46
REMARK SMILES IDX 72 47 28 49 60 50 40 51 59 52 41 53 44 54 58 55 77 56 42 57
REMARK SMILES IDX 43 58 57 60 78 61 45 62 29 63 30 64 38 65 31 66 33 67 39 68
REMARK SMILES IDX 32 69 34 70 35 71 36 72 37 73 61 74 62 75 70 76 63 77 65 78
REMARK SMILES IDX 71 79 64 80 66 81 67 82 68 83 69 84 46 85 47 86 55 87 48 88
REMARK SMILES IDX 50 89 56 90 49 91 51 92 52 93 53 94 54 95
REMARK H PARENT 12 6 4 15 4 16 17 29 76 48 44 59
REMARK Flexibility Score: inf
ROOT
ATOM      1  C   UNL A   1      32.976  29.029  24.783  1.00  0.00     0.023 C 
ENDROOT
BRANCH   1   2
ATOM      2  C   UNL A   1      33.117  28.961  23.265  1.00  0.00     0.116 C 
BRANCH   2   3
ATOM      3  N   UNL A   1      31.918  29.431  22.601  1.00  0.00    -0.356 N 
ATOM      4  C   UNL A   1      30.773  28.781  22.264  1.00  0.00     0.223 C 
ATOM      5  O   UNL A   1      29.908  29.423  21.662  1.00  0.00    -0.275 OA
ATOM      6  H   UNL A   1      31.936  30.383  22.352  1.00  0.00     0.163 HD
BRANCH   4   7
ATOM      7  C   UNL A   1      30.509  27.325  22.648  1.00  0.00     0.078 C 
ATOM      8  C   UNL A   1      31.043  24.802  24.161  1.00  0.00     0.044 C 
ATOM      9  C   UNL A   1      29.879  25.741  24.523  1.00  0.00     0.010 C 
ATOM     10  C   UNL A   1      31.339  24.912  22.655  1.00  0.00     0.010 C 
ATOM     11  C   UNL A   1      30.140  27.194  24.130  1.00  0.00     0.014 C 
ATOM     12  C   UNL A   1      31.590  26.343  22.177  1.00  0.00     0.014 C 
BRANCH   8  13
ATOM     13  C   UNL A   1      32.260  25.069  25.078  1.00  0.00     0.264 C 
BRANCH  13  14
ATOM     14  N   UNL A   1      33.059  23.867  25.346  1.00  0.00    -0.343 N 
ATOM     15  H   UNL A   1      33.724  24.069  26.093  1.00  0.00     0.346 HD
ATOM     16  H   UNL A   1      32.425  23.115  25.617  1.00  0.00     0.346 HD
BRANCH  14  17
ATOM     17  C   UNL A   1      33.807  23.432  24.143  1.00  0.00     0.185 C 
ATOM     18  C   UNL A   1      32.314  21.403  23.775  1.00  0.00     0.014 C 
ATOM     19  C   UNL A   1      33.749  21.894  23.919  1.00  0.00     0.047 C 
ATOM     20  C   UNL A   1      34.527  21.115  25.012  1.00  0.00    -0.006 C 
ATOM     21  C   UNL A   1      35.279  23.877  24.234  1.00  0.00     0.065 C 
ATOM     22  C   UNL A   1      35.984  21.600  25.066  1.00  0.00     0.004 C 
ATOM     23  C   UNL A   1      34.505  19.599  24.786  1.00  0.00     0.008 C 
ATOM     24  C   UNL A   1      36.076  23.107  25.284  1.00  0.00     0.006 C 
ENDBRANCH  14  17
ENDBRANCH  13  14
ENDBRANCH   8  13
ENDBRANCH   4   7
ENDBRANCH   2   3
ENDBRANCH   1   2
BRANCH   1  25
ATOM     25  C   UNL A   1      32.058  30.133  25.296  1.00  0.00     0.023 C 
BRANCH  25  26
ATOM     26  C   UNL A   1      32.254  30.526  26.758  1.00  0.00     0.116 C 
BRANCH  26  27
ATOM     27  N   UNL A   1      32.279  31.965  27.002  1.00  0.00    -0.352 N 
ATOM     28  C   UNL A   1      33.294  32.727  27.536  1.00  0.00     0.251 C 
ATOM     29  H   UNL A   1      31.462  32.455  26.752  1.00  0.00     0.163 HD
ATOM     30  O   UNL A   1      33.137  33.931  27.720  1.00  0.00    -0.269 OA
BRANCH  28  31
ATOM     31  C   UNL A   1      34.557  32.066  27.928  1.00  0.00     0.039 A 
ATOM     32  C   UNL A   1      35.719  32.835  28.032  1.00  0.00     0.014 A 
ATOM     33  C   UNL A   1      34.567  30.716  28.281  1.00  0.00     0.014 A 
ATOM     34  C   UNL A   1      36.868  32.271  28.591  1.00  0.00     0.010 A 
ATOM     35  C   UNL A   1      35.683  30.183  28.914  1.00  0.00     0.010 A 
ATOM     36  C   UNL A   1      36.842  30.957  29.088  1.00  0.00    -0.014 A 
BRANCH  36  37
ATOM     37  C   UNL A   1      37.992  30.381  29.831  1.00  0.00     0.031 A 
ATOM     38  C   UNL A   1      38.279  30.820  31.240  1.00  0.00     0.074 A 
ATOM     39  C   UNL A   1      38.848  29.556  29.195  1.00  0.00     0.049 A 
ATOM     40  N   UNL A   1      39.284  30.502  32.014  1.00  0.00    -0.248 NA
ATOM     41  C   UNL A   1      37.332  31.770  31.848  1.00  0.00     0.031 C 
ATOM     42  C   UNL A   1      38.737  29.132  27.796  1.00  0.00     0.029 A 
ATOM     43  N   UNL A   1      39.999  28.948  29.631  1.00  0.00    -0.354 N 
ATOM     44  C   UNL A   1      39.116  31.242  33.177  1.00  0.00     0.074 A 
ATOM     45  C   UNL A   1      37.931  32.053  32.996  1.00  0.00     0.031 C 
ATOM     46  C   UNL A   1      39.770  28.329  27.494  1.00  0.00     0.029 A 
ATOM     47  C   UNL A   1      40.630  28.198  28.666  1.00  0.00     0.049 A 
ATOM     48  H   UNL A   1      40.340  29.040  30.551  1.00  0.00     0.167 HD
ATOM     49  C   UNL A   1      39.857  31.223  34.311  1.00  0.00     0.034 A 
ATOM     50  C   UNL A   1      41.773  27.486  28.718  1.00  0.00     0.034 A 
ATOM     51  C   UNL A   1      40.994  30.367  34.514  1.00  0.00     0.049 A 
ATOM     52  C   UNL A   1      42.536  27.423  30.013  1.00  0.00     0.074 A 
ATOM     53  C   UNL A   1      41.749  30.198  35.661  1.00  0.00     0.029 A 
ATOM     54  N   UNL A   1      41.538  29.533  33.549  1.00  0.00    -0.354 N 
ATOM     55  N   UNL A   1      42.263  27.998  31.159  1.00  0.00    -0.248 NA
ATOM     56  C   UNL A   1      43.743  26.583  30.034  1.00  0.00     0.031 C 
ATOM     57  C   UNL A   1      42.753  29.262  35.388  1.00  0.00     0.029 A 
ATOM     58  C   UNL A   1      42.618  28.844  34.074  1.00  0.00     0.049 A 
ATOM     59  H   UNL A   1      41.204  29.444  32.628  1.00  0.00     0.167 HD
ATOM     60  C   UNL A   1      43.244  27.565  32.046  1.00  0.00     0.074 A 
ATOM     61  C   UNL A   1      44.103  26.662  31.309  1.00  0.00     0.031 C 
ATOM     62  C   UNL A   1      43.426  27.901  33.346  1.00  0.00     0.034 A 
BRANCH  49  63
ATOM     63  C   UNL A   1      39.410  32.101  35.449  1.00  0.00     0.023 A 
ATOM     64  C   UNL A   1      38.538  31.573  36.423  1.00  0.00     0.012 A 
ATOM     65  C   UNL A   1      39.883  33.420  35.585  1.00  0.00     0.148 A 
ATOM     66  C   UNL A   1      38.115  32.354  37.497  1.00  0.00     0.002 A 
ATOM     67  C   UNL A   1      39.489  34.180  36.682  1.00  0.00     0.091 A 
ATOM     68  F   UNL A   1      40.692  33.914  34.637  1.00  0.00    -0.205 F 
ATOM     69  C   UNL A   1      38.599  33.653  37.632  1.00  0.00     0.022 A 
BRANCH  67  70
ATOM     70  S   UNL A   1      40.113  35.837  36.982  1.00  0.00     0.127 S 
ATOM     71  O   UNL A   1      41.554  35.601  37.060  1.00  0.00    -0.237 OA
ATOM     72  O   UNL A   1      39.677  36.556  35.784  1.00  0.00    -0.237 OA
ATOM     73  O   UNL A   1      39.482  36.283  38.217  1.00  0.00    -0.744 OA
ENDBRANCH  67  70
ENDBRANCH  49  63
BRANCH  50  74
ATOM     74  C   UNL A   1      42.214  26.698  27.531  1.00  0.00     0.023 A 
ATOM     75  C   UNL A   1      42.932  27.347  26.509  1.00  0.00     0.012 A 
ATOM     76  C   UNL A   1      41.962  25.317  27.423  1.00  0.00     0.148 A 
ATOM     77  C   UNL A   1      43.368  26.643  25.386  1.00  0.00     0.002 A 
ATOM     78  C   UNL A   1      42.442  24.611  26.326  1.00  0.00     0.091 A 
ATOM     79  F   UNL A   1      41.264  24.719  28.399  1.00  0.00    -0.205 F 
ATOM     80  C   UNL A   1      43.131  25.274  25.298  1.00  0.00     0.022 A 
BRANCH  78  81
ATOM     81  S   UNL A   1      42.296  22.824  26.197  1.00  0.00     0.127 S 
ATOM     82  O   UNL A   1      40.850  22.635  26.277  1.00  0.00    -0.237 OA
ATOM     83  O   UNL A   1      42.880  22.563  24.881  1.00  0.00    -0.237 OA
ATOM     84  O   UNL A   1      43.072  22.292  27.310  1.00  0.00    -0.744 OA
ENDBRANCH  78  81
ENDBRANCH  50  74
BRANCH  62  85
ATOM     85  C   UNL A   1      44.585  27.272  34.073  1.00  0.00     0.023 A 
ATOM     86  C   UNL A   1      45.849  27.893  34.032  1.00  0.00     0.012 A 
ATOM     87  C   UNL A   1      44.404  26.117  34.858  1.00  0.00     0.148 A 
ATOM     88  C   UNL A   1      46.923  27.358  34.742  1.00  0.00     0.002 A 
ATOM     89  C   UNL A   1      45.469  25.614  35.597  1.00  0.00     0.091 A 
ATOM     90  F   UNL A   1      43.200  25.528  34.865  1.00  0.00    -0.205 F 
ATOM     91  C   UNL A   1      46.730  26.227  35.533  1.00  0.00     0.022 A 
BRANCH  89  92
ATOM     92  S   UNL A   1      45.284  24.217  36.711  1.00  0.00     0.127 S 
ATOM     93  O   UNL A   1      46.637  24.076  37.242  1.00  0.00    -0.237 OA
ATOM     94  O   UNL A   1      44.299  24.711  37.673  1.00  0.00    -0.237 OA
ATOM     95  O   UNL A   1      44.813  23.112  35.885  1.00  0.00    -0.744 OA
ENDBRANCH  89  92
ENDBRANCH  62  85
ENDBRANCH  36  37
ENDBRANCH  28  31
ENDBRANCH  26  27
ENDBRANCH  25  26
ENDBRANCH   1  25
TORSDOF 17
ENDMDL
MODEL 2
REMARK VINA RESULT:     -12.0      2.198      7.862
REMARK SMILES C[C@H]1[C@@H]([NH2+]C[C@H]2CC[C@@H](C(=O)NCCCCNC(=O)c3ccc(-c4c5nc(c(-c6cccc(S(=O)(=O)[O-])c6F)c6ccc([nH]6)c(-c6cccc(S(=O)(=O)[O-])c6F)c6nc(c(-c7cccc(S(=O)(=O)[O-])c7F)c7ccc4[nH]7)C=C6)C=C5)cc3)CC2)CCC[C@@H]1C
REMARK SMILES IDX 14 1 13 2 12 3 10 4 11 5 9 7 6 8 7 9 84 10 8 11 83 12 5 13
REMARK SMILES IDX 4 14 3 17 1 18 2 19 88 20 85 21 87 22 89 23 86 24 15 25
REMARK SMILES IDX 16 26 17 27 18 28 19 30 20 31 21 32 82 33 22 34 81 35 23 36
REMARK SMILES IDX 24 37 25 38 75 39 26 40 80 41 74 42 76 43 27 44 79 45 73 46
REMARK SMILES IDX 72 47 28 49 60 50 40 51 59 52 41 53 44 54 58 55 77 56 42 57
REMARK SMILES IDX 43 58 57 60 78 61 45 62 29 63 30 64 38 65 31 66 33 67 39 68
REMARK SMILES IDX 32 69 34 70 35 71 36 72 37 73 61 74 62 75 70 76 63 77 65 78
REMARK SMILES IDX 71 79 64 80 66 81 67 82 68 83 69 84 46 85 47 86 55 87 48 88
REMARK SMILES IDX 50 89 56 90 49 91 51 92 52 93 53 94 54 95
REMARK H PARENT 12 6 4 15 4 16 17 29 76 48 44 59
REMARK Flexibility Score: inf
ROOT
ATOM      1  C   UNL A   1      32.679  30.157  25.947  1.00  0.00     0.023 C 
ENDROOT
BRANCH   1   2
ATOM      2  C   UNL A   1      31.620  29.217  25.378  1.00  0.00     0.116 C 
BRANCH   2   3
ATOM      3  N   UNL A   1      30.947  29.808  24.239  1.00  0.00    -0.356 N 
ATOM      4  C   UNL A   1      30.474  29.248  23.095  1.00  0.00     0.223 C 
ATOM      5  O   UNL A   1      29.965  30.000  22.259  1.00  0.00    -0.275 OA
ATOM      6  H   UNL A   1      30.808  30.780  24.306  1.00  0.00     0.163 HD
BRANCH   4   7
ATOM      7  C   UNL A   1      30.505  27.741  22.841  1.00  0.00     0.078 C 
ATOM      8  C   UNL A   1      31.213  24.914  23.510  1.00  0.00     0.044 C 
ATOM      9  C   UNL A   1      29.787  25.465  23.693  1.00  0.00     0.010 C 
ATOM     10  C   UNL A   1      31.906  25.664  22.359  1.00  0.00     0.010 C 
ATOM     11  C   UNL A   1      29.757  26.973  23.937  1.00  0.00     0.014 C 
ATOM     12  C   UNL A   1      31.898  27.185  22.518  1.00  0.00     0.014 C 
BRANCH   8  13
ATOM     13  C   UNL A   1      31.981  24.942  24.852  1.00  0.00     0.264 C 
BRANCH  13  14
ATOM     14  N   UNL A   1      32.575  23.647  25.207  1.00  0.00    -0.343 N 
ATOM     15  H   UNL A   1      32.947  23.701  26.156  1.00  0.00     0.346 HD
ATOM     16  H   UNL A   1      31.850  22.933  25.141  1.00  0.00     0.346 HD
BRANCH  14  17
ATOM     17  C   UNL A   1      33.673  23.281  24.281  1.00  0.00     0.185 C 
ATOM     18  C   UNL A   1      32.331  21.401  23.211  1.00  0.00     0.014 C 
ATOM     19  C   UNL A   1      33.648  21.779  23.879  1.00  0.00     0.047 C 
ATOM     20  C   UNL A   1      33.986  20.849  25.073  1.00  0.00    -0.006 C 
ATOM     21  C   UNL A   1      35.040  23.617  24.907  1.00  0.00     0.065 C 
ATOM     22  C   UNL A   1      35.353  21.229  25.664  1.00  0.00     0.004 C 
ATOM     23  C   UNL A   1      33.996  19.367  24.683  1.00  0.00     0.008 C 
ATOM     24  C   UNL A   1      35.411  22.699  26.068  1.00  0.00     0.006 C 
ENDBRANCH  14  17
ENDBRANCH  13  14
ENDBRANCH   8  13
ENDBRANCH   4   7
ENDBRANCH   2   3
ENDBRANCH   1   2
BRANCH   1  25
ATOM     25  C   UNL A   1      32.149  31.227  26.896  1.00  0.00     0.023 C 
BRANCH  25  26
ATOM     26  C   UNL A   1      33.187  32.222  27.412  1.00  0.00     0.116 C 
BRANCH  26  27
ATOM     27  N   UNL A   1      32.683  33.577  27.609  1.00  0.00    -0.352 N 
ATOM     28  C   UNL A   1      33.143  34.546  28.473  1.00  0.00     0.251 C 
ATOM     29  H   UNL A   1      31.913  33.832  27.051  1.00  0.00     0.163 HD
ATOM     30  O   UNL A   1      32.573  35.630  28.552  1.00  0.00    -0.269 OA
BRANCH  28  31
ATOM     31  C   UNL A   1      34.303  34.243  29.338  1.00  0.00     0.039 A 
ATOM     32  C   UNL A   1      34.080  33.670  30.592  1.00  0.00     0.014 A 
ATOM     33  C   UNL A   1      35.604  34.437  28.869  1.00  0.00     0.014 A 
ATOM     34  C   UNL A   1      35.164  33.196  31.334  1.00  0.00     0.010 A 
ATOM     35  C   UNL A   1      36.672  33.890  29.569  1.00  0.00     0.010 A 
ATOM     36  C   UNL A   1      36.464  33.252  30.802  1.00  0.00    -0.014 A 
BRANCH  36  37
ATOM     37  C   UNL A   1      37.616  32.615  31.491  1.00  0.00     0.031 A 
ATOM     38  C   UNL A   1      38.338  31.462  30.850  1.00  0.00     0.074 A 
ATOM     39  C   UNL A   1      37.934  32.995  32.745  1.00  0.00     0.049 A 
ATOM     40  N   UNL A   1      39.301  30.721  31.333  1.00  0.00    -0.248 NA
ATOM     41  C   UNL A   1      37.895  31.064  29.502  1.00  0.00     0.031 C 
ATOM     42  C   UNL A   1      37.246  34.034  33.516  1.00  0.00     0.029 A 
ATOM     43  N   UNL A   1      38.898  32.531  33.605  1.00  0.00    -0.354 N 
ATOM     44  C   UNL A   1      39.549  29.747  30.374  1.00  0.00     0.074 A 
ATOM     45  C   UNL A   1      38.611  29.969  29.294  1.00  0.00     0.031 C 
ATOM     46  C   UNL A   1      37.814  34.133  34.729  1.00  0.00     0.029 A 
ATOM     47  C   UNL A   1      38.890  33.152  34.833  1.00  0.00     0.049 A 
ATOM     48  H   UNL A   1      39.536  31.821  33.365  1.00  0.00     0.167 HD
ATOM     49  C   UNL A   1      40.495  28.779  30.371  1.00  0.00     0.034 A 
ATOM     50  C   UNL A   1      39.661  32.953  35.921  1.00  0.00     0.034 A 
ATOM     51  C   UNL A   1      41.469  28.603  31.414  1.00  0.00     0.049 A 
ATOM     52  C   UNL A   1      40.753  31.920  35.862  1.00  0.00     0.074 A 
ATOM     53  C   UNL A   1      42.532  27.719  31.457  1.00  0.00     0.029 A 
ATOM     54  N   UNL A   1      41.502  29.328  32.595  1.00  0.00    -0.354 N 
ATOM     55  N   UNL A   1      41.083  31.124  34.875  1.00  0.00    -0.248 NA
ATOM     56  C   UNL A   1      41.606  31.785  37.053  1.00  0.00     0.031 C 
ATOM     57  C   UNL A   1      43.207  27.908  32.669  1.00  0.00     0.029 A 
ATOM     58  C   UNL A   1      42.568  28.914  33.374  1.00  0.00     0.049 A 
ATOM     59  H   UNL A   1      40.862  30.033  32.842  1.00  0.00     0.167 HD
ATOM     60  C   UNL A   1      42.197  30.416  35.311  1.00  0.00     0.074 A 
ATOM     61  C   UNL A   1      42.501  30.896  36.643  1.00  0.00     0.031 C 
ATOM     62  C   UNL A   1      42.894  29.444  34.673  1.00  0.00     0.034 A 
BRANCH  49  63
ATOM     63  C   UNL A   1      40.571  27.884  29.163  1.00  0.00     0.023 A 
ATOM     64  C   UNL A   1      39.693  26.785  29.064  1.00  0.00     0.012 A 
ATOM     65  C   UNL A   1      41.466  28.151  28.109  1.00  0.00     0.148 A 
ATOM     66  C   UNL A   1      39.727  25.945  27.953  1.00  0.00     0.002 A 
ATOM     67  C   UNL A   1      41.466  27.332  26.984  1.00  0.00     0.091 A 
ATOM     68  F   UNL A   1      42.310  29.185  28.231  1.00  0.00    -0.205 F 
ATOM     69  C   UNL A   1      40.605  26.224  26.910  1.00  0.00     0.022 A 
BRANCH  67  70
ATOM     70  S   UNL A   1      42.509  27.651  25.558  1.00  0.00     0.127 S 
ATOM     71  O   UNL A   1      43.837  27.697  26.168  1.00  0.00    -0.237 OA
ATOM     72  O   UNL A   1      42.263  26.474  24.723  1.00  0.00    -0.237 OA
ATOM     73  O   UNL A   1      42.034  28.905  24.989  1.00  0.00    -0.744 OA
ENDBRANCH  67  70
ENDBRANCH  49  63
BRANCH  50  74
ATOM     74  C   UNL A   1      39.488  33.816  37.124  1.00  0.00     0.023 A 
ATOM     75  C   UNL A   1      39.945  35.148  37.081  1.00  0.00     0.012 A 
ATOM     76  C   UNL A   1      38.849  33.347  38.287  1.00  0.00     0.148 A 
ATOM     77  C   UNL A   1      39.795  35.989  38.184  1.00  0.00     0.002 A 
ATOM     78  C   UNL A   1      38.658  34.205  39.365  1.00  0.00     0.091 A 
ATOM     79  F   UNL A   1      38.433  32.073  38.315  1.00  0.00    -0.205 F 
ATOM     80  C   UNL A   1      39.144  35.521  39.321  1.00  0.00     0.022 A 
BRANCH  78  81
ATOM     81  S   UNL A   1      37.713  33.724  40.817  1.00  0.00     0.127 S 
ATOM     82  O   UNL A   1      37.523  35.007  41.488  1.00  0.00    -0.237 OA
ATOM     83  O   UNL A   1      36.505  33.154  40.221  1.00  0.00    -0.237 OA
ATOM     84  O   UNL A   1      38.547  32.755  41.516  1.00  0.00    -0.744 OA
ENDBRANCH  78  81
ENDBRANCH  50  74
BRANCH  62  85
ATOM     85  C   UNL A   1      44.074  28.845  35.392  1.00  0.00     0.023 A 
ATOM     86  C   UNL A   1      45.355  29.396  35.202  1.00  0.00     0.012 A 
ATOM     87  C   UNL A   1      43.900  27.793  36.312  1.00  0.00     0.148 A 
ATOM     88  C   UNL A   1      46.453  28.893  35.899  1.00  0.00     0.002 A 
ATOM     89  C   UNL A   1      44.991  27.325  37.035  1.00  0.00     0.091 A 
ATOM     90  F   UNL A   1      42.676  27.267  36.461  1.00  0.00    -0.205 F 
ATOM     91  C   UNL A   1      46.269  27.867  36.823  1.00  0.00     0.022 A 
BRANCH  89  92
ATOM     92  S   UNL A   1      44.826  26.070  38.310  1.00  0.00     0.127 S 
ATOM     93  O   UNL A   1      43.917  26.719  39.253  1.00  0.00    -0.237 OA
ATOM     94  O   UNL A   1      44.242  24.949  37.573  1.00  0.00    -0.237 OA
ATOM     95  O   UNL A   1      46.175  25.826  38.802  1.00  0.00    -0.744 OA
ENDBRANCH  89  92
ENDBRANCH  62  85
ENDBRANCH  36  37
ENDBRANCH  28  31
ENDBRANCH  26  27
ENDBRANCH  25  26
ENDBRANCH   1  25
TORSDOF 17
ENDMDL
MODEL 3
REMARK VINA RESULT:     -11.9      5.003     10.334
REMARK SMILES C[C@H]1[C@@H]([NH2+]C[C@H]2CC[C@@H](C(=O)NCCCCNC(=O)c3ccc(-c4c5nc(c(-c6cccc(S(=O)(=O)[O-])c6F)c6ccc([nH]6)c(-c6cccc(S(=O)(=O)[O-])c6F)c6nc(c(-c7cccc(S(=O)(=O)[O-])c7F)c7ccc4[nH]7)C=C6)C=C5)cc3)CC2)CCC[C@@H]1C
REMARK SMILES IDX 14 1 13 2 12 3 10 4 11 5 9 7 6 8 7 9 84 10 8 11 83 12 5 13
REMARK SMILES IDX 4 14 3 17 1 18 2 19 88 20 85 21 87 22 89 23 86 24 15 25
REMARK SMILES IDX 16 26 17 27 18 28 19 30 20 31 21 32 82 33 22 34 81 35 23 36
REMARK SMILES IDX 24 37 25 38 75 39 26 40 80 41 74 42 76 43 27 44 79 45 73 46
REMARK SMILES IDX 72 47 28 49 60 50 40 51 59 52 41 53 44 54 58 55 77 56 42 57
REMARK SMILES IDX 43 58 57 60 78 61 45 62 29 63 30 64 38 65 31 66 33 67 39 68
REMARK SMILES IDX 32 69 34 70 35 71 36 72 37 73 61 74 62 75 70 76 63 77 65 78
REMARK SMILES IDX 71 79 64 80 66 81 67 82 68 83 69 84 46 85 47 86 55 87 48 88
REMARK SMILES IDX 50 89 56 90 49 91 51 92 52 93 53 94 54 95
REMARK H PARENT 12 6 4 15 4 16 17 29 76 48 44 59
REMARK Flexibility Score: inf
ROOT
ATOM      1  C   UNL A   1      34.885  21.933  26.965  1.00  0.00     0.023 C 
ENDROOT
BRANCH   1   2
ATOM      2  C   UNL A   1      33.552  21.302  27.357  1.00  0.00     0.116 C 
BRANCH   2   3
ATOM      3  N   UNL A   1      32.546  22.312  27.619  1.00  0.00    -0.356 N 
ATOM      4  C   UNL A   1      32.031  23.284  26.820  1.00  0.00     0.223 C 
ATOM      5  O   UNL A   1      31.195  24.046  27.315  1.00  0.00    -0.275 OA
ATOM      6  H   UNL A   1      32.173  22.291  28.529  1.00  0.00     0.163 HD
BRANCH   4   7
ATOM      7  C   UNL A   1      32.408  23.424  25.345  1.00  0.00     0.078 C 
ATOM      8  C   UNL A   1      32.413  24.795  22.689  1.00  0.00     0.044 C 
ATOM      9  C   UNL A   1      33.632  24.828  23.628  1.00  0.00     0.010 C 
ATOM     10  C   UNL A   1      31.627  23.493  22.918  1.00  0.00     0.010 C 
ATOM     11  C   UNL A   1      33.255  24.678  25.100  1.00  0.00     0.014 C 
ATOM     12  C   UNL A   1      31.231  23.257  24.376  1.00  0.00     0.014 C 
BRANCH   8  13
ATOM     13  C   UNL A   1      31.577  26.088  22.841  1.00  0.00     0.264 C 
BRANCH  13  14
ATOM     14  N   UNL A   1      32.012  26.930  23.963  1.00  0.00    -0.343 N 
ATOM     15  H   UNL A   1      31.229  27.060  24.604  1.00  0.00     0.346 HD
ATOM     16  H   UNL A   1      32.791  26.464  24.430  1.00  0.00     0.346 HD
BRANCH  14  17
ATOM     17  C   UNL A   1      32.477  28.258  23.498  1.00  0.00     0.185 C 
ATOM     18  C   UNL A   1      33.989  28.592  25.518  1.00  0.00     0.014 C 
ATOM     19  C   UNL A   1      32.881  29.200  24.667  1.00  0.00     0.047 C 
ATOM     20  C   UNL A   1      31.658  29.631  25.519  1.00  0.00    -0.006 C 
ATOM     21  C   UNL A   1      31.390  28.941  22.646  1.00  0.00     0.065 C 
ATOM     22  C   UNL A   1      30.604  30.299  24.623  1.00  0.00     0.004 C 
ATOM     23  C   UNL A   1      32.038  30.585  26.656  1.00  0.00     0.008 C 
ATOM     24  C   UNL A   1      30.186  29.399  23.464  1.00  0.00     0.006 C 
ENDBRANCH  14  17
ENDBRANCH  13  14
ENDBRANCH   8  13
ENDBRANCH   4   7
ENDBRANCH   2   3
ENDBRANCH   1   2
BRANCH   1  25
ATOM     25  C   UNL A   1      35.462  21.450  25.639  1.00  0.00     0.023 C 
BRANCH  25  26
ATOM     26  C   UNL A   1      36.860  21.963  25.303  1.00  0.00     0.116 C 
BRANCH  26  27
ATOM     27  N   UNL A   1      37.921  20.970  25.441  1.00  0.00    -0.352 N 
ATOM     28  C   UNL A   1      39.163  21.116  26.019  1.00  0.00     0.251 C 
ATOM     29  H   UNL A   1      37.722  20.079  25.073  1.00  0.00     0.163 HD
ATOM     30  O   UNL A   1      39.965  20.187  26.012  1.00  0.00    -0.269 OA
BRANCH  28  31
ATOM     31  C   UNL A   1      39.533  22.423  26.602  1.00  0.00     0.039 A 
ATOM     32  C   UNL A   1      40.544  22.471  27.565  1.00  0.00     0.014 A 
ATOM     33  C   UNL A   1      38.949  23.599  26.129  1.00  0.00     0.014 A 
ATOM     34  C   UNL A   1      41.041  23.709  27.978  1.00  0.00     0.010 A 
ATOM     35  C   UNL A   1      39.501  24.825  26.477  1.00  0.00     0.010 A 
ATOM     36  C   UNL A   1      40.561  24.895  27.395  1.00  0.00    -0.014 A 
BRANCH  36  37
ATOM     37  C   UNL A   1      41.178  26.214  27.691  1.00  0.00     0.031 A 
ATOM     38  C   UNL A   1      42.589  26.504  27.262  1.00  0.00     0.074 A 
ATOM     39  C   UNL A   1      40.508  27.104  28.452  1.00  0.00     0.049 A 
ATOM     40  N   UNL A   1      43.326  27.556  27.508  1.00  0.00    -0.248 NA
ATOM     41  C   UNL A   1      43.278  25.460  26.485  1.00  0.00     0.031 C 
ATOM     42  C   UNL A   1      39.170  26.902  29.014  1.00  0.00     0.029 A 
ATOM     43  N   UNL A   1      40.872  28.346  28.909  1.00  0.00    -0.354 N 
ATOM     44  C   UNL A   1      44.572  27.284  26.958  1.00  0.00     0.074 A 
ATOM     45  C   UNL A   1      44.504  25.953  26.395  1.00  0.00     0.031 C 
ATOM     46  C   UNL A   1      38.825  27.983  29.732  1.00  0.00     0.029 A 
ATOM     47  C   UNL A   1      39.922  28.945  29.703  1.00  0.00     0.049 A 
ATOM     48  H   UNL A   1      41.734  28.768  28.688  1.00  0.00     0.167 HD
ATOM     49  C   UNL A   1      45.664  28.082  26.893  1.00  0.00     0.034 A 
ATOM     50  C   UNL A   1      39.932  30.135  30.336  1.00  0.00     0.034 A 
ATOM     51  C   UNL A   1      45.707  29.429  27.393  1.00  0.00     0.049 A 
ATOM     52  C   UNL A   1      41.131  31.032  30.184  1.00  0.00     0.074 A 
ATOM     53  C   UNL A   1      46.730  30.355  27.284  1.00  0.00     0.029 A 
ATOM     54  N   UNL A   1      44.681  30.045  28.093  1.00  0.00    -0.354 N 
ATOM     55  N   UNL A   1      42.236  30.824  29.512  1.00  0.00    -0.248 NA
ATOM     56  C   UNL A   1      41.067  32.344  30.845  1.00  0.00     0.031 C 
ATOM     57  C   UNL A   1      46.322  31.532  27.922  1.00  0.00     0.029 A 
ATOM     58  C   UNL A   1      45.044  31.340  28.421  1.00  0.00     0.049 A 
ATOM     59  H   UNL A   1      43.822  29.624  28.322  1.00  0.00     0.167 HD
ATOM     60  C   UNL A   1      42.986  31.988  29.641  1.00  0.00     0.074 A 
ATOM     61  C   UNL A   1      42.198  32.906  30.436  1.00  0.00     0.031 C 
ATOM     62  C   UNL A   1      44.223  32.264  29.160  1.00  0.00     0.034 A 
BRANCH  49  63
ATOM     63  C   UNL A   1      46.877  27.543  26.184  1.00  0.00     0.023 A 
ATOM     64  C   UNL A   1      47.747  26.672  26.873  1.00  0.00     0.012 A 
ATOM     65  C   UNL A   1      47.134  27.851  24.834  1.00  0.00     0.148 A 
ATOM     66  C   UNL A   1      48.871  26.144  26.243  1.00  0.00     0.002 A 
ATOM     67  C   UNL A   1      48.236  27.288  24.199  1.00  0.00     0.091 A 
ATOM     68  F   UNL A   1      46.311  28.700  24.202  1.00  0.00    -0.205 F 
ATOM     69  C   UNL A   1      49.110  26.443  24.904  1.00  0.00     0.022 A 
BRANCH  67  70
ATOM     70  S   UNL A   1      48.589  27.555  22.458  1.00  0.00     0.127 S 
ATOM     71  O   UNL A   1      49.842  28.305  22.523  1.00  0.00    -0.237 OA
ATOM     72  O   UNL A   1      48.723  26.187  21.955  1.00  0.00    -0.237 OA
ATOM     73  O   UNL A   1      47.445  28.284  21.928  1.00  0.00    -0.744 OA
ENDBRANCH  67  70
ENDBRANCH  49  63
BRANCH  50  74
ATOM     74  C   UNL A   1      38.731  30.585  31.095  1.00  0.00     0.023 A 
ATOM     75  C   UNL A   1      38.695  30.400  32.491  1.00  0.00     0.012 A 
ATOM     76  C   UNL A   1      37.647  31.220  30.458  1.00  0.00     0.148 A 
ATOM     77  C   UNL A   1      37.591  30.815  33.236  1.00  0.00     0.002 A 
ATOM     78  C   UNL A   1      36.572  31.676  31.214  1.00  0.00     0.091 A 
ATOM     79  F   UNL A   1      37.692  31.373  29.127  1.00  0.00    -0.205 F 
ATOM     80  C   UNL A   1      36.535  31.460  32.600  1.00  0.00     0.022 A 
BRANCH  78  81
ATOM     81  S   UNL A   1      35.232  32.632  30.494  1.00  0.00     0.127 S 
ATOM     82  O   UNL A   1      34.267  32.668  31.589  1.00  0.00    -0.237 OA
ATOM     83  O   UNL A   1      35.887  33.909  30.206  1.00  0.00    -0.237 OA
ATOM     84  O   UNL A   1      34.824  31.892  29.306  1.00  0.00    -0.744 OA
ENDBRANCH  78  81
ENDBRANCH  50  74
BRANCH  62  85
ATOM     85  C   UNL A   1      44.799  33.623  29.456  1.00  0.00     0.023 A 
ATOM     86  C   UNL A   1      45.512  33.829  30.653  1.00  0.00     0.012 A 
ATOM     87  C   UNL A   1      44.703  34.668  28.516  1.00  0.00     0.148 A 
ATOM     88  C   UNL A   1      46.101  35.064  30.922  1.00  0.00     0.002 A 
ATOM     89  C   UNL A   1      45.329  35.883  28.773  1.00  0.00     0.091 A 
ATOM     90  F   UNL A   1      44.001  34.459  27.394  1.00  0.00    -0.205 F 
ATOM     91  C   UNL A   1      46.019  36.086  29.978  1.00  0.00     0.022 A 
BRANCH  89  92
ATOM     92  S   UNL A   1      45.350  37.219  27.572  1.00  0.00     0.127 S 
ATOM     93  O   UNL A   1      43.924  37.469  27.377  1.00  0.00    -0.237 OA
ATOM     94  O   UNL A   1      46.063  38.275  28.290  1.00  0.00    -0.237 OA
ATOM     95  O   UNL A   1      46.063  36.697  26.413  1.00  0.00    -0.744 OA
ENDBRANCH  89  92
ENDBRANCH  62  85
ENDBRANCH  36  37
ENDBRANCH  28  31
ENDBRANCH  26  27
ENDBRANCH  25  26
ENDBRANCH   1  25
TORSDOF 17
ENDMDL
