MODEL 1
REMARK VINA RESULT:     -12.3      0.000      0.000
REMARK SMILES Cc1ccc(C)c(/C=C2\SC(=S)N(CC(=O)NCCCCNC(=O)c3ccc(-c4c5nc(c(-c6cccc(S(=O)(=O)[O-])c6F)c6ccc([nH]6)c(-c6cccc(S(=O)(=O)[O-])c6F)c6nc(c(-c7cccc(S(=O)(=O)[O-])c7F)c7ccc4[nH]7)C=C6)C=C5)cc3)C2=O)c1
REMARK SMILES IDX 20 1 19 2 18 3 17 4 15 5 16 6 14 8 13 9 8 10 9 11 10 12
REMARK SMILES IDX 88 13 11 14 89 15 12 16 7 17 1 18 2 19 3 20 90 21 4 22 5 23
REMARK SMILES IDX 6 24 21 25 22 26 23 27 24 29 25 30 26 31 87 32 27 33 86 34
REMARK SMILES IDX 28 35 29 36 30 37 80 38 31 39 85 40 79 41 81 42 32 43 84 44
REMARK SMILES IDX 78 45 77 46 33 48 65 49 45 50 64 51 46 52 49 53 63 54 82 55
REMARK SMILES IDX 47 56 48 57 62 59 83 60 50 61 34 62 35 63 43 64 36 65 38 66
REMARK SMILES IDX 44 67 37 68 39 69 40 70 41 71 42 72 66 73 67 74 75 75 68 76
REMARK SMILES IDX 70 77 76 78 69 79 71 80 72 81 73 82 74 83 51 84 52 85 60 86
REMARK SMILES IDX 53 87 55 88 61 89 54 90 56 91 57 92 58 93 59 94
REMARK H PARENT 17 7 22 28 81 47 49 58
REMARK Flexibility Score: inf
ROOT
ATOM      1  C   UNL A   1      33.015  31.799  27.274  1.00  0.00     0.023 C 
ENDROOT
BRANCH   1   2
ATOM      2  C   UNL A   1      32.754  30.288  27.140  1.00  0.00     0.023 C 
BRANCH   2   3
ATOM      3  C   UNL A   1      32.023  29.771  25.896  1.00  0.00     0.116 C 
BRANCH   3   4
ATOM      4  N   UNL A   1      32.846  29.741  24.712  1.00  0.00    -0.355 N 
ATOM      5  C   UNL A   1      32.901  28.829  23.699  1.00  0.00     0.240 C 
ATOM      6  O   UNL A   1      33.644  29.083  22.751  1.00  0.00    -0.273 OA
ATOM      7  H   UNL A   1      33.467  30.499  24.621  1.00  0.00     0.163 HD
BRANCH   5   8
ATOM      8  C   UNL A   1      32.046  27.557  23.717  1.00  0.00     0.227 C 
BRANCH   8   9
ATOM      9  N   UNL A   1      32.874  26.355  23.599  1.00  0.00    -0.283 N 
ATOM     10  C   UNL A   1      35.047  24.118  25.405  1.00  0.00     0.029 C 
ATOM     11  C   UNL A   1      34.337  24.718  24.440  1.00  0.00     0.081 C 
ATOM     12  S   UNL A   1      34.011  24.176  22.845  1.00  0.00    -0.054 SA
ATOM     13  C   UNL A   1      33.660  26.015  24.690  1.00  0.00     0.266 C 
ATOM     14  C   UNL A   1      33.038  25.593  22.466  1.00  0.00     0.148 C 
ATOM     15  O   UNL A   1      33.809  26.653  25.712  1.00  0.00    -0.268 OA
ATOM     16  S   UNL A   1      32.475  25.870  20.920  1.00  0.00    -0.052 S 
BRANCH  10  17
ATOM     17  C   UNL A   1      35.716  22.816  25.297  1.00  0.00    -0.021 A 
ATOM     18  C   UNL A   1      34.641  19.203  24.704  1.00  0.00     0.044 C 
ATOM     19  C   UNL A   1      35.502  20.407  24.944  1.00  0.00    -0.051 A 
ATOM     20  C   UNL A   1      36.879  20.271  25.123  1.00  0.00     0.004 A 
ATOM     21  C   UNL A   1      34.935  21.683  25.010  1.00  0.00     0.011 A 
ATOM     22  C   UNL A   1      37.672  21.394  25.370  1.00  0.00     0.004 A 
ATOM     23  C   UNL A   1      37.106  22.677  25.464  1.00  0.00    -0.044 A 
ATOM     24  C   UNL A   1      38.032  23.828  25.754  1.00  0.00     0.045 C 
ENDBRANCH  10  17
ENDBRANCH   8   9
ENDBRANCH   5   8
ENDBRANCH   3   4
ENDBRANCH   2   3
ENDBRANCH   1   2
BRANCH   1  25
ATOM     25  C   UNL A   1      31.859  32.782  27.043  1.00  0.00     0.116 C 
BRANCH  25  26
ATOM     26  N   UNL A   1      32.125  34.146  27.533  1.00  0.00    -0.352 N 
ATOM     27  C   UNL A   1      33.007  34.655  28.479  1.00  0.00     0.251 C 
ATOM     28  H   UNL A   1      31.567  34.834  27.106  1.00  0.00     0.163 HD
ATOM     29  O   UNL A   1      32.794  35.769  28.952  1.00  0.00    -0.269 OA
BRANCH  27  30
ATOM     30  C   UNL A   1      34.215  33.905  28.892  1.00  0.00     0.039 A 
ATOM     31  C   UNL A   1      34.387  33.315  30.149  1.00  0.00     0.014 A 
ATOM     32  C   UNL A   1      35.265  33.861  28.000  1.00  0.00     0.014 A 
ATOM     33  C   UNL A   1      35.621  32.727  30.458  1.00  0.00     0.010 A 
ATOM     34  C   UNL A   1      36.366  33.089  28.190  1.00  0.00     0.010 A 
ATOM     35  C   UNL A   1      36.613  32.653  29.469  1.00  0.00    -0.014 A 
BRANCH  35  36
ATOM     36  C   UNL A   1      37.951  32.136  29.680  1.00  0.00     0.031 A 
ATOM     37  C   UNL A   1      38.159  30.758  29.204  1.00  0.00     0.074 A 
ATOM     38  C   UNL A   1      39.006  32.939  29.954  1.00  0.00     0.049 A 
ATOM     39  N   UNL A   1      38.310  29.702  29.928  1.00  0.00    -0.248 NA
ATOM     40  C   UNL A   1      38.057  30.498  27.761  1.00  0.00     0.031 C 
ATOM     41  C   UNL A   1      39.040  34.410  30.020  1.00  0.00     0.029 A 
ATOM     42  N   UNL A   1      40.319  32.605  30.065  1.00  0.00    -0.354 N 
ATOM     43  C   UNL A   1      38.577  28.682  29.025  1.00  0.00     0.074 A 
ATOM     44  C   UNL A   1      38.171  29.169  27.731  1.00  0.00     0.031 C 
ATOM     45  C   UNL A   1      40.320  34.834  29.921  1.00  0.00     0.029 A 
ATOM     46  C   UNL A   1      41.195  33.679  29.954  1.00  0.00     0.049 A 
ATOM     47  H   UNL A   1      40.624  31.681  30.212  1.00  0.00     0.167 HD
ATOM     48  C   UNL A   1      39.366  27.629  29.366  1.00  0.00     0.034 A 
ATOM     49  C   UNL A   1      42.544  33.609  29.850  1.00  0.00     0.034 A 
ATOM     50  C   UNL A   1      39.651  27.611  30.781  1.00  0.00     0.049 A 
ATOM     51  C   UNL A   1      42.949  32.273  30.346  1.00  0.00     0.074 A 
ATOM     52  C   UNL A   1      38.893  27.607  31.935  1.00  0.00     0.029 A 
ATOM     53  N   UNL A   1      40.914  28.004  31.161  1.00  0.00    -0.354 N 
ATOM     54  N   UNL A   1      42.832  31.895  31.589  1.00  0.00    -0.248 NA
ATOM     55  C   UNL A   1      43.119  31.200  29.381  1.00  0.00     0.031 C 
ATOM     56  C   UNL A   1      39.606  28.438  32.848  1.00  0.00     0.029 A 
ATOM     57  C   UNL A   1      40.779  28.862  32.220  1.00  0.00     0.049 A 
ATOM     58  H   UNL A   1      41.761  27.719  30.747  1.00  0.00     0.167 HD
ATOM     59  C   UNL A   1      42.459  30.560  31.512  1.00  0.00     0.074 A 
ATOM     60  C   UNL A   1      42.787  30.157  30.147  1.00  0.00     0.031 C 
ATOM     61  C   UNL A   1      41.647  29.998  32.458  1.00  0.00     0.034 A 
BRANCH  48  62
ATOM     62  C   UNL A   1      40.180  26.813  28.397  1.00  0.00     0.023 A 
ATOM     63  C   UNL A   1      40.106  25.408  28.521  1.00  0.00     0.012 A 
ATOM     64  C   UNL A   1      41.180  27.331  27.545  1.00  0.00     0.148 A 
ATOM     65  C   UNL A   1      41.002  24.566  27.856  1.00  0.00     0.002 A 
ATOM     66  C   UNL A   1      42.002  26.487  26.809  1.00  0.00     0.091 A 
ATOM     67  F   UNL A   1      41.450  28.641  27.542  1.00  0.00    -0.205 F 
ATOM     68  C   UNL A   1      41.940  25.104  26.984  1.00  0.00     0.022 A 
BRANCH  66  69
ATOM     69  S   UNL A   1      43.167  27.143  25.611  1.00  0.00     0.127 S 
ATOM     70  O   UNL A   1      44.076  27.897  26.466  1.00  0.00    -0.237 OA
ATOM     71  O   UNL A   1      43.727  25.923  25.028  1.00  0.00    -0.237 OA
ATOM     72  O   UNL A   1      42.353  27.921  24.683  1.00  0.00    -0.744 OA
ENDBRANCH  66  69
ENDBRANCH  48  62
BRANCH  49  73
ATOM     73  C   UNL A   1      43.504  34.522  29.193  1.00  0.00     0.023 A 
ATOM     74  C   UNL A   1      44.109  35.554  29.938  1.00  0.00     0.012 A 
ATOM     75  C   UNL A   1      44.034  34.223  27.918  1.00  0.00     0.148 A 
ATOM     76  C   UNL A   1      45.229  36.238  29.449  1.00  0.00     0.002 A 
ATOM     77  C   UNL A   1      45.143  34.912  27.433  1.00  0.00     0.091 A 
ATOM     78  F   UNL A   1      43.507  33.205  27.226  1.00  0.00    -0.205 F 
ATOM     79  C   UNL A   1      45.751  35.911  28.201  1.00  0.00     0.022 A 
BRANCH  77  80
ATOM     80  S   UNL A   1      45.880  34.532  25.839  1.00  0.00     0.127 S 
ATOM     81  O   UNL A   1      46.819  35.642  25.668  1.00  0.00    -0.237 OA
ATOM     82  O   UNL A   1      46.503  33.236  26.096  1.00  0.00    -0.237 OA
ATOM     83  O   UNL A   1      44.773  34.529  24.893  1.00  0.00    -0.744 OA
ENDBRANCH  77  80
ENDBRANCH  49  73
BRANCH  61  84
ATOM     84  C   UNL A   1      41.397  30.772  33.734  1.00  0.00     0.023 A 
ATOM     85  C   UNL A   1      42.304  30.746  34.814  1.00  0.00     0.012 A 
ATOM     86  C   UNL A   1      40.322  31.678  33.777  1.00  0.00     0.148 A 
ATOM     87  C   UNL A   1      42.129  31.580  35.922  1.00  0.00     0.002 A 
ATOM     88  C   UNL A   1      40.179  32.540  34.858  1.00  0.00     0.091 A 
ATOM     89  F   UNL A   1      39.468  31.699  32.743  1.00  0.00    -0.205 F 
ATOM     90  C   UNL A   1      41.074  32.487  35.938  1.00  0.00     0.022 A 
BRANCH  88  91
ATOM     91  S   UNL A   1      38.922  33.821  34.877  1.00  0.00     0.127 S 
ATOM     92  O   UNL A   1      39.224  34.565  33.656  1.00  0.00    -0.237 OA
ATOM     93  O   UNL A   1      37.680  33.047  34.829  1.00  0.00    -0.237 OA
ATOM     94  O   UNL A   1      39.116  34.552  36.124  1.00  0.00    -0.744 OA
ENDBRANCH  88  91
ENDBRANCH  61  84
ENDBRANCH  35  36
ENDBRANCH  27  30
ENDBRANCH  25  26
ENDBRANCH   1  25
TORSDOF 16
ENDMDL
MODEL 2
REMARK VINA RESULT:     -11.7      3.233      7.167
REMARK SMILES Cc1ccc(C)c(/C=C2\SC(=S)N(CC(=O)NCCCCNC(=O)c3ccc(-c4c5nc(c(-c6cccc(S(=O)(=O)[O-])c6F)c6ccc([nH]6)c(-c6cccc(S(=O)(=O)[O-])c6F)c6nc(c(-c7cccc(S(=O)(=O)[O-])c7F)c7ccc4[nH]7)C=C6)C=C5)cc3)C2=O)c1
REMARK SMILES IDX 20 1 19 2 18 3 17 4 15 5 16 6 14 8 13 9 8 10 9 11 10 12
REMARK SMILES IDX 88 13 11 14 89 15 12 16 7 17 1 18 2 19 3 20 90 21 4 22 5 23
REMARK SMILES IDX 6 24 21 25 22 26 23 27 24 29 25 30 26 31 87 32 27 33 86 34
REMARK SMILES IDX 28 35 29 36 30 37 80 38 31 39 85 40 79 41 81 42 32 43 84 44
REMARK SMILES IDX 78 45 77 46 33 48 65 49 45 50 64 51 46 52 49 53 63 54 82 55
REMARK SMILES IDX 47 56 48 57 62 59 83 60 50 61 34 62 35 63 43 64 36 65 38 66
REMARK SMILES IDX 44 67 37 68 39 69 40 70 41 71 42 72 66 73 67 74 75 75 68 76
REMARK SMILES IDX 70 77 76 78 69 79 71 80 72 81 73 82 74 83 51 84 52 85 60 86
REMARK SMILES IDX 53 87 55 88 61 89 54 90 56 91 57 92 58 93 59 94
REMARK H PARENT 17 7 22 28 81 47 49 58
REMARK Flexibility Score: inf
ROOT
ATOM      1  C   UNL A   1      32.671  31.760  26.957  1.00  0.00     0.023 C 
ENDROOT
BRANCH   1   2
ATOM      2  C   UNL A   1      31.748  30.536  26.810  1.00  0.00     0.023 C 
BRANCH   2   3
ATOM      3  C   UNL A   1      32.310  29.259  26.176  1.00  0.00     0.116 C 
BRANCH   3   4
ATOM      4  N   UNL A   1      32.650  29.407  24.782  1.00  0.00    -0.355 N 
ATOM      5  C   UNL A   1      32.331  28.627  23.710  1.00  0.00     0.240 C 
ATOM      6  O   UNL A   1      32.682  29.025  22.599  1.00  0.00    -0.273 OA
ATOM      7  H   UNL A   1      33.200  30.195  24.572  1.00  0.00     0.163 HD
BRANCH   5   8
ATOM      8  C   UNL A   1      31.534  27.328  23.870  1.00  0.00     0.227 C 
BRANCH   8   9
ATOM      9  N   UNL A   1      32.388  26.152  23.695  1.00  0.00    -0.283 N 
ATOM     10  C   UNL A   1      34.424  23.737  25.430  1.00  0.00     0.029 C 
ATOM     11  C   UNL A   1      33.795  24.438  24.477  1.00  0.00     0.081 C 
ATOM     12  S   UNL A   1      33.625  24.078  22.809  1.00  0.00    -0.054 SA
ATOM     13  C   UNL A   1      33.077  25.695  24.808  1.00  0.00     0.266 C 
ATOM     14  C   UNL A   1      32.667  25.524  22.503  1.00  0.00     0.148 C 
ATOM     15  O   UNL A   1      33.123  26.213  25.905  1.00  0.00    -0.268 OA
ATOM     16  S   UNL A   1      32.242  25.971  20.953  1.00  0.00    -0.052 S 
BRANCH  10  17
ATOM     17  C   UNL A   1      35.121  22.460  25.239  1.00  0.00    -0.021 A 
ATOM     18  C   UNL A   1      34.113  18.839  24.580  1.00  0.00     0.044 C 
ATOM     19  C   UNL A   1      34.954  20.059  24.813  1.00  0.00    -0.051 A 
ATOM     20  C   UNL A   1      36.342  19.957  24.910  1.00  0.00     0.004 A 
ATOM     21  C   UNL A   1      34.357  21.314  24.956  1.00  0.00     0.011 A 
ATOM     22  C   UNL A   1      37.116  21.094  25.152  1.00  0.00     0.004 A 
ATOM     23  C   UNL A   1      36.522  22.356  25.322  1.00  0.00    -0.044 A 
ATOM     24  C   UNL A   1      37.431  23.523  25.601  1.00  0.00     0.045 C 
ENDBRANCH  10  17
ENDBRANCH   8   9
ENDBRANCH   5   8
ENDBRANCH   3   4
ENDBRANCH   2   3
ENDBRANCH   1   2
BRANCH   1  25
ATOM     25  C   UNL A   1      34.069  31.575  27.564  1.00  0.00     0.116 C 
BRANCH  25  26
ATOM     26  N   UNL A   1      34.266  32.283  28.840  1.00  0.00    -0.352 N 
ATOM     27  C   UNL A   1      35.096  32.052  29.931  1.00  0.00     0.251 C 
ATOM     28  H   UNL A   1      33.697  33.078  28.942  1.00  0.00     0.163 HD
ATOM     29  O   UNL A   1      34.826  32.579  31.007  1.00  0.00    -0.269 OA
BRANCH  27  30
ATOM     30  C   UNL A   1      36.318  31.223  29.810  1.00  0.00     0.039 A 
ATOM     31  C   UNL A   1      36.350  29.834  29.974  1.00  0.00     0.014 A 
ATOM     32  C   UNL A   1      37.510  31.884  29.603  1.00  0.00     0.014 A 
ATOM     33  C   UNL A   1      37.588  29.176  29.944  1.00  0.00     0.010 A 
ATOM     34  C   UNL A   1      38.675  31.243  29.327  1.00  0.00     0.010 A 
ATOM     35  C   UNL A   1      38.747  29.908  29.649  1.00  0.00    -0.014 A 
BRANCH  35  36
ATOM     36  C   UNL A   1      40.091  29.365  29.658  1.00  0.00     0.031 A 
ATOM     37  C   UNL A   1      40.648  29.125  31.000  1.00  0.00     0.074 A 
ATOM     38  C   UNL A   1      40.652  28.796  28.565  1.00  0.00     0.049 A 
ATOM     39  N   UNL A   1      41.584  29.793  31.581  1.00  0.00    -0.248 NA
ATOM     40  C   UNL A   1      40.004  28.112  31.849  1.00  0.00     0.031 C 
ATOM     41  C   UNL A   1      40.042  28.555  27.246  1.00  0.00     0.029 A 
ATOM     42  N   UNL A   1      41.847  28.156  28.462  1.00  0.00    -0.354 N 
ATOM     43  C   UNL A   1      41.820  29.119  32.772  1.00  0.00     0.074 A 
ATOM     44  C   UNL A   1      40.680  28.266  32.989  1.00  0.00     0.031 C 
ATOM     45  C   UNL A   1      40.767  27.631  26.578  1.00  0.00     0.029 A 
ATOM     46  C   UNL A   1      41.968  27.345  27.339  1.00  0.00     0.049 A 
ATOM     47  H   UNL A   1      42.566  28.259  29.126  1.00  0.00     0.167 HD
ATOM     48  C   UNL A   1      43.055  29.106  33.340  1.00  0.00     0.034 A 
ATOM     49  C   UNL A   1      42.969  26.468  27.085  1.00  0.00     0.034 A 
ATOM     50  C   UNL A   1      43.949  30.039  32.697  1.00  0.00     0.049 A 
ATOM     51  C   UNL A   1      44.115  26.858  27.938  1.00  0.00     0.074 A 
ATOM     52  C   UNL A   1      43.926  31.393  32.425  1.00  0.00     0.029 A 
ATOM     53  N   UNL A   1      44.904  29.504  31.863  1.00  0.00    -0.354 N 
ATOM     54  N   UNL A   1      44.787  27.965  27.785  1.00  0.00    -0.248 NA
ATOM     55  C   UNL A   1      44.273  26.204  29.226  1.00  0.00     0.031 C 
ATOM     56  C   UNL A   1      44.520  31.522  31.135  1.00  0.00     0.029 A 
ATOM     57  C   UNL A   1      44.914  30.250  30.713  1.00  0.00     0.049 A 
ATOM     58  H   UNL A   1      45.476  28.727  32.056  1.00  0.00     0.167 HD
ATOM     59  C   UNL A   1      45.075  28.377  29.080  1.00  0.00     0.074 A 
ATOM     60  C   UNL A   1      44.860  27.192  29.907  1.00  0.00     0.031 C 
ATOM     61  C   UNL A   1      45.166  29.704  29.395  1.00  0.00     0.034 A 
BRANCH  48  62
ATOM     62  C   UNL A   1      43.581  28.015  34.235  1.00  0.00     0.023 A 
ATOM     63  C   UNL A   1      44.092  28.406  35.492  1.00  0.00     0.012 A 
ATOM     64  C   UNL A   1      43.821  26.684  33.829  1.00  0.00     0.148 A 
ATOM     65  C   UNL A   1      44.830  27.526  36.288  1.00  0.00     0.002 A 
ATOM     66  C   UNL A   1      44.468  25.785  34.668  1.00  0.00     0.091 A 
ATOM     67  F   UNL A   1      43.558  26.304  32.574  1.00  0.00    -0.205 F 
ATOM     68  C   UNL A   1      45.004  26.208  35.885  1.00  0.00     0.022 A 
BRANCH  66  69
ATOM     69  S   UNL A   1      44.635  24.055  34.219  1.00  0.00     0.127 S 
ATOM     70  O   UNL A   1      45.339  23.517  35.377  1.00  0.00    -0.237 OA
ATOM     71  O   UNL A   1      43.239  23.636  34.089  1.00  0.00    -0.237 OA
ATOM     72  O   UNL A   1      45.368  24.064  32.958  1.00  0.00    -0.744 OA
ENDBRANCH  66  69
ENDBRANCH  48  62
BRANCH  49  73
ATOM     73  C   UNL A   1      42.967  25.211  26.306  1.00  0.00     0.023 A 
ATOM     74  C   UNL A   1      43.908  25.028  25.272  1.00  0.00     0.012 A 
ATOM     75  C   UNL A   1      42.233  24.087  26.743  1.00  0.00     0.148 A 
ATOM     76  C   UNL A   1      44.139  23.762  24.720  1.00  0.00     0.002 A 
ATOM     77  C   UNL A   1      42.461  22.831  26.185  1.00  0.00     0.091 A 
ATOM     78  F   UNL A   1      41.380  24.234  27.765  1.00  0.00    -0.205 F 
ATOM     79  C   UNL A   1      43.423  22.662  25.182  1.00  0.00     0.022 A 
BRANCH  77  80
ATOM     80  S   UNL A   1      41.586  21.364  26.745  1.00  0.00     0.127 S 
ATOM     81  O   UNL A   1      41.403  21.647  28.169  1.00  0.00    -0.237 OA
ATOM     82  O   UNL A   1      40.366  21.419  25.946  1.00  0.00    -0.237 OA
ATOM     83  O   UNL A   1      42.482  20.251  26.463  1.00  0.00    -0.744 OA
ENDBRANCH  77  80
ENDBRANCH  49  73
BRANCH  61  84
ATOM     84  C   UNL A   1      45.232  30.704  28.261  1.00  0.00     0.023 A 
ATOM     85  C   UNL A   1      44.070  31.197  27.630  1.00  0.00     0.012 A 
ATOM     86  C   UNL A   1      46.471  31.289  27.946  1.00  0.00     0.148 A 
ATOM     87  C   UNL A   1      44.144  32.227  26.688  1.00  0.00     0.002 A 
ATOM     88  C   UNL A   1      46.535  32.346  27.045  1.00  0.00     0.091 A 
ATOM     89  F   UNL A   1      47.569  30.817  28.555  1.00  0.00    -0.205 F 
ATOM     90  C   UNL A   1      45.375  32.811  26.405  1.00  0.00     0.022 A 
BRANCH  88  91
ATOM     91  S   UNL A   1      48.068  33.228  26.739  1.00  0.00     0.127 S 
ATOM     92  O   UNL A   1      48.976  32.145  26.370  1.00  0.00    -0.237 OA
ATOM     93  O   UNL A   1      47.705  34.123  25.638  1.00  0.00    -0.237 OA
ATOM     94  O   UNL A   1      48.385  33.919  27.983  1.00  0.00    -0.744 OA
ENDBRANCH  88  91
ENDBRANCH  61  84
ENDBRANCH  35  36
ENDBRANCH  27  30
ENDBRANCH  25  26
ENDBRANCH   1  25
TORSDOF 16
ENDMDL
MODEL 3
REMARK VINA RESULT:     -11.6      3.891      8.473
REMARK SMILES Cc1ccc(C)c(/C=C2\SC(=S)N(CC(=O)NCCCCNC(=O)c3ccc(-c4c5nc(c(-c6cccc(S(=O)(=O)[O-])c6F)c6ccc([nH]6)c(-c6cccc(S(=O)(=O)[O-])c6F)c6nc(c(-c7cccc(S(=O)(=O)[O-])c7F)c7ccc4[nH]7)C=C6)C=C5)cc3)C2=O)c1
REMARK SMILES IDX 20 1 19 2 18 3 17 4 15 5 16 6 14 8 13 9 8 10 9 11 10 12
REMARK SMILES IDX 88 13 11 14 89 15 12 16 7 17 1 18 2 19 3 20 90 21 4 22 5 23
REMARK SMILES IDX 6 24 21 25 22 26 23 27 24 29 25 30 26 31 87 32 27 33 86 34
REMARK SMILES IDX 28 35 29 36 30 37 80 38 31 39 85 40 79 41 81 42 32 43 84 44
REMARK SMILES IDX 78 45 77 46 33 48 65 49 45 50 64 51 46 52 49 53 63 54 82 55
REMARK SMILES IDX 47 56 48 57 62 59 83 60 50 61 34 62 35 63 43 64 36 65 38 66
REMARK SMILES IDX 44 67 37 68 39 69 40 70 41 71 42 72 66 73 67 74 75 75 68 76
REMARK SMILES IDX 70 77 76 78 69 79 71 80 72 81 73 82 74 83 51 84 52 85 60 86
REMARK SMILES IDX 53 87 55 88 61 89 54 90 56 91 57 92 58 93 59 94
REMARK H PARENT 17 7 22 28 81 47 49 58
REMARK Flexibility Score: inf
ROOT
ATOM      1  C   UNL A   1      32.974  29.531  26.414  1.00  0.00     0.023 C 
ENDROOT
BRANCH   1   2
ATOM      2  C   UNL A   1      32.031  28.437  26.947  1.00  0.00     0.023 C 
BRANCH   2   3
ATOM      3  C   UNL A   1      32.336  26.972  26.617  1.00  0.00     0.116 C 
BRANCH   3   4
ATOM      4  N   UNL A   1      31.245  26.075  26.907  1.00  0.00    -0.355 N 
ATOM      5  C   UNL A   1      30.599  25.183  26.102  1.00  0.00     0.240 C 
ATOM      6  O   UNL A   1      29.743  24.469  26.625  1.00  0.00    -0.273 OA
ATOM      7  H   UNL A   1      30.913  26.113  27.833  1.00  0.00     0.163 HD
BRANCH   5   8
ATOM      8  C   UNL A   1      30.948  25.043  24.617  1.00  0.00     0.227 C 
BRANCH   8   9
ATOM      9  N   UNL A   1      30.816  26.320  23.914  1.00  0.00    -0.283 N 
ATOM     10  C   UNL A   1      28.525  28.976  23.087  1.00  0.00     0.029 C 
ATOM     11  C   UNL A   1      29.615  28.201  23.175  1.00  0.00     0.081 C 
ATOM     12  S   UNL A   1      31.222  28.539  22.679  1.00  0.00    -0.054 SA
ATOM     13  C   UNL A   1      29.544  26.861  23.809  1.00  0.00     0.266 C 
ATOM     14  C   UNL A   1      31.819  26.981  23.243  1.00  0.00     0.148 C 
ATOM     15  O   UNL A   1      28.501  26.351  24.162  1.00  0.00    -0.268 OA
ATOM     16  S   UNL A   1      33.381  26.487  22.929  1.00  0.00    -0.052 S 
BRANCH  10  17
ATOM     17  C   UNL A   1      28.479  30.334  22.531  1.00  0.00    -0.021 A 
ATOM     18  C   UNL A   1      27.532  31.918  19.191  1.00  0.00     0.044 C 
ATOM     19  C   UNL A   1      27.980  31.766  20.615  1.00  0.00    -0.051 A 
ATOM     20  C   UNL A   1      28.397  32.876  21.350  1.00  0.00     0.004 A 
ATOM     21  C   UNL A   1      28.002  30.507  21.220  1.00  0.00     0.011 A 
ATOM     22  C   UNL A   1      28.836  32.723  22.667  1.00  0.00     0.004 A 
ATOM     23  C   UNL A   1      28.887  31.457  23.275  1.00  0.00    -0.044 A 
ATOM     24  C   UNL A   1      29.393  31.382  24.690  1.00  0.00     0.045 C 
ENDBRANCH  10  17
ENDBRANCH   8   9
ENDBRANCH   5   8
ENDBRANCH   3   4
ENDBRANCH   2   3
ENDBRANCH   1   2
BRANCH   1  25
ATOM     25  C   UNL A   1      34.235  29.887  27.213  1.00  0.00     0.116 C 
BRANCH  25  26
ATOM     26  N   UNL A   1      34.091  31.083  28.060  1.00  0.00    -0.352 N 
ATOM     27  C   UNL A   1      34.824  31.576  29.133  1.00  0.00     0.251 C 
ATOM     28  H   UNL A   1      33.321  31.646  27.819  1.00  0.00     0.163 HD
ATOM     29  O   UNL A   1      34.302  32.398  29.883  1.00  0.00    -0.269 OA
BRANCH  27  30
ATOM     30  C   UNL A   1      36.228  31.166  29.363  1.00  0.00     0.039 A 
ATOM     31  C   UNL A   1      37.284  32.055  29.583  1.00  0.00     0.014 A 
ATOM     32  C   UNL A   1      36.515  29.820  29.271  1.00  0.00     0.014 A 
ATOM     33  C   UNL A   1      38.589  31.549  29.678  1.00  0.00     0.010 A 
ATOM     34  C   UNL A   1      37.722  29.296  29.603  1.00  0.00     0.010 A 
ATOM     35  C   UNL A   1      38.789  30.162  29.654  1.00  0.00    -0.014 A 
BRANCH  35  36
ATOM     36  C   UNL A   1      40.086  29.515  29.671  1.00  0.00     0.031 A 
ATOM     37  C   UNL A   1      40.625  29.254  31.017  1.00  0.00     0.074 A 
ATOM     38  C   UNL A   1      40.600  28.886  28.588  1.00  0.00     0.049 A 
ATOM     39  N   UNL A   1      41.611  29.857  31.587  1.00  0.00    -0.248 NA
ATOM     40  C   UNL A   1      39.905  28.309  31.882  1.00  0.00     0.031 C 
ATOM     41  C   UNL A   1      39.972  28.671  27.273  1.00  0.00     0.029 A 
ATOM     42  N   UNL A   1      41.742  28.153  28.496  1.00  0.00    -0.354 N 
ATOM     43  C   UNL A   1      41.795  29.187  32.789  1.00  0.00     0.074 A 
ATOM     44  C   UNL A   1      40.592  28.429  33.020  1.00  0.00     0.031 C 
ATOM     45  C   UNL A   1      40.622  27.683  26.621  1.00  0.00     0.029 A 
ATOM     46  C   UNL A   1      41.798  27.317  27.387  1.00  0.00     0.049 A 
ATOM     47  H   UNL A   1      42.467  28.211  29.158  1.00  0.00     0.167 HD
ATOM     48  C   UNL A   1      43.026  29.087  33.357  1.00  0.00     0.034 A 
ATOM     49  C   UNL A   1      42.727  26.360  27.147  1.00  0.00     0.034 A 
ATOM     50  C   UNL A   1      43.989  29.936  32.699  1.00  0.00     0.049 A 
ATOM     51  C   UNL A   1      43.901  26.674  27.993  1.00  0.00     0.074 A 
ATOM     52  C   UNL A   1      44.071  31.283  32.405  1.00  0.00     0.029 A 
ATOM     53  N   UNL A   1      44.898  29.315  31.874  1.00  0.00    -0.354 N 
ATOM     54  N   UNL A   1      44.657  27.722  27.823  1.00  0.00    -0.248 NA
ATOM     55  C   UNL A   1      44.009  26.030  29.292  1.00  0.00     0.031 C 
ATOM     56  C   UNL A   1      44.672  31.344  31.113  1.00  0.00     0.029 A 
ATOM     57  C   UNL A   1      44.965  30.038  30.713  1.00  0.00     0.049 A 
ATOM     58  H   UNL A   1      45.408  28.499  32.081  1.00  0.00     0.167 HD
ATOM     59  C   UNL A   1      44.978  28.131  29.110  1.00  0.00     0.074 A 
ATOM     60  C   UNL A   1      44.672  26.981  29.957  1.00  0.00     0.031 C 
ATOM     61  C   UNL A   1      45.173  29.453  29.403  1.00  0.00     0.034 A 
BRANCH  48  62
ATOM     62  C   UNL A   1      43.466  27.973  34.270  1.00  0.00     0.023 A 
ATOM     63  C   UNL A   1      43.959  28.341  35.541  1.00  0.00     0.012 A 
ATOM     64  C   UNL A   1      43.647  26.629  33.876  1.00  0.00     0.148 A 
ATOM     65  C   UNL A   1      44.625  27.426  36.361  1.00  0.00     0.002 A 
ATOM     66  C   UNL A   1      44.221  25.701  34.736  1.00  0.00     0.091 A 
ATOM     67  F   UNL A   1      43.403  26.258  32.614  1.00  0.00    -0.205 F 
ATOM     68  C   UNL A   1      44.741  26.100  35.967  1.00  0.00     0.022 A 
BRANCH  66  69
ATOM     69  S   UNL A   1      44.309  23.962  34.296  1.00  0.00     0.127 S 
ATOM     70  O   UNL A   1      45.008  24.018  33.017  1.00  0.00    -0.237 OA
ATOM     71  O   UNL A   1      45.083  23.405  35.405  1.00  0.00    -0.237 OA
ATOM     72  O   UNL A   1      42.922  23.513  34.259  1.00  0.00    -0.744 OA
ENDBRANCH  66  69
ENDBRANCH  48  62
BRANCH  49  73
ATOM     73  C   UNL A   1      42.626  25.094  26.389  1.00  0.00     0.023 A 
ATOM     74  C   UNL A   1      43.645  24.740  25.481  1.00  0.00     0.012 A 
ATOM     75  C   UNL A   1      41.681  24.107  26.746  1.00  0.00     0.148 A 
ATOM     76  C   UNL A   1      43.744  23.438  24.977  1.00  0.00     0.002 A 
ATOM     77  C   UNL A   1      41.780  22.815  26.236  1.00  0.00     0.091 A 
ATOM     78  F   UNL A   1      40.745  24.412  27.654  1.00  0.00    -0.205 F 
ATOM     79  C   UNL A   1      42.818  22.473  25.361  1.00  0.00     0.022 A 
BRANCH  77  80
ATOM     80  S   UNL A   1      40.631  21.514  26.702  1.00  0.00     0.127 S 
ATOM     81  O   UNL A   1      40.735  21.527  28.161  1.00  0.00    -0.237 OA
ATOM     82  O   UNL A   1      39.369  22.024  26.172  1.00  0.00    -0.237 OA
ATOM     83  O   UNL A   1      41.143  20.305  26.072  1.00  0.00    -0.744 OA
ENDBRANCH  77  80
ENDBRANCH  49  73
BRANCH  61  84
ATOM     84  C   UNL A   1      45.315  30.425  28.253  1.00  0.00     0.023 A 
ATOM     85  C   UNL A   1      44.197  30.918  27.548  1.00  0.00     0.012 A 
ATOM     86  C   UNL A   1      46.577  30.988  27.995  1.00  0.00     0.148 A 
ATOM     87  C   UNL A   1      44.337  31.926  26.589  1.00  0.00     0.002 A 
ATOM     88  C   UNL A   1      46.706  32.023  27.075  1.00  0.00     0.091 A 
ATOM     89  F   UNL A   1      47.634  30.516  28.674  1.00  0.00    -0.205 F 
ATOM     90  C   UNL A   1      45.590  32.487  26.362  1.00  0.00     0.022 A 
BRANCH  88  91
ATOM     91  S   UNL A   1      48.266  32.878  26.836  1.00  0.00     0.127 S 
ATOM     92  O   UNL A   1      49.150  31.792  26.417  1.00  0.00    -0.237 OA
ATOM     93  O   UNL A   1      47.940  33.842  25.783  1.00  0.00    -0.237 OA
ATOM     94  O   UNL A   1      48.585  33.490  28.120  1.00  0.00    -0.744 OA
ENDBRANCH  88  91
ENDBRANCH  61  84
ENDBRANCH  35  36
ENDBRANCH  27  30
ENDBRANCH  25  26
ENDBRANCH   1  25
TORSDOF 16
ENDMDL
