MODEL 1
REMARK VINA RESULT:     -12.3      0.000      0.000
REMARK SMILES O=C(NCCCCNC(=O)c1ccc(-c2c3nc(c(-c4cccc(S(=O)(=O)[O-])c4F)c4ccc([nH]4)c(-c4cccc(S(=O)(=O)[O-])c4F)c4nc(c(-c5cccc(S(=O)(=O)[O-])c5F)c5ccc2[nH]5)C=C4)C=C3)cc1)C1=Cc2cc(S(F)(F)(F)(F)F)ccc2O[C@@H]1C(F)(F)F
REMARK SMILES IDX 6 1 5 2 4 3 3 4 1 5 2 6 74 8 75 9 89 10 76 11 88 12 77 13
REMARK SMILES IDX 87 14 78 15 86 16 85 17 90 18 91 19 92 20 93 21 79 22 80 23
REMARK SMILES IDX 81 24 82 25 83 26 84 27 7 28 8 29 9 30 10 32 11 33 12 34
REMARK SMILES IDX 73 35 13 36 72 37 14 38 15 39 16 40 66 41 17 42 71 43 65 44
REMARK SMILES IDX 67 45 18 46 70 47 64 48 63 49 19 51 51 52 31 53 50 54 32 55
REMARK SMILES IDX 35 56 49 57 68 58 33 59 34 60 48 62 69 63 36 64 20 65 21 66
REMARK SMILES IDX 29 67 22 68 24 69 30 70 23 71 25 72 26 73 27 74 28 75 52 76
REMARK SMILES IDX 53 77 61 78 54 79 56 80 62 81 55 82 57 83 58 84 59 85 60 86
REMARK SMILES IDX 37 87 38 88 46 89 39 90 41 91 47 92 40 93 42 94 43 95 44 96
REMARK SMILES IDX 45 97
REMARK H PARENT 3 7 8 31 67 50 35 61
REMARK Flexibility Score: inf
ROOT
ATOM      1  C   UNL A   1      33.170  31.386  27.598  1.00  0.00     0.023 C 
ENDROOT
BRANCH   1   2
ATOM      2  C   UNL A   1      34.354  30.446  27.749  1.00  0.00     0.023 C 
BRANCH   2   3
ATOM      3  C   UNL A   1      34.064  29.144  27.021  1.00  0.00     0.116 C 
BRANCH   3   4
ATOM      4  N   UNL A   1      32.888  28.499  27.623  1.00  0.00    -0.352 N 
ATOM      5  O   UNL A   1      30.765  27.486  27.288  1.00  0.00    -0.270 OA
ATOM      6  C   UNL A   1      31.782  28.043  26.769  1.00  0.00     0.251 C 
ATOM      7  H   UNL A   1      32.841  28.371  28.599  1.00  0.00     0.163 HD
BRANCH   6   8
ATOM      8  C   UNL A   1      31.854  28.240  25.263  1.00  0.00     0.067 C 
ATOM      9  C   UNL A   1      32.483  27.319  24.485  1.00  0.00     0.025 C 
ATOM     10  C   UNL A   1      31.222  29.467  24.625  1.00  0.00     0.314 C 
ATOM     11  C   UNL A   1      33.115  26.091  25.123  1.00  0.00     0.019 A 
ATOM     12  O   UNL A   1      31.224  25.952  26.556  1.00  0.00    -0.475 OA
ATOM     13  C   UNL A   1      34.374  25.684  24.715  1.00  0.00     0.036 A 
ATOM     14  C   UNL A   1      32.438  25.419  26.047  1.00  0.00     0.128 A 
ATOM     15  C   UNL A   1      34.719  24.377  25.138  1.00  0.00     0.107 A 
ATOM     16  C   UNL A   1      32.902  24.213  26.514  1.00  0.00     0.048 A 
ATOM     17  C   UNL A   1      34.112  23.721  26.110  1.00  0.00     0.028 A 
BRANCH  10  18
ATOM     18  C   UNL A   1      30.155  29.031  23.636  1.00  0.00     0.429 C 
ATOM     19  F   UNL A   1      30.689  28.929  22.423  1.00  0.00    -0.167 F 
ATOM     20  F   UNL A   1      29.664  27.851  24.005  1.00  0.00    -0.167 F 
ATOM     21  F   UNL A   1      29.175  29.931  23.614  1.00  0.00    -0.167 F 
ENDBRANCH  10  18
BRANCH  15  22
ATOM     22  S   UNL A   1      36.086  23.551  24.288  1.00  0.00     0.310 S 
ATOM     23  F   UNL A   1      35.793  22.175  25.021  1.00  0.00    -0.094 F 
ATOM     24  F   UNL A   1      37.025  23.917  25.499  1.00  0.00    -0.094 F 
ATOM     25  F   UNL A   1      37.260  22.840  23.557  1.00  0.00    -0.094 F 
ATOM     26  F   UNL A   1      35.099  23.072  23.151  1.00  0.00    -0.094 F 
ATOM     27  F   UNL A   1      34.861  24.170  25.071  1.00  0.00    -0.094 F 
ENDBRANCH  15  22
ENDBRANCH   6   8
ENDBRANCH   3   4
ENDBRANCH   2   3
ENDBRANCH   1   2
BRANCH   1  28
ATOM     28  C   UNL A   1      33.659  32.746  27.127  1.00  0.00     0.116 C 
BRANCH  28  29
ATOM     29  N   UNL A   1      32.903  33.803  27.814  1.00  0.00    -0.352 N 
ATOM     30  C   UNL A   1      33.334  34.272  29.139  1.00  0.00     0.251 C 
ATOM     31  H   UNL A   1      32.107  34.197  27.387  1.00  0.00     0.163 HD
ATOM     32  O   UNL A   1      32.680  35.186  29.734  1.00  0.00    -0.269 OA
BRANCH  30  33
ATOM     33  C   UNL A   1      34.560  33.664  29.799  1.00  0.00     0.039 A 
ATOM     34  C   UNL A   1      35.819  34.104  29.425  1.00  0.00     0.014 A 
ATOM     35  C   UNL A   1      34.406  32.707  30.706  1.00  0.00     0.014 A 
ATOM     36  C   UNL A   1      36.872  33.265  29.860  1.00  0.00     0.010 A 
ATOM     37  C   UNL A   1      35.493  32.019  31.189  1.00  0.00     0.010 A 
ATOM     38  C   UNL A   1      36.764  32.362  30.818  1.00  0.00    -0.014 A 
BRANCH  38  39
ATOM     39  C   UNL A   1      37.986  31.738  31.471  1.00  0.00     0.031 A 
ATOM     40  C   UNL A   1      38.392  32.230  32.714  1.00  0.00     0.074 A 
ATOM     41  C   UNL A   1      38.619  30.703  30.804  1.00  0.00     0.049 A 
ATOM     42  N   UNL A   1      39.397  31.793  33.472  1.00  0.00    -0.248 NA
ATOM     43  C   UNL A   1      37.742  33.350  33.408  1.00  0.00     0.031 C 
ATOM     44  C   UNL A   1      38.210  30.196  29.555  1.00  0.00     0.029 A 
ATOM     45  N   UNL A   1      39.727  29.992  31.206  1.00  0.00    -0.354 N 
ATOM     46  C   UNL A   1      39.466  32.501  34.602  1.00  0.00     0.074 A 
ATOM     47  C   UNL A   1      38.405  33.518  34.573  1.00  0.00     0.031 C 
ATOM     48  C   UNL A   1      39.066  29.200  29.204  1.00  0.00     0.029 A 
ATOM     49  C   UNL A   1      40.023  29.068  30.227  1.00  0.00     0.049 A 
ATOM     50  H   UNL A   1      40.221  30.119  32.047  1.00  0.00     0.167 HD
ATOM     51  C   UNL A   1      40.368  32.338  35.653  1.00  0.00     0.034 A 
ATOM     52  C   UNL A   1      41.067  28.156  30.210  1.00  0.00     0.034 A 
ATOM     53  C   UNL A   1      41.385  31.396  35.654  1.00  0.00     0.049 A 
ATOM     54  C   UNL A   1      42.006  28.032  31.236  1.00  0.00     0.074 A 
ATOM     55  C   UNL A   1      42.299  31.214  36.710  1.00  0.00     0.029 A 
ATOM     56  N   UNL A   1      41.697  30.491  34.665  1.00  0.00    -0.354 N 
ATOM     57  N   UNL A   1      42.049  28.714  32.382  1.00  0.00    -0.248 NA
ATOM     58  C   UNL A   1      43.134  27.092  31.213  1.00  0.00     0.031 C 
ATOM     59  C   UNL A   1      43.155  30.218  36.358  1.00  0.00     0.029 A 
ATOM     60  C   UNL A   1      42.791  29.762  35.077  1.00  0.00     0.049 A 
ATOM     61  H   UNL A   1      41.219  30.382  33.810  1.00  0.00     0.167 HD
ATOM     62  C   UNL A   1      43.081  28.304  33.122  1.00  0.00     0.074 A 
ATOM     63  C   UNL A   1      43.799  27.260  32.377  1.00  0.00     0.031 C 
ATOM     64  C   UNL A   1      43.452  28.756  34.390  1.00  0.00     0.034 A 
BRANCH  51  65
ATOM     65  C   UNL A   1      40.228  33.244  36.865  1.00  0.00     0.023 A 
ATOM     66  C   UNL A   1      41.029  34.369  36.966  1.00  0.00     0.012 A 
ATOM     67  C   UNL A   1      39.397  32.901  37.842  1.00  0.00     0.148 A 
ATOM     68  C   UNL A   1      41.093  34.912  38.271  1.00  0.00     0.002 A 
ATOM     69  C   UNL A   1      39.420  33.563  39.046  1.00  0.00     0.091 A 
ATOM     70  F   UNL A   1      38.533  31.906  37.654  1.00  0.00    -0.205 F 
ATOM     71  C   UNL A   1      40.231  34.647  39.236  1.00  0.00     0.022 A 
BRANCH  69  72
ATOM     72  S   UNL A   1      38.360  32.993  40.398  1.00  0.00     0.127 S 
ATOM     73  O   UNL A   1      38.774  31.577  40.808  1.00  0.00    -0.237 OA
ATOM     74  O   UNL A   1      38.510  33.934  41.596  1.00  0.00    -0.237 OA
ATOM     75  O   UNL A   1      36.731  32.983  39.880  1.00  0.00    -0.744 OA
ENDBRANCH  69  72
ENDBRANCH  51  65
BRANCH  52  76
ATOM     76  C   UNL A   1      41.197  27.240  29.004  1.00  0.00     0.023 A 
ATOM     77  C   UNL A   1      40.430  26.086  29.025  1.00  0.00     0.012 A 
ATOM     78  C   UNL A   1      41.972  27.532  27.967  1.00  0.00     0.148 A 
ATOM     79  C   UNL A   1      40.772  25.152  28.020  1.00  0.00     0.002 A 
ATOM     80  C   UNL A   1      42.155  26.624  26.952  1.00  0.00     0.091 A 
ATOM     81  F   UNL A   1      42.578  28.714  27.909  1.00  0.00    -0.205 F 
ATOM     82  C   UNL A   1      41.474  25.438  26.938  1.00  0.00     0.022 A 
BRANCH  80  83
ATOM     83  S   UNL A   1      43.312  27.002  25.613  1.00  0.00     0.127 S 
ATOM     84  O   UNL A   1      42.653  27.968  24.627  1.00  0.00    -0.237 OA
ATOM     85  O   UNL A   1      44.573  27.647  26.195  1.00  0.00    -0.237 OA
ATOM     86  O   UNL A   1      43.735  25.558  24.801  1.00  0.00    -0.744 OA
ENDBRANCH  80  83
ENDBRANCH  52  76
BRANCH  64  87
ATOM     87  C   UNL A   1      44.652  28.105  35.057  1.00  0.00     0.023 A 
ATOM     88  C   UNL A   1      45.906  28.670  34.896  1.00  0.00     0.012 A 
ATOM     89  C   UNL A   1      44.483  26.995  35.765  1.00  0.00     0.148 A 
ATOM     90  C   UNL A   1      46.972  27.824  35.286  1.00  0.00     0.002 A 
ATOM     91  C   UNL A   1      45.566  26.290  36.231  1.00  0.00     0.091 A 
ATOM     92  F   UNL A   1      43.253  26.562  36.027  1.00  0.00    -0.205 F 
ATOM     93  C   UNL A   1      46.838  26.760  36.057  1.00  0.00     0.022 A 
BRANCH  91  94
ATOM     94  S   UNL A   1      45.306  24.718  37.088  1.00  0.00     0.127 S 
ATOM     95  O   UNL A   1      46.662  24.079  37.404  1.00  0.00    -0.237 OA
ATOM     96  O   UNL A   1      44.543  24.965  38.391  1.00  0.00    -0.237 OA
ATOM     97  O   UNL A   1      44.401  23.666  36.088  1.00  0.00    -0.744 OA
ENDBRANCH  91  94
ENDBRANCH  64  87
ENDBRANCH  38  39
ENDBRANCH  30  33
ENDBRANCH  28  29
ENDBRANCH   1  28
TORSDOF 16
ENDMDL
MODEL 2
REMARK VINA RESULT:     -12.3      3.786      4.975
REMARK SMILES O=C(NCCCCNC(=O)c1ccc(-c2c3nc(c(-c4cccc(S(=O)(=O)[O-])c4F)c4ccc([nH]4)c(-c4cccc(S(=O)(=O)[O-])c4F)c4nc(c(-c5cccc(S(=O)(=O)[O-])c5F)c5ccc2[nH]5)C=C4)C=C3)cc1)C1=Cc2cc(S(F)(F)(F)(F)F)ccc2O[C@@H]1C(F)(F)F
REMARK SMILES IDX 6 1 5 2 4 3 3 4 1 5 2 6 74 8 75 9 89 10 76 11 88 12 77 13
REMARK SMILES IDX 87 14 78 15 86 16 85 17 90 18 91 19 92 20 93 21 79 22 80 23
REMARK SMILES IDX 81 24 82 25 83 26 84 27 7 28 8 29 9 30 10 32 11 33 12 34
REMARK SMILES IDX 73 35 13 36 72 37 14 38 15 39 16 40 66 41 17 42 71 43 65 44
REMARK SMILES IDX 67 45 18 46 70 47 64 48 63 49 19 51 51 52 31 53 50 54 32 55
REMARK SMILES IDX 35 56 49 57 68 58 33 59 34 60 48 62 69 63 36 64 20 65 21 66
REMARK SMILES IDX 29 67 22 68 24 69 30 70 23 71 25 72 26 73 27 74 28 75 52 76
REMARK SMILES IDX 53 77 61 78 54 79 56 80 62 81 55 82 57 83 58 84 59 85 60 86
REMARK SMILES IDX 37 87 38 88 46 89 39 90 41 91 47 92 40 93 42 94 43 95 44 96
REMARK SMILES IDX 45 97
REMARK H PARENT 3 7 8 31 67 50 35 61
REMARK Flexibility Score: inf
ROOT
ATOM      1  C   UNL A   1      33.198  27.876  25.908  1.00  0.00     0.023 C 
ENDROOT
BRANCH   1   2
ATOM      2  C   UNL A   1      33.615  27.010  24.731  1.00  0.00     0.023 C 
BRANCH   2   3
ATOM      3  C   UNL A   1      33.746  25.566  25.187  1.00  0.00     0.116 C 
BRANCH   3   4
ATOM      4  N   UNL A   1      34.158  24.729  24.050  1.00  0.00    -0.352 N 
ATOM      5  O   UNL A   1      33.718  22.830  22.694  1.00  0.00    -0.270 OA
ATOM      6  C   UNL A   1      33.362  23.553  23.676  1.00  0.00     0.251 C 
ATOM      7  H   UNL A   1      34.969  24.958  23.539  1.00  0.00     0.163 HD
BRANCH   6   8
ATOM      8  C   UNL A   1      32.111  23.199  24.466  1.00  0.00     0.067 C 
ATOM      9  C   UNL A   1      31.962  21.948  24.978  1.00  0.00     0.025 C 
ATOM     10  C   UNL A   1      31.029  24.243  24.683  1.00  0.00     0.314 C 
ATOM     11  C   UNL A   1      33.045  20.903  24.761  1.00  0.00     0.019 A 
ATOM     12  O   UNL A   1      34.660  22.605  25.142  1.00  0.00    -0.475 OA
ATOM     13  C   UNL A   1      32.687  19.614  24.405  1.00  0.00     0.036 A 
ATOM     14  C   UNL A   1      34.317  21.242  24.936  1.00  0.00     0.128 A 
ATOM     15  C   UNL A   1      33.734  18.670  24.539  1.00  0.00     0.107 A 
ATOM     16  C   UNL A   1      35.304  20.286  24.920  1.00  0.00     0.048 A 
ATOM     17  C   UNL A   1      35.013  18.981  24.633  1.00  0.00     0.028 A 
BRANCH  10  18
ATOM     18  C   UNL A   1      30.841  24.476  26.172  1.00  0.00     0.429 C 
ATOM     19  F   UNL A   1      30.476  25.738  26.382  1.00  0.00    -0.167 F 
ATOM     20  F   UNL A   1      29.898  23.660  26.633  1.00  0.00    -0.167 F 
ATOM     21  F   UNL A   1      31.985  24.235  26.807  1.00  0.00    -0.167 F 
ENDBRANCH  10  18
BRANCH  15  22
ATOM     22  S   UNL A   1      33.286  16.917  24.585  1.00  0.00     0.310 S 
ATOM     23  F   UNL A   1      34.759  16.487  24.987  1.00  0.00    -0.094 F 
ATOM     24  F   UNL A   1      33.734  16.792  23.079  1.00  0.00    -0.094 F 
ATOM     25  F   UNL A   1      32.902  15.411  24.624  1.00  0.00    -0.094 F 
ATOM     26  F   UNL A   1      32.975  17.029  26.130  1.00  0.00    -0.094 F 
ATOM     27  F   UNL A   1      33.778  18.419  24.590  1.00  0.00    -0.094 F 
ENDBRANCH  15  22
ENDBRANCH   6   8
ENDBRANCH   3   4
ENDBRANCH   2   3
ENDBRANCH   1   2
BRANCH   1  28
ATOM     28  C   UNL A   1      34.351  28.783  26.304  1.00  0.00     0.116 C 
BRANCH  28  29
ATOM     29  N   UNL A   1      33.828  30.104  26.680  1.00  0.00    -0.352 N 
ATOM     30  C   UNL A   1      34.574  30.949  27.624  1.00  0.00     0.251 C 
ATOM     31  H   UNL A   1      32.977  30.424  26.300  1.00  0.00     0.163 HD
ATOM     32  O   UNL A   1      34.122  32.092  27.949  1.00  0.00    -0.269 OA
BRANCH  30  33
ATOM     33  C   UNL A   1      35.886  30.456  28.212  1.00  0.00     0.039 A 
ATOM     34  C   UNL A   1      37.077  30.795  27.592  1.00  0.00     0.014 A 
ATOM     35  C   UNL A   1      35.868  29.691  29.297  1.00  0.00     0.014 A 
ATOM     36  C   UNL A   1      38.188  30.036  28.029  1.00  0.00     0.010 A 
ATOM     37  C   UNL A   1      37.018  29.088  29.747  1.00  0.00     0.010 A 
ATOM     38  C   UNL A   1      38.221  29.333  29.147  1.00  0.00    -0.014 A 
BRANCH  38  39
ATOM     39  C   UNL A   1      39.528  28.822  29.732  1.00  0.00     0.031 A 
ATOM     40  C   UNL A   1      40.028  29.451  30.875  1.00  0.00     0.074 A 
ATOM     41  C   UNL A   1      40.142  27.750  29.108  1.00  0.00     0.049 A 
ATOM     42  N   UNL A   1      41.120  29.130  31.568  1.00  0.00    -0.248 NA
ATOM     43  C   UNL A   1      39.396  30.611  31.520  1.00  0.00     0.031 C 
ATOM     44  C   UNL A   1      39.640  27.106  27.960  1.00  0.00     0.029 A 
ATOM     45  N   UNL A   1      41.315  27.124  29.464  1.00  0.00    -0.354 N 
ATOM     46  C   UNL A   1      41.263  29.950  32.612  1.00  0.00     0.074 A 
ATOM     47  C   UNL A   1      40.158  30.919  32.591  1.00  0.00     0.031 C 
ATOM     48  C   UNL A   1      40.504  26.112  27.623  1.00  0.00     0.029 A 
ATOM     49  C   UNL A   1      41.559  26.118  28.554  1.00  0.00     0.049 A 
ATOM     50  H   UNL A   1      41.881  27.353  30.236  1.00  0.00     0.167 HD
ATOM     51  C   UNL A   1      42.267  29.926  33.579  1.00  0.00     0.034 A 
ATOM     52  C   UNL A   1      42.637  25.248  28.521  1.00  0.00     0.034 A 
ATOM     53  C   UNL A   1      43.322  29.027  33.570  1.00  0.00     0.049 A 
ATOM     54  C   UNL A   1      43.675  25.262  29.456  1.00  0.00     0.074 A 
ATOM     55  C   UNL A   1      44.341  28.986  34.542  1.00  0.00     0.029 A 
ATOM     56  N   UNL A   1      43.580  28.039  32.646  1.00  0.00    -0.354 N 
ATOM     57  N   UNL A   1      43.796  26.056  30.520  1.00  0.00    -0.248 NA
ATOM     58  C   UNL A   1      44.839  24.367  29.411  1.00  0.00     0.031 C 
ATOM     59  C   UNL A   1      45.205  27.992  34.204  1.00  0.00     0.029 A 
ATOM     60  C   UNL A   1      44.742  27.396  33.015  1.00  0.00     0.049 A 
ATOM     61  H   UNL A   1      43.029  27.827  31.857  1.00  0.00     0.167 HD
ATOM     62  C   UNL A   1      44.912  25.761  31.190  1.00  0.00     0.074 A 
ATOM     63  C   UNL A   1      45.602  24.675  30.482  1.00  0.00     0.031 C 
ATOM     64  C   UNL A   1      45.380  26.351  32.365  1.00  0.00     0.034 A 
BRANCH  51  65
ATOM     65  C   UNL A   1      42.202  30.943  34.706  1.00  0.00     0.023 A 
ATOM     66  C   UNL A   1      41.538  30.615  35.877  1.00  0.00     0.012 A 
ATOM     67  C   UNL A   1      42.713  32.155  34.521  1.00  0.00     0.148 A 
ATOM     68  C   UNL A   1      41.210  31.731  36.682  1.00  0.00     0.002 A 
ATOM     69  C   UNL A   1      42.464  33.164  35.420  1.00  0.00     0.091 A 
ATOM     70  F   UNL A   1      43.473  32.393  33.456  1.00  0.00    -0.205 F 
ATOM     71  C   UNL A   1      41.764  32.925  36.569  1.00  0.00     0.022 A 
BRANCH  69  72
ATOM     72  S   UNL A   1      43.073  34.834  35.076  1.00  0.00     0.127 S 
ATOM     73  O   UNL A   1      42.452  35.345  33.774  1.00  0.00    -0.237 OA
ATOM     74  O   UNL A   1      42.686  35.765  36.227  1.00  0.00    -0.237 OA
ATOM     75  O   UNL A   1      44.776  34.798  34.920  1.00  0.00    -0.744 OA
ENDBRANCH  69  72
ENDBRANCH  51  65
BRANCH  52  76
ATOM     76  C   UNL A   1      42.694  24.221  27.402  1.00  0.00     0.023 A 
ATOM     77  C   UNL A   1      43.335  24.616  26.239  1.00  0.00     0.012 A 
ATOM     78  C   UNL A   1      42.191  23.000  27.530  1.00  0.00     0.148 A 
ATOM     79  C   UNL A   1      43.140  23.735  25.149  1.00  0.00     0.002 A 
ATOM     80  C   UNL A   1      42.155  22.142  26.457  1.00  0.00     0.091 A 
ATOM     81  F   UNL A   1      41.717  22.602  28.707  1.00  0.00    -0.205 F 
ATOM     82  C   UNL A   1      42.718  22.489  25.259  1.00  0.00     0.022 A 
BRANCH  80  83
ATOM     83  S   UNL A   1      41.353  20.528  26.630  1.00  0.00     0.127 S 
ATOM     84  O   UNL A   1      39.846  20.724  26.808  1.00  0.00    -0.237 OA
ATOM     85  O   UNL A   1      41.615  19.690  25.376  1.00  0.00    -0.237 OA
ATOM     86  O   UNL A   1      41.989  19.720  27.997  1.00  0.00    -0.744 OA
ENDBRANCH  80  83
ENDBRANCH  52  76
BRANCH  64  87
ATOM     87  C   UNL A   1      46.667  25.815  32.969  1.00  0.00     0.023 A 
ATOM     88  C   UNL A   1      47.873  26.408  32.632  1.00  0.00     0.012 A 
ATOM     89  C   UNL A   1      46.618  24.775  33.794  1.00  0.00     0.148 A 
ATOM     90  C   UNL A   1      49.009  25.645  32.993  1.00  0.00     0.002 A 
ATOM     91  C   UNL A   1      47.772  24.161  34.215  1.00  0.00     0.091 A 
ATOM     92  F   UNL A   1      45.440  24.325  34.216  1.00  0.00    -0.205 F 
ATOM     93  C   UNL A   1      48.999  24.658  33.871  1.00  0.00     0.022 A 
BRANCH  91  94
ATOM     94  S   UNL A   1      47.669  22.673  35.240  1.00  0.00     0.127 S 
ATOM     95  O   UNL A   1      49.078  22.131  35.494  1.00  0.00    -0.237 OA
ATOM     96  O   UNL A   1      47.006  23.017  36.575  1.00  0.00    -0.237 OA
ATOM     97  O   UNL A   1      46.740  21.487  34.430  1.00  0.00    -0.744 OA
ENDBRANCH  91  94
ENDBRANCH  64  87
ENDBRANCH  38  39
ENDBRANCH  30  33
ENDBRANCH  28  29
ENDBRANCH   1  28
TORSDOF 16
ENDMDL
MODEL 3
REMARK VINA RESULT:     -12.2      2.843      3.910
REMARK SMILES O=C(NCCCCNC(=O)c1ccc(-c2c3nc(c(-c4cccc(S(=O)(=O)[O-])c4F)c4ccc([nH]4)c(-c4cccc(S(=O)(=O)[O-])c4F)c4nc(c(-c5cccc(S(=O)(=O)[O-])c5F)c5ccc2[nH]5)C=C4)C=C3)cc1)C1=Cc2cc(S(F)(F)(F)(F)F)ccc2O[C@@H]1C(F)(F)F
REMARK SMILES IDX 6 1 5 2 4 3 3 4 1 5 2 6 74 8 75 9 89 10 76 11 88 12 77 13
REMARK SMILES IDX 87 14 78 15 86 16 85 17 90 18 91 19 92 20 93 21 79 22 80 23
REMARK SMILES IDX 81 24 82 25 83 26 84 27 7 28 8 29 9 30 10 32 11 33 12 34
REMARK SMILES IDX 73 35 13 36 72 37 14 38 15 39 16 40 66 41 17 42 71 43 65 44
REMARK SMILES IDX 67 45 18 46 70 47 64 48 63 49 19 51 51 52 31 53 50 54 32 55
REMARK SMILES IDX 35 56 49 57 68 58 33 59 34 60 48 62 69 63 36 64 20 65 21 66
REMARK SMILES IDX 29 67 22 68 24 69 30 70 23 71 25 72 26 73 27 74 28 75 52 76
REMARK SMILES IDX 53 77 61 78 54 79 56 80 62 81 55 82 57 83 58 84 59 85 60 86
REMARK SMILES IDX 37 87 38 88 46 89 39 90 41 91 47 92 40 93 42 94 43 95 44 96
REMARK SMILES IDX 45 97
REMARK H PARENT 3 7 8 31 67 50 35 61
REMARK Flexibility Score: inf
ROOT
ATOM      1  C   UNL A   1      32.885  27.911  25.438  1.00  0.00     0.023 C 
ENDROOT
BRANCH   1   2
ATOM      2  C   UNL A   1      33.183  26.931  24.316  1.00  0.00     0.023 C 
BRANCH   2   3
ATOM      3  C   UNL A   1      33.618  25.600  24.907  1.00  0.00     0.116 C 
BRANCH   3   4
ATOM      4  N   UNL A   1      34.099  24.720  23.831  1.00  0.00    -0.352 N 
ATOM      5  O   UNL A   1      33.829  22.688  22.632  1.00  0.00    -0.270 OA
ATOM      6  C   UNL A   1      33.414  23.448  23.562  1.00  0.00     0.251 C 
ATOM      7  H   UNL A   1      34.879  24.984  23.291  1.00  0.00     0.163 HD
BRANCH   6   8
ATOM      8  C   UNL A   1      32.209  23.041  24.396  1.00  0.00     0.067 C 
ATOM      9  C   UNL A   1      32.160  21.805  24.961  1.00  0.00     0.025 C 
ATOM     10  C   UNL A   1      31.061  24.016  24.599  1.00  0.00     0.314 C 
ATOM     11  C   UNL A   1      33.310  20.831  24.758  1.00  0.00     0.019 A 
ATOM     12  O   UNL A   1      34.808  22.655  25.030  1.00  0.00    -0.475 OA
ATOM     13  C   UNL A   1      33.035  19.506  24.464  1.00  0.00     0.036 A 
ATOM     14  C   UNL A   1      34.558  21.264  24.888  1.00  0.00     0.128 A 
ATOM     15  C   UNL A   1      34.149  18.644  24.609  1.00  0.00     0.107 A 
ATOM     16  C   UNL A   1      35.609  20.379  24.885  1.00  0.00     0.048 A 
ATOM     17  C   UNL A   1      35.405  19.047  24.657  1.00  0.00     0.028 A 
BRANCH  10  18
ATOM     18  C   UNL A   1      30.891  24.297  26.082  1.00  0.00     0.429 C 
ATOM     19  F   UNL A   1      29.948  23.502  26.579  1.00  0.00    -0.167 F 
ATOM     20  F   UNL A   1      32.040  24.069  26.711  1.00  0.00    -0.167 F 
ATOM     21  F   UNL A   1      30.535  25.568  26.255  1.00  0.00    -0.167 F 
ENDBRANCH  10  18
BRANCH  15  22
ATOM     22  S   UNL A   1      33.827  16.867  24.735  1.00  0.00     0.310 S 
ATOM     23  F   UNL A   1      32.434  17.003  23.990  1.00  0.00    -0.094 F 
ATOM     24  F   UNL A   1      33.054  17.132  26.083  1.00  0.00    -0.094 F 
ATOM     25  F   UNL A   1      33.551  15.341  24.844  1.00  0.00    -0.094 F 
ATOM     26  F   UNL A   1      34.483  16.640  23.316  1.00  0.00    -0.094 F 
ATOM     27  F   UNL A   1      34.016  18.426  24.556  1.00  0.00    -0.094 F 
ENDBRANCH  15  22
ENDBRANCH   6   8
ENDBRANCH   3   4
ENDBRANCH   2   3
ENDBRANCH   1   2
BRANCH   1  28
ATOM     28  C   UNL A   1      33.494  29.264  25.105  1.00  0.00     0.116 C 
BRANCH  28  29
ATOM     29  N   UNL A   1      32.558  30.330  25.490  1.00  0.00    -0.352 N 
ATOM     30  C   UNL A   1      32.833  31.158  26.674  1.00  0.00     0.251 C 
ATOM     31  H   UNL A   1      31.746  30.489  24.956  1.00  0.00     0.163 HD
ATOM     32  O   UNL A   1      32.024  32.079  27.007  1.00  0.00    -0.269 OA
BRANCH  30  33
ATOM     33  C   UNL A   1      34.085  30.911  27.499  1.00  0.00     0.039 A 
ATOM     34  C   UNL A   1      35.002  31.936  27.662  1.00  0.00     0.014 A 
ATOM     35  C   UNL A   1      34.289  29.712  28.032  1.00  0.00     0.014 A 
ATOM     36  C   UNL A   1      36.253  31.511  28.168  1.00  0.00     0.010 A 
ATOM     37  C   UNL A   1      35.488  29.409  28.632  1.00  0.00     0.010 A 
ATOM     38  C   UNL A   1      36.462  30.357  28.776  1.00  0.00    -0.014 A 
BRANCH  38  39
ATOM     39  C   UNL A   1      37.719  30.097  29.590  1.00  0.00     0.031 A 
ATOM     40  C   UNL A   1      37.839  30.722  30.833  1.00  0.00     0.074 A 
ATOM     41  C   UNL A   1      38.670  29.242  29.058  1.00  0.00     0.049 A 
ATOM     42  N   UNL A   1      38.828  30.590  31.718  1.00  0.00    -0.248 NA
ATOM     43  C   UNL A   1      36.847  31.656  31.385  1.00  0.00     0.031 C 
ATOM     44  C   UNL A   1      38.552  28.603  27.808  1.00  0.00     0.029 A 
ATOM     45  N   UNL A   1      39.868  28.860  29.617  1.00  0.00    -0.354 N 
ATOM     46  C   UNL A   1      38.581  31.330  32.801  1.00  0.00     0.074 A 
ATOM     47  C   UNL A   1      37.306  32.032  32.599  1.00  0.00     0.031 C 
ATOM     48  C   UNL A   1      39.669  27.855  27.612  1.00  0.00     0.029 A 
ATOM     49  C   UNL A   1      40.503  28.013  28.735  1.00  0.00     0.049 A 
ATOM     50  H   UNL A   1      40.213  29.142  30.494  1.00  0.00     0.167 HD
ATOM     51  C   UNL A   1      39.366  31.445  33.948  1.00  0.00     0.034 A 
ATOM     52  C   UNL A   1      41.740  27.407  28.882  1.00  0.00     0.034 A 
ATOM     53  C   UNL A   1      40.584  30.803  34.114  1.00  0.00     0.049 A 
ATOM     54  C   UNL A   1      42.555  27.568  30.006  1.00  0.00     0.074 A 
ATOM     55  C   UNL A   1      41.385  30.903  35.267  1.00  0.00     0.029 A 
ATOM     56  N   UNL A   1      41.230  29.977  33.221  1.00  0.00    -0.354 N 
ATOM     57  N   UNL A   1      42.288  28.276  31.104  1.00  0.00    -0.248 NA
ATOM     58  C   UNL A   1      43.881  26.957  30.158  1.00  0.00     0.031 C 
ATOM     59  C   UNL A   1      42.503  30.155  35.069  1.00  0.00     0.029 A 
ATOM     60  C   UNL A   1      42.419  29.576  33.789  1.00  0.00     0.049 A 
ATOM     61  H   UNL A   1      40.899  29.717  32.331  1.00  0.00     0.167 HD
ATOM     62  C   UNL A   1      43.298  28.177  31.971  1.00  0.00     0.074 A 
ATOM     63  C   UNL A   1      44.341  27.332  31.372  1.00  0.00     0.031 C 
ATOM     64  C   UNL A   1      43.391  28.754  33.239  1.00  0.00     0.034 A 
BRANCH  51  65
ATOM     65  C   UNL A   1      38.859  32.324  35.079  1.00  0.00     0.023 A 
ATOM     66  C   UNL A   1      39.149  33.679  35.067  1.00  0.00     0.012 A 
ATOM     67  C   UNL A   1      38.215  31.768  36.098  1.00  0.00     0.148 A 
ATOM     68  C   UNL A   1      38.972  34.314  36.318  1.00  0.00     0.002 A 
ATOM     69  C   UNL A   1      37.954  32.488  37.238  1.00  0.00     0.091 A 
ATOM     70  F   UNL A   1      37.818  30.500  36.013  1.00  0.00    -0.205 F 
ATOM     71  C   UNL A   1      38.268  33.816  37.318  1.00  0.00     0.022 A 
BRANCH  69  72
ATOM     72  S   UNL A   1      37.183  31.666  38.655  1.00  0.00     0.127 S 
ATOM     73  O   UNL A   1      38.067  31.847  39.892  1.00  0.00    -0.237 OA
ATOM     74  O   UNL A   1      35.808  32.283  38.917  1.00  0.00    -0.237 OA
ATOM     75  O   UNL A   1      37.007  29.998  38.320  1.00  0.00    -0.744 OA
ENDBRANCH  69  72
ENDBRANCH  51  65
BRANCH  52  76
ATOM     76  C   UNL A   1      42.240  26.515  27.757  1.00  0.00     0.023 A 
ATOM     77  C   UNL A   1      42.987  27.135  26.769  1.00  0.00     0.012 A 
ATOM     78  C   UNL A   1      42.008  25.209  27.727  1.00  0.00     0.148 A 
ATOM     79  C   UNL A   1      43.207  26.331  25.626  1.00  0.00     0.002 A 
ATOM     80  C   UNL A   1      42.372  24.458  26.634  1.00  0.00     0.091 A 
ATOM     81  F   UNL A   1      41.418  24.619  28.763  1.00  0.00    -0.205 F 
ATOM     82  C   UNL A   1      43.062  25.018  25.595  1.00  0.00     0.022 A 
BRANCH  80  83
ATOM     83  S   UNL A   1      41.934  22.703  26.571  1.00  0.00     0.127 S 
ATOM     84  O   UNL A   1      42.504  21.990  27.798  1.00  0.00    -0.237 OA
ATOM     85  O   UNL A   1      40.410  22.557  26.557  1.00  0.00    -0.237 OA
ATOM     86  O   UNL A   1      42.585  22.005  25.152  1.00  0.00    -0.744 OA
ENDBRANCH  80  83
ENDBRANCH  52  76
BRANCH  64  87
ATOM     87  C   UNL A   1      44.632  28.464  34.066  1.00  0.00     0.023 A 
ATOM     88  C   UNL A   1      45.729  29.302  33.959  1.00  0.00     0.012 A 
ATOM     89  C   UNL A   1      44.653  27.401  34.862  1.00  0.00     0.148 A 
ATOM     90  C   UNL A   1      46.916  28.769  34.518  1.00  0.00     0.002 A 
ATOM     91  C   UNL A   1      45.814  27.016  35.485  1.00  0.00     0.091 A 
ATOM     92  F   UNL A   1      43.537  26.704  35.058  1.00  0.00    -0.205 F 
ATOM     93  C   UNL A   1      46.953  27.765  35.374  1.00  0.00     0.022 A 
BRANCH  91  94
ATOM     94  S   UNL A   1      45.840  25.495  36.465  1.00  0.00     0.127 S 
ATOM     95  O   UNL A   1      45.505  24.302  35.565  1.00  0.00    -0.237 OA
ATOM     96  O   UNL A   1      47.231  25.301  37.072  1.00  0.00    -0.237 OA
ATOM     97  O   UNL A   1      44.681  25.606  37.718  1.00  0.00    -0.744 OA
ENDBRANCH  91  94
ENDBRANCH  64  87
ENDBRANCH  38  39
ENDBRANCH  30  33
ENDBRANCH  28  29
ENDBRANCH   1  28
TORSDOF 16
ENDMDL
