MODEL 1
REMARK VINA RESULT:     -11.8      0.000      0.000
REMARK SMILES [NH3+][C@]1(C(=O)NCCCCNC(=O)c2ccc(-c3c4nc(c(-c5cccc(S(=O)(=O)[O-])c5F)c5ccc([nH]5)c(-c5cccc(S(=O)(=O)[O-])c5F)c5nc(c(-c6cccc(S(=O)(=O)[O-])c6F)c6ccc3[nH]6)C=C5)C=C4)cc2)CC[C@@H](Sc2ccc(Cl)c(Cl)c2)C1
REMARK SMILES IDX 8 1 7 2 6 3 5 4 3 5 4 6 2 8 76 9 88 10 77 11 78 12 1 13
REMARK SMILES IDX 79 17 80 18 81 19 87 20 82 21 85 22 83 23 86 24 84 25 9 26
REMARK SMILES IDX 10 27 11 28 12 30 13 31 14 32 75 33 15 34 74 35 16 36 17 37
REMARK SMILES IDX 18 38 68 39 19 40 73 41 67 42 69 43 20 44 72 45 66 46 65 47
REMARK SMILES IDX 21 49 53 50 33 51 52 52 34 53 37 54 51 55 70 56 35 57 36 58
REMARK SMILES IDX 50 60 71 61 38 62 22 63 23 64 31 65 24 66 26 67 32 68 25 69
REMARK SMILES IDX 27 70 28 71 29 72 30 73 54 74 55 75 63 76 56 77 58 78 64 79
REMARK SMILES IDX 57 80 59 81 60 82 61 83 62 84 39 85 40 86 48 87 41 88 43 89
REMARK SMILES IDX 49 90 42 91 44 92 45 93 46 94 47 95
REMARK H PARENT 5 7 1 14 1 15 1 16 10 29 69 48 37 59
REMARK Flexibility Score: inf
ROOT
ATOM      1  C   UNL A   1      31.729  28.889  26.610  1.00  0.00     0.023 C 
ENDROOT
BRANCH   1   2
ATOM      2  C   UNL A   1      32.310  27.647  27.278  1.00  0.00     0.023 C 
BRANCH   2   3
ATOM      3  C   UNL A   1      32.363  26.395  26.415  1.00  0.00     0.116 C 
BRANCH   3   4
ATOM      4  N   UNL A   1      31.214  25.532  26.579  1.00  0.00    -0.351 N 
ATOM      5  C   UNL A   1      31.087  24.181  26.633  1.00  0.00     0.281 C 
ATOM      6  O   UNL A   1      29.940  23.752  26.823  1.00  0.00    -0.268 OA
ATOM      7  H   UNL A   1      30.361  26.017  26.670  1.00  0.00     0.163 HD
BRANCH   5   8
ATOM      8  C   UNL A   1      32.245  23.174  26.344  1.00  0.00     0.175 C 
ATOM      9  C   UNL A   1      31.920  21.892  25.568  1.00  0.00     0.080 C 
ATOM     10  C   UNL A   1      33.326  23.880  25.466  1.00  0.00     0.094 C 
ATOM     11  C   UNL A   1      33.148  21.576  24.735  1.00  0.00     0.022 C 
ATOM     12  C   UNL A   1      33.663  22.938  24.307  1.00  0.00     0.058 C 
BRANCH   8  13
ATOM     13  N   UNL A   1      32.833  22.807  27.657  1.00  0.00    -0.345 N 
ATOM     14  H   UNL A   1      33.144  23.650  28.138  1.00  0.00     0.345 HD
ATOM     15  H   UNL A   1      33.629  22.185  27.511  1.00  0.00     0.345 HD
ATOM     16  H   UNL A   1      32.130  22.332  28.224  1.00  0.00     0.345 HD
ENDBRANCH   8  13
BRANCH  12  17
ATOM     17  S   UNL A   1      33.113  23.479  22.626  1.00  0.00    -0.122 SA
BRANCH  17  18
ATOM     18  C   UNL A   1      32.462  25.124  22.844  1.00  0.00     0.009 A 
ATOM     19  C   UNL A   1      31.085  25.304  23.024  1.00  0.00     0.017 A 
ATOM     20  C   UNL A   1      33.278  26.250  22.717  1.00  0.00     0.037 A 
ATOM     21  C   UNL A   1      30.541  26.590  23.113  1.00  0.00     0.023 A 
ATOM     22  C   UNL A   1      32.740  27.540  22.823  1.00  0.00     0.060 A 
ATOM     23  C   UNL A   1      31.368  27.711  23.022  1.00  0.00     0.059 A 
ATOM     24  Cl  UNL A   1      33.827  28.878  22.703  1.00  0.00    -0.083 Cl
ATOM     25  Cl  UNL A   1      30.636  29.269  23.160  1.00  0.00    -0.083 Cl
ENDBRANCH  17  18
ENDBRANCH  12  17
ENDBRANCH   5   8
ENDBRANCH   3   4
ENDBRANCH   2   3
ENDBRANCH   1   2
BRANCH   1  26
ATOM     26  C   UNL A   1      32.744  29.880  26.054  1.00  0.00     0.116 C 
BRANCH  26  27
ATOM     27  N   UNL A   1      32.530  31.252  26.502  1.00  0.00    -0.352 N 
ATOM     28  C   UNL A   1      33.314  32.027  27.324  1.00  0.00     0.251 C 
ATOM     29  H   UNL A   1      31.710  31.682  26.169  1.00  0.00     0.163 HD
ATOM     30  O   UNL A   1      32.936  33.147  27.659  1.00  0.00    -0.269 OA
BRANCH  28  31
ATOM     31  C   UNL A   1      34.589  31.485  27.838  1.00  0.00     0.039 A 
ATOM     32  C   UNL A   1      35.659  32.358  28.048  1.00  0.00     0.014 A 
ATOM     33  C   UNL A   1      34.707  30.131  28.163  1.00  0.00     0.014 A 
ATOM     34  C   UNL A   1      36.822  31.889  28.664  1.00  0.00     0.010 A 
ATOM     35  C   UNL A   1      35.831  29.686  28.850  1.00  0.00     0.010 A 
ATOM     36  C   UNL A   1      36.900  30.559  29.109  1.00  0.00    -0.014 A 
BRANCH  36  37
ATOM     37  C   UNL A   1      38.081  30.059  29.860  1.00  0.00     0.031 A 
ATOM     38  C   UNL A   1      38.344  30.543  31.259  1.00  0.00     0.074 A 
ATOM     39  C   UNL A   1      38.968  29.252  29.247  1.00  0.00     0.049 A 
ATOM     40  N   UNL A   1      39.350  30.275  32.049  1.00  0.00    -0.248 NA
ATOM     41  C   UNL A   1      37.363  31.478  31.835  1.00  0.00     0.031 C 
ATOM     42  C   UNL A   1      38.872  28.780  27.864  1.00  0.00     0.029 A 
ATOM     43  N   UNL A   1      40.142  28.705  29.701  1.00  0.00    -0.354 N 
ATOM     44  C   UNL A   1      39.147  31.035  33.193  1.00  0.00     0.074 A 
ATOM     45  C   UNL A   1      37.942  31.805  32.980  1.00  0.00     0.031 C 
ATOM     46  C   UNL A   1      39.933  28.004  27.588  1.00  0.00     0.029 A 
ATOM     47  C   UNL A   1      40.799  27.943  28.761  1.00  0.00     0.049 A 
ATOM     48  H   UNL A   1      40.485  28.844  30.614  1.00  0.00     0.167 HD
ATOM     49  C   UNL A   1      39.875  31.064  34.335  1.00  0.00     0.034 A 
ATOM     50  C   UNL A   1      41.962  27.270  28.838  1.00  0.00     0.034 A 
ATOM     51  C   UNL A   1      41.041  30.256  34.566  1.00  0.00     0.049 A 
ATOM     52  C   UNL A   1      42.728  27.277  30.134  1.00  0.00     0.074 A 
ATOM     53  C   UNL A   1      41.794  30.140  35.720  1.00  0.00     0.029 A 
ATOM     54  N   UNL A   1      41.627  29.428  33.621  1.00  0.00    -0.354 N 
ATOM     55  N   UNL A   1      42.431  27.873  31.264  1.00  0.00    -0.248 NA
ATOM     56  C   UNL A   1      43.969  26.490  30.177  1.00  0.00     0.031 C 
ATOM     57  C   UNL A   1      42.842  29.247  35.469  1.00  0.00     0.029 A 
ATOM     58  C   UNL A   1      42.734  28.797  34.162  1.00  0.00     0.049 A 
ATOM     59  H   UNL A   1      41.302  29.305  32.700  1.00  0.00     0.167 HD
ATOM     60  C   UNL A   1      43.425  27.505  32.163  1.00  0.00     0.074 A 
ATOM     61  C   UNL A   1      44.325  26.620  31.449  1.00  0.00     0.031 C 
ATOM     62  C   UNL A   1      43.588  27.876  33.457  1.00  0.00     0.034 A 
BRANCH  49  63
ATOM     63  C   UNL A   1      39.381  31.956  35.445  1.00  0.00     0.023 A 
ATOM     64  C   UNL A   1      38.427  31.460  36.358  1.00  0.00     0.012 A 
ATOM     65  C   UNL A   1      39.868  33.267  35.603  1.00  0.00     0.148 A 
ATOM     66  C   UNL A   1      37.929  32.268  37.379  1.00  0.00     0.002 A 
ATOM     67  C   UNL A   1      39.401  34.052  36.652  1.00  0.00     0.091 A 
ATOM     68  F   UNL A   1      40.757  33.734  34.714  1.00  0.00    -0.205 F 
ATOM     69  C   UNL A   1      38.423  33.559  37.532  1.00  0.00     0.022 A 
BRANCH  67  70
ATOM     70  S   UNL A   1      40.038  35.702  36.973  1.00  0.00     0.127 S 
ATOM     71  O   UNL A   1      41.470  35.446  37.108  1.00  0.00    -0.237 OA
ATOM     72  O   UNL A   1      39.662  36.424  35.757  1.00  0.00    -0.237 OA
ATOM     73  O   UNL A   1      39.359  36.158  38.177  1.00  0.00    -0.744 OA
ENDBRANCH  67  70
ENDBRANCH  49  63
BRANCH  50  74
ATOM     74  C   UNL A   1      42.418  26.446  27.683  1.00  0.00     0.023 A 
ATOM     75  C   UNL A   1      43.316  27.012  26.756  1.00  0.00     0.012 A 
ATOM     76  C   UNL A   1      42.019  25.106  27.522  1.00  0.00     0.148 A 
ATOM     77  C   UNL A   1      43.789  26.266  25.677  1.00  0.00     0.002 A 
ATOM     78  C   UNL A   1      42.532  24.353  26.472  1.00  0.00     0.091 A 
ATOM     79  F   UNL A   1      41.159  24.588  28.411  1.00  0.00    -0.205 F 
ATOM     80  C   UNL A   1      43.407  24.934  25.540  1.00  0.00     0.022 A 
BRANCH  78  81
ATOM     81  S   UNL A   1      42.198  22.598  26.282  1.00  0.00     0.127 S 
ATOM     82  O   UNL A   1      42.805  22.045  27.490  1.00  0.00    -0.237 OA
ATOM     83  O   UNL A   1      40.735  22.570  26.260  1.00  0.00    -0.237 OA
ATOM     84  O   UNL A   1      42.825  22.209  25.026  1.00  0.00    -0.744 OA
ENDBRANCH  78  81
ENDBRANCH  50  74
BRANCH  62  85
ATOM     85  C   UNL A   1      44.765  27.308  34.205  1.00  0.00     0.023 A 
ATOM     86  C   UNL A   1      45.991  28.001  34.206  1.00  0.00     0.012 A 
ATOM     87  C   UNL A   1      44.633  26.133  34.970  1.00  0.00     0.148 A 
ATOM     88  C   UNL A   1      47.076  27.519  34.937  1.00  0.00     0.002 A 
ATOM     89  C   UNL A   1      45.705  25.682  35.732  1.00  0.00     0.091 A 
ATOM     90  F   UNL A   1      43.465  25.475  34.939  1.00  0.00    -0.205 F 
ATOM     91  C   UNL A   1      46.931  26.369  35.709  1.00  0.00     0.022 A 
BRANCH  89  92
ATOM     92  S   UNL A   1      45.575  24.264  36.827  1.00  0.00     0.127 S 
ATOM     93  O   UNL A   1      46.928  24.182  37.373  1.00  0.00    -0.237 OA
ATOM     94  O   UNL A   1      44.557  24.701  37.785  1.00  0.00    -0.237 OA
ATOM     95  O   UNL A   1      45.167  23.147  35.986  1.00  0.00    -0.744 OA
ENDBRANCH  89  92
ENDBRANCH  62  85
ENDBRANCH  36  37
ENDBRANCH  28  31
ENDBRANCH  26  27
ENDBRANCH   1  26
TORSDOF 17
ENDMDL
MODEL 2
REMARK VINA RESULT:     -11.6      1.979      2.806
REMARK SMILES [NH3+][C@]1(C(=O)NCCCCNC(=O)c2ccc(-c3c4nc(c(-c5cccc(S(=O)(=O)[O-])c5F)c5ccc([nH]5)c(-c5cccc(S(=O)(=O)[O-])c5F)c5nc(c(-c6cccc(S(=O)(=O)[O-])c6F)c6ccc3[nH]6)C=C5)C=C4)cc2)CC[C@@H](Sc2ccc(Cl)c(Cl)c2)C1
REMARK SMILES IDX 8 1 7 2 6 3 5 4 3 5 4 6 2 8 76 9 88 10 77 11 78 12 1 13
REMARK SMILES IDX 79 17 80 18 81 19 87 20 82 21 85 22 83 23 86 24 84 25 9 26
REMARK SMILES IDX 10 27 11 28 12 30 13 31 14 32 75 33 15 34 74 35 16 36 17 37
REMARK SMILES IDX 18 38 68 39 19 40 73 41 67 42 69 43 20 44 72 45 66 46 65 47
REMARK SMILES IDX 21 49 53 50 33 51 52 52 34 53 37 54 51 55 70 56 35 57 36 58
REMARK SMILES IDX 50 60 71 61 38 62 22 63 23 64 31 65 24 66 26 67 32 68 25 69
REMARK SMILES IDX 27 70 28 71 29 72 30 73 54 74 55 75 63 76 56 77 58 78 64 79
REMARK SMILES IDX 57 80 59 81 60 82 61 83 62 84 39 85 40 86 48 87 41 88 43 89
REMARK SMILES IDX 49 90 42 91 44 92 45 93 46 94 47 95
REMARK H PARENT 5 7 1 14 1 15 1 16 10 29 69 48 37 59
REMARK Flexibility Score: inf
ROOT
ATOM      1  C   UNL A   1      31.882  29.880  25.094  1.00  0.00     0.023 C 
ENDROOT
BRANCH   1   2
ATOM      2  C   UNL A   1      32.839  29.202  24.119  1.00  0.00     0.023 C 
BRANCH   2   3
ATOM      3  C   UNL A   1      32.192  28.311  23.068  1.00  0.00     0.116 C 
BRANCH   3   4
ATOM      4  N   UNL A   1      30.787  28.590  22.861  1.00  0.00    -0.351 N 
ATOM      5  C   UNL A   1      29.661  27.930  23.234  1.00  0.00     0.281 C 
ATOM      6  O   UNL A   1      28.590  28.468  22.922  1.00  0.00    -0.268 OA
ATOM      7  H   UNL A   1      30.616  29.415  22.352  1.00  0.00     0.163 HD
BRANCH   5   8
ATOM      8  C   UNL A   1      29.645  26.514  23.894  1.00  0.00     0.175 C 
ATOM      9  C   UNL A   1      30.567  25.431  23.321  1.00  0.00     0.080 C 
ATOM     10  C   UNL A   1      30.098  26.643  25.383  1.00  0.00     0.094 C 
ATOM     11  C   UNL A   1      30.999  24.575  24.495  1.00  0.00     0.022 C 
ATOM     12  C   UNL A   1      31.156  25.565  25.635  1.00  0.00     0.058 C 
BRANCH   8  13
ATOM     13  N   UNL A   1      28.242  26.031  23.840  1.00  0.00    -0.345 N 
ATOM     14  H   UNL A   1      27.627  26.724  24.267  1.00  0.00     0.345 HD
ATOM     15  H   UNL A   1      28.166  25.150  24.349  1.00  0.00     0.345 HD
ATOM     16  H   UNL A   1      27.968  25.887  22.869  1.00  0.00     0.345 HD
ENDBRANCH   8  13
BRANCH  12  17
ATOM     17  S   UNL A   1      32.885  26.164  25.906  1.00  0.00    -0.122 SA
BRANCH  17  18
ATOM     18  C   UNL A   1      33.910  24.708  25.840  1.00  0.00     0.009 A 
ATOM     19  C   UNL A   1      35.020  24.682  24.987  1.00  0.00     0.017 A 
ATOM     20  C   UNL A   1      33.563  23.544  26.530  1.00  0.00     0.037 A 
ATOM     21  C   UNL A   1      35.791  23.522  24.855  1.00  0.00     0.023 A 
ATOM     22  C   UNL A   1      34.342  22.384  26.415  1.00  0.00     0.060 A 
ATOM     23  C   UNL A   1      35.459  22.373  25.576  1.00  0.00     0.059 A 
ATOM     24  Cl  UNL A   1      33.871  21.003  27.340  1.00  0.00    -0.083 Cl
ATOM     25  Cl  UNL A   1      36.463  20.981  25.384  1.00  0.00    -0.083 Cl
ENDBRANCH  17  18
ENDBRANCH  12  17
ENDBRANCH   5   8
ENDBRANCH   3   4
ENDBRANCH   2   3
ENDBRANCH   1   2
BRANCH   1  26
ATOM     26  C   UNL A   1      32.463  30.234  26.457  1.00  0.00     0.116 C 
BRANCH  26  27
ATOM     27  N   UNL A   1      32.406  31.658  26.767  1.00  0.00    -0.352 N 
ATOM     28  C   UNL A   1      33.316  32.435  27.445  1.00  0.00     0.251 C 
ATOM     29  H   UNL A   1      31.603  32.129  26.445  1.00  0.00     0.163 HD
ATOM     30  O   UNL A   1      33.065  33.614  27.681  1.00  0.00    -0.269 OA
BRANCH  28  31
ATOM     31  C   UNL A   1      34.574  31.829  27.928  1.00  0.00     0.039 A 
ATOM     32  C   UNL A   1      35.708  32.635  28.053  1.00  0.00     0.014 A 
ATOM     33  C   UNL A   1      34.616  30.485  28.309  1.00  0.00     0.014 A 
ATOM     34  C   UNL A   1      36.864  32.114  28.640  1.00  0.00     0.010 A 
ATOM     35  C   UNL A   1      35.738  29.993  28.966  1.00  0.00     0.010 A 
ATOM     36  C   UNL A   1      36.873  30.801  29.140  1.00  0.00    -0.014 A 
BRANCH  36  37
ATOM     37  C   UNL A   1      38.051  30.254  29.861  1.00  0.00     0.031 A 
ATOM     38  C   UNL A   1      38.353  30.706  31.264  1.00  0.00     0.074 A 
ATOM     39  C   UNL A   1      38.904  29.432  29.220  1.00  0.00     0.049 A 
ATOM     40  N   UNL A   1      39.364  30.394  32.031  1.00  0.00    -0.248 NA
ATOM     41  C   UNL A   1      37.409  31.659  31.873  1.00  0.00     0.031 C 
ATOM     42  C   UNL A   1      38.770  28.987  27.831  1.00  0.00     0.029 A 
ATOM     43  N   UNL A   1      40.069  28.843  29.644  1.00  0.00    -0.354 N 
ATOM     44  C   UNL A   1      39.203  31.140  33.191  1.00  0.00     0.074 A 
ATOM     45  C   UNL A   1      38.017  31.949  33.012  1.00  0.00     0.031 C 
ATOM     46  C   UNL A   1      39.802  28.185  27.523  1.00  0.00     0.029 A 
ATOM     47  C   UNL A   1      40.686  28.078  28.680  1.00  0.00     0.049 A 
ATOM     48  H   UNL A   1      40.430  28.956  30.553  1.00  0.00     0.167 HD
ATOM     49  C   UNL A   1      39.950  31.127  34.321  1.00  0.00     0.034 A 
ATOM     50  C   UNL A   1      41.830  27.369  28.725  1.00  0.00     0.034 A 
ATOM     51  C   UNL A   1      41.096  30.282  34.517  1.00  0.00     0.049 A 
ATOM     52  C   UNL A   1      42.617  27.331  30.007  1.00  0.00     0.074 A 
ATOM     53  C   UNL A   1      41.865  30.123  35.656  1.00  0.00     0.029 A 
ATOM     54  N   UNL A   1      41.640  29.453  33.549  1.00  0.00    -0.354 N 
ATOM     55  N   UNL A   1      42.358  27.916  31.152  1.00  0.00    -0.248 NA
ATOM     56  C   UNL A   1      43.835  26.508  30.015  1.00  0.00     0.031 C 
ATOM     57  C   UNL A   1      42.881  29.204  35.371  1.00  0.00     0.029 A 
ATOM     58  C   UNL A   1      42.737  28.781  34.060  1.00  0.00     0.049 A 
ATOM     59  H   UNL A   1      41.297  29.356  32.631  1.00  0.00     0.167 HD
ATOM     60  C   UNL A   1      43.356  27.503  32.027  1.00  0.00     0.074 A 
ATOM     61  C   UNL A   1      44.216  26.605  31.282  1.00  0.00     0.031 C 
ATOM     62  C   UNL A   1      43.551  27.847  33.324  1.00  0.00     0.034 A 
BRANCH  49  63
ATOM     63  C   UNL A   1      39.503  32.014  35.454  1.00  0.00     0.023 A 
ATOM     64  C   UNL A   1      38.616  31.501  36.424  1.00  0.00     0.012 A 
ATOM     65  C   UNL A   1      39.967  33.337  35.577  1.00  0.00     0.148 A 
ATOM     66  C   UNL A   1      38.161  32.303  37.470  1.00  0.00     0.002 A 
ATOM     67  C   UNL A   1      39.544  34.118  36.648  1.00  0.00     0.091 A 
ATOM     68  F   UNL A   1      40.789  33.820  34.634  1.00  0.00    -0.205 F 
ATOM     69  C   UNL A   1      38.632  33.607  37.587  1.00  0.00     0.022 A 
BRANCH  67  70
ATOM     70  S   UNL A   1      40.160  35.784  36.923  1.00  0.00     0.127 S 
ATOM     71  O   UNL A   1      39.665  36.481  35.738  1.00  0.00    -0.237 OA
ATOM     72  O   UNL A   1      39.496  36.161  38.172  1.00  0.00    -0.237 OA
ATOM     73  O   UNL A   1      41.607  35.656  37.026  1.00  0.00    -0.744 OA
ENDBRANCH  67  70
ENDBRANCH  49  63
BRANCH  50  74
ATOM     74  C   UNL A   1      42.242  26.553  27.548  1.00  0.00     0.023 A 
ATOM     75  C   UNL A   1      43.014  27.158  26.537  1.00  0.00     0.012 A 
ATOM     76  C   UNL A   1      41.925  25.185  27.446  1.00  0.00     0.148 A 
ATOM     77  C   UNL A   1      43.443  26.422  25.433  1.00  0.00     0.002 A 
ATOM     78  C   UNL A   1      42.398  24.445  26.367  1.00  0.00     0.091 A 
ATOM     79  F   UNL A   1      41.184  24.630  28.415  1.00  0.00    -0.205 F 
ATOM     80  C   UNL A   1      43.146  25.064  25.352  1.00  0.00     0.022 A 
BRANCH  78  81
ATOM     81  S   UNL A   1      42.173  22.667  26.237  1.00  0.00     0.127 S 
ATOM     82  O   UNL A   1      40.719  22.545  26.290  1.00  0.00    -0.237 OA
ATOM     83  O   UNL A   1      42.769  22.383  24.931  1.00  0.00    -0.237 OA
ATOM     84  O   UNL A   1      42.895  22.094  27.365  1.00  0.00    -0.744 OA
ENDBRANCH  78  81
ENDBRANCH  50  74
BRANCH  62  85
ATOM     85  C   UNL A   1      44.723  27.232  34.042  1.00  0.00     0.023 A 
ATOM     86  C   UNL A   1      45.972  27.883  34.024  1.00  0.00     0.012 A 
ATOM     87  C   UNL A   1      44.567  26.053  34.798  1.00  0.00     0.148 A 
ATOM     88  C   UNL A   1      47.055  27.357  34.728  1.00  0.00     0.002 A 
ATOM     89  C   UNL A   1      45.639  25.559  35.533  1.00  0.00     0.091 A 
ATOM     90  F   UNL A   1      43.377  25.436  34.784  1.00  0.00    -0.205 F 
ATOM     91  C   UNL A   1      46.886  26.204  35.491  1.00  0.00     0.022 A 
BRANCH  89  92
ATOM     92  S   UNL A   1      45.483  24.134  36.616  1.00  0.00     0.127 S 
ATOM     93  O   UNL A   1      46.848  23.989  37.117  1.00  0.00    -0.237 OA
ATOM     94  O   UNL A   1      44.515  24.601  37.610  1.00  0.00    -0.237 OA
ATOM     95  O   UNL A   1      45.002  23.045  35.775  1.00  0.00    -0.744 OA
ENDBRANCH  89  92
ENDBRANCH  62  85
ENDBRANCH  36  37
ENDBRANCH  28  31
ENDBRANCH  26  27
ENDBRANCH   1  26
TORSDOF 17
ENDMDL
MODEL 3
REMARK VINA RESULT:     -11.6      1.424      7.687
REMARK SMILES [NH3+][C@]1(C(=O)NCCCCNC(=O)c2ccc(-c3c4nc(c(-c5cccc(S(=O)(=O)[O-])c5F)c5ccc([nH]5)c(-c5cccc(S(=O)(=O)[O-])c5F)c5nc(c(-c6cccc(S(=O)(=O)[O-])c6F)c6ccc3[nH]6)C=C5)C=C4)cc2)CC[C@@H](Sc2ccc(Cl)c(Cl)c2)C1
REMARK SMILES IDX 8 1 7 2 6 3 5 4 3 5 4 6 2 8 76 9 88 10 77 11 78 12 1 13
REMARK SMILES IDX 79 17 80 18 81 19 87 20 82 21 85 22 83 23 86 24 84 25 9 26
REMARK SMILES IDX 10 27 11 28 12 30 13 31 14 32 75 33 15 34 74 35 16 36 17 37
REMARK SMILES IDX 18 38 68 39 19 40 73 41 67 42 69 43 20 44 72 45 66 46 65 47
REMARK SMILES IDX 21 49 53 50 33 51 52 52 34 53 37 54 51 55 70 56 35 57 36 58
REMARK SMILES IDX 50 60 71 61 38 62 22 63 23 64 31 65 24 66 26 67 32 68 25 69
REMARK SMILES IDX 27 70 28 71 29 72 30 73 54 74 55 75 63 76 56 77 58 78 64 79
REMARK SMILES IDX 57 80 59 81 60 82 61 83 62 84 39 85 40 86 48 87 41 88 43 89
REMARK SMILES IDX 49 90 42 91 44 92 45 93 46 94 47 95
REMARK H PARENT 5 7 1 14 1 15 1 16 10 29 69 48 37 59
REMARK Flexibility Score: inf
ROOT
ATOM      1  C   UNL A   1      31.672  28.577  26.068  1.00  0.00     0.023 C 
ENDROOT
BRANCH   1   2
ATOM      2  C   UNL A   1      32.052  27.440  27.010  1.00  0.00     0.023 C 
BRANCH   2   3
ATOM      3  C   UNL A   1      32.393  26.115  26.343  1.00  0.00     0.116 C 
BRANCH   3   4
ATOM      4  N   UNL A   1      31.351  25.120  26.469  1.00  0.00    -0.351 N 
ATOM      5  C   UNL A   1      31.387  23.765  26.541  1.00  0.00     0.281 C 
ATOM      6  O   UNL A   1      30.293  23.201  26.684  1.00  0.00    -0.268 OA
ATOM      7  H   UNL A   1      30.442  25.498  26.508  1.00  0.00     0.163 HD
BRANCH   5   8
ATOM      8  C   UNL A   1      32.672  22.903  26.329  1.00  0.00     0.175 C 
ATOM      9  C   UNL A   1      32.535  21.553  25.613  1.00  0.00     0.080 C 
ATOM     10  C   UNL A   1      33.676  23.700  25.437  1.00  0.00     0.094 C 
ATOM     11  C   UNL A   1      33.815  21.359  24.823  1.00  0.00     0.022 C 
ATOM     12  C   UNL A   1      34.162  22.754  24.335  1.00  0.00     0.058 C 
BRANCH   8  13
ATOM     13  N   UNL A   1      33.267  22.679  27.671  1.00  0.00    -0.345 N 
ATOM     14  H   UNL A   1      32.684  22.028  28.196  1.00  0.00     0.345 HD
ATOM     15  H   UNL A   1      33.320  23.567  28.171  1.00  0.00     0.345 HD
ATOM     16  H   UNL A   1      34.203  22.291  27.568  1.00  0.00     0.345 HD
ENDBRANCH   8  13
BRANCH  12  17
ATOM     17  S   UNL A   1      33.592  23.137  22.618  1.00  0.00    -0.122 SA
BRANCH  17  18
ATOM     18  C   UNL A   1      32.846  24.753  22.712  1.00  0.00     0.009 A 
ATOM     19  C   UNL A   1      31.453  24.868  22.782  1.00  0.00     0.017 A 
ATOM     20  C   UNL A   1      33.614  25.914  22.595  1.00  0.00     0.037 A 
ATOM     21  C   UNL A   1      30.841  26.126  22.772  1.00  0.00     0.023 A 
ATOM     22  C   UNL A   1      33.006  27.177  22.602  1.00  0.00     0.060 A 
ATOM     23  C   UNL A   1      31.616  27.284  22.692  1.00  0.00     0.059 A 
ATOM     24  Cl  UNL A   1      34.032  28.564  22.503  1.00  0.00    -0.083 Cl
ATOM     25  Cl  UNL A   1      30.800  28.806  22.704  1.00  0.00    -0.083 Cl
ENDBRANCH  17  18
ENDBRANCH  12  17
ENDBRANCH   5   8
ENDBRANCH   3   4
ENDBRANCH   2   3
ENDBRANCH   1   2
BRANCH   1  26
ATOM     26  C   UNL A   1      32.746  29.633  25.834  1.00  0.00     0.116 C 
BRANCH  26  27
ATOM     27  N   UNL A   1      32.374  30.963  26.302  1.00  0.00    -0.352 N 
ATOM     28  C   UNL A   1      33.050  31.802  27.157  1.00  0.00     0.251 C 
ATOM     29  H   UNL A   1      31.519  31.308  25.957  1.00  0.00     0.163 HD
ATOM     30  O   UNL A   1      32.544  32.866  27.503  1.00  0.00    -0.269 OA
BRANCH  28  31
ATOM     31  C   UNL A   1      34.365  31.391  27.691  1.00  0.00     0.039 A 
ATOM     32  C   UNL A   1      35.343  32.365  27.901  1.00  0.00     0.014 A 
ATOM     33  C   UNL A   1      34.608  30.059  28.036  1.00  0.00     0.014 A 
ATOM     34  C   UNL A   1      36.538  32.018  28.536  1.00  0.00     0.010 A 
ATOM     35  C   UNL A   1      35.762  29.732  28.740  1.00  0.00     0.010 A 
ATOM     36  C   UNL A   1      36.738  30.707  28.999  1.00  0.00    -0.014 A 
BRANCH  36  37
ATOM     37  C   UNL A   1      37.953  30.333  29.769  1.00  0.00     0.031 A 
ATOM     38  C   UNL A   1      38.954  29.378  29.180  1.00  0.00     0.074 A 
ATOM     39  C   UNL A   1      38.102  30.772  31.034  1.00  0.00     0.049 A 
ATOM     40  N   UNL A   1      40.038  28.884  29.719  1.00  0.00    -0.248 NA
ATOM     41  C   UNL A   1      38.686  28.890  27.817  1.00  0.00     0.031 C 
ATOM     42  C   UNL A   1      37.159  31.634  31.750  1.00  0.00     0.029 A 
ATOM     43  N   UNL A   1      39.093  30.532  31.953  1.00  0.00    -0.354 N 
ATOM     44  C   UNL A   1      40.556  27.998  28.783  1.00  0.00     0.074 A 
ATOM     45  C   UNL A   1      39.648  27.994  27.658  1.00  0.00     0.031 C 
ATOM     46  C   UNL A   1      37.622  31.862  32.990  1.00  0.00     0.029 A 
ATOM     47  C   UNL A   1      38.880  31.143  33.168  1.00  0.00     0.049 A 
ATOM     48  H   UNL A   1      39.882  29.975  31.763  1.00  0.00     0.167 HD
ATOM     49  C   UNL A   1      41.704  27.281  28.836  1.00  0.00     0.034 A 
ATOM     50  C   UNL A   1      39.617  31.129  34.295  1.00  0.00     0.034 A 
ATOM     51  C   UNL A   1      42.632  27.329  29.932  1.00  0.00     0.049 A 
ATOM     52  C   UNL A   1      40.913  30.364  34.313  1.00  0.00     0.074 A 
ATOM     53  C   UNL A   1      43.867  26.715  30.043  1.00  0.00     0.029 A 
ATOM     54  N   UNL A   1      42.426  28.029  31.111  1.00  0.00    -0.354 N 
ATOM     55  N   UNL A   1      41.470  29.663  33.355  1.00  0.00    -0.248 NA
ATOM     56  C   UNL A   1      41.700  30.418  35.554  1.00  0.00     0.031 C 
ATOM     57  C   UNL A   1      44.403  27.038  31.294  1.00  0.00     0.029 A 
ATOM     58  C   UNL A   1      43.509  27.863  31.958  1.00  0.00     0.049 A 
ATOM     59  H   UNL A   1      41.628  28.567  31.315  1.00  0.00     0.167 HD
ATOM     60  C   UNL A   1      42.687  29.223  33.861  1.00  0.00     0.074 A 
ATOM     61  C   UNL A   1      42.793  29.751  35.207  1.00  0.00     0.031 C 
ATOM     62  C   UNL A   1      43.626  28.441  33.272  1.00  0.00     0.034 A 
BRANCH  49  63
ATOM     63  C   UNL A   1      42.043  26.433  27.637  1.00  0.00     0.023 A 
ATOM     64  C   UNL A   1      42.644  27.036  26.512  1.00  0.00     0.012 A 
ATOM     65  C   UNL A   1      41.791  25.048  27.623  1.00  0.00     0.148 A 
ATOM     66  C   UNL A   1      42.946  26.287  25.376  1.00  0.00     0.002 A 
ATOM     67  C   UNL A   1      42.136  24.298  26.504  1.00  0.00     0.091 A 
ATOM     68  F   UNL A   1      41.196  24.492  28.688  1.00  0.00    -0.205 F 
ATOM     69  C   UNL A   1      42.700  24.917  25.376  1.00  0.00     0.022 A 
BRANCH  67  70
ATOM     70  S   UNL A   1      41.929  22.514  26.444  1.00  0.00     0.127 S 
ATOM     71  O   UNL A   1      40.473  22.384  26.468  1.00  0.00    -0.237 OA
ATOM     72  O   UNL A   1      42.548  22.169  25.163  1.00  0.00    -0.237 OA
ATOM     73  O   UNL A   1      42.631  21.997  27.610  1.00  0.00    -0.744 OA
ENDBRANCH  67  70
ENDBRANCH  49  63
BRANCH  50  74
ATOM     74  C   UNL A   1      39.196  31.951  35.465  1.00  0.00     0.023 A 
ATOM     75  C   UNL A   1      39.472  33.333  35.461  1.00  0.00     0.012 A 
ATOM     76  C   UNL A   1      38.486  31.395  36.547  1.00  0.00     0.148 A 
ATOM     77  C   UNL A   1      39.070  34.142  36.523  1.00  0.00     0.002 A 
ATOM     78  C   UNL A   1      38.046  32.215  37.579  1.00  0.00     0.091 A 
ATOM     79  F   UNL A   1      38.241  30.077  36.535  1.00  0.00    -0.205 F 
ATOM     80  C   UNL A   1      38.348  33.587  37.577  1.00  0.00     0.022 A 
BRANCH  78  81
ATOM     81  S   UNL A   1      37.005  31.618  38.916  1.00  0.00     0.127 S 
ATOM     82  O   UNL A   1      37.889  31.758  40.069  1.00  0.00    -0.237 OA
ATOM     83  O   UNL A   1      35.889  32.565  38.876  1.00  0.00    -0.237 OA
ATOM     84  O   UNL A   1      36.647  30.253  38.558  1.00  0.00    -0.744 OA
ENDBRANCH  78  81
ENDBRANCH  50  74
BRANCH  62  85
ATOM     85  C   UNL A   1      44.870  28.126  34.061  1.00  0.00     0.023 A 
ATOM     86  C   UNL A   1      45.969  29.004  34.007  1.00  0.00     0.012 A 
ATOM     87  C   UNL A   1      44.918  27.006  34.913  1.00  0.00     0.148 A 
ATOM     88  C   UNL A   1      47.109  28.758  34.772  1.00  0.00     0.002 A 
ATOM     89  C   UNL A   1      46.040  26.791  35.706  1.00  0.00     0.091 A 
ATOM     90  F   UNL A   1      43.870  26.169  34.933  1.00  0.00    -0.205 F 
ATOM     91  C   UNL A   1      47.140  27.661  35.630  1.00  0.00     0.022 A 
BRANCH  89  92
ATOM     92  S   UNL A   1      46.125  25.457  36.906  1.00  0.00     0.127 S 
ATOM     93  O   UNL A   1      47.350  25.785  37.631  1.00  0.00    -0.237 OA
ATOM     94  O   UNL A   1      44.892  25.646  37.673  1.00  0.00    -0.237 OA
ATOM     95  O   UNL A   1      46.165  24.224  36.129  1.00  0.00    -0.744 OA
ENDBRANCH  89  92
ENDBRANCH  62  85
ENDBRANCH  36  37
ENDBRANCH  28  31
ENDBRANCH  26  27
ENDBRANCH   1  26
TORSDOF 17
ENDMDL
