MODEL 1
REMARK VINA RESULT:     -12.2      0.000      0.000
REMARK SMILES COc1ccc(C(=O)N2CC[C@@H](C(=O)NCCCCNC(=O)c3ccc(-c4c5nc(c(-c6cccc(S(=O)(=O)[O-])c6F)c6ccc([nH]6)c(-c6cccc(S(=O)(=O)[O-])c6F)c6nc(c(-c7cccc(S(=O)(=O)[O-])c7F)c7ccc4[nH]7)C=C6)C=C5)cc3)[C@H]2C)cc1O
REMARK SMILES IDX 17 1 16 2 15 3 13 4 14 5 12 7 9 8 10 9 86 10 11 11 87 12
REMARK SMILES IDX 7 13 8 14 6 15 3 16 4 17 89 18 5 19 88 20 2 21 1 22 90 23
REMARK SMILES IDX 18 25 19 26 20 27 21 28 22 30 23 31 24 32 85 33 25 34 84 35
REMARK SMILES IDX 26 36 27 37 28 38 78 39 29 40 83 41 77 42 79 43 30 44 82 45
REMARK SMILES IDX 76 46 75 47 31 49 63 50 43 51 62 52 44 53 47 54 61 55 80 56
REMARK SMILES IDX 45 57 46 58 60 60 81 61 48 62 32 63 33 64 41 65 34 66 36 67
REMARK SMILES IDX 42 68 35 69 37 70 38 71 39 72 40 73 64 74 65 75 73 76 66 77
REMARK SMILES IDX 68 78 74 79 67 80 69 81 70 82 71 83 72 84 49 85 50 86 58 87
REMARK SMILES IDX 51 88 53 89 59 90 52 91 54 92 55 93 56 94 57 95
REMARK H PARENT 15 6 90 24 20 29 79 48 47 59
REMARK Flexibility Score: inf
ROOT
ATOM      1  C   UNL A   1      31.849  28.815  24.063  1.00  0.00     0.023 C 
ENDROOT
BRANCH   1   2
ATOM      2  C   UNL A   1      31.918  27.304  23.841  1.00  0.00     0.116 C 
BRANCH   2   3
ATOM      3  N   UNL A   1      32.490  26.972  22.550  1.00  0.00    -0.356 N 
ATOM      4  C   UNL A   1      32.689  25.783  21.931  1.00  0.00     0.225 C 
ATOM      5  O   UNL A   1      33.245  25.813  20.827  1.00  0.00    -0.275 OA
ATOM      6  H   UNL A   1      32.789  27.752  22.030  1.00  0.00     0.163 HD
BRANCH   4   7
ATOM      7  C   UNL A   1      32.249  24.442  22.500  1.00  0.00     0.102 C 
ATOM      8  N   UNL A   1      32.351  23.374  24.630  1.00  0.00    -0.335 N 
ATOM      9  C   UNL A   1      30.965  23.358  24.211  1.00  0.00     0.121 C 
ATOM     10  C   UNL A   1      33.190  23.682  23.462  1.00  0.00     0.094 C 
ATOM     11  C   UNL A   1      30.874  24.463  23.178  1.00  0.00     0.037 C 
ATOM     12  C   UNL A   1      34.553  24.283  23.748  1.00  0.00     0.032 C 
BRANCH   8  13
ATOM     13  C   UNL A   1      32.737  22.469  25.612  1.00  0.00     0.254 C 
ATOM     14  O   UNL A   1      32.787  22.755  26.805  1.00  0.00    -0.269 OA
BRANCH  13  15
ATOM     15  C   UNL A   1      33.232  21.141  25.159  1.00  0.00     0.043 A 
ATOM     16  C   UNL A   1      34.147  18.571  24.420  1.00  0.00     0.160 A 
ATOM     17  C   UNL A   1      32.781  18.903  24.376  1.00  0.00     0.051 A 
ATOM     18  C   UNL A   1      35.046  19.542  24.870  1.00  0.00     0.158 A 
ATOM     19  C   UNL A   1      32.322  20.174  24.738  1.00  0.00     0.018 A 
ATOM     20  C   UNL A   1      34.585  20.807  25.254  1.00  0.00     0.064 A 
BRANCH  16  21
ATOM     21  O   UNL A   1      34.362  17.271  24.063  1.00  0.00    -0.493 OA
ATOM     22  C   UNL A   1      34.451  16.260  25.048  1.00  0.00     0.278 C 
ENDBRANCH  16  21
BRANCH  18  23
ATOM     23  O   UNL A   1      36.392  19.391  25.034  1.00  0.00    -0.504 OA
ATOM     24  H   UNL A   1      36.985  19.770  24.415  1.00  0.00     0.293 HD
ENDBRANCH  18  23
ENDBRANCH  13  15
ENDBRANCH   8  13
ENDBRANCH   4   7
ENDBRANCH   2   3
ENDBRANCH   1   2
BRANCH   1  25
ATOM     25  C   UNL A   1      31.789  29.267  25.518  1.00  0.00     0.023 C 
BRANCH  25  26
ATOM     26  C   UNL A   1      33.064  29.899  26.052  1.00  0.00     0.116 C 
BRANCH  26  27
ATOM     27  N   UNL A   1      32.867  31.251  26.556  1.00  0.00    -0.352 N 
ATOM     28  C   UNL A   1      33.633  31.971  27.446  1.00  0.00     0.251 C 
ATOM     29  H   UNL A   1      32.070  31.717  26.213  1.00  0.00     0.163 HD
ATOM     30  O   UNL A   1      33.242  33.054  27.859  1.00  0.00    -0.269 OA
BRANCH  28  31
ATOM     31  C   UNL A   1      34.912  31.405  27.926  1.00  0.00     0.039 A 
ATOM     32  C   UNL A   1      36.005  32.255  28.107  1.00  0.00     0.014 A 
ATOM     33  C   UNL A   1      35.015  30.048  28.242  1.00  0.00     0.014 A 
ATOM     34  C   UNL A   1      37.176  31.759  28.686  1.00  0.00     0.010 A 
ATOM     35  C   UNL A   1      36.144  29.580  28.902  1.00  0.00     0.010 A 
ATOM     36  C   UNL A   1      37.239  30.428  29.128  1.00  0.00    -0.014 A 
BRANCH  36  37
ATOM     37  C   UNL A   1      38.432  29.895  29.834  1.00  0.00     0.031 A 
ATOM     38  C   UNL A   1      38.784  30.411  31.205  1.00  0.00     0.074 A 
ATOM     39  C   UNL A   1      39.256  29.036  29.202  1.00  0.00     0.049 A 
ATOM     40  N   UNL A   1      39.830  30.143  31.943  1.00  0.00    -0.248 NA
ATOM     41  C   UNL A   1      37.858  31.383  31.810  1.00  0.00     0.031 C 
ATOM     42  C   UNL A   1      39.076  28.537  27.836  1.00  0.00     0.029 A 
ATOM     43  N   UNL A   1      40.428  28.452  29.614  1.00  0.00    -0.354 N 
ATOM     44  C   UNL A   1      39.712  30.945  33.071  1.00  0.00     0.074 A 
ATOM     45  C   UNL A   1      38.514  31.738  32.906  1.00  0.00     0.031 C 
ATOM     46  C   UNL A   1      40.096  27.719  27.527  1.00  0.00     0.029 A 
ATOM     47  C   UNL A   1      41.015  27.654  28.658  1.00  0.00     0.049 A 
ATOM     48  H   UNL A   1      40.813  28.591  30.509  1.00  0.00     0.167 HD
ATOM     49  C   UNL A   1      40.508  30.991  34.166  1.00  0.00     0.034 A 
ATOM     50  C   UNL A   1      42.164  26.951  28.692  1.00  0.00     0.034 A 
ATOM     51  C   UNL A   1      41.656  30.150  34.359  1.00  0.00     0.049 A 
ATOM     52  C   UNL A   1      42.988  26.962  29.951  1.00  0.00     0.074 A 
ATOM     53  C   UNL A   1      42.467  30.044  35.473  1.00  0.00     0.029 A 
ATOM     54  N   UNL A   1      42.152  29.266  33.415  1.00  0.00    -0.354 N 
ATOM     55  N   UNL A   1      42.768  27.600  31.075  1.00  0.00    -0.248 NA
ATOM     56  C   UNL A   1      44.197  26.125  29.963  1.00  0.00     0.031 C 
ATOM     57  C   UNL A   1      43.461  29.099  35.200  1.00  0.00     0.029 A 
ATOM     58  C   UNL A   1      43.260  28.607  33.920  1.00  0.00     0.049 A 
ATOM     59  H   UNL A   1      41.773  29.125  32.517  1.00  0.00     0.167 HD
ATOM     60  C   UNL A   1      43.788  27.216  31.938  1.00  0.00     0.074 A 
ATOM     61  C   UNL A   1      44.615  26.271  31.214  1.00  0.00     0.031 C 
ATOM     62  C   UNL A   1      44.031  27.622  33.207  1.00  0.00     0.034 A 
BRANCH  49  63
ATOM     63  C   UNL A   1      40.115  31.932  35.274  1.00  0.00     0.023 A 
ATOM     64  C   UNL A   1      40.708  33.210  35.339  1.00  0.00     0.012 A 
ATOM     65  C   UNL A   1      39.128  31.581  36.214  1.00  0.00     0.148 A 
ATOM     66  C   UNL A   1      40.352  34.110  36.341  1.00  0.00     0.002 A 
ATOM     67  C   UNL A   1      38.746  32.501  37.185  1.00  0.00     0.091 A 
ATOM     68  F   UNL A   1      38.590  30.355  36.152  1.00  0.00    -0.205 F 
ATOM     69  C   UNL A   1      39.365  33.760  37.257  1.00  0.00     0.022 A 
BRANCH  67  70
ATOM     70  S   UNL A   1      37.431  32.176  38.365  1.00  0.00     0.127 S 
ATOM     71  O   UNL A   1      38.014  32.686  39.605  1.00  0.00    -0.237 OA
ATOM     72  O   UNL A   1      36.332  32.982  37.832  1.00  0.00    -0.237 OA
ATOM     73  O   UNL A   1      37.203  30.738  38.325  1.00  0.00    -0.744 OA
ENDBRANCH  67  70
ENDBRANCH  49  63
BRANCH  50  74
ATOM     74  C   UNL A   1      42.560  26.111  27.525  1.00  0.00     0.023 A 
ATOM     75  C   UNL A   1      43.385  26.665  26.527  1.00  0.00     0.012 A 
ATOM     76  C   UNL A   1      42.152  24.768  27.409  1.00  0.00     0.148 A 
ATOM     77  C   UNL A   1      43.769  25.912  25.418  1.00  0.00     0.002 A 
ATOM     78  C   UNL A   1      42.583  24.005  26.328  1.00  0.00     0.091 A 
ATOM     79  F   UNL A   1      41.356  24.260  28.360  1.00  0.00    -0.205 F 
ATOM     80  C   UNL A   1      43.377  24.579  25.324  1.00  0.00     0.022 A 
BRANCH  78  81
ATOM     81  S   UNL A   1      42.236  22.246  26.199  1.00  0.00     0.127 S 
ATOM     82  O   UNL A   1      42.781  21.741  27.456  1.00  0.00    -0.237 OA
ATOM     83  O   UNL A   1      40.776  22.229  26.109  1.00  0.00    -0.237 OA
ATOM     84  O   UNL A   1      42.914  21.807  24.987  1.00  0.00    -0.744 OA
ENDBRANCH  78  81
ENDBRANCH  50  74
BRANCH  62  85
ATOM     85  C   UNL A   1      45.218  27.028  33.917  1.00  0.00     0.023 A 
ATOM     86  C   UNL A   1      46.470  27.668  33.836  1.00  0.00     0.012 A 
ATOM     87  C   UNL A   1      45.074  25.887  34.731  1.00  0.00     0.148 A 
ATOM     88  C   UNL A   1      47.568  27.166  34.533  1.00  0.00     0.002 A 
ATOM     89  C   UNL A   1      46.161  25.419  35.458  1.00  0.00     0.091 A 
ATOM     90  F   UNL A   1      43.878  25.281  34.777  1.00  0.00    -0.205 F 
ATOM     91  C   UNL A   1      47.411  26.051  35.353  1.00  0.00     0.022 A 
BRANCH  89  92
ATOM     92  S   UNL A   1      46.023  24.048  36.611  1.00  0.00     0.127 S 
ATOM     93  O   UNL A   1      45.734  22.932  35.713  1.00  0.00    -0.237 OA
ATOM     94  O   UNL A   1      47.355  24.014  37.217  1.00  0.00    -0.237 OA
ATOM     95  O   UNL A   1      44.952  24.407  37.531  1.00  0.00    -0.744 OA
ENDBRANCH  89  92
ENDBRANCH  62  85
ENDBRANCH  36  37
ENDBRANCH  28  31
ENDBRANCH  26  27
ENDBRANCH  25  26
ENDBRANCH   1  25
TORSDOF 18
ENDMDL
MODEL 2
REMARK VINA RESULT:     -12.1      4.947      9.987
REMARK SMILES COc1ccc(C(=O)N2CC[C@@H](C(=O)NCCCCNC(=O)c3ccc(-c4c5nc(c(-c6cccc(S(=O)(=O)[O-])c6F)c6ccc([nH]6)c(-c6cccc(S(=O)(=O)[O-])c6F)c6nc(c(-c7cccc(S(=O)(=O)[O-])c7F)c7ccc4[nH]7)C=C6)C=C5)cc3)[C@H]2C)cc1O
REMARK SMILES IDX 17 1 16 2 15 3 13 4 14 5 12 7 9 8 10 9 86 10 11 11 87 12
REMARK SMILES IDX 7 13 8 14 6 15 3 16 4 17 89 18 5 19 88 20 2 21 1 22 90 23
REMARK SMILES IDX 18 25 19 26 20 27 21 28 22 30 23 31 24 32 85 33 25 34 84 35
REMARK SMILES IDX 26 36 27 37 28 38 78 39 29 40 83 41 77 42 79 43 30 44 82 45
REMARK SMILES IDX 76 46 75 47 31 49 63 50 43 51 62 52 44 53 47 54 61 55 80 56
REMARK SMILES IDX 45 57 46 58 60 60 81 61 48 62 32 63 33 64 41 65 34 66 36 67
REMARK SMILES IDX 42 68 35 69 37 70 38 71 39 72 40 73 64 74 65 75 73 76 66 77
REMARK SMILES IDX 68 78 74 79 67 80 69 81 70 82 71 83 72 84 49 85 50 86 58 87
REMARK SMILES IDX 51 88 53 89 59 90 52 91 54 92 55 93 56 94 57 95
REMARK H PARENT 15 6 90 24 20 29 79 48 47 59
REMARK Flexibility Score: inf
ROOT
ATOM      1  C   UNL A   1      35.495  22.422  26.457  1.00  0.00     0.023 C 
ENDROOT
BRANCH   1   2
ATOM      2  C   UNL A   1      33.992  22.401  26.739  1.00  0.00     0.116 C 
BRANCH   2   3
ATOM      3  N   UNL A   1      33.390  21.134  26.370  1.00  0.00    -0.356 N 
ATOM      4  C   UNL A   1      32.526  20.801  25.381  1.00  0.00     0.225 C 
ATOM      5  O   UNL A   1      32.153  19.623  25.338  1.00  0.00    -0.275 OA
ATOM      6  H   UNL A   1      33.658  20.380  26.943  1.00  0.00     0.163 HD
BRANCH   4   7
ATOM      7  C   UNL A   1      32.021  21.775  24.327  1.00  0.00     0.102 C 
ATOM      8  N   UNL A   1      31.657  24.129  24.210  1.00  0.00    -0.335 N 
ATOM      9  C   UNL A   1      32.516  23.774  23.099  1.00  0.00     0.121 C 
ATOM     10  C   UNL A   1      31.047  22.900  24.740  1.00  0.00     0.094 C 
ATOM     11  C   UNL A   1      33.127  22.449  23.506  1.00  0.00     0.037 C 
ATOM     12  C   UNL A   1      30.581  22.945  26.183  1.00  0.00     0.032 C 
BRANCH   8  13
ATOM     13  C   UNL A   1      30.970  25.334  24.133  1.00  0.00     0.254 C 
ATOM     14  O   UNL A   1      29.897  25.458  23.548  1.00  0.00    -0.269 OA
BRANCH  13  15
ATOM     15  C   UNL A   1      31.646  26.542  24.679  1.00  0.00     0.043 A 
ATOM     16  C   UNL A   1      32.855  28.825  25.824  1.00  0.00     0.160 A 
ATOM     17  C   UNL A   1      33.308  27.528  26.124  1.00  0.00     0.051 A 
ATOM     18  C   UNL A   1      31.765  28.959  24.959  1.00  0.00     0.158 A 
ATOM     19  C   UNL A   1      32.715  26.394  25.559  1.00  0.00     0.018 A 
ATOM     20  C   UNL A   1      31.157  27.822  24.411  1.00  0.00     0.064 A 
BRANCH  16  21
ATOM     21  O   UNL A   1      33.551  29.775  26.515  1.00  0.00    -0.493 OA
ATOM     22  C   UNL A   1      34.622  29.408  27.362  1.00  0.00     0.278 C 
ENDBRANCH  16  21
BRANCH  18  23
ATOM     23  O   UNL A   1      31.154  30.122  24.594  1.00  0.00    -0.504 OA
ATOM     24  H   UNL A   1      30.472  30.480  25.128  1.00  0.00     0.293 HD
ENDBRANCH  18  23
ENDBRANCH  13  15
ENDBRANCH   8  13
ENDBRANCH   4   7
ENDBRANCH   2   3
ENDBRANCH   1   2
BRANCH   1  25
ATOM     25  C   UNL A   1      35.990  23.583  25.602  1.00  0.00     0.023 C 
BRANCH  25  26
ATOM     26  C   UNL A   1      37.285  23.326  24.848  1.00  0.00     0.116 C 
BRANCH  26  27
ATOM     27  N   UNL A   1      38.174  22.399  25.535  1.00  0.00    -0.352 N 
ATOM     28  C   UNL A   1      39.196  22.664  26.421  1.00  0.00     0.251 C 
ATOM     29  H   UNL A   1      38.025  21.446  25.338  1.00  0.00     0.163 HD
ATOM     30  O   UNL A   1      39.929  21.763  26.802  1.00  0.00    -0.269 OA
BRANCH  28  31
ATOM     31  C   UNL A   1      39.421  24.055  26.873  1.00  0.00     0.039 A 
ATOM     32  C   UNL A   1      39.058  24.411  28.174  1.00  0.00     0.014 A 
ATOM     33  C   UNL A   1      40.032  24.986  26.031  1.00  0.00     0.014 A 
ATOM     34  C   UNL A   1      39.388  25.680  28.657  1.00  0.00     0.010 A 
ATOM     35  C   UNL A   1      40.442  26.211  26.544  1.00  0.00     0.010 A 
ATOM     36  C   UNL A   1      40.121  26.574  27.860  1.00  0.00    -0.014 A 
BRANCH  36  37
ATOM     37  C   UNL A   1      40.571  27.892  28.377  1.00  0.00     0.031 A 
ATOM     38  C   UNL A   1      42.042  28.175  28.528  1.00  0.00     0.074 A 
ATOM     39  C   UNL A   1      39.660  28.786  28.812  1.00  0.00     0.049 A 
ATOM     40  N   UNL A   1      42.631  29.223  29.044  1.00  0.00    -0.248 NA
ATOM     41  C   UNL A   1      42.974  27.129  28.072  1.00  0.00     0.031 C 
ATOM     42  C   UNL A   1      38.209  28.590  28.809  1.00  0.00     0.029 A 
ATOM     43  N   UNL A   1      39.823  30.030  29.370  1.00  0.00    -0.354 N 
ATOM     44  C   UNL A   1      43.991  28.942  29.019  1.00  0.00     0.074 A 
ATOM     45  C   UNL A   1      44.141  27.612  28.472  1.00  0.00     0.031 C 
ATOM     46  C   UNL A   1      37.615  29.675  29.333  1.00  0.00     0.029 A 
ATOM     47  C   UNL A   1      38.641  30.633  29.733  1.00  0.00     0.049 A 
ATOM     48  H   UNL A   1      40.704  30.451  29.498  1.00  0.00     0.167 HD
ATOM     49  C   UNL A   1      45.028  29.734  29.382  1.00  0.00     0.034 A 
ATOM     50  C   UNL A   1      38.411  31.823  30.322  1.00  0.00     0.034 A 
ATOM     51  C   UNL A   1      44.879  31.082  29.856  1.00  0.00     0.049 A 
ATOM     52  C   UNL A   1      39.580  32.715  30.644  1.00  0.00     0.074 A 
ATOM     53  C   UNL A   1      45.866  32.003  30.152  1.00  0.00     0.029 A 
ATOM     54  N   UNL A   1      43.664  31.702  30.099  1.00  0.00    -0.354 N 
ATOM     55  N   UNL A   1      40.859  32.497  30.455  1.00  0.00    -0.248 NA
ATOM     56  C   UNL A   1      39.274  34.031  31.222  1.00  0.00     0.031 C 
ATOM     57  C   UNL A   1      45.248  33.182  30.581  1.00  0.00     0.029 A 
ATOM     58  C   UNL A   1      43.874  32.997  30.540  1.00  0.00     0.049 A 
ATOM     59  H   UNL A   1      42.781  31.285  29.975  1.00  0.00     0.167 HD
ATOM     60  C   UNL A   1      41.507  33.659  30.857  1.00  0.00     0.074 A 
ATOM     61  C   UNL A   1      40.477  34.587  31.279  1.00  0.00     0.031 C 
ATOM     62  C   UNL A   1      42.835  33.928  30.894  1.00  0.00     0.034 A 
BRANCH  49  63
ATOM     63  C   UNL A   1      46.420  29.186  29.206  1.00  0.00     0.023 A 
ATOM     64  C   UNL A   1      47.063  28.569  30.297  1.00  0.00     0.012 A 
ATOM     65  C   UNL A   1      47.068  29.231  27.957  1.00  0.00     0.148 A 
ATOM     66  C   UNL A   1      48.343  28.035  30.161  1.00  0.00     0.002 A 
ATOM     67  C   UNL A   1      48.328  28.659  27.817  1.00  0.00     0.091 A 
ATOM     68  F   UNL A   1      46.451  29.842  26.935  1.00  0.00    -0.205 F 
ATOM     69  C   UNL A   1      48.971  28.071  28.919  1.00  0.00     0.022 A 
BRANCH  67  70
ATOM     70  S   UNL A   1      49.190  28.585  26.242  1.00  0.00     0.127 S 
ATOM     71  O   UNL A   1      49.709  29.947  26.126  1.00  0.00    -0.237 OA
ATOM     72  O   UNL A   1      50.208  27.564  26.495  1.00  0.00    -0.237 OA
ATOM     73  O   UNL A   1      48.188  28.210  25.254  1.00  0.00    -0.744 OA
ENDBRANCH  67  70
ENDBRANCH  49  63
BRANCH  50  74
ATOM     74  C   UNL A   1      37.012  32.277  30.567  1.00  0.00     0.023 A 
ATOM     75  C   UNL A   1      36.470  32.164  31.862  1.00  0.00     0.012 A 
ATOM     76  C   UNL A   1      36.227  32.841  29.543  1.00  0.00     0.148 A 
ATOM     77  C   UNL A   1      35.163  32.572  32.128  1.00  0.00     0.002 A 
ATOM     78  C   UNL A   1      34.943  33.295  29.826  1.00  0.00     0.091 A 
ATOM     79  F   UNL A   1      36.752  32.928  28.313  1.00  0.00    -0.205 F 
ATOM     80  C   UNL A   1      34.403  33.146  31.113  1.00  0.00     0.022 A 
BRANCH  78  81
ATOM     81  S   UNL A   1      33.948  34.170  28.611  1.00  0.00     0.127 S 
ATOM     82  O   UNL A   1      33.685  33.121  27.629  1.00  0.00    -0.237 OA
ATOM     83  O   UNL A   1      32.787  34.578  29.403  1.00  0.00    -0.237 OA
ATOM     84  O   UNL A   1      34.779  35.277  28.157  1.00  0.00    -0.744 OA
ENDBRANCH  78  81
ENDBRANCH  50  74
BRANCH  62  85
ATOM     85  C   UNL A   1      43.260  35.290  31.373  1.00  0.00     0.023 A 
ATOM     86  C   UNL A   1      43.491  35.504  32.746  1.00  0.00     0.012 A 
ATOM     87  C   UNL A   1      43.512  36.330  30.457  1.00  0.00     0.148 A 
ATOM     88  C   UNL A   1      43.941  36.741  33.204  1.00  0.00     0.002 A 
ATOM     89  C   UNL A   1      44.004  37.546  30.915  1.00  0.00     0.091 A 
ATOM     90  F   UNL A   1      43.265  36.111  29.157  1.00  0.00    -0.205 F 
ATOM     91  C   UNL A   1      44.209  37.757  32.289  1.00  0.00     0.022 A 
BRANCH  89  92
ATOM     92  S   UNL A   1      44.466  38.874  29.798  1.00  0.00     0.127 S 
ATOM     93  O   UNL A   1      45.031  39.857  30.721  1.00  0.00    -0.237 OA
ATOM     94  O   UNL A   1      45.445  38.223  28.926  1.00  0.00    -0.237 OA
ATOM     95  O   UNL A   1      43.237  39.277  29.128  1.00  0.00    -0.744 OA
ENDBRANCH  89  92
ENDBRANCH  62  85
ENDBRANCH  36  37
ENDBRANCH  28  31
ENDBRANCH  26  27
ENDBRANCH  25  26
ENDBRANCH   1  25
TORSDOF 18
ENDMDL
MODEL 3
REMARK VINA RESULT:     -12.1      2.284      8.081
REMARK SMILES COc1ccc(C(=O)N2CC[C@@H](C(=O)NCCCCNC(=O)c3ccc(-c4c5nc(c(-c6cccc(S(=O)(=O)[O-])c6F)c6ccc([nH]6)c(-c6cccc(S(=O)(=O)[O-])c6F)c6nc(c(-c7cccc(S(=O)(=O)[O-])c7F)c7ccc4[nH]7)C=C6)C=C5)cc3)[C@H]2C)cc1O
REMARK SMILES IDX 17 1 16 2 15 3 13 4 14 5 12 7 9 8 10 9 86 10 11 11 87 12
REMARK SMILES IDX 7 13 8 14 6 15 3 16 4 17 89 18 5 19 88 20 2 21 1 22 90 23
REMARK SMILES IDX 18 25 19 26 20 27 21 28 22 30 23 31 24 32 85 33 25 34 84 35
REMARK SMILES IDX 26 36 27 37 28 38 78 39 29 40 83 41 77 42 79 43 30 44 82 45
REMARK SMILES IDX 76 46 75 47 31 49 63 50 43 51 62 52 44 53 47 54 61 55 80 56
REMARK SMILES IDX 45 57 46 58 60 60 81 61 48 62 32 63 33 64 41 65 34 66 36 67
REMARK SMILES IDX 42 68 35 69 37 70 38 71 39 72 40 73 64 74 65 75 73 76 66 77
REMARK SMILES IDX 68 78 74 79 67 80 69 81 70 82 71 83 72 84 49 85 50 86 58 87
REMARK SMILES IDX 51 88 53 89 59 90 52 91 54 92 55 93 56 94 57 95
REMARK H PARENT 15 6 90 24 20 29 79 48 47 59
REMARK Flexibility Score: inf
ROOT
ATOM      1  C   UNL A   1      31.778  30.470  26.729  1.00  0.00     0.023 C 
ENDROOT
BRANCH   1   2
ATOM      2  C   UNL A   1      31.403  29.816  25.399  1.00  0.00     0.116 C 
BRANCH   2   3
ATOM      3  N   UNL A   1      32.544  29.703  24.511  1.00  0.00    -0.356 N 
ATOM      4  C   UNL A   1      32.982  28.686  23.729  1.00  0.00     0.225 C 
ATOM      5  O   UNL A   1      34.028  28.875  23.099  1.00  0.00    -0.275 OA
ATOM      6  H   UNL A   1      33.103  30.513  24.469  1.00  0.00     0.163 HD
BRANCH   4   7
ATOM      7  C   UNL A   1      32.252  27.360  23.570  1.00  0.00     0.102 C 
ATOM      8  N   UNL A   1      30.997  25.918  24.996  1.00  0.00    -0.335 N 
ATOM      9  C   UNL A   1      30.162  26.220  23.852  1.00  0.00     0.121 C 
ATOM     10  C   UNL A   1      32.384  26.286  24.673  1.00  0.00     0.094 C 
ATOM     11  C   UNL A   1      30.752  27.494  23.283  1.00  0.00     0.037 C 
ATOM     12  C   UNL A   1      33.298  26.580  25.848  1.00  0.00     0.032 C 
BRANCH   8  13
ATOM     13  C   UNL A   1      30.676  24.796  25.750  1.00  0.00     0.254 C 
ATOM     14  O   UNL A   1      29.887  24.824  26.692  1.00  0.00    -0.269 OA
BRANCH  13  15
ATOM     15  C   UNL A   1      31.432  23.546  25.469  1.00  0.00     0.043 A 
ATOM     16  C   UNL A   1      32.972  21.244  24.907  1.00  0.00     0.160 A 
ATOM     17  C   UNL A   1      33.002  21.854  26.173  1.00  0.00     0.051 A 
ATOM     18  C   UNL A   1      32.176  21.825  23.915  1.00  0.00     0.158 A 
ATOM     19  C   UNL A   1      32.241  22.992  26.459  1.00  0.00     0.018 A 
ATOM     20  C   UNL A   1      31.431  22.977  24.194  1.00  0.00     0.064 A 
BRANCH  16  21
ATOM     21  O   UNL A   1      33.819  20.176  24.841  1.00  0.00    -0.493 OA
ATOM     22  C   UNL A   1      35.213  20.353  25.001  1.00  0.00     0.278 C 
ENDBRANCH  16  21
BRANCH  18  23
ATOM     23  O   UNL A   1      32.060  21.412  22.620  1.00  0.00    -0.504 OA
ATOM     24  H   UNL A   1      32.093  20.499  22.415  1.00  0.00     0.293 HD
ENDBRANCH  18  23
ENDBRANCH  13  15
ENDBRANCH   8  13
ENDBRANCH   4   7
ENDBRANCH   2   3
ENDBRANCH   1   2
BRANCH   1  25
ATOM     25  C   UNL A   1      31.480  31.962  26.839  1.00  0.00     0.023 C 
BRANCH  25  26
ATOM     26  C   UNL A   1      32.702  32.865  26.876  1.00  0.00     0.116 C 
BRANCH  26  27
ATOM     27  N   UNL A   1      32.481  34.100  27.617  1.00  0.00    -0.352 N 
ATOM     28  C   UNL A   1      33.139  34.580  28.728  1.00  0.00     0.251 C 
ATOM     29  H   UNL A   1      31.757  34.672  27.275  1.00  0.00     0.163 HD
ATOM     30  O   UNL A   1      32.730  35.581  29.300  1.00  0.00    -0.269 OA
BRANCH  28  31
ATOM     31  C   UNL A   1      34.318  33.852  29.245  1.00  0.00     0.039 A 
ATOM     32  C   UNL A   1      35.593  34.365  28.998  1.00  0.00     0.014 A 
ATOM     33  C   UNL A   1      34.160  32.694  30.010  1.00  0.00     0.014 A 
ATOM     34  C   UNL A   1      36.705  33.763  29.593  1.00  0.00     0.010 A 
ATOM     35  C   UNL A   1      35.254  32.155  30.675  1.00  0.00     0.010 A 
ATOM     36  C   UNL A   1      36.539  32.680  30.471  1.00  0.00    -0.014 A 
BRANCH  36  37
ATOM     37  C   UNL A   1      37.689  32.078  31.194  1.00  0.00     0.031 A 
ATOM     38  C   UNL A   1      38.470  30.958  30.560  1.00  0.00     0.074 A 
ATOM     39  C   UNL A   1      37.959  32.462  32.458  1.00  0.00     0.049 A 
ATOM     40  N   UNL A   1      39.442  30.242  31.064  1.00  0.00    -0.248 NA
ATOM     41  C   UNL A   1      38.084  30.565  29.194  1.00  0.00     0.031 C 
ATOM     42  C   UNL A   1      37.214  33.468  33.218  1.00  0.00     0.029 A 
ATOM     43  N   UNL A   1      38.917  32.027  33.340  1.00  0.00    -0.354 N 
ATOM     44  C   UNL A   1      39.749  29.290  30.100  1.00  0.00     0.074 A 
ATOM     45  C   UNL A   1      38.837  29.492  28.997  1.00  0.00     0.031 C 
ATOM     46  C   UNL A   1      37.746  33.578  34.446  1.00  0.00     0.029 A 
ATOM     47  C   UNL A   1      38.851  32.634  34.573  1.00  0.00     0.049 A 
ATOM     48  H   UNL A   1      39.589  31.345  33.111  1.00  0.00     0.167 HD
ATOM     49  C   UNL A   1      40.727  28.354  30.114  1.00  0.00     0.034 A 
ATOM     50  C   UNL A   1      39.597  32.449  35.680  1.00  0.00     0.034 A 
ATOM     51  C   UNL A   1      41.678  28.204  31.180  1.00  0.00     0.049 A 
ATOM     52  C   UNL A   1      40.727  31.456  35.639  1.00  0.00     0.074 A 
ATOM     53  C   UNL A   1      42.770  27.358  31.246  1.00  0.00     0.029 A 
ATOM     54  N   UNL A   1      41.652  28.920  32.366  1.00  0.00    -0.354 N 
ATOM     55  N   UNL A   1      41.108  30.681  34.653  1.00  0.00    -0.248 NA
ATOM     56  C   UNL A   1      41.555  31.340  36.849  1.00  0.00     0.031 C 
ATOM     57  C   UNL A   1      43.402  27.559  32.477  1.00  0.00     0.029 A 
ATOM     58  C   UNL A   1      42.710  28.539  33.172  1.00  0.00     0.049 A 
ATOM     59  H   UNL A   1      40.981  29.601  32.601  1.00  0.00     0.167 HD
ATOM     60  C   UNL A   1      42.238  30.012  35.108  1.00  0.00     0.074 A 
ATOM     61  C   UNL A   1      42.494  30.491  36.452  1.00  0.00     0.031 C 
ATOM     62  C   UNL A   1      42.986  29.073  34.480  1.00  0.00     0.034 A 
BRANCH  49  63
ATOM     63  C   UNL A   1      40.866  27.471  28.902  1.00  0.00     0.023 A 
ATOM     64  C   UNL A   1      40.005  26.365  28.751  1.00  0.00     0.012 A 
ATOM     65  C   UNL A   1      41.800  27.762  27.890  1.00  0.00     0.148 A 
ATOM     66  C   UNL A   1      40.095  25.540  27.632  1.00  0.00     0.002 A 
ATOM     67  C   UNL A   1      41.856  26.960  26.755  1.00  0.00     0.091 A 
ATOM     68  F   UNL A   1      42.626  28.804  28.060  1.00  0.00    -0.205 F 
ATOM     69  C   UNL A   1      41.012  25.843  26.630  1.00  0.00     0.022 A 
BRANCH  67  70
ATOM     70  S   UNL A   1      42.949  27.308  25.374  1.00  0.00     0.127 S 
ATOM     71  O   UNL A   1      42.890  26.053  24.626  1.00  0.00    -0.237 OA
ATOM     72  O   UNL A   1      42.278  28.436  24.726  1.00  0.00    -0.237 OA
ATOM     73  O   UNL A   1      44.244  27.628  25.958  1.00  0.00    -0.744 OA
ENDBRANCH  67  70
ENDBRANCH  49  63
BRANCH  50  74
ATOM     74  C   UNL A   1      39.354  33.283  36.893  1.00  0.00     0.023 A 
ATOM     75  C   UNL A   1      39.856  34.598  36.933  1.00  0.00     0.012 A 
ATOM     76  C   UNL A   1      38.613  32.799  37.987  1.00  0.00     0.148 A 
ATOM     77  C   UNL A   1      39.655  35.405  38.053  1.00  0.00     0.002 A 
ATOM     78  C   UNL A   1      38.369  33.627  39.078  1.00  0.00     0.091 A 
ATOM     79  F   UNL A   1      38.154  31.541  37.939  1.00  0.00    -0.205 F 
ATOM     80  C   UNL A   1      38.903  34.923  39.121  1.00  0.00     0.022 A 
BRANCH  78  81
ATOM     81  S   UNL A   1      37.298  33.132  40.435  1.00  0.00     0.127 S 
ATOM     82  O   UNL A   1      38.063  32.045  41.038  1.00  0.00    -0.237 OA
ATOM     83  O   UNL A   1      37.230  34.356  41.233  1.00  0.00    -0.237 OA
ATOM     84  O   UNL A   1      36.036  32.756  39.812  1.00  0.00    -0.744 OA
ENDBRANCH  78  81
ENDBRANCH  50  74
BRANCH  62  85
ATOM     85  C   UNL A   1      44.176  28.518  35.217  1.00  0.00     0.023 A 
ATOM     86  C   UNL A   1      45.449  29.086  35.012  1.00  0.00     0.012 A 
ATOM     87  C   UNL A   1      44.019  27.494  36.171  1.00  0.00     0.148 A 
ATOM     88  C   UNL A   1      46.553  28.625  35.727  1.00  0.00     0.002 A 
ATOM     89  C   UNL A   1      45.115  27.071  36.913  1.00  0.00     0.091 A 
ATOM     90  F   UNL A   1      42.803  26.953  36.335  1.00  0.00    -0.205 F 
ATOM     91  C   UNL A   1      46.384  27.628  36.686  1.00  0.00     0.022 A 
BRANCH  89  92
ATOM     92  S   UNL A   1      44.969  25.860  38.232  1.00  0.00     0.127 S 
ATOM     93  O   UNL A   1      44.002  26.502  39.120  1.00  0.00    -0.237 OA
ATOM     94  O   UNL A   1      44.461  24.685  37.524  1.00  0.00    -0.237 OA
ATOM     95  O   UNL A   1      46.311  25.701  38.776  1.00  0.00    -0.744 OA
ENDBRANCH  89  92
ENDBRANCH  62  85
ENDBRANCH  36  37
ENDBRANCH  28  31
ENDBRANCH  26  27
ENDBRANCH  25  26
ENDBRANCH   1  25
TORSDOF 18
ENDMDL
