MODEL 1
REMARK VINA RESULT:     -11.9      0.000      0.000
REMARK SMILES C[C@@H](CNc1cccc(F)c1C(=O)NCCCCNC(=O)c1ccc(-c2c3nc(c(-c4cccc(S(=O)(=O)[O-])c4F)c4ccc([nH]4)c(-c4cccc(S(=O)(=O)[O-])c4F)c4nc(c(-c5cccc(S(=O)(=O)[O-])c5F)c5ccc2[nH]5)C=C4)C=C3)cc1)[NH+]1CCCCC1
REMARK SMILES IDX 16 1 15 2 14 3 12 4 13 5 11 7 5 8 6 9 7 10 9 11 8 12 10 13
REMARK SMILES IDX 4 14 3 16 2 17 1 18 85 19 86 20 90 21 87 23 89 24 88 25
REMARK SMILES IDX 17 26 18 27 19 28 20 29 21 31 22 32 23 33 84 34 24 35 83 36
REMARK SMILES IDX 25 37 26 38 27 39 77 40 28 41 82 42 76 43 78 44 29 45 81 46
REMARK SMILES IDX 75 47 74 48 30 50 62 51 42 52 61 53 43 54 46 55 60 56 79 57
REMARK SMILES IDX 44 58 45 59 59 61 80 62 47 63 31 64 32 65 40 66 33 67 35 68
REMARK SMILES IDX 41 69 34 70 36 71 37 72 38 73 39 74 63 75 64 76 72 77 65 78
REMARK SMILES IDX 67 79 73 80 66 81 68 82 69 83 70 84 71 85 48 86 49 87 57 88
REMARK SMILES IDX 50 89 52 90 58 91 51 92 53 93 54 94 55 95 56 96
REMARK H PARENT 14 6 4 15 85 22 19 30 78 49 46 60
REMARK Flexibility Score: inf
ROOT
ATOM      1  C   UNL A   1      31.599  30.797  26.148  1.00  0.00     0.023 C 
ENDROOT
BRANCH   1   2
ATOM      2  C   UNL A   1      32.955  30.118  26.363  1.00  0.00     0.116 C 
BRANCH   2   3
ATOM      3  N   UNL A   1      33.428  29.605  25.093  1.00  0.00    -0.352 N 
ATOM      4  C   UNL A   1      33.457  28.345  24.549  1.00  0.00     0.256 C 
ATOM      5  O   UNL A   1      34.116  28.219  23.513  1.00  0.00    -0.269 OA
ATOM      6  H   UNL A   1      33.805  30.298  24.505  1.00  0.00     0.163 HD
BRANCH   4   7
ATOM      7  C   UNL A   1      32.647  27.187  25.037  1.00  0.00     0.098 A 
ATOM      8  C   UNL A   1      31.265  27.133  24.678  1.00  0.00     0.050 A 
ATOM      9  C   UNL A   1      30.495  26.052  25.142  1.00  0.00     0.027 A 
ATOM     10  C   UNL A   1      31.040  25.060  25.955  1.00  0.00     0.005 A 
ATOM     11  C   UNL A   1      33.181  26.152  25.809  1.00  0.00     0.138 A 
ATOM     12  C   UNL A   1      32.384  25.116  26.294  1.00  0.00     0.040 A 
ATOM     13  F   UNL A   1      34.488  26.075  26.087  1.00  0.00    -0.206 F 
BRANCH   8  14
ATOM     14  N   UNL A   1      30.672  28.147  23.933  1.00  0.00    -0.378 N 
ATOM     15  H   UNL A   1      31.103  29.031  23.959  1.00  0.00     0.160 HD
BRANCH  14  16
ATOM     16  C   UNL A   1      29.471  28.022  23.120  1.00  0.00     0.177 C 
BRANCH  16  17
ATOM     17  C   UNL A   1      28.456  29.205  23.294  1.00  0.00     0.200 C 
ATOM     18  C   UNL A   1      27.011  28.706  23.131  1.00  0.00     0.077 C 
BRANCH  17  19
ATOM     19  N   UNL A   1      28.696  30.484  22.560  1.00  0.00    -0.331 N 
ATOM     20  C   UNL A   1      28.002  30.498  21.263  1.00  0.00     0.262 C 
ATOM     21  C   UNL A   1      28.410  31.689  23.349  1.00  0.00     0.262 C 
ATOM     22  H   UNL A   1      29.700  30.517  22.379  1.00  0.00     0.348 HD
ATOM     23  C   UNL A   1      28.248  31.783  20.469  1.00  0.00     0.062 C 
ATOM     24  C   UNL A   1      28.633  32.999  22.594  1.00  0.00     0.062 C 
ATOM     25  C   UNL A   1      27.855  33.004  21.287  1.00  0.00     0.012 C 
ENDBRANCH  17  19
ENDBRANCH  16  17
ENDBRANCH  14  16
ENDBRANCH   8  14
ENDBRANCH   4   7
ENDBRANCH   2   3
ENDBRANCH   1   2
BRANCH   1  26
ATOM     26  C   UNL A   1      31.475  32.158  26.844  1.00  0.00     0.023 C 
BRANCH  26  27
ATOM     27  C   UNL A   1      32.805  32.789  27.241  1.00  0.00     0.116 C 
BRANCH  27  28
ATOM     28  N   UNL A   1      32.665  34.174  27.660  1.00  0.00    -0.352 N 
ATOM     29  C   UNL A   1      33.304  34.839  28.677  1.00  0.00     0.251 C 
ATOM     30  H   UNL A   1      32.022  34.710  27.143  1.00  0.00     0.163 HD
ATOM     31  O   UNL A   1      32.954  35.973  28.980  1.00  0.00    -0.269 OA
BRANCH  29  32
ATOM     32  C   UNL A   1      34.397  34.171  29.414  1.00  0.00     0.039 A 
ATOM     33  C   UNL A   1      35.715  34.421  29.027  1.00  0.00     0.014 A 
ATOM     34  C   UNL A   1      34.125  33.296  30.469  1.00  0.00     0.014 A 
ATOM     35  C   UNL A   1      36.762  33.808  29.717  1.00  0.00     0.010 A 
ATOM     36  C   UNL A   1      35.171  32.757  31.211  1.00  0.00     0.010 A 
ATOM     37  C   UNL A   1      36.499  32.980  30.822  1.00  0.00    -0.014 A 
BRANCH  37  38
ATOM     38  C   UNL A   1      37.607  32.308  31.545  1.00  0.00     0.031 A 
ATOM     39  C   UNL A   1      38.350  31.169  30.898  1.00  0.00     0.074 A 
ATOM     40  C   UNL A   1      37.925  32.699  32.796  1.00  0.00     0.049 A 
ATOM     41  N   UNL A   1      39.361  30.483  31.360  1.00  0.00    -0.248 NA
ATOM     42  C   UNL A   1      37.884  30.722  29.573  1.00  0.00     0.031 C 
ATOM     43  C   UNL A   1      37.221  33.729  33.561  1.00  0.00     0.029 A 
ATOM     44  N   UNL A   1      38.912  32.270  33.647  1.00  0.00    -0.354 N 
ATOM     45  C   UNL A   1      39.628  29.509  30.406  1.00  0.00     0.074 A 
ATOM     46  C   UNL A   1      38.649  29.662  29.356  1.00  0.00     0.031 C 
ATOM     47  C   UNL A   1      37.810  33.866  34.759  1.00  0.00     0.029 A 
ATOM     48  C   UNL A   1      38.915  32.916  34.861  1.00  0.00     0.049 A 
ATOM     49  H   UNL A   1      39.557  31.564  33.410  1.00  0.00     0.167 HD
ATOM     50  C   UNL A   1      40.624  28.595  30.386  1.00  0.00     0.034 A 
ATOM     51  C   UNL A   1      39.716  32.763  35.934  1.00  0.00     0.034 A 
ATOM     52  C   UNL A   1      41.635  28.494  31.400  1.00  0.00     0.049 A 
ATOM     53  C   UNL A   1      40.848  31.773  35.867  1.00  0.00     0.074 A 
ATOM     54  C   UNL A   1      42.756  27.683  31.409  1.00  0.00     0.029 A 
ATOM     55  N   UNL A   1      41.645  29.211  32.584  1.00  0.00    -0.354 N 
ATOM     56  N   UNL A   1      41.197  30.991  34.873  1.00  0.00    -0.248 NA
ATOM     57  C   UNL A   1      41.716  31.661  37.049  1.00  0.00     0.031 C 
ATOM     58  C   UNL A   1      43.422  27.881  32.620  1.00  0.00     0.029 A 
ATOM     59  C   UNL A   1      42.737  28.841  33.348  1.00  0.00     0.049 A 
ATOM     60  H   UNL A   1      40.975  29.883  32.844  1.00  0.00     0.167 HD
ATOM     61  C   UNL A   1      42.330  30.310  35.302  1.00  0.00     0.074 A 
ATOM     62  C   UNL A   1      42.628  30.790  36.635  1.00  0.00     0.031 C 
ATOM     63  C   UNL A   1      43.048  29.360  34.655  1.00  0.00     0.034 A 
BRANCH  50  64
ATOM     64  C   UNL A   1      40.720  27.666  29.206  1.00  0.00     0.023 A 
ATOM     65  C   UNL A   1      39.850  26.561  29.116  1.00  0.00     0.012 A 
ATOM     66  C   UNL A   1      41.588  27.952  28.134  1.00  0.00     0.148 A 
ATOM     67  C   UNL A   1      39.855  25.744  27.987  1.00  0.00     0.002 A 
ATOM     68  C   UNL A   1      41.553  27.163  26.992  1.00  0.00     0.091 A 
ATOM     69  F   UNL A   1      42.420  28.998  28.248  1.00  0.00    -0.205 F 
ATOM     70  C   UNL A   1      40.694  26.054  26.920  1.00  0.00     0.022 A 
BRANCH  68  71
ATOM     71  S   UNL A   1      42.525  27.529  25.526  1.00  0.00     0.127 S 
ATOM     72  O   UNL A   1      43.878  27.583  26.077  1.00  0.00    -0.237 OA
ATOM     73  O   UNL A   1      42.256  26.364  24.683  1.00  0.00    -0.237 OA
ATOM     74  O   UNL A   1      42.016  28.790  25.008  1.00  0.00    -0.744 OA
ENDBRANCH  68  71
ENDBRANCH  50  64
BRANCH  51  75
ATOM     75  C   UNL A   1      39.502  33.613  37.139  1.00  0.00     0.023 A 
ATOM     76  C   UNL A   1      39.969  34.943  37.147  1.00  0.00     0.012 A 
ATOM     77  C   UNL A   1      38.784  33.132  38.251  1.00  0.00     0.148 A 
ATOM     78  C   UNL A   1      39.741  35.770  38.249  1.00  0.00     0.002 A 
ATOM     79  C   UNL A   1      38.509  33.979  39.319  1.00  0.00     0.091 A 
ATOM     80  F   UNL A   1      38.358  31.861  38.229  1.00  0.00    -0.205 F 
ATOM     81  C   UNL A   1      39.001  35.293  39.327  1.00  0.00     0.022 A 
BRANCH  79  82
ATOM     82  S   UNL A   1      37.443  33.497  40.683  1.00  0.00     0.127 S 
ATOM     83  O   UNL A   1      36.253  33.025  39.979  1.00  0.00    -0.237 OA
ATOM     84  O   UNL A   1      38.236  32.449  41.326  1.00  0.00    -0.237 OA
ATOM     85  O   UNL A   1      37.264  34.697  41.488  1.00  0.00    -0.744 OA
ENDBRANCH  79  82
ENDBRANCH  51  75
BRANCH  63  86
ATOM     86  C   UNL A   1      44.234  28.754  35.355  1.00  0.00     0.023 A 
ATOM     87  C   UNL A   1      45.500  29.352  35.212  1.00  0.00     0.012 A 
ATOM     88  C   UNL A   1      44.061  27.702  36.278  1.00  0.00     0.148 A 
ATOM     89  C   UNL A   1      46.581  28.910  35.974  1.00  0.00     0.002 A 
ATOM     90  C   UNL A   1      45.130  27.302  37.070  1.00  0.00     0.091 A 
ATOM     91  F   UNL A   1      42.847  27.144  36.390  1.00  0.00    -0.205 F 
ATOM     92  C   UNL A   1      46.392  27.898  36.914  1.00  0.00     0.022 A 
BRANCH  90  93
ATOM     93  S   UNL A   1      44.961  26.088  38.384  1.00  0.00     0.127 S 
ATOM     94  O   UNL A   1      43.931  26.700  39.223  1.00  0.00    -0.237 OA
ATOM     95  O   UNL A   1      44.524  24.900  37.651  1.00  0.00    -0.237 OA
ATOM     96  O   UNL A   1      46.274  25.975  39.004  1.00  0.00    -0.744 OA
ENDBRANCH  90  93
ENDBRANCH  63  86
ENDBRANCH  37  38
ENDBRANCH  29  32
ENDBRANCH  27  28
ENDBRANCH  26  27
ENDBRANCH   1  26
TORSDOF 18
ENDMDL
MODEL 2
REMARK VINA RESULT:     -11.8      1.661      2.095
REMARK SMILES C[C@@H](CNc1cccc(F)c1C(=O)NCCCCNC(=O)c1ccc(-c2c3nc(c(-c4cccc(S(=O)(=O)[O-])c4F)c4ccc([nH]4)c(-c4cccc(S(=O)(=O)[O-])c4F)c4nc(c(-c5cccc(S(=O)(=O)[O-])c5F)c5ccc2[nH]5)C=C4)C=C3)cc1)[NH+]1CCCCC1
REMARK SMILES IDX 16 1 15 2 14 3 12 4 13 5 11 7 5 8 6 9 7 10 9 11 8 12 10 13
REMARK SMILES IDX 4 14 3 16 2 17 1 18 85 19 86 20 90 21 87 23 89 24 88 25
REMARK SMILES IDX 17 26 18 27 19 28 20 29 21 31 22 32 23 33 84 34 24 35 83 36
REMARK SMILES IDX 25 37 26 38 27 39 77 40 28 41 82 42 76 43 78 44 29 45 81 46
REMARK SMILES IDX 75 47 74 48 30 50 62 51 42 52 61 53 43 54 46 55 60 56 79 57
REMARK SMILES IDX 44 58 45 59 59 61 80 62 47 63 31 64 32 65 40 66 33 67 35 68
REMARK SMILES IDX 41 69 34 70 36 71 37 72 38 73 39 74 63 75 64 76 72 77 65 78
REMARK SMILES IDX 67 79 73 80 66 81 68 82 69 83 70 84 71 85 48 86 49 87 57 88
REMARK SMILES IDX 50 89 52 90 58 91 51 92 53 93 54 94 55 95 56 96
REMARK H PARENT 14 6 4 15 85 22 19 30 78 49 46 60
REMARK Flexibility Score: inf
ROOT
ATOM      1  C   UNL A   1      31.100  30.587  25.603  1.00  0.00     0.023 C 
ENDROOT
BRANCH   1   2
ATOM      2  C   UNL A   1      32.442  29.870  25.784  1.00  0.00     0.116 C 
BRANCH   2   3
ATOM      3  N   UNL A   1      33.051  29.680  24.483  1.00  0.00    -0.352 N 
ATOM      4  C   UNL A   1      33.708  28.622  23.906  1.00  0.00     0.256 C 
ATOM      5  O   UNL A   1      34.285  28.860  22.840  1.00  0.00    -0.269 OA
ATOM      6  H   UNL A   1      32.981  30.468  23.897  1.00  0.00     0.163 HD
BRANCH   4   7
ATOM      7  C   UNL A   1      33.649  27.212  24.397  1.00  0.00     0.098 A 
ATOM      8  C   UNL A   1      33.154  26.209  23.509  1.00  0.00     0.050 A 
ATOM      9  C   UNL A   1      33.086  24.882  23.968  1.00  0.00     0.027 A 
ATOM     10  C   UNL A   1      33.462  24.535  25.264  1.00  0.00     0.005 A 
ATOM     11  C   UNL A   1      34.070  26.829  25.674  1.00  0.00     0.138 A 
ATOM     12  C   UNL A   1      33.947  25.513  26.119  1.00  0.00     0.040 A 
ATOM     13  F   UNL A   1      34.650  27.690  26.519  1.00  0.00    -0.206 F 
BRANCH   8  14
ATOM     14  N   UNL A   1      32.697  26.534  22.235  1.00  0.00    -0.378 N 
ATOM     15  H   UNL A   1      33.378  26.702  21.546  1.00  0.00     0.160 HD
BRANCH  14  16
ATOM     16  C   UNL A   1      31.304  26.651  21.829  1.00  0.00     0.177 C 
BRANCH  16  17
ATOM     17  C   UNL A   1      30.385  27.346  22.893  1.00  0.00     0.200 C 
ATOM     18  C   UNL A   1      29.705  26.296  23.787  1.00  0.00     0.077 C 
BRANCH  17  19
ATOM     19  N   UNL A   1      29.433  28.409  22.449  1.00  0.00    -0.331 N 
ATOM     20  C   UNL A   1      28.266  28.492  23.341  1.00  0.00     0.262 C 
ATOM     21  C   UNL A   1      30.059  29.720  22.239  1.00  0.00     0.262 C 
ATOM     22  H   UNL A   1      29.104  28.120  21.527  1.00  0.00     0.348 HD
ATOM     23  C   UNL A   1      27.255  29.553  22.901  1.00  0.00     0.062 C 
ATOM     24  C   UNL A   1      29.084  30.816  21.806  1.00  0.00     0.062 C 
ATOM     25  C   UNL A   1      27.922  30.915  22.782  1.00  0.00     0.012 C 
ENDBRANCH  17  19
ENDBRANCH  16  17
ENDBRANCH  14  16
ENDBRANCH   8  14
ENDBRANCH   4   7
ENDBRANCH   2   3
ENDBRANCH   1   2
BRANCH   1  26
ATOM     26  C   UNL A   1      31.047  31.968  26.266  1.00  0.00     0.023 C 
BRANCH  26  27
ATOM     27  C   UNL A   1      32.347  32.400  26.934  1.00  0.00     0.116 C 
BRANCH  27  28
ATOM     28  N   UNL A   1      32.360  33.814  27.275  1.00  0.00    -0.352 N 
ATOM     29  C   UNL A   1      33.147  34.478  28.182  1.00  0.00     0.251 C 
ATOM     30  H   UNL A   1      31.713  34.372  26.787  1.00  0.00     0.163 HD
ATOM     31  O   UNL A   1      32.920  35.653  28.443  1.00  0.00    -0.269 OA
BRANCH  29  32
ATOM     32  C   UNL A   1      34.252  33.762  28.854  1.00  0.00     0.039 A 
ATOM     33  C   UNL A   1      35.562  34.182  28.618  1.00  0.00     0.014 A 
ATOM     34  C   UNL A   1      34.000  32.678  29.699  1.00  0.00     0.014 A 
ATOM     35  C   UNL A   1      36.619  33.525  29.250  1.00  0.00     0.010 A 
ATOM     36  C   UNL A   1      35.046  32.084  30.396  1.00  0.00     0.010 A 
ATOM     37  C   UNL A   1      36.369  32.478  30.154  1.00  0.00    -0.014 A 
BRANCH  37  38
ATOM     38  C   UNL A   1      37.490  31.762  30.812  1.00  0.00     0.031 A 
ATOM     39  C   UNL A   1      38.254  30.704  30.061  1.00  0.00     0.074 A 
ATOM     40  C   UNL A   1      37.799  32.038  32.095  1.00  0.00     0.049 A 
ATOM     41  N   UNL A   1      39.279  29.997  30.458  1.00  0.00    -0.248 NA
ATOM     42  C   UNL A   1      37.798  30.376  28.698  1.00  0.00     0.031 C 
ATOM     43  C   UNL A   1      37.076  32.978  32.954  1.00  0.00     0.029 A 
ATOM     44  N   UNL A   1      38.795  31.550  32.903  1.00  0.00    -0.354 N 
ATOM     45  C   UNL A   1      39.564  29.124  29.416  1.00  0.00     0.074 A 
ATOM     46  C   UNL A   1      38.583  29.356  28.383  1.00  0.00     0.031 C 
ATOM     47  C   UNL A   1      37.662  33.011  34.160  1.00  0.00     0.029 A 
ATOM     48  C   UNL A   1      38.785  32.078  34.173  1.00  0.00     0.049 A 
ATOM     49  H   UNL A   1      39.454  30.883  32.602  1.00  0.00     0.167 HD
ATOM     50  C   UNL A   1      40.578  28.235  29.311  1.00  0.00     0.034 A 
ATOM     51  C   UNL A   1      39.589  31.839  35.229  1.00  0.00     0.034 A 
ATOM     52  C   UNL A   1      41.591  28.057  30.313  1.00  0.00     0.049 A 
ATOM     53  C   UNL A   1      40.740  30.882  35.069  1.00  0.00     0.074 A 
ATOM     54  C   UNL A   1      42.727  27.271  30.248  1.00  0.00     0.029 A 
ATOM     55  N   UNL A   1      41.586  28.659  31.560  1.00  0.00    -0.354 N 
ATOM     56  N   UNL A   1      41.105  30.205  34.007  1.00  0.00    -0.248 NA
ATOM     57  C   UNL A   1      41.610  30.675  36.238  1.00  0.00     0.031 C 
ATOM     58  C   UNL A   1      43.389  27.366  31.473  1.00  0.00     0.029 A 
ATOM     59  C   UNL A   1      42.686  28.239  32.287  1.00  0.00     0.049 A 
ATOM     60  H   UNL A   1      40.903  29.290  31.881  1.00  0.00     0.167 HD
ATOM     61  C   UNL A   1      42.250  29.508  34.371  1.00  0.00     0.074 A 
ATOM     62  C   UNL A   1      42.538  29.865  35.744  1.00  0.00     0.031 C 
ATOM     63  C   UNL A   1      42.986  28.638  33.639  1.00  0.00     0.034 A 
BRANCH  50  64
ATOM     64  C   UNL A   1      40.693  27.424  28.048  1.00  0.00     0.023 A 
ATOM     65  C   UNL A   1      41.322  27.982  26.917  1.00  0.00     0.012 A 
ATOM     66  C   UNL A   1      40.285  26.076  28.020  1.00  0.00     0.148 A 
ATOM     67  C   UNL A   1      41.526  27.217  25.771  1.00  0.00     0.002 A 
ATOM     68  C   UNL A   1      40.536  25.306  26.892  1.00  0.00     0.091 A 
ATOM     69  F   UNL A   1      39.673  25.571  29.101  1.00  0.00    -0.205 F 
ATOM     70  C   UNL A   1      41.148  25.877  25.763  1.00  0.00     0.022 A 
BRANCH  68  71
ATOM     71  S   UNL A   1      40.173  23.549  26.813  1.00  0.00     0.127 S 
ATOM     72  O   UNL A   1      38.788  23.556  26.344  1.00  0.00    -0.237 OA
ATOM     73  O   UNL A   1      41.148  23.080  25.827  1.00  0.00    -0.237 OA
ATOM     74  O   UNL A   1      40.369  23.034  28.160  1.00  0.00    -0.744 OA
ENDBRANCH  68  71
ENDBRANCH  50  64
BRANCH  51  75
ATOM     75  C   UNL A   1      39.359  32.567  36.508  1.00  0.00     0.023 A 
ATOM     76  C   UNL A   1      40.012  33.793  36.741  1.00  0.00     0.012 A 
ATOM     77  C   UNL A   1      38.448  32.082  37.467  1.00  0.00     0.148 A 
ATOM     78  C   UNL A   1      39.777  34.512  37.915  1.00  0.00     0.002 A 
ATOM     79  C   UNL A   1      38.173  32.832  38.605  1.00  0.00     0.091 A 
ATOM     80  F   UNL A   1      37.845  30.908  37.232  1.00  0.00    -0.205 F 
ATOM     81  C   UNL A   1      38.850  34.039  38.839  1.00  0.00     0.022 A 
BRANCH  79  82
ATOM     82  S   UNL A   1      36.891  32.374  39.777  1.00  0.00     0.127 S 
ATOM     83  O   UNL A   1      37.313  31.033  40.172  1.00  0.00    -0.237 OA
ATOM     84  O   UNL A   1      37.048  33.400  40.808  1.00  0.00    -0.237 OA
ATOM     85  O   UNL A   1      35.637  32.449  39.040  1.00  0.00    -0.744 OA
ENDBRANCH  79  82
ENDBRANCH  51  75
BRANCH  63  86
ATOM     86  C   UNL A   1      44.184  27.991  34.280  1.00  0.00     0.023 A 
ATOM     87  C   UNL A   1      45.414  28.675  34.293  1.00  0.00     0.012 A 
ATOM     88  C   UNL A   1      44.047  26.791  35.008  1.00  0.00     0.148 A 
ATOM     89  C   UNL A   1      46.494  28.174  35.019  1.00  0.00     0.002 A 
ATOM     90  C   UNL A   1      45.111  26.325  35.769  1.00  0.00     0.091 A 
ATOM     91  F   UNL A   1      42.867  26.155  34.973  1.00  0.00    -0.205 F 
ATOM     92  C   UNL A   1      46.337  27.009  35.769  1.00  0.00     0.022 A 
BRANCH  90  93
ATOM     93  S   UNL A   1      44.975  24.901  36.856  1.00  0.00     0.127 S 
ATOM     94  O   UNL A   1      43.901  25.316  37.757  1.00  0.00    -0.237 OA
ATOM     95  O   UNL A   1      44.609  23.835  35.922  1.00  0.00    -0.237 OA
ATOM     96  O   UNL A   1      46.279  24.741  37.483  1.00  0.00    -0.744 OA
ENDBRANCH  90  93
ENDBRANCH  63  86
ENDBRANCH  37  38
ENDBRANCH  29  32
ENDBRANCH  27  28
ENDBRANCH  26  27
ENDBRANCH   1  26
TORSDOF 18
ENDMDL
MODEL 3
REMARK VINA RESULT:     -11.7      6.275     11.529
REMARK SMILES C[C@@H](CNc1cccc(F)c1C(=O)NCCCCNC(=O)c1ccc(-c2c3nc(c(-c4cccc(S(=O)(=O)[O-])c4F)c4ccc([nH]4)c(-c4cccc(S(=O)(=O)[O-])c4F)c4nc(c(-c5cccc(S(=O)(=O)[O-])c5F)c5ccc2[nH]5)C=C4)C=C3)cc1)[NH+]1CCCCC1
REMARK SMILES IDX 16 1 15 2 14 3 12 4 13 5 11 7 5 8 6 9 7 10 9 11 8 12 10 13
REMARK SMILES IDX 4 14 3 16 2 17 1 18 85 19 86 20 90 21 87 23 89 24 88 25
REMARK SMILES IDX 17 26 18 27 19 28 20 29 21 31 22 32 23 33 84 34 24 35 83 36
REMARK SMILES IDX 25 37 26 38 27 39 77 40 28 41 82 42 76 43 78 44 29 45 81 46
REMARK SMILES IDX 75 47 74 48 30 50 62 51 42 52 61 53 43 54 46 55 60 56 79 57
REMARK SMILES IDX 44 58 45 59 59 61 80 62 47 63 31 64 32 65 40 66 33 67 35 68
REMARK SMILES IDX 41 69 34 70 36 71 37 72 38 73 39 74 63 75 64 76 72 77 65 78
REMARK SMILES IDX 67 79 73 80 66 81 68 82 69 83 70 84 71 85 48 86 49 87 57 88
REMARK SMILES IDX 50 89 52 90 58 91 51 92 53 93 54 94 55 95 56 96
REMARK H PARENT 14 6 4 15 85 22 19 30 78 49 46 60
REMARK Flexibility Score: inf
ROOT
ATOM      1  C   UNL A   1      36.910  20.259  24.682  1.00  0.00     0.023 C 
ENDROOT
BRANCH   1   2
ATOM      2  C   UNL A   1      36.835  21.570  25.471  1.00  0.00     0.116 C 
BRANCH   2   3
ATOM      3  N   UNL A   1      35.801  21.453  26.479  1.00  0.00    -0.352 N 
ATOM      4  C   UNL A   1      34.438  21.608  26.438  1.00  0.00     0.256 C 
ATOM      5  O   UNL A   1      33.863  21.631  27.531  1.00  0.00    -0.269 OA
ATOM      6  H   UNL A   1      36.145  21.215  27.370  1.00  0.00     0.163 HD
BRANCH   4   7
ATOM      7  C   UNL A   1      33.616  21.605  25.189  1.00  0.00     0.098 A 
ATOM      8  C   UNL A   1      33.338  22.858  24.563  1.00  0.00     0.050 A 
ATOM      9  C   UNL A   1      32.557  22.864  23.393  1.00  0.00     0.027 A 
ATOM     10  C   UNL A   1      32.035  21.689  22.856  1.00  0.00     0.005 A 
ATOM     11  C   UNL A   1      33.125  20.437  24.600  1.00  0.00     0.138 A 
ATOM     12  C   UNL A   1      32.315  20.475  23.467  1.00  0.00     0.040 A 
ATOM     13  F   UNL A   1      33.440  19.221  25.064  1.00  0.00    -0.206 F 
BRANCH   8  14
ATOM     14  N   UNL A   1      33.778  24.057  25.117  1.00  0.00    -0.378 N 
ATOM     15  H   UNL A   1      34.733  24.272  25.013  1.00  0.00     0.160 HD
BRANCH  14  16
ATOM     16  C   UNL A   1      32.959  25.020  25.837  1.00  0.00     0.177 C 
BRANCH  16  17
ATOM     17  C   UNL A   1      33.000  26.469  25.237  1.00  0.00     0.200 C 
ATOM     18  C   UNL A   1      33.853  27.394  26.121  1.00  0.00     0.077 C 
BRANCH  17  19
ATOM     19  N   UNL A   1      31.723  27.116  24.811  1.00  0.00    -0.331 N 
ATOM     20  C   UNL A   1      31.937  28.516  24.412  1.00  0.00     0.262 C 
ATOM     21  C   UNL A   1      30.982  26.361  23.792  1.00  0.00     0.262 C 
ATOM     22  H   UNL A   1      31.121  27.113  25.635  1.00  0.00     0.348 HD
ATOM     23  C   UNL A   1      30.644  29.220  23.994  1.00  0.00     0.062 C 
ATOM     24  C   UNL A   1      29.686  27.032  23.336  1.00  0.00     0.062 C 
ATOM     25  C   UNL A   1      29.952  28.457  22.875  1.00  0.00     0.012 C 
ENDBRANCH  17  19
ENDBRANCH  16  17
ENDBRANCH  14  16
ENDBRANCH   8  14
ENDBRANCH   4   7
ENDBRANCH   2   3
ENDBRANCH   1   2
BRANCH   1  26
ATOM     26  C   UNL A   1      38.106  19.379  25.064  1.00  0.00     0.023 C 
BRANCH  26  27
ATOM     27  C   UNL A   1      39.235  20.118  25.772  1.00  0.00     0.116 C 
BRANCH  27  28
ATOM     28  N   UNL A   1      40.326  19.237  26.159  1.00  0.00    -0.352 N 
ATOM     29  C   UNL A   1      41.598  19.560  26.559  1.00  0.00     0.251 C 
ATOM     30  H   UNL A   1      40.123  18.274  26.130  1.00  0.00     0.163 HD
ATOM     31  O   UNL A   1      42.434  18.678  26.710  1.00  0.00    -0.269 OA
BRANCH  29  32
ATOM     32  C   UNL A   1      41.957  20.976  26.784  1.00  0.00     0.039 A 
ATOM     33  C   UNL A   1      41.881  21.866  25.711  1.00  0.00     0.014 A 
ATOM     34  C   UNL A   1      42.377  21.422  28.040  1.00  0.00     0.014 A 
ATOM     35  C   UNL A   1      42.206  23.208  25.906  1.00  0.00     0.010 A 
ATOM     36  C   UNL A   1      42.614  22.775  28.253  1.00  0.00     0.010 A 
ATOM     37  C   UNL A   1      42.564  23.677  27.181  1.00  0.00    -0.014 A 
BRANCH  37  38
ATOM     38  C   UNL A   1      42.932  25.100  27.390  1.00  0.00     0.031 A 
ATOM     39  C   UNL A   1      41.951  26.048  28.026  1.00  0.00     0.074 A 
ATOM     40  C   UNL A   1      44.136  25.546  26.978  1.00  0.00     0.049 A 
ATOM     41  N   UNL A   1      42.105  27.313  28.317  1.00  0.00    -0.248 NA
ATOM     42  C   UNL A   1      40.615  25.520  28.357  1.00  0.00     0.031 C 
ATOM     43  C   UNL A   1      45.136  24.745  26.269  1.00  0.00     0.029 A 
ATOM     44  N   UNL A   1      44.718  26.785  27.085  1.00  0.00    -0.354 N 
ATOM     45  C   UNL A   1      40.885  27.736  28.827  1.00  0.00     0.074 A 
ATOM     46  C   UNL A   1      39.984  26.609  28.771  1.00  0.00     0.031 C 
ATOM     47  C   UNL A   1      46.214  25.506  26.023  1.00  0.00     0.029 A 
ATOM     48  C   UNL A   1      45.975  26.854  26.530  1.00  0.00     0.049 A 
ATOM     49  H   UNL A   1      44.277  27.551  27.519  1.00  0.00     0.167 HD
ATOM     50  C   UNL A   1      40.554  28.945  29.335  1.00  0.00     0.034 A 
ATOM     51  C   UNL A   1      46.837  27.887  26.439  1.00  0.00     0.034 A 
ATOM     52  C   UNL A   1      41.475  30.041  29.452  1.00  0.00     0.049 A 
ATOM     53  C   UNL A   1      46.464  29.208  27.057  1.00  0.00     0.074 A 
ATOM     54  C   UNL A   1      41.272  31.264  30.063  1.00  0.00     0.029 A 
ATOM     55  N   UNL A   1      42.761  30.054  28.938  1.00  0.00    -0.354 N 
ATOM     56  N   UNL A   1      45.372  29.532  27.706  1.00  0.00    -0.248 NA
ATOM     57  C   UNL A   1      47.449  30.297  26.961  1.00  0.00     0.031 C 
ATOM     58  C   UNL A   1      42.423  32.034  29.884  1.00  0.00     0.029 A 
ATOM     59  C   UNL A   1      43.355  31.276  29.193  1.00  0.00     0.049 A 
ATOM     60  H   UNL A   1      43.188  29.305  28.463  1.00  0.00     0.167 HD
ATOM     61  C   UNL A   1      45.543  30.851  28.109  1.00  0.00     0.074 A 
ATOM     62  C   UNL A   1      46.856  31.260  27.656  1.00  0.00     0.031 C 
ATOM     63  C   UNL A   1      44.682  31.655  28.777  1.00  0.00     0.034 A 
BRANCH  50  64
ATOM     64  C   UNL A   1      39.160  29.143  29.867  1.00  0.00     0.023 A 
ATOM     65  C   UNL A   1      38.847  28.717  31.174  1.00  0.00     0.012 A 
ATOM     66  C   UNL A   1      38.200  29.852  29.121  1.00  0.00     0.148 A 
ATOM     67  C   UNL A   1      37.593  28.977  31.722  1.00  0.00     0.002 A 
ATOM     68  C   UNL A   1      36.969  30.150  29.692  1.00  0.00     0.091 A 
ATOM     69  F   UNL A   1      38.513  30.231  27.873  1.00  0.00    -0.205 F 
ATOM     70  C   UNL A   1      36.660  29.705  30.989  1.00  0.00     0.022 A 
BRANCH  68  71
ATOM     71  S   UNL A   1      35.733  31.160  28.868  1.00  0.00     0.127 S 
ATOM     72  O   UNL A   1      35.075  30.177  28.008  1.00  0.00    -0.237 OA
ATOM     73  O   UNL A   1      34.922  31.627  29.992  1.00  0.00    -0.237 OA
ATOM     74  O   UNL A   1      36.466  32.204  28.166  1.00  0.00    -0.744 OA
ENDBRANCH  68  71
ENDBRANCH  50  64
BRANCH  51  75
ATOM     75  C   UNL A   1      48.160  27.684  25.783  1.00  0.00     0.023 A 
ATOM     76  C   UNL A   1      49.287  27.368  26.567  1.00  0.00     0.012 A 
ATOM     77  C   UNL A   1      48.293  27.742  24.381  1.00  0.00     0.148 A 
ATOM     78  C   UNL A   1      50.526  27.132  25.967  1.00  0.00     0.002 A 
ATOM     79  C   UNL A   1      49.515  27.448  23.788  1.00  0.00     0.091 A 
ATOM     80  F   UNL A   1      47.212  28.056  23.654  1.00  0.00    -0.205 F 
ATOM     81  C   UNL A   1      50.637  27.159  24.580  1.00  0.00     0.022 A 
BRANCH  79  82
ATOM     82  S   UNL A   1      49.716  27.316  22.007  1.00  0.00     0.127 S 
ATOM     83  O   UNL A   1      49.542  28.704  21.584  1.00  0.00    -0.237 OA
ATOM     84  O   UNL A   1      51.083  26.804  21.898  1.00  0.00    -0.237 OA
ATOM     85  O   UNL A   1      48.688  26.387  21.560  1.00  0.00    -0.744 OA
ENDBRANCH  79  82
ENDBRANCH  51  75
BRANCH  63  86
ATOM     86  C   UNL A   1      45.102  33.069  29.077  1.00  0.00     0.023 A 
ATOM     87  C   UNL A   1      45.847  33.336  30.241  1.00  0.00     0.012 A 
ATOM     88  C   UNL A   1      44.904  34.092  28.128  1.00  0.00     0.148 A 
ATOM     89  C   UNL A   1      46.387  34.603  30.460  1.00  0.00     0.002 A 
ATOM     90  C   UNL A   1      45.487  35.337  28.328  1.00  0.00     0.091 A 
ATOM     91  F   UNL A   1      44.184  33.814  27.031  1.00  0.00    -0.205 F 
ATOM     92  C   UNL A   1      46.221  35.596  29.497  1.00  0.00     0.022 A 
BRANCH  90  93
ATOM     93  S   UNL A   1      45.427  36.644  27.097  1.00  0.00     0.127 S 
ATOM     94  O   UNL A   1      46.131  37.728  27.781  1.00  0.00    -0.237 OA
ATOM     95  O   UNL A   1      46.161  36.050  25.980  1.00  0.00    -0.237 OA
ATOM     96  O   UNL A   1      44.016  36.893  26.837  1.00  0.00    -0.744 OA
ENDBRANCH  90  93
ENDBRANCH  63  86
ENDBRANCH  37  38
ENDBRANCH  29  32
ENDBRANCH  27  28
ENDBRANCH  26  27
ENDBRANCH   1  26
TORSDOF 18
ENDMDL
