MODEL 1
REMARK VINA RESULT:     -12.9      0.000      0.000
REMARK SMILES Cc1nc(-c2ccccc2Cl)nc2sc(C(=O)NCCCCNC(=O)c3ccc(-c4c5nc(c(-c6cccc(S(=O)(=O)[O-])c6F)c6ccc([nH]6)c(-c6cccc(S(=O)(=O)[O-])c6F)c6nc(c(-c7cccc(S(=O)(=O)[O-])c7F)c7ccc4[nH]7)C=C6)C=C5)cc3)c(N)c12
REMARK SMILES IDX 21 1 20 2 19 3 18 4 16 5 17 6 15 8 1 9 2 10 3 11 91 12 4 13
REMARK SMILES IDX 13 14 89 15 12 16 14 17 5 18 6 19 10 20 7 21 9 22 11 23 8 24
REMARK SMILES IDX 90 25 22 28 23 29 24 30 25 32 26 33 27 34 88 35 28 36 87 37
REMARK SMILES IDX 29 38 30 39 31 40 81 41 32 42 86 43 80 44 82 45 33 46 85 47
REMARK SMILES IDX 79 48 78 49 34 51 66 52 46 53 65 54 47 55 50 56 64 57 83 58
REMARK SMILES IDX 48 59 49 60 63 62 84 63 51 64 35 65 36 66 44 67 37 68 39 69
REMARK SMILES IDX 45 70 38 71 40 72 41 73 42 74 43 75 67 76 68 77 76 78 69 79
REMARK SMILES IDX 71 80 77 81 70 82 72 83 73 84 74 85 75 86 52 87 53 88 61 89
REMARK SMILES IDX 54 90 56 91 62 92 55 93 57 94 58 95 59 96 60 97
REMARK H PARENT 18 7 90 26 90 27 23 31 82 50 50 61
REMARK Flexibility Score: inf
ROOT
ATOM      1  C   UNL A   1      37.972  19.980  24.600  1.00  0.00     0.023 C 
ENDROOT
BRANCH   1   2
ATOM      2  C   UNL A   1      36.537  19.643  25.025  1.00  0.00     0.023 C 
BRANCH   2   3
ATOM      3  C   UNL A   1      35.524  20.802  24.960  1.00  0.00     0.116 C 
BRANCH   3   4
ATOM      4  N   UNL A   1      34.144  20.345  25.090  1.00  0.00    -0.351 N 
ATOM      5  C   UNL A   1      32.926  20.997  25.014  1.00  0.00     0.263 C 
ATOM      6  O   UNL A   1      31.929  20.272  25.108  1.00  0.00    -0.268 OA
ATOM      7  H   UNL A   1      34.064  19.380  25.266  1.00  0.00     0.163 HD
BRANCH   5   8
ATOM      8  C   UNL A   1      32.795  22.440  24.814  1.00  0.00     0.118 A 
ATOM      9  C   UNL A   1      32.814  25.706  21.475  1.00  0.00     0.067 C 
ATOM     10  C   UNL A   1      32.873  25.732  22.972  1.00  0.00     0.052 A 
ATOM     11  N   UNL A   1      32.974  26.968  23.560  1.00  0.00    -0.233 NA
ATOM     12  C   UNL A   1      32.820  24.588  23.800  1.00  0.00     0.056 A 
ATOM     13  C   UNL A   1      32.957  27.055  24.903  1.00  0.00     0.162 A 
ATOM     14  C   UNL A   1      32.735  24.861  25.150  1.00  0.00     0.130 A 
ATOM     15  C   UNL A   1      32.835  23.153  23.612  1.00  0.00     0.067 A 
ATOM     16  N   UNL A   1      32.803  26.045  25.752  1.00  0.00    -0.217 NA
ATOM     17  S   UNL A   1      32.439  23.507  26.089  1.00  0.00    -0.108 S 
BRANCH  13  18
ATOM     18  C   UNL A   1      33.084  28.345  25.570  1.00  0.00     0.038 A 
ATOM     19  C   UNL A   1      34.103  28.517  26.533  1.00  0.00     0.013 A 
ATOM     20  C   UNL A   1      32.112  29.347  25.452  1.00  0.00     0.052 A 
ATOM     21  C   UNL A   1      34.137  29.638  27.363  1.00  0.00     0.001 A 
ATOM     22  C   UNL A   1      32.147  30.471  26.286  1.00  0.00     0.021 A 
ATOM     23  Cl  UNL A   1      30.777  29.212  24.356  1.00  0.00    -0.084 Cl
ATOM     24  C   UNL A   1      33.151  30.612  27.244  1.00  0.00     0.002 A 
ENDBRANCH  13  18
BRANCH  15  25
ATOM     25  N   UNL A   1      32.946  22.541  22.412  1.00  0.00    -0.397 N 
ATOM     26  H   UNL A   1      33.363  21.650  22.350  1.00  0.00     0.156 HD
ATOM     27  H   UNL A   1      32.611  22.985  21.599  1.00  0.00     0.156 HD
ENDBRANCH  15  25
ENDBRANCH   5   8
ENDBRANCH   3   4
ENDBRANCH   2   3
ENDBRANCH   1   2
BRANCH   1  28
ATOM     28  C   UNL A   1      38.927  20.215  25.759  1.00  0.00     0.116 C 
BRANCH  28  29
ATOM     29  N   UNL A   1      39.972  19.187  25.893  1.00  0.00    -0.352 N 
ATOM     30  C   UNL A   1      41.348  19.388  26.006  1.00  0.00     0.251 C 
ATOM     31  H   UNL A   1      39.666  18.251  25.904  1.00  0.00     0.163 HD
ATOM     32  O   UNL A   1      42.154  18.515  25.748  1.00  0.00    -0.269 OA
BRANCH  30  33
ATOM     33  C   UNL A   1      41.783  20.703  26.508  1.00  0.00     0.039 A 
ATOM     34  C   UNL A   1      42.224  21.750  25.693  1.00  0.00     0.014 A 
ATOM     35  C   UNL A   1      41.614  20.876  27.872  1.00  0.00     0.014 A 
ATOM     36  C   UNL A   1      42.437  22.994  26.287  1.00  0.00     0.010 A 
ATOM     37  C   UNL A   1      41.497  22.139  28.355  1.00  0.00     0.010 A 
ATOM     38  C   UNL A   1      42.063  23.169  27.628  1.00  0.00    -0.014 A 
BRANCH  38  39
ATOM     39  C   UNL A   1      42.223  24.408  28.362  1.00  0.00     0.031 A 
ATOM     40  C   UNL A   1      41.094  25.356  28.239  1.00  0.00     0.074 A 
ATOM     41  C   UNL A   1      43.214  24.553  29.276  1.00  0.00     0.049 A 
ATOM     42  N   UNL A   1      41.088  26.459  27.573  1.00  0.00    -0.248 NA
ATOM     43  C   UNL A   1      39.779  24.976  28.775  1.00  0.00     0.031 C 
ATOM     44  C   UNL A   1      44.202  23.565  29.748  1.00  0.00     0.029 A 
ATOM     45  N   UNL A   1      43.451  25.604  30.094  1.00  0.00    -0.354 N 
ATOM     46  C   UNL A   1      39.845  27.036  27.805  1.00  0.00     0.074 A 
ATOM     47  C   UNL A   1      39.021  25.995  28.361  1.00  0.00     0.031 C 
ATOM     48  C   UNL A   1      44.730  23.977  30.924  1.00  0.00     0.029 A 
ATOM     49  C   UNL A   1      44.274  25.326  31.181  1.00  0.00     0.049 A 
ATOM     50  H   UNL A   1      43.070  26.497  29.934  1.00  0.00     0.167 HD
ATOM     51  C   UNL A   1      39.676  28.387  27.742  1.00  0.00     0.034 A 
ATOM     52  C   UNL A   1      44.522  26.154  32.225  1.00  0.00     0.034 A 
ATOM     53  C   UNL A   1      40.846  29.030  27.194  1.00  0.00     0.049 A 
ATOM     54  C   UNL A   1      44.200  27.526  31.759  1.00  0.00     0.074 A 
ATOM     55  C   UNL A   1      41.525  28.953  25.995  1.00  0.00     0.029 A 
ATOM     56  N   UNL A   1      41.736  29.566  28.099  1.00  0.00    -0.354 N 
ATOM     57  N   UNL A   1      44.868  28.127  30.813  1.00  0.00    -0.248 NA
ATOM     58  C   UNL A   1      42.852  28.019  31.989  1.00  0.00     0.031 C 
ATOM     59  C   UNL A   1      42.904  28.966  26.359  1.00  0.00     0.029 A 
ATOM     60  C   UNL A   1      42.990  29.142  27.742  1.00  0.00     0.049 A 
ATOM     61  H   UNL A   1      41.511  30.147  28.861  1.00  0.00     0.167 HD
ATOM     62  C   UNL A   1      43.890  28.728  30.032  1.00  0.00     0.074 A 
ATOM     63  C   UNL A   1      42.679  28.712  30.859  1.00  0.00     0.031 C 
ATOM     64  C   UNL A   1      44.060  28.903  28.687  1.00  0.00     0.034 A 
BRANCH  51  65
ATOM     65  C   UNL A   1      38.626  29.184  28.471  1.00  0.00     0.023 A 
ATOM     66  C   UNL A   1      37.895  30.130  27.715  1.00  0.00     0.012 A 
ATOM     67  C   UNL A   1      38.494  29.244  29.875  1.00  0.00     0.148 A 
ATOM     68  C   UNL A   1      37.112  31.113  28.326  1.00  0.00     0.002 A 
ATOM     69  C   UNL A   1      37.654  30.176  30.477  1.00  0.00     0.091 A 
ATOM     70  F   UNL A   1      39.276  28.489  30.652  1.00  0.00    -0.205 F 
ATOM     71  C   UNL A   1      36.985  31.132  29.709  1.00  0.00     0.022 A 
BRANCH  69  72
ATOM     72  S   UNL A   1      37.411  30.221  32.257  1.00  0.00     0.127 S 
ATOM     73  O   UNL A   1      37.076  28.830  32.542  1.00  0.00    -0.237 OA
ATOM     74  O   UNL A   1      38.729  30.652  32.726  1.00  0.00    -0.237 OA
ATOM     75  O   UNL A   1      36.350  31.195  32.480  1.00  0.00    -0.744 OA
ENDBRANCH  69  72
ENDBRANCH  51  65
BRANCH  52  76
ATOM     76  C   UNL A   1      44.713  25.844  33.661  1.00  0.00     0.023 A 
ATOM     77  C   UNL A   1      46.016  25.775  34.192  1.00  0.00     0.012 A 
ATOM     78  C   UNL A   1      43.628  25.940  34.561  1.00  0.00     0.148 A 
ATOM     79  C   UNL A   1      46.238  25.851  35.573  1.00  0.00     0.002 A 
ATOM     80  C   UNL A   1      43.855  26.027  35.932  1.00  0.00     0.091 A 
ATOM     81  F   UNL A   1      42.389  26.042  34.065  1.00  0.00    -0.205 F 
ATOM     82  C   UNL A   1      45.159  25.994  36.442  1.00  0.00     0.022 A 
BRANCH  80  83
ATOM     83  S   UNL A   1      42.520  26.282  37.113  1.00  0.00     0.127 S 
ATOM     84  O   UNL A   1      43.238  26.273  38.387  1.00  0.00    -0.237 OA
ATOM     85  O   UNL A   1      42.008  27.588  36.706  1.00  0.00    -0.237 OA
ATOM     86  O   UNL A   1      41.607  25.161  36.926  1.00  0.00    -0.744 OA
ENDBRANCH  80  83
ENDBRANCH  52  76
BRANCH  64  87
ATOM     87  C   UNL A   1      45.417  28.591  28.094  1.00  0.00     0.023 A 
ATOM     88  C   UNL A   1      46.525  29.459  28.224  1.00  0.00     0.012 A 
ATOM     89  C   UNL A   1      45.628  27.313  27.556  1.00  0.00     0.148 A 
ATOM     90  C   UNL A   1      47.802  29.068  27.810  1.00  0.00     0.002 A 
ATOM     91  C   UNL A   1      46.906  26.908  27.190  1.00  0.00     0.091 A 
ATOM     92  F   UNL A   1      44.571  26.494  27.438  1.00  0.00    -0.205 F 
ATOM     93  C   UNL A   1      47.995  27.786  27.305  1.00  0.00     0.022 A 
BRANCH  91  94
ATOM     94  S   UNL A   1      47.232  25.225  26.662  1.00  0.00     0.127 S 
ATOM     95  O   UNL A   1      48.689  25.220  26.544  1.00  0.00    -0.237 OA
ATOM     96  O   UNL A   1      46.706  24.436  27.777  1.00  0.00    -0.237 OA
ATOM     97  O   UNL A   1      46.498  25.051  25.415  1.00  0.00    -0.744 OA
ENDBRANCH  91  94
ENDBRANCH  64  87
ENDBRANCH  38  39
ENDBRANCH  30  33
ENDBRANCH  28  29
ENDBRANCH   1  28
TORSDOF 16
ENDMDL
MODEL 2
REMARK VINA RESULT:     -12.7      1.958      2.364
REMARK SMILES Cc1nc(-c2ccccc2Cl)nc2sc(C(=O)NCCCCNC(=O)c3ccc(-c4c5nc(c(-c6cccc(S(=O)(=O)[O-])c6F)c6ccc([nH]6)c(-c6cccc(S(=O)(=O)[O-])c6F)c6nc(c(-c7cccc(S(=O)(=O)[O-])c7F)c7ccc4[nH]7)C=C6)C=C5)cc3)c(N)c12
REMARK SMILES IDX 21 1 20 2 19 3 18 4 16 5 17 6 15 8 1 9 2 10 3 11 91 12 4 13
REMARK SMILES IDX 13 14 89 15 12 16 14 17 5 18 6 19 10 20 7 21 9 22 11 23 8 24
REMARK SMILES IDX 90 25 22 28 23 29 24 30 25 32 26 33 27 34 88 35 28 36 87 37
REMARK SMILES IDX 29 38 30 39 31 40 81 41 32 42 86 43 80 44 82 45 33 46 85 47
REMARK SMILES IDX 79 48 78 49 34 51 66 52 46 53 65 54 47 55 50 56 64 57 83 58
REMARK SMILES IDX 48 59 49 60 63 62 84 63 51 64 35 65 36 66 44 67 37 68 39 69
REMARK SMILES IDX 45 70 38 71 40 72 41 73 42 74 43 75 67 76 68 77 76 78 69 79
REMARK SMILES IDX 71 80 77 81 70 82 72 83 73 84 74 85 75 86 52 87 53 88 61 89
REMARK SMILES IDX 54 90 56 91 62 92 55 93 57 94 58 95 59 96 60 97
REMARK H PARENT 18 7 90 26 90 27 23 31 82 50 50 61
REMARK Flexibility Score: inf
ROOT
ATOM      1  C   UNL A   1      39.367  20.068  25.737  1.00  0.00     0.023 C 
ENDROOT
BRANCH   1   2
ATOM      2  C   UNL A   1      39.218  21.592  25.811  1.00  0.00     0.023 C 
BRANCH   2   3
ATOM      3  C   UNL A   1      37.800  22.144  25.564  1.00  0.00     0.116 C 
BRANCH   3   4
ATOM      4  N   UNL A   1      36.835  21.091  25.263  1.00  0.00    -0.351 N 
ATOM      5  C   UNL A   1      35.452  21.056  25.257  1.00  0.00     0.263 C 
ATOM      6  O   UNL A   1      34.950  19.991  24.880  1.00  0.00    -0.268 OA
ATOM      7  H   UNL A   1      37.253  20.235  25.015  1.00  0.00     0.163 HD
BRANCH   5   8
ATOM      8  C   UNL A   1      34.615  22.192  25.643  1.00  0.00     0.118 A 
ATOM      9  C   UNL A   1      30.249  23.288  26.885  1.00  0.00     0.067 C 
ATOM     10  C   UNL A   1      31.458  24.077  26.484  1.00  0.00     0.052 A 
ATOM     11  N   UNL A   1      31.310  25.441  26.434  1.00  0.00    -0.233 NA
ATOM     12  C   UNL A   1      32.718  23.518  26.173  1.00  0.00     0.056 A 
ATOM     13  C   UNL A   1      32.383  26.203  26.151  1.00  0.00     0.162 A 
ATOM     14  C   UNL A   1      33.724  24.443  25.982  1.00  0.00     0.130 A 
ATOM     15  C   UNL A   1      33.261  22.190  25.990  1.00  0.00     0.067 A 
ATOM     16  N   UNL A   1      33.623  25.769  25.952  1.00  0.00    -0.217 NA
ATOM     17  S   UNL A   1      35.245  23.758  25.847  1.00  0.00    -0.108 S 
BRANCH  13  18
ATOM     18  C   UNL A   1      32.268  27.653  26.066  1.00  0.00     0.038 A 
ATOM     19  C   UNL A   1      32.574  28.429  27.206  1.00  0.00     0.013 A 
ATOM     20  C   UNL A   1      31.666  28.293  24.975  1.00  0.00     0.052 A 
ATOM     21  C   UNL A   1      32.269  29.790  27.262  1.00  0.00     0.001 A 
ATOM     22  C   UNL A   1      31.360  29.659  25.033  1.00  0.00     0.021 A 
ATOM     23  Cl  UNL A   1      31.183  27.431  23.552  1.00  0.00    -0.084 Cl
ATOM     24  C   UNL A   1      31.654  30.403  26.176  1.00  0.00     0.002 A 
ENDBRANCH  13  18
BRANCH  15  25
ATOM     25  N   UNL A   1      32.538  21.050  26.071  1.00  0.00    -0.397 N 
ATOM     26  H   UNL A   1      32.354  20.645  26.950  1.00  0.00     0.156 HD
ATOM     27  H   UNL A   1      32.195  20.625  25.252  1.00  0.00     0.156 HD
ENDBRANCH  15  25
ENDBRANCH   5   8
ENDBRANCH   3   4
ENDBRANCH   2   3
ENDBRANCH   1   2
BRANCH   1  28
ATOM     28  C   UNL A   1      40.337  19.486  26.754  1.00  0.00     0.116 C 
BRANCH  28  29
ATOM     29  N   UNL A   1      41.567  18.936  26.163  1.00  0.00    -0.352 N 
ATOM     30  C   UNL A   1      42.669  19.646  25.687  1.00  0.00     0.251 C 
ATOM     31  H   UNL A   1      41.618  17.955  26.095  1.00  0.00     0.163 HD
ATOM     32  O   UNL A   1      43.462  19.163  24.901  1.00  0.00    -0.269 OA
BRANCH  30  33
ATOM     33  C   UNL A   1      42.861  21.003  26.226  1.00  0.00     0.039 A 
ATOM     34  C   UNL A   1      43.041  22.145  25.439  1.00  0.00     0.014 A 
ATOM     35  C   UNL A   1      42.737  21.092  27.603  1.00  0.00     0.014 A 
ATOM     36  C   UNL A   1      43.034  23.385  26.078  1.00  0.00     0.010 A 
ATOM     37  C   UNL A   1      42.398  22.288  28.146  1.00  0.00     0.010 A 
ATOM     38  C   UNL A   1      42.707  23.435  27.441  1.00  0.00    -0.014 A 
BRANCH  38  39
ATOM     39  C   UNL A   1      42.659  24.655  28.221  1.00  0.00     0.031 A 
ATOM     40  C   UNL A   1      41.426  25.456  28.050  1.00  0.00     0.074 A 
ATOM     41  C   UNL A   1      43.562  24.890  29.204  1.00  0.00     0.049 A 
ATOM     42  N   UNL A   1      41.320  26.574  27.418  1.00  0.00    -0.248 NA
ATOM     43  C   UNL A   1      40.140  24.891  28.483  1.00  0.00     0.031 C 
ATOM     44  C   UNL A   1      44.637  24.018  29.713  1.00  0.00     0.029 A 
ATOM     45  N   UNL A   1      43.608  25.930  30.068  1.00  0.00    -0.354 N 
ATOM     46  C   UNL A   1      40.000  26.979  27.583  1.00  0.00     0.074 A 
ATOM     47  C   UNL A   1      39.284  25.820  28.050  1.00  0.00     0.031 C 
ATOM     48  C   UNL A   1      45.032  24.448  30.934  1.00  0.00     0.029 A 
ATOM     49  C   UNL A   1      44.389  25.718  31.199  1.00  0.00     0.049 A 
ATOM     50  H   UNL A   1      43.126  26.773  29.909  1.00  0.00     0.167 HD
ATOM     51  C   UNL A   1      39.662  28.298  27.549  1.00  0.00     0.034 A 
ATOM     52  C   UNL A   1      44.460  26.529  32.283  1.00  0.00     0.034 A 
ATOM     53  C   UNL A   1      40.771  29.106  27.102  1.00  0.00     0.049 A 
ATOM     54  C   UNL A   1      43.994  27.866  31.837  1.00  0.00     0.074 A 
ATOM     55  C   UNL A   1      41.529  29.162  25.950  1.00  0.00     0.029 A 
ATOM     56  N   UNL A   1      41.524  29.715  28.081  1.00  0.00    -0.354 N 
ATOM     57  N   UNL A   1      44.638  28.583  30.958  1.00  0.00    -0.248 NA
ATOM     58  C   UNL A   1      42.582  28.174  31.989  1.00  0.00     0.031 C 
ATOM     59  C   UNL A   1      42.869  29.337  26.407  1.00  0.00     0.029 A 
ATOM     60  C   UNL A   1      42.843  29.469  27.797  1.00  0.00     0.049 A 
ATOM     61  H   UNL A   1      41.178  30.233  28.843  1.00  0.00     0.167 HD
ATOM     62  C   UNL A   1      43.641  29.085  30.130  1.00  0.00     0.074 A 
ATOM     63  C   UNL A   1      42.393  28.883  30.871  1.00  0.00     0.031 C 
ATOM     64  C   UNL A   1      43.873  29.332  28.805  1.00  0.00     0.034 A 
BRANCH  51  65
ATOM     65  C   UNL A   1      38.472  28.927  28.228  1.00  0.00     0.023 A 
ATOM     66  C   UNL A   1      37.535  29.588  27.402  1.00  0.00     0.012 A 
ATOM     67  C   UNL A   1      38.356  29.127  29.621  1.00  0.00     0.148 A 
ATOM     68  C   UNL A   1      36.562  30.441  27.932  1.00  0.00     0.002 A 
ATOM     69  C   UNL A   1      37.340  29.917  30.149  1.00  0.00     0.091 A 
ATOM     70  F   UNL A   1      39.303  28.664  30.443  1.00  0.00    -0.205 F 
ATOM     71  C   UNL A   1      36.459  30.600  29.307  1.00  0.00     0.022 A 
BRANCH  69  72
ATOM     72  S   UNL A   1      37.126  30.124  31.921  1.00  0.00     0.127 S 
ATOM     73  O   UNL A   1      38.322  30.883  32.273  1.00  0.00    -0.237 OA
ATOM     74  O   UNL A   1      35.872  30.877  31.983  1.00  0.00    -0.237 OA
ATOM     75  O   UNL A   1      37.040  28.774  32.463  1.00  0.00    -0.744 OA
ENDBRANCH  69  72
ENDBRANCH  51  65
BRANCH  52  76
ATOM     76  C   UNL A   1      44.598  26.191  33.718  1.00  0.00     0.023 A 
ATOM     77  C   UNL A   1      45.853  26.318  34.347  1.00  0.00     0.012 A 
ATOM     78  C   UNL A   1      43.452  26.062  34.533  1.00  0.00     0.148 A 
ATOM     79  C   UNL A   1      45.958  26.367  35.743  1.00  0.00     0.002 A 
ATOM     80  C   UNL A   1      43.561  26.123  35.920  1.00  0.00     0.091 A 
ATOM     81  F   UNL A   1      42.252  25.976  33.944  1.00  0.00    -0.205 F 
ATOM     82  C   UNL A   1      44.811  26.287  36.530  1.00  0.00     0.022 A 
BRANCH  80  83
ATOM     83  S   UNL A   1      42.121  26.096  36.999  1.00  0.00     0.127 S 
ATOM     84  O   UNL A   1      42.733  26.213  38.323  1.00  0.00    -0.237 OA
ATOM     85  O   UNL A   1      41.391  27.280  36.554  1.00  0.00    -0.237 OA
ATOM     86  O   UNL A   1      41.462  24.819  36.750  1.00  0.00    -0.744 OA
ENDBRANCH  80  83
ENDBRANCH  52  76
BRANCH  64  87
ATOM     87  C   UNL A   1      45.294  29.219  28.297  1.00  0.00     0.023 A 
ATOM     88  C   UNL A   1      45.838  28.007  27.815  1.00  0.00     0.012 A 
ATOM     89  C   UNL A   1      46.034  30.399  28.130  1.00  0.00     0.148 A 
ATOM     90  C   UNL A   1      47.093  27.972  27.200  1.00  0.00     0.002 A 
ATOM     91  C   UNL A   1      47.260  30.370  27.476  1.00  0.00     0.091 A 
ATOM     92  F   UNL A   1      45.509  31.545  28.589  1.00  0.00    -0.205 F 
ATOM     93  C   UNL A   1      47.799  29.158  27.018  1.00  0.00     0.022 A 
BRANCH  91  94
ATOM     94  S   UNL A   1      48.145  31.883  27.095  1.00  0.00     0.127 S 
ATOM     95  O   UNL A   1      47.240  32.538  26.155  1.00  0.00    -0.237 OA
ATOM     96  O   UNL A   1      48.242  32.531  28.404  1.00  0.00    -0.237 OA
ATOM     97  O   UNL A   1      49.429  31.464  26.546  1.00  0.00    -0.744 OA
ENDBRANCH  91  94
ENDBRANCH  64  87
ENDBRANCH  38  39
ENDBRANCH  30  33
ENDBRANCH  28  29
ENDBRANCH   1  28
TORSDOF 16
ENDMDL
MODEL 3
REMARK VINA RESULT:     -12.6      3.266      8.286
REMARK SMILES Cc1nc(-c2ccccc2Cl)nc2sc(C(=O)NCCCCNC(=O)c3ccc(-c4c5nc(c(-c6cccc(S(=O)(=O)[O-])c6F)c6ccc([nH]6)c(-c6cccc(S(=O)(=O)[O-])c6F)c6nc(c(-c7cccc(S(=O)(=O)[O-])c7F)c7ccc4[nH]7)C=C6)C=C5)cc3)c(N)c12
REMARK SMILES IDX 21 1 20 2 19 3 18 4 16 5 17 6 15 8 1 9 2 10 3 11 91 12 4 13
REMARK SMILES IDX 13 14 89 15 12 16 14 17 5 18 6 19 10 20 7 21 9 22 11 23 8 24
REMARK SMILES IDX 90 25 22 28 23 29 24 30 25 32 26 33 27 34 88 35 28 36 87 37
REMARK SMILES IDX 29 38 30 39 31 40 81 41 32 42 86 43 80 44 82 45 33 46 85 47
REMARK SMILES IDX 79 48 78 49 34 51 66 52 46 53 65 54 47 55 50 56 64 57 83 58
REMARK SMILES IDX 48 59 49 60 63 62 84 63 51 64 35 65 36 66 44 67 37 68 39 69
REMARK SMILES IDX 45 70 38 71 40 72 41 73 42 74 43 75 67 76 68 77 76 78 69 79
REMARK SMILES IDX 71 80 77 81 70 82 72 83 73 84 74 85 75 86 52 87 53 88 61 89
REMARK SMILES IDX 54 90 56 91 62 92 55 93 57 94 58 95 59 96 60 97
REMARK H PARENT 18 7 90 26 90 27 23 31 82 50 50 61
REMARK Flexibility Score: inf
ROOT
ATOM      1  C   UNL A   1      33.582  30.459  27.273  1.00  0.00     0.023 C 
ENDROOT
BRANCH   1   2
ATOM      2  C   UNL A   1      34.227  29.079  27.091  1.00  0.00     0.023 C 
BRANCH   2   3
ATOM      3  C   UNL A   1      33.277  27.940  26.672  1.00  0.00     0.116 C 
BRANCH   3   4
ATOM      4  N   UNL A   1      32.450  28.297  25.523  1.00  0.00    -0.351 N 
ATOM      5  C   UNL A   1      31.693  27.549  24.639  1.00  0.00     0.263 C 
ATOM      6  O   UNL A   1      31.052  28.199  23.807  1.00  0.00    -0.268 OA
ATOM      7  H   UNL A   1      32.425  29.265  25.343  1.00  0.00     0.163 HD
BRANCH   5   8
ATOM      8  C   UNL A   1      31.621  26.088  24.678  1.00  0.00     0.118 A 
ATOM      9  C   UNL A   1      29.630  22.566  27.010  1.00  0.00     0.067 C 
ATOM     10  C   UNL A   1      30.735  22.669  26.003  1.00  0.00     0.052 A 
ATOM     11  N   UNL A   1      31.359  21.497  25.655  1.00  0.00    -0.233 NA
ATOM     12  C   UNL A   1      31.158  23.871  25.392  1.00  0.00     0.056 A 
ATOM     13  C   UNL A   1      32.308  21.522  24.702  1.00  0.00     0.162 A 
ATOM     14  C   UNL A   1      32.086  23.707  24.384  1.00  0.00     0.130 A 
ATOM     15  C   UNL A   1      30.876  25.282  25.543  1.00  0.00     0.067 A 
ATOM     16  N   UNL A   1      32.691  22.585  24.004  1.00  0.00    -0.217 NA
ATOM     17  S   UNL A   1      32.395  25.108  23.523  1.00  0.00    -0.108 S 
BRANCH  13  18
ATOM     18  C   UNL A   1      33.012  20.304  24.317  1.00  0.00     0.038 A 
ATOM     19  C   UNL A   1      32.320  19.324  23.572  1.00  0.00     0.013 A 
ATOM     20  C   UNL A   1      34.272  19.973  24.834  1.00  0.00     0.052 A 
ATOM     21  C   UNL A   1      32.857  18.052  23.369  1.00  0.00     0.001 A 
ATOM     22  C   UNL A   1      34.809  18.696  24.629  1.00  0.00     0.021 A 
ATOM     23  Cl  UNL A   1      35.181  21.069  25.820  1.00  0.00    -0.084 Cl
ATOM     24  C   UNL A   1      34.100  17.736  23.906  1.00  0.00     0.002 A 
ENDBRANCH  13  18
BRANCH  15  25
ATOM     25  N   UNL A   1      30.035  25.799  26.467  1.00  0.00    -0.397 N 
ATOM     26  H   UNL A   1      29.536  26.625  26.271  1.00  0.00     0.156 HD
ATOM     27  H   UNL A   1      29.921  25.350  27.336  1.00  0.00     0.156 HD
ENDBRANCH  15  25
ENDBRANCH   5   8
ENDBRANCH   3   4
ENDBRANCH   2   3
ENDBRANCH   1   2
BRANCH   1  28
ATOM     28  C   UNL A   1      34.566  31.567  27.613  1.00  0.00     0.116 C 
BRANCH  28  29
ATOM     29  N   UNL A   1      34.417  32.105  28.976  1.00  0.00    -0.352 N 
ATOM     30  C   UNL A   1      35.201  31.815  30.091  1.00  0.00     0.251 C 
ATOM     31  H   UNL A   1      33.678  32.741  29.115  1.00  0.00     0.163 HD
ATOM     32  O   UNL A   1      34.808  32.000  31.227  1.00  0.00    -0.269 OA
BRANCH  30  33
ATOM     33  C   UNL A   1      36.563  31.317  29.828  1.00  0.00     0.039 A 
ATOM     34  C   UNL A   1      37.676  32.139  29.623  1.00  0.00     0.014 A 
ATOM     35  C   UNL A   1      36.692  29.940  29.911  1.00  0.00     0.014 A 
ATOM     36  C   UNL A   1      38.931  31.534  29.560  1.00  0.00     0.010 A 
ATOM     37  C   UNL A   1      37.915  29.420  30.183  1.00  0.00     0.010 A 
ATOM     38  C   UNL A   1      39.030  30.164  29.847  1.00  0.00    -0.014 A 
BRANCH  38  39
ATOM     39  C   UNL A   1      40.270  29.415  29.823  1.00  0.00     0.031 A 
ATOM     40  C   UNL A   1      40.821  29.079  31.154  1.00  0.00     0.074 A 
ATOM     41  C   UNL A   1      40.729  28.865  28.673  1.00  0.00     0.049 A 
ATOM     42  N   UNL A   1      41.857  29.607  31.711  1.00  0.00    -0.248 NA
ATOM     43  C   UNL A   1      40.062  28.180  32.036  1.00  0.00     0.031 C 
ATOM     44  C   UNL A   1      40.103  28.830  27.338  1.00  0.00     0.029 A 
ATOM     45  N   UNL A   1      41.816  28.079  28.496  1.00  0.00    -0.354 N 
ATOM     46  C   UNL A   1      42.025  28.932  32.915  1.00  0.00     0.074 A 
ATOM     47  C   UNL A   1      40.790  28.232  33.154  1.00  0.00     0.031 C 
ATOM     48  C   UNL A   1      40.678  27.859  26.591  1.00  0.00     0.029 A 
ATOM     49  C   UNL A   1      41.825  27.348  27.312  1.00  0.00     0.049 A 
ATOM     50  H   UNL A   1      42.545  28.027  29.155  1.00  0.00     0.167 HD
ATOM     51  C   UNL A   1      43.257  28.816  33.487  1.00  0.00     0.034 A 
ATOM     52  C   UNL A   1      42.707  26.373  26.983  1.00  0.00     0.034 A 
ATOM     53  C   UNL A   1      44.220  29.656  32.816  1.00  0.00     0.049 A 
ATOM     54  C   UNL A   1      43.904  26.585  27.834  1.00  0.00     0.074 A 
ATOM     55  C   UNL A   1      44.335  31.013  32.591  1.00  0.00     0.029 A 
ATOM     56  N   UNL A   1      45.020  29.047  31.875  1.00  0.00    -0.354 N 
ATOM     57  N   UNL A   1      44.665  27.640  27.734  1.00  0.00    -0.248 NA
ATOM     58  C   UNL A   1      43.960  25.886  29.107  1.00  0.00     0.031 C 
ATOM     59  C   UNL A   1      44.780  31.119  31.240  1.00  0.00     0.029 A 
ATOM     60  C   UNL A   1      44.998  29.829  30.749  1.00  0.00     0.049 A 
ATOM     61  H   UNL A   1      45.516  28.205  31.991  1.00  0.00     0.167 HD
ATOM     62  C   UNL A   1      44.921  28.003  29.050  1.00  0.00     0.074 A 
ATOM     63  C   UNL A   1      44.547  26.832  29.848  1.00  0.00     0.031 C 
ATOM     64  C   UNL A   1      45.117  29.310  29.403  1.00  0.00     0.034 A 
BRANCH  51  65
ATOM     65  C   UNL A   1      43.704  27.718  34.416  1.00  0.00     0.023 A 
ATOM     66  C   UNL A   1      44.299  28.110  35.637  1.00  0.00     0.012 A 
ATOM     67  C   UNL A   1      43.807  26.356  34.058  1.00  0.00     0.148 A 
ATOM     68  C   UNL A   1      45.002  27.203  36.436  1.00  0.00     0.002 A 
ATOM     69  C   UNL A   1      44.443  25.442  34.892  1.00  0.00     0.091 A 
ATOM     70  F   UNL A   1      43.410  25.951  32.848  1.00  0.00    -0.205 F 
ATOM     71  C   UNL A   1      45.068  25.866  36.067  1.00  0.00     0.022 A 
BRANCH  69  72
ATOM     72  S   UNL A   1      44.521  23.692  34.494  1.00  0.00     0.127 S 
ATOM     73  O   UNL A   1      45.406  23.192  35.542  1.00  0.00    -0.237 OA
ATOM     74  O   UNL A   1      43.118  23.294  34.624  1.00  0.00    -0.237 OA
ATOM     75  O   UNL A   1      45.037  23.625  33.133  1.00  0.00    -0.744 OA
ENDBRANCH  69  72
ENDBRANCH  51  65
BRANCH  52  76
ATOM     76  C   UNL A   1      42.495  25.111  26.237  1.00  0.00     0.023 A 
ATOM     77  C   UNL A   1      43.456  24.688  25.297  1.00  0.00     0.012 A 
ATOM     78  C   UNL A   1      41.533  24.175  26.678  1.00  0.00     0.148 A 
ATOM     79  C   UNL A   1      43.490  23.361  24.848  1.00  0.00     0.002 A 
ATOM     80  C   UNL A   1      41.580  22.855  26.237  1.00  0.00     0.091 A 
ATOM     81  F   UNL A   1      40.639  24.558  27.598  1.00  0.00    -0.205 F 
ATOM     82  C   UNL A   1      42.564  22.441  25.330  1.00  0.00     0.022 A 
BRANCH  80  83
ATOM     83  S   UNL A   1      40.462  21.592  26.866  1.00  0.00     0.127 S 
ATOM     84  O   UNL A   1      40.921  20.400  26.153  1.00  0.00    -0.237 OA
ATOM     85  O   UNL A   1      40.766  21.608  28.294  1.00  0.00    -0.237 OA
ATOM     86  O   UNL A   1      39.121  22.034  26.502  1.00  0.00    -0.744 OA
ENDBRANCH  80  83
ENDBRANCH  52  76
BRANCH  64  87
ATOM     87  C   UNL A   1      45.230  30.337  28.298  1.00  0.00     0.023 A 
ATOM     88  C   UNL A   1      44.101  30.922  27.682  1.00  0.00     0.012 A 
ATOM     89  C   UNL A   1      46.498  30.860  28.006  1.00  0.00     0.148 A 
ATOM     90  C   UNL A   1      44.237  31.985  26.784  1.00  0.00     0.002 A 
ATOM     91  C   UNL A   1      46.627  31.948  27.151  1.00  0.00     0.091 A 
ATOM     92  F   UNL A   1      47.565  30.301  28.597  1.00  0.00    -0.205 F 
ATOM     93  C   UNL A   1      45.501  32.508  26.529  1.00  0.00     0.022 A 
BRANCH  91  94
ATOM     94  S   UNL A   1      48.214  32.745  26.894  1.00  0.00     0.127 S 
ATOM     95  O   UNL A   1      48.496  33.296  28.217  1.00  0.00    -0.237 OA
ATOM     96  O   UNL A   1      49.072  31.625  26.502  1.00  0.00    -0.237 OA
ATOM     97  O   UNL A   1      48.000  33.724  25.836  1.00  0.00    -0.744 OA
ENDBRANCH  91  94
ENDBRANCH  64  87
ENDBRANCH  38  39
ENDBRANCH  30  33
ENDBRANCH  28  29
ENDBRANCH   1  28
TORSDOF 16
ENDMDL
