MODEL 1
REMARK VINA RESULT:     -12.7      0.000      0.000
REMARK SMILES Cc1ccc(C(=O)NCCCCNC(=O)c2ccc(-c3c4nc(c(-c5cccc(S(=O)(=O)[O-])c5F)c5ccc([nH]5)c(-c5cccc(S(=O)(=O)[O-])c5F)c5nc(c(-c6cccc(S(=O)(=O)[O-])c6F)c6ccc3[nH]6)C=C5)C=C4)cc2)cc1CNC(=O)C[N@@H+]1CCC[C@]2(CCOC2)C1
REMARK SMILES IDX 10 1 9 2 8 3 6 4 7 5 5 7 1 8 2 9 3 10 80 11 4 12 79 13 81 14
REMARK SMILES IDX 82 15 83 16 84 18 85 19 86 20 87 21 95 22 88 24 90 25 89 26
REMARK SMILES IDX 91 27 94 28 92 29 93 30 11 31 12 32 13 33 14 34 15 36 16 37
REMARK SMILES IDX 17 38 78 39 18 40 77 41 19 42 20 43 21 44 71 45 22 46 76 47
REMARK SMILES IDX 70 48 72 49 23 50 75 51 69 52 68 53 24 55 56 56 36 57 55 58
REMARK SMILES IDX 37 59 40 60 54 61 73 62 38 63 39 64 53 66 74 67 41 68 25 69
REMARK SMILES IDX 26 70 34 71 27 72 29 73 35 74 28 75 30 76 31 77 32 78 33 79
REMARK SMILES IDX 57 80 58 81 66 82 59 83 61 84 67 85 60 86 62 87 63 88 64 89
REMARK SMILES IDX 65 90 42 91 43 92 51 93 44 94 46 95 52 96 45 97 47 98 48 99
REMARK SMILES IDX 49 100 50 101
REMARK H PARENT 8 6 82 17 86 23 13 35 72 54 40 65
REMARK Flexibility Score: inf
ROOT
ATOM      1  C   UNL A   1      39.019  23.429  26.702  1.00  0.00     0.023 C 
ENDROOT
BRANCH   1   2
ATOM      2  C   UNL A   1      37.625  23.800  26.190  1.00  0.00     0.116 C 
BRANCH   2   3
ATOM      3  N   UNL A   1      37.484  23.662  24.758  1.00  0.00    -0.352 N 
ATOM      4  C   UNL A   1      36.654  22.965  23.919  1.00  0.00     0.251 C 
ATOM      5  O   UNL A   1      36.847  23.172  22.714  1.00  0.00    -0.269 OA
ATOM      6  H   UNL A   1      38.144  24.201  24.266  1.00  0.00     0.163 HD
BRANCH   4   7
ATOM      7  C   UNL A   1      35.577  21.980  24.291  1.00  0.00     0.040 A 
ATOM      8  C   UNL A   1      32.918  18.715  25.482  1.00  0.00     0.044 C 
ATOM      9  C   UNL A   1      33.770  19.880  25.055  1.00  0.00    -0.046 A 
ATOM     10  C   UNL A   1      35.156  19.689  25.065  1.00  0.00     0.004 A 
ATOM     11  C   UNL A   1      33.277  21.137  24.667  1.00  0.00    -0.025 A 
ATOM     12  C   UNL A   1      36.034  20.713  24.691  1.00  0.00     0.014 A 
ATOM     13  C   UNL A   1      34.192  22.162  24.279  1.00  0.00     0.019 A 
BRANCH  11  14
ATOM     14  C   UNL A   1      31.805  21.477  24.620  1.00  0.00     0.152 C 
BRANCH  14  15
ATOM     15  N   UNL A   1      31.339  21.957  25.906  1.00  0.00    -0.347 N 
ATOM     16  C   UNL A   1      30.932  23.221  26.226  1.00  0.00     0.275 C 
ATOM     17  H   UNL A   1      31.316  21.295  26.634  1.00  0.00     0.164 HD
ATOM     18  O   UNL A   1      30.508  23.448  27.360  1.00  0.00    -0.268 OA
BRANCH  16  19
ATOM     19  C   UNL A   1      31.008  24.309  25.156  1.00  0.00     0.363 C 
BRANCH  19  20
ATOM     20  N   UNL A   1      32.094  25.243  25.486  1.00  0.00    -0.327 N 
ATOM     21  C   UNL A   1      31.611  26.470  26.126  1.00  0.00     0.262 C 
ATOM     22  C   UNL A   1      32.991  25.536  24.366  1.00  0.00     0.272 C 
ATOM     23  H   UNL A   1      32.660  24.744  26.172  1.00  0.00     0.348 HD
ATOM     24  C   UNL A   1      30.979  27.468  25.169  1.00  0.00     0.062 C 
ATOM     25  C   UNL A   1      32.488  26.579  23.349  1.00  0.00     0.045 C 
ATOM     26  C   UNL A   1      31.981  27.834  24.081  1.00  0.00     0.021 C 
ATOM     27  C   UNL A   1      31.447  26.026  22.371  1.00  0.00     0.043 C 
ATOM     28  C   UNL A   1      33.654  26.914  22.431  1.00  0.00     0.173 C 
ATOM     29  C   UNL A   1      32.185  25.804  21.066  1.00  0.00     0.161 C 
ATOM     30  O   UNL A   1      33.570  26.017  21.323  1.00  0.00    -0.381 OA
ENDBRANCH  19  20
ENDBRANCH  16  19
ENDBRANCH  14  15
ENDBRANCH  11  14
ENDBRANCH   4   7
ENDBRANCH   2   3
ENDBRANCH   1   2
BRANCH   1  31
ATOM     31  C   UNL A   1      39.693  22.225  26.022  1.00  0.00     0.023 C 
BRANCH  31  32
ATOM     32  C   UNL A   1      40.275  21.164  26.958  1.00  0.00     0.116 C 
BRANCH  32  33
ATOM     33  N   UNL A   1      41.539  20.627  26.463  1.00  0.00    -0.352 N 
ATOM     34  C   UNL A   1      42.675  21.305  26.065  1.00  0.00     0.251 C 
ATOM     35  H   UNL A   1      41.588  19.645  26.404  1.00  0.00     0.163 HD
ATOM     36  O   UNL A   1      43.399  20.798  25.220  1.00  0.00    -0.269 OA
BRANCH  34  37
ATOM     37  C   UNL A   1      43.063  22.562  26.737  1.00  0.00     0.039 A 
ATOM     38  C   UNL A   1      42.706  22.818  28.071  1.00  0.00     0.014 A 
ATOM     39  C   UNL A   1      43.634  23.563  25.962  1.00  0.00     0.014 A 
ATOM     40  C   UNL A   1      42.889  24.094  28.605  1.00  0.00     0.010 A 
ATOM     41  C   UNL A   1      43.942  24.766  26.520  1.00  0.00     0.010 A 
ATOM     42  C   UNL A   1      43.465  25.064  27.802  1.00  0.00    -0.014 A 
BRANCH  42  43
ATOM     43  C   UNL A   1      43.564  26.478  28.114  1.00  0.00     0.031 A 
ATOM     44  C   UNL A   1      42.445  27.365  27.782  1.00  0.00     0.074 A 
ATOM     45  C   UNL A   1      44.397  26.689  29.156  1.00  0.00     0.049 A 
ATOM     46  N   UNL A   1      42.298  28.543  28.272  1.00  0.00    -0.248 NA
ATOM     47  C   UNL A   1      41.388  26.984  26.846  1.00  0.00     0.031 C 
ATOM     48  C   UNL A   1      44.176  27.477  30.363  1.00  0.00     0.029 A 
ATOM     49  N   UNL A   1      45.647  26.102  29.364  1.00  0.00    -0.354 N 
ATOM     50  C   UNL A   1      41.008  28.927  27.987  1.00  0.00     0.074 A 
ATOM     51  C   UNL A   1      40.556  28.023  26.963  1.00  0.00     0.031 C 
ATOM     52  C   UNL A   1      45.324  27.512  31.067  1.00  0.00     0.029 A 
ATOM     53  C   UNL A   1      46.360  26.968  30.194  1.00  0.00     0.049 A 
ATOM     54  H   UNL A   1      45.963  25.246  28.997  1.00  0.00     0.167 HD
ATOM     55  C   UNL A   1      40.421  29.853  28.791  1.00  0.00     0.034 A 
ATOM     56  C   UNL A   1      47.366  27.721  29.643  1.00  0.00     0.034 A 
ATOM     57  C   UNL A   1      41.417  30.450  29.693  1.00  0.00     0.049 A 
ATOM     58  C   UNL A   1      47.069  29.195  29.702  1.00  0.00     0.074 A 
ATOM     59  C   UNL A   1      41.713  30.246  31.029  1.00  0.00     0.029 A 
ATOM     60  N   UNL A   1      42.499  31.145  29.151  1.00  0.00    -0.354 N 
ATOM     61  N   UNL A   1      45.867  29.695  29.775  1.00  0.00    -0.248 NA
ATOM     62  C   UNL A   1      48.107  30.217  29.746  1.00  0.00     0.031 C 
ATOM     63  C   UNL A   1      43.048  30.696  31.245  1.00  0.00     0.029 A 
ATOM     64  C   UNL A   1      43.541  31.228  30.061  1.00  0.00     0.049 A 
ATOM     65  H   UNL A   1      42.519  31.527  28.243  1.00  0.00     0.167 HD
ATOM     66  C   UNL A   1      45.933  31.052  29.787  1.00  0.00     0.074 A 
ATOM     67  C   UNL A   1      47.362  31.332  29.822  1.00  0.00     0.031 C 
ATOM     68  C   UNL A   1      44.818  31.836  29.688  1.00  0.00     0.034 A 
BRANCH  55  69
ATOM     69  C   UNL A   1      38.928  30.103  28.919  1.00  0.00     0.023 A 
ATOM     70  C   UNL A   1      38.070  29.081  28.453  1.00  0.00     0.012 A 
ATOM     71  C   UNL A   1      38.289  31.289  29.369  1.00  0.00     0.148 A 
ATOM     72  C   UNL A   1      36.676  29.218  28.440  1.00  0.00     0.002 A 
ATOM     73  C   UNL A   1      36.895  31.394  29.429  1.00  0.00     0.091 A 
ATOM     74  F   UNL A   1      39.010  32.378  29.646  1.00  0.00    -0.205 F 
ATOM     75  C   UNL A   1      36.085  30.364  28.950  1.00  0.00     0.022 A 
BRANCH  73  76
ATOM     76  S   UNL A   1      36.059  32.826  30.142  1.00  0.00     0.127 S 
ATOM     77  O   UNL A   1      34.656  32.418  30.099  1.00  0.00    -0.237 OA
ATOM     78  O   UNL A   1      36.633  32.887  31.487  1.00  0.00    -0.237 OA
ATOM     79  O   UNL A   1      36.403  33.961  29.294  1.00  0.00    -0.744 OA
ENDBRANCH  73  76
ENDBRANCH  55  69
BRANCH  56  80
ATOM     80  C   UNL A   1      48.097  27.036  28.519  1.00  0.00     0.023 A 
ATOM     81  C   UNL A   1      48.670  25.780  28.806  1.00  0.00     0.012 A 
ATOM     82  C   UNL A   1      47.822  27.355  27.171  1.00  0.00     0.148 A 
ATOM     83  C   UNL A   1      48.748  24.785  27.823  1.00  0.00     0.002 A 
ATOM     84  C   UNL A   1      47.928  26.365  26.192  1.00  0.00     0.091 A 
ATOM     85  F   UNL A   1      47.378  28.585  26.887  1.00  0.00    -0.205 F 
ATOM     86  C   UNL A   1      48.327  25.063  26.531  1.00  0.00     0.022 A 
BRANCH  84  87
ATOM     87  S   UNL A   1      47.505  26.637  24.466  1.00  0.00     0.127 S 
ATOM     88  O   UNL A   1      46.076  26.923  24.564  1.00  0.00    -0.237 OA
ATOM     89  O   UNL A   1      48.332  27.792  24.115  1.00  0.00    -0.237 OA
ATOM     90  O   UNL A   1      47.859  25.409  23.769  1.00  0.00    -0.744 OA
ENDBRANCH  84  87
ENDBRANCH  56  80
BRANCH  68  91
ATOM     91  C   UNL A   1      44.885  33.260  29.194  1.00  0.00     0.023 A 
ATOM     92  C   UNL A   1      44.655  34.347  30.067  1.00  0.00     0.012 A 
ATOM     93  C   UNL A   1      45.352  33.570  27.897  1.00  0.00     0.148 A 
ATOM     94  C   UNL A   1      44.774  35.672  29.653  1.00  0.00     0.002 A 
ATOM     95  C   UNL A   1      45.587  34.891  27.527  1.00  0.00     0.091 A 
ATOM     96  F   UNL A   1      45.565  32.586  27.012  1.00  0.00    -0.205 F 
ATOM     97  C   UNL A   1      45.259  35.945  28.386  1.00  0.00     0.022 A 
BRANCH  95  98
ATOM     98  S   UNL A   1      46.463  35.295  26.013  1.00  0.00     0.127 S 
ATOM     99  O   UNL A   1      46.514  36.754  26.076  1.00  0.00    -0.237 OA
ATOM    100  O   UNL A   1      47.753  34.630  26.213  1.00  0.00    -0.237 OA
ATOM    101  O   UNL A   1      45.660  34.726  24.938  1.00  0.00    -0.744 OA
ENDBRANCH  95  98
ENDBRANCH  68  91
ENDBRANCH  42  43
ENDBRANCH  34  37
ENDBRANCH  32  33
ENDBRANCH  31  32
ENDBRANCH   1  31
TORSDOF 18
ENDMDL
MODEL 2
REMARK VINA RESULT:     -12.1      1.862      2.274
REMARK SMILES Cc1ccc(C(=O)NCCCCNC(=O)c2ccc(-c3c4nc(c(-c5cccc(S(=O)(=O)[O-])c5F)c5ccc([nH]5)c(-c5cccc(S(=O)(=O)[O-])c5F)c5nc(c(-c6cccc(S(=O)(=O)[O-])c6F)c6ccc3[nH]6)C=C5)C=C4)cc2)cc1CNC(=O)C[N@@H+]1CCC[C@]2(CCOC2)C1
REMARK SMILES IDX 10 1 9 2 8 3 6 4 7 5 5 7 1 8 2 9 3 10 80 11 4 12 79 13 81 14
REMARK SMILES IDX 82 15 83 16 84 18 85 19 86 20 87 21 95 22 88 24 90 25 89 26
REMARK SMILES IDX 91 27 94 28 92 29 93 30 11 31 12 32 13 33 14 34 15 36 16 37
REMARK SMILES IDX 17 38 78 39 18 40 77 41 19 42 20 43 21 44 71 45 22 46 76 47
REMARK SMILES IDX 70 48 72 49 23 50 75 51 69 52 68 53 24 55 56 56 36 57 55 58
REMARK SMILES IDX 37 59 40 60 54 61 73 62 38 63 39 64 53 66 74 67 41 68 25 69
REMARK SMILES IDX 26 70 34 71 27 72 29 73 35 74 28 75 30 76 31 77 32 78 33 79
REMARK SMILES IDX 57 80 58 81 66 82 59 83 61 84 67 85 60 86 62 87 63 88 64 89
REMARK SMILES IDX 65 90 42 91 43 92 51 93 44 94 46 95 52 96 45 97 47 98 48 99
REMARK SMILES IDX 49 100 50 101
REMARK H PARENT 8 6 82 17 86 23 13 35 72 54 40 65
REMARK Flexibility Score: inf
ROOT
ATOM      1  C   UNL A   1      39.372  22.862  26.494  1.00  0.00     0.023 C 
ENDROOT
BRANCH   1   2
ATOM      2  C   UNL A   1      37.924  23.253  26.186  1.00  0.00     0.116 C 
BRANCH   2   3
ATOM      3  N   UNL A   1      37.642  23.340  24.771  1.00  0.00    -0.352 N 
ATOM      4  C   UNL A   1      36.686  22.831  23.931  1.00  0.00     0.251 C 
ATOM      5  O   UNL A   1      36.783  23.203  22.754  1.00  0.00    -0.269 OA
ATOM      6  H   UNL A   1      38.295  23.902  24.295  1.00  0.00     0.163 HD
BRANCH   4   7
ATOM      7  C   UNL A   1      35.573  21.874  24.267  1.00  0.00     0.040 A 
ATOM      8  C   UNL A   1      32.795  18.668  25.341  1.00  0.00     0.044 C 
ATOM      9  C   UNL A   1      33.689  19.816  24.955  1.00  0.00    -0.046 A 
ATOM     10  C   UNL A   1      35.067  19.573  24.958  1.00  0.00     0.004 A 
ATOM     11  C   UNL A   1      33.243  21.103  24.612  1.00  0.00    -0.025 A 
ATOM     12  C   UNL A   1      35.983  20.577  24.622  1.00  0.00     0.014 A 
ATOM     13  C   UNL A   1      34.196  22.106  24.261  1.00  0.00     0.019 A 
BRANCH  11  14
ATOM     14  C   UNL A   1      31.785  21.497  24.577  1.00  0.00     0.152 C 
BRANCH  14  15
ATOM     15  N   UNL A   1      31.337  21.954  25.878  1.00  0.00    -0.347 N 
ATOM     16  C   UNL A   1      30.918  23.208  26.222  1.00  0.00     0.275 C 
ATOM     17  H   UNL A   1      31.337  21.282  26.597  1.00  0.00     0.164 HD
ATOM     18  O   UNL A   1      30.512  23.414  27.367  1.00  0.00    -0.268 OA
BRANCH  16  19
ATOM     19  C   UNL A   1      30.959  24.311  25.165  1.00  0.00     0.363 C 
BRANCH  19  20
ATOM     20  N   UNL A   1      32.060  25.237  25.468  1.00  0.00    -0.327 N 
ATOM     21  C   UNL A   1      31.598  26.483  26.087  1.00  0.00     0.262 C 
ATOM     22  C   UNL A   1      32.952  25.495  24.337  1.00  0.00     0.272 C 
ATOM     23  H   UNL A   1      32.624  24.745  26.161  1.00  0.00     0.348 HD
ATOM     24  C   UNL A   1      30.971  27.470  25.115  1.00  0.00     0.062 C 
ATOM     25  C   UNL A   1      32.454  26.524  23.302  1.00  0.00     0.045 C 
ATOM     26  C   UNL A   1      31.970  27.801  24.013  1.00  0.00     0.021 C 
ATOM     27  C   UNL A   1      31.399  25.965  22.343  1.00  0.00     0.043 C 
ATOM     28  C   UNL A   1      33.618  26.825  22.370  1.00  0.00     0.173 C 
ATOM     29  C   UNL A   1      32.124  25.708  21.038  1.00  0.00     0.161 C 
ATOM     30  O   UNL A   1      33.514  25.908  21.280  1.00  0.00    -0.381 OA
ENDBRANCH  19  20
ENDBRANCH  16  19
ENDBRANCH  14  15
ENDBRANCH  11  14
ENDBRANCH   4   7
ENDBRANCH   2   3
ENDBRANCH   1   2
BRANCH   1  31
ATOM     31  C   UNL A   1      39.807  21.458  26.039  1.00  0.00     0.023 C 
BRANCH  31  32
ATOM     32  C   UNL A   1      40.715  20.692  27.002  1.00  0.00     0.116 C 
BRANCH  32  33
ATOM     33  N   UNL A   1      42.097  20.642  26.535  1.00  0.00    -0.352 N 
ATOM     34  C   UNL A   1      42.847  21.635  25.935  1.00  0.00     0.251 C 
ATOM     35  H   UNL A   1      42.558  19.781  26.665  1.00  0.00     0.163 HD
ATOM     36  O   UNL A   1      43.734  21.315  25.157  1.00  0.00    -0.269 OA
BRANCH  34  37
ATOM     37  C   UNL A   1      42.654  23.047  26.321  1.00  0.00     0.039 A 
ATOM     38  C   UNL A   1      42.921  24.095  25.424  1.00  0.00     0.014 A 
ATOM     39  C   UNL A   1      42.375  23.323  27.653  1.00  0.00     0.014 A 
ATOM     40  C   UNL A   1      42.945  25.412  25.882  1.00  0.00     0.010 A 
ATOM     41  C   UNL A   1      42.260  24.613  28.074  1.00  0.00     0.010 A 
ATOM     42  C   UNL A   1      42.658  25.646  27.217  1.00  0.00    -0.014 A 
BRANCH  42  43
ATOM     43  C   UNL A   1      42.813  26.911  27.911  1.00  0.00     0.031 A 
ATOM     44  C   UNL A   1      41.787  27.946  27.752  1.00  0.00     0.074 A 
ATOM     45  C   UNL A   1      43.554  26.765  29.031  1.00  0.00     0.049 A 
ATOM     46  N   UNL A   1      41.666  28.958  28.533  1.00  0.00    -0.248 NA
ATOM     47  C   UNL A   1      40.802  27.920  26.671  1.00  0.00     0.031 C 
ATOM     48  C   UNL A   1      43.268  27.218  30.387  1.00  0.00     0.029 A 
ATOM     49  N   UNL A   1      44.741  26.040  29.163  1.00  0.00    -0.354 N 
ATOM     50  C   UNL A   1      40.435  29.512  28.269  1.00  0.00     0.074 A 
ATOM     51  C   UNL A   1      40.027  28.956  27.006  1.00  0.00     0.031 C 
ATOM     52  C   UNL A   1      44.344  26.966  31.158  1.00  0.00     0.029 A 
ATOM     53  C   UNL A   1      45.423  26.590  30.249  1.00  0.00     0.049 A 
ATOM     54  H   UNL A   1      45.038  25.290  28.600  1.00  0.00     0.167 HD
ATOM     55  C   UNL A   1      39.831  30.236  29.249  1.00  0.00     0.034 A 
ATOM     56  C   UNL A   1      46.521  27.375  30.002  1.00  0.00     0.034 A 
ATOM     57  C   UNL A   1      40.772  30.483  30.352  1.00  0.00     0.049 A 
ATOM     58  C   UNL A   1      46.310  28.799  30.440  1.00  0.00     0.074 A 
ATOM     59  C   UNL A   1      40.926  29.905  31.599  1.00  0.00     0.029 A 
ATOM     60  N   UNL A   1      41.941  31.204  30.103  1.00  0.00    -0.354 N 
ATOM     61  N   UNL A   1      45.139  29.361  30.557  1.00  0.00    -0.248 NA
ATOM     62  C   UNL A   1      47.399  29.680  30.839  1.00  0.00     0.031 C 
ATOM     63  C   UNL A   1      42.260  30.166  32.029  1.00  0.00     0.029 A 
ATOM     64  C   UNL A   1      42.895  30.952  31.077  1.00  0.00     0.049 A 
ATOM     65  H   UNL A   1      42.070  31.811  29.339  1.00  0.00     0.167 HD
ATOM     66  C   UNL A   1      45.286  30.655  30.945  1.00  0.00     0.074 A 
ATOM     67  C   UNL A   1      46.720  30.793  31.162  1.00  0.00     0.031 C 
ATOM     68  C   UNL A   1      44.236  31.527  30.981  1.00  0.00     0.034 A 
BRANCH  55  69
ATOM     69  C   UNL A   1      38.350  30.567  29.329  1.00  0.00     0.023 A 
ATOM     70  C   UNL A   1      37.452  29.577  28.871  1.00  0.00     0.012 A 
ATOM     71  C   UNL A   1      37.764  31.799  29.723  1.00  0.00     0.148 A 
ATOM     72  C   UNL A   1      36.068  29.785  28.816  1.00  0.00     0.002 A 
ATOM     73  C   UNL A   1      36.377  31.978  29.742  1.00  0.00     0.091 A 
ATOM     74  F   UNL A   1      38.534  32.857  29.985  1.00  0.00    -0.205 F 
ATOM     75  C   UNL A   1      35.526  30.977  29.273  1.00  0.00     0.022 A 
BRANCH  73  76
ATOM     76  S   UNL A   1      35.600  33.475  30.386  1.00  0.00     0.127 S 
ATOM     77  O   UNL A   1      36.574  33.926  31.378  1.00  0.00    -0.237 OA
ATOM     78  O   UNL A   1      35.511  34.320  29.194  1.00  0.00    -0.237 OA
ATOM     79  O   UNL A   1      34.309  33.064  30.924  1.00  0.00    -0.744 OA
ENDBRANCH  73  76
ENDBRANCH  55  69
BRANCH  56  80
ATOM     80  C   UNL A   1      47.312  26.955  28.792  1.00  0.00     0.023 A 
ATOM     81  C   UNL A   1      47.945  25.697  28.850  1.00  0.00     0.012 A 
ATOM     82  C   UNL A   1      47.051  27.516  27.522  1.00  0.00     0.148 A 
ATOM     83  C   UNL A   1      48.098  24.916  27.697  1.00  0.00     0.002 A 
ATOM     84  C   UNL A   1      47.231  26.741  26.375  1.00  0.00     0.091 A 
ATOM     85  F   UNL A   1      46.549  28.756  27.465  1.00  0.00    -0.205 F 
ATOM     86  C   UNL A   1      47.691  25.419  26.470  1.00  0.00     0.022 A 
BRANCH  84  87
ATOM     87  S   UNL A   1      46.833  27.321  24.721  1.00  0.00     0.127 S 
ATOM     88  O   UNL A   1      47.131  26.134  23.922  1.00  0.00    -0.237 OA
ATOM     89  O   UNL A   1      45.409  27.638  24.829  1.00  0.00    -0.237 OA
ATOM     90  O   UNL A   1      47.689  28.474  24.484  1.00  0.00    -0.744 OA
ENDBRANCH  84  87
ENDBRANCH  56  80
BRANCH  68  91
ATOM     91  C   UNL A   1      44.436  33.021  30.902  1.00  0.00     0.023 A 
ATOM     92  C   UNL A   1      44.676  33.660  29.665  1.00  0.00     0.012 A 
ATOM     93  C   UNL A   1      44.215  33.856  32.019  1.00  0.00     0.148 A 
ATOM     94  C   UNL A   1      44.800  35.044  29.554  1.00  0.00     0.002 A 
ATOM     95  C   UNL A   1      44.218  35.240  31.880  1.00  0.00     0.091 A 
ATOM     96  F   UNL A   1      44.007  33.312  33.227  1.00  0.00    -0.205 F 
ATOM     97  C   UNL A   1      44.553  35.837  30.660  1.00  0.00     0.022 A 
BRANCH  95  98
ATOM     98  S   UNL A   1      43.642  36.314  33.199  1.00  0.00     0.127 S 
ATOM     99  O   UNL A   1      42.323  35.754  33.486  1.00  0.00    -0.237 OA
ATOM    100  O   UNL A   1      44.642  36.087  34.244  1.00  0.00    -0.237 OA
ATOM    101  O   UNL A   1      43.660  37.659  32.639  1.00  0.00    -0.744 OA
ENDBRANCH  95  98
ENDBRANCH  68  91
ENDBRANCH  42  43
ENDBRANCH  34  37
ENDBRANCH  32  33
ENDBRANCH  31  32
ENDBRANCH   1  31
TORSDOF 18
ENDMDL
MODEL 3
REMARK VINA RESULT:     -12.0      1.867      2.745
REMARK SMILES Cc1ccc(C(=O)NCCCCNC(=O)c2ccc(-c3c4nc(c(-c5cccc(S(=O)(=O)[O-])c5F)c5ccc([nH]5)c(-c5cccc(S(=O)(=O)[O-])c5F)c5nc(c(-c6cccc(S(=O)(=O)[O-])c6F)c6ccc3[nH]6)C=C5)C=C4)cc2)cc1CNC(=O)C[N@@H+]1CCC[C@]2(CCOC2)C1
REMARK SMILES IDX 10 1 9 2 8 3 6 4 7 5 5 7 1 8 2 9 3 10 80 11 4 12 79 13 81 14
REMARK SMILES IDX 82 15 83 16 84 18 85 19 86 20 87 21 95 22 88 24 90 25 89 26
REMARK SMILES IDX 91 27 94 28 92 29 93 30 11 31 12 32 13 33 14 34 15 36 16 37
REMARK SMILES IDX 17 38 78 39 18 40 77 41 19 42 20 43 21 44 71 45 22 46 76 47
REMARK SMILES IDX 70 48 72 49 23 50 75 51 69 52 68 53 24 55 56 56 36 57 55 58
REMARK SMILES IDX 37 59 40 60 54 61 73 62 38 63 39 64 53 66 74 67 41 68 25 69
REMARK SMILES IDX 26 70 34 71 27 72 29 73 35 74 28 75 30 76 31 77 32 78 33 79
REMARK SMILES IDX 57 80 58 81 66 82 59 83 61 84 67 85 60 86 62 87 63 88 64 89
REMARK SMILES IDX 65 90 42 91 43 92 51 93 44 94 46 95 52 96 45 97 47 98 48 99
REMARK SMILES IDX 49 100 50 101
REMARK H PARENT 8 6 82 17 86 23 13 35 72 54 40 65
REMARK Flexibility Score: inf
ROOT
ATOM      1  C   UNL A   1      38.452  23.676  26.540  1.00  0.00     0.023 C 
ENDROOT
BRANCH   1   2
ATOM      2  C   UNL A   1      37.118  23.775  25.796  1.00  0.00     0.116 C 
BRANCH   2   3
ATOM      3  N   UNL A   1      37.180  23.282  24.438  1.00  0.00    -0.352 N 
ATOM      4  C   UNL A   1      36.297  23.172  23.396  1.00  0.00     0.251 C 
ATOM      5  O   UNL A   1      36.786  22.722  22.351  1.00  0.00    -0.269 OA
ATOM      6  H   UNL A   1      38.074  22.943  24.206  1.00  0.00     0.163 HD
BRANCH   4   7
ATOM      7  C   UNL A   1      34.829  23.507  23.387  1.00  0.00     0.040 A 
ATOM      8  C   UNL A   1      30.483  23.931  23.659  1.00  0.00     0.044 C 
ATOM      9  C   UNL A   1      31.979  23.851  23.523  1.00  0.00    -0.046 A 
ATOM     10  C   UNL A   1      32.603  22.717  24.057  1.00  0.00     0.004 A 
ATOM     11  C   UNL A   1      32.786  24.830  22.921  1.00  0.00    -0.025 A 
ATOM     12  C   UNL A   1      33.991  22.552  23.988  1.00  0.00     0.014 A 
ATOM     13  C   UNL A   1      34.198  24.632  22.852  1.00  0.00     0.019 A 
BRANCH  11  14
ATOM     14  C   UNL A   1      32.239  26.102  22.314  1.00  0.00     0.152 C 
BRANCH  14  15
ATOM     15  N   UNL A   1      33.035  27.249  22.705  1.00  0.00    -0.347 N 
ATOM     16  C   UNL A   1      32.630  28.551  22.802  1.00  0.00     0.275 C 
ATOM     17  H   UNL A   1      33.977  27.069  22.924  1.00  0.00     0.164 HD
ATOM     18  O   UNL A   1      33.424  29.400  23.208  1.00  0.00    -0.268 OA
BRANCH  16  19
ATOM     19  C   UNL A   1      31.195  28.903  22.410  1.00  0.00     0.363 C 
BRANCH  19  20
ATOM     20  N   UNL A   1      30.385  29.072  23.624  1.00  0.00    -0.327 N 
ATOM     21  C   UNL A   1      29.513  27.924  23.887  1.00  0.00     0.262 C 
ATOM     22  C   UNL A   1      29.645  30.334  23.678  1.00  0.00     0.272 C 
ATOM     23  H   UNL A   1      31.066  29.117  24.382  1.00  0.00     0.348 HD
ATOM     24  C   UNL A   1      28.273  27.865  23.010  1.00  0.00     0.062 C 
ATOM     25  C   UNL A   1      28.333  30.386  22.870  1.00  0.00     0.045 C 
ATOM     26  C   UNL A   1      27.470  29.149  23.178  1.00  0.00     0.021 C 
ATOM     27  C   UNL A   1      28.548  30.575  21.366  1.00  0.00     0.043 C 
ATOM     28  C   UNL A   1      27.612  31.667  23.262  1.00  0.00     0.173 C 
ATOM     29  C   UNL A   1      28.227  32.030  21.084  1.00  0.00     0.161 C 
ATOM     30  O   UNL A   1      28.039  32.672  22.342  1.00  0.00    -0.381 OA
ENDBRANCH  19  20
ENDBRANCH  16  19
ENDBRANCH  14  15
ENDBRANCH  11  14
ENDBRANCH   4   7
ENDBRANCH   2   3
ENDBRANCH   1   2
BRANCH   1  31
ATOM     31  C   UNL A   1      39.482  22.693  25.957  1.00  0.00     0.023 C 
BRANCH  31  32
ATOM     32  C   UNL A   1      39.936  21.567  26.886  1.00  0.00     0.116 C 
BRANCH  32  33
ATOM     33  N   UNL A   1      41.181  20.950  26.438  1.00  0.00    -0.352 N 
ATOM     34  C   UNL A   1      42.374  21.554  26.090  1.00  0.00     0.251 C 
ATOM     35  H   UNL A   1      41.168  19.967  26.374  1.00  0.00     0.163 HD
ATOM     36  O   UNL A   1      43.096  21.005  25.270  1.00  0.00    -0.269 OA
BRANCH  34  37
ATOM     37  C   UNL A   1      42.815  22.780  26.785  1.00  0.00     0.039 A 
ATOM     38  C   UNL A   1      42.531  22.993  28.145  1.00  0.00     0.014 A 
ATOM     39  C   UNL A   1      43.363  23.800  26.018  1.00  0.00     0.014 A 
ATOM     40  C   UNL A   1      42.762  24.245  28.713  1.00  0.00     0.010 A 
ATOM     41  C   UNL A   1      43.718  24.978  26.602  1.00  0.00     0.010 A 
ATOM     42  C   UNL A   1      43.312  25.236  27.916  1.00  0.00    -0.014 A 
BRANCH  42  43
ATOM     43  C   UNL A   1      43.450  26.636  28.273  1.00  0.00     0.031 A 
ATOM     44  C   UNL A   1      42.344  27.558  27.995  1.00  0.00     0.074 A 
ATOM     45  C   UNL A   1      44.308  26.793  29.303  1.00  0.00     0.049 A 
ATOM     46  N   UNL A   1      42.234  28.722  28.527  1.00  0.00    -0.248 NA
ATOM     47  C   UNL A   1      41.260  27.233  27.069  1.00  0.00     0.031 C 
ATOM     48  C   UNL A   1      44.130  27.545  30.540  1.00  0.00     0.029 A 
ATOM     49  N   UNL A   1      45.549  26.172  29.465  1.00  0.00    -0.354 N 
ATOM     50  C   UNL A   1      40.948  29.144  28.283  1.00  0.00     0.074 A 
ATOM     51  C   UNL A   1      40.454  28.284  27.239  1.00  0.00     0.031 C 
ATOM     52  C   UNL A   1      45.293  27.531  31.220  1.00  0.00     0.029 A 
ATOM     53  C   UNL A   1      46.298  26.994  30.308  1.00  0.00     0.049 A 
ATOM     54  H   UNL A   1      45.838  25.322  29.063  1.00  0.00     0.167 HD
ATOM     55  C   UNL A   1      40.399  30.055  29.129  1.00  0.00     0.034 A 
ATOM     56  C   UNL A   1      47.310  27.742  29.761  1.00  0.00     0.034 A 
ATOM     57  C   UNL A   1      41.427  30.599  30.029  1.00  0.00     0.049 A 
ATOM     58  C   UNL A   1      47.047  29.220  29.875  1.00  0.00     0.074 A 
ATOM     59  C   UNL A   1      41.745  30.343  31.350  1.00  0.00     0.029 A 
ATOM     60  N   UNL A   1      42.513  31.288  29.487  1.00  0.00    -0.354 N 
ATOM     61  N   UNL A   1      45.859  29.743  29.991  1.00  0.00    -0.248 NA
ATOM     62  C   UNL A   1      48.109  30.216  29.931  1.00  0.00     0.031 C 
ATOM     63  C   UNL A   1      43.095  30.756  31.553  1.00  0.00     0.029 A 
ATOM     64  C   UNL A   1      43.575  31.316  30.377  1.00  0.00     0.049 A 
ATOM     65  H   UNL A   1      42.523  31.699  28.592  1.00  0.00     0.167 HD
ATOM     66  C   UNL A   1      45.956  31.098  30.046  1.00  0.00     0.074 A 
ATOM     67  C   UNL A   1      47.391  31.344  30.059  1.00  0.00     0.031 C 
ATOM     68  C   UNL A   1      44.857  31.908  29.997  1.00  0.00     0.034 A 
BRANCH  55  69
ATOM     69  C   UNL A   1      38.914  30.333  29.298  1.00  0.00     0.023 A 
ATOM     70  C   UNL A   1      38.037  29.246  29.088  1.00  0.00     0.012 A 
ATOM     71  C   UNL A   1      38.297  31.587  29.550  1.00  0.00     0.148 A 
ATOM     72  C   UNL A   1      36.643  29.385  29.134  1.00  0.00     0.002 A 
ATOM     73  C   UNL A   1      36.909  31.709  29.673  1.00  0.00     0.091 A 
ATOM     74  F   UNL A   1      39.026  32.705  29.569  1.00  0.00    -0.205 F 
ATOM     75  C   UNL A   1      36.077  30.611  29.450  1.00  0.00     0.022 A 
BRANCH  73  76
ATOM     76  S   UNL A   1      36.109  33.256  30.148  1.00  0.00     0.127 S 
ATOM     77  O   UNL A   1      36.850  33.631  31.351  1.00  0.00    -0.237 OA
ATOM     78  O   UNL A   1      36.362  34.110  28.987  1.00  0.00    -0.237 OA
ATOM     79  O   UNL A   1      34.702  32.938  30.360  1.00  0.00    -0.744 OA
ENDBRANCH  73  76
ENDBRANCH  55  69
BRANCH  56  80
ATOM     80  C   UNL A   1      48.001  27.079  28.599  1.00  0.00     0.023 A 
ATOM     81  C   UNL A   1      48.592  25.823  28.844  1.00  0.00     0.012 A 
ATOM     82  C   UNL A   1      47.673  27.417  27.268  1.00  0.00     0.148 A 
ATOM     83  C   UNL A   1      48.639  24.844  27.844  1.00  0.00     0.002 A 
ATOM     84  C   UNL A   1      47.748  26.444  26.270  1.00  0.00     0.091 A 
ATOM     85  F   UNL A   1      47.212  28.649  27.020  1.00  0.00    -0.205 F 
ATOM     86  C   UNL A   1      48.167  25.139  26.573  1.00  0.00     0.022 A 
BRANCH  84  87
ATOM     87  S   UNL A   1      47.258  26.740  24.566  1.00  0.00     0.127 S 
ATOM     88  O   UNL A   1      48.101  27.883  24.221  1.00  0.00    -0.237 OA
ATOM     89  O   UNL A   1      47.634  25.489  23.906  1.00  0.00    -0.237 OA
ATOM     90  O   UNL A   1      45.826  26.996  24.599  1.00  0.00    -0.744 OA
ENDBRANCH  84  87
ENDBRANCH  56  80
BRANCH  68  91
ATOM     91  C   UNL A   1      44.946  33.346  29.549  1.00  0.00     0.023 A 
ATOM     92  C   UNL A   1      44.942  34.404  30.486  1.00  0.00     0.012 A 
ATOM     93  C   UNL A   1      45.217  33.686  28.205  1.00  0.00     0.148 A 
ATOM     94  C   UNL A   1      45.088  35.737  30.105  1.00  0.00     0.002 A 
ATOM     95  C   UNL A   1      45.485  35.004  27.848  1.00  0.00     0.091 A 
ATOM     96  F   UNL A   1      45.212  32.732  27.263  1.00  0.00    -0.205 F 
ATOM     97  C   UNL A   1      45.378  36.036  28.786  1.00  0.00     0.022 A 
BRANCH  95  98
ATOM     98  S   UNL A   1      46.130  35.419  26.225  1.00  0.00     0.127 S 
ATOM     99  O   UNL A   1      46.242  36.874  26.310  1.00  0.00    -0.237 OA
ATOM    100  O   UNL A   1      47.410  34.708  26.207  1.00  0.00    -0.237 OA
ATOM    101  O   UNL A   1      45.150  34.906  25.276  1.00  0.00    -0.744 OA
ENDBRANCH  95  98
ENDBRANCH  68  91
ENDBRANCH  42  43
ENDBRANCH  34  37
ENDBRANCH  32  33
ENDBRANCH  31  32
ENDBRANCH   1  31
TORSDOF 18
ENDMDL
