MODEL 1
REMARK VINA RESULT:     -12.0      0.000      0.000
REMARK SMILES O=C(NCCCCNC(=O)[C@]1(NC(=O)c2nc(C3CC3)n[nH]2)CCSC1)c1ccc(-c2c3nc(c(-c4cccc(S(=O)(=O)[O-])c4F)c4ccc([nH]4)c(-c4cccc(S(=O)(=O)[O-])c4F)c4nc(c(-c5cccc(S(=O)(=O)[O-])c5F)c5ccc2[nH]5)C=C4)C=C3)cc1
REMARK SMILES IDX 5 1 4 2 3 3 1 4 2 5 27 7 28 8 89 9 29 10 88 11 30 12 31 13
REMARK SMILES IDX 32 14 82 15 33 16 87 17 81 18 83 19 34 20 86 21 80 22 79 23
REMARK SMILES IDX 35 25 67 26 47 27 66 28 48 29 51 30 65 31 84 32 49 33 50 34
REMARK SMILES IDX 64 36 85 37 52 38 36 39 37 40 45 41 38 42 40 43 46 44 39 45
REMARK SMILES IDX 41 46 42 47 43 48 44 49 68 50 69 51 77 52 70 53 72 54 78 55
REMARK SMILES IDX 71 56 73 57 74 58 75 59 76 60 53 61 54 62 62 63 55 64 57 65
REMARK SMILES IDX 63 66 56 67 58 68 59 69 60 70 61 71 6 72 7 73 8 74 9 75
REMARK SMILES IDX 10 77 11 78 23 79 26 80 24 81 25 82 12 83 13 84 14 86 15 87
REMARK SMILES IDX 16 88 22 89 17 90 21 91 18 93 19 94 20 95
REMARK H PARENT 3 6 83 24 51 35 8 76 12 85 22 92
REMARK Flexibility Score: inf
ROOT
ATOM      1  C   UNL A   1      31.601  32.037  26.880  1.00  0.00     0.023 C 
ENDROOT
BRANCH   1   2
ATOM      2  C   UNL A   1      32.851  32.801  27.283  1.00  0.00     0.116 C 
BRANCH   2   3
ATOM      3  N   UNL A   1      32.543  34.162  27.689  1.00  0.00    -0.352 N 
ATOM      4  O   UNL A   1      32.627  35.933  29.081  1.00  0.00    -0.269 OA
ATOM      5  C   UNL A   1      33.109  34.875  28.720  1.00  0.00     0.251 C 
ATOM      6  H   UNL A   1      31.852  34.628  27.164  1.00  0.00     0.163 HD
BRANCH   5   7
ATOM      7  C   UNL A   1      34.299  34.301  29.378  1.00  0.00     0.039 A 
ATOM      8  C   UNL A   1      34.140  33.504  30.516  1.00  0.00     0.014 A 
ATOM      9  C   UNL A   1      35.569  34.597  28.880  1.00  0.00     0.014 A 
ATOM     10  C   UNL A   1      35.259  33.082  31.218  1.00  0.00     0.010 A 
ATOM     11  C   UNL A   1      36.692  34.098  29.541  1.00  0.00     0.010 A 
ATOM     12  C   UNL A   1      36.543  33.341  30.715  1.00  0.00    -0.014 A 
BRANCH  12  13
ATOM     13  C   UNL A   1      37.705  32.671  31.342  1.00  0.00     0.031 A 
ATOM     14  C   UNL A   1      38.398  31.514  30.688  1.00  0.00     0.074 A 
ATOM     15  C   UNL A   1      38.100  33.121  32.549  1.00  0.00     0.049 A 
ATOM     16  N   UNL A   1      39.415  30.820  31.128  1.00  0.00    -0.248 NA
ATOM     17  C   UNL A   1      37.887  31.066  29.382  1.00  0.00     0.031 C 
ATOM     18  C   UNL A   1      37.451  34.207  33.294  1.00  0.00     0.029 A 
ATOM     19  N   UNL A   1      39.118  32.721  33.373  1.00  0.00    -0.354 N 
ATOM     20  C   UNL A   1      39.641  29.828  30.183  1.00  0.00     0.074 A 
ATOM     21  C   UNL A   1      38.659  30.014  29.134  1.00  0.00     0.031 C 
ATOM     22  C   UNL A   1      38.092  34.392  34.455  1.00  0.00     0.029 A 
ATOM     23  C   UNL A   1      39.152  33.400  34.568  1.00  0.00     0.049 A 
ATOM     24  H   UNL A   1      39.763  32.016  33.133  1.00  0.00     0.167 HD
ATOM     25  C   UNL A   1      40.586  28.859  30.194  1.00  0.00     0.034 A 
ATOM     26  C   UNL A   1      39.925  33.221  35.654  1.00  0.00     0.034 A 
ATOM     27  C   UNL A   1      41.577  28.713  31.229  1.00  0.00     0.049 A 
ATOM     28  C   UNL A   1      40.972  32.149  35.620  1.00  0.00     0.074 A 
ATOM     29  C   UNL A   1      42.641  27.829  31.279  1.00  0.00     0.029 A 
ATOM     30  N   UNL A   1      41.617  29.451  32.401  1.00  0.00    -0.354 N 
ATOM     31  N   UNL A   1      41.279  31.331  34.642  1.00  0.00    -0.248 NA
ATOM     32  C   UNL A   1      41.793  31.987  36.825  1.00  0.00     0.031 C 
ATOM     33  C   UNL A   1      43.302  28.009  32.497  1.00  0.00     0.029 A 
ATOM     34  C   UNL A   1      42.666  29.022  33.196  1.00  0.00     0.049 A 
ATOM     35  H   UNL A   1      40.989  30.173  32.636  1.00  0.00     0.167 HD
ATOM     36  C   UNL A   1      42.338  30.565  35.110  1.00  0.00     0.074 A 
ATOM     37  C   UNL A   1      42.645  31.046  36.442  1.00  0.00     0.031 C 
ATOM     38  C   UNL A   1      42.980  29.538  34.503  1.00  0.00     0.034 A 
BRANCH  25  39
ATOM     39  C   UNL A   1      40.633  27.885  29.047  1.00  0.00     0.023 A 
ATOM     40  C   UNL A   1      39.658  26.873  28.951  1.00  0.00     0.012 A 
ATOM     41  C   UNL A   1      41.565  28.053  28.002  1.00  0.00     0.148 A 
ATOM     42  C   UNL A   1      39.612  26.037  27.835  1.00  0.00     0.002 A 
ATOM     43  C   UNL A   1      41.489  27.241  26.876  1.00  0.00     0.091 A 
ATOM     44  F   UNL A   1      42.494  29.011  28.124  1.00  0.00    -0.205 F 
ATOM     45  C   UNL A   1      40.518  26.229  26.793  1.00  0.00     0.022 A 
BRANCH  43  46
ATOM     46  S   UNL A   1      42.558  27.456  25.448  1.00  0.00     0.127 S 
ATOM     47  O   UNL A   1      42.291  26.230  24.695  1.00  0.00    -0.237 OA
ATOM     48  O   UNL A   1      42.019  28.673  24.843  1.00  0.00    -0.237 OA
ATOM     49  O   UNL A   1      43.911  27.578  25.971  1.00  0.00    -0.744 OA
ENDBRANCH  43  46
ENDBRANCH  25  39
BRANCH  26  50
ATOM     50  C   UNL A   1      39.733  34.083  36.853  1.00  0.00     0.023 A 
ATOM     51  C   UNL A   1      40.097  35.440  36.802  1.00  0.00     0.012 A 
ATOM     52  C   UNL A   1      39.157  33.570  38.032  1.00  0.00     0.148 A 
ATOM     53  C   UNL A   1      39.922  36.264  37.915  1.00  0.00     0.002 A 
ATOM     54  C   UNL A   1      38.926  34.410  39.114  1.00  0.00     0.091 A 
ATOM     55  F   UNL A   1      38.831  32.269  38.071  1.00  0.00    -0.205 F 
ATOM     56  C   UNL A   1      39.326  35.753  39.066  1.00  0.00     0.022 A 
BRANCH  54  57
ATOM     57  S   UNL A   1      38.024  33.856  40.565  1.00  0.00     0.127 S 
ATOM     58  O   UNL A   1      38.977  32.936  41.178  1.00  0.00    -0.237 OA
ATOM     59  O   UNL A   1      37.816  35.107  41.296  1.00  0.00    -0.237 OA
ATOM     60  O   UNL A   1      36.798  33.261  40.049  1.00  0.00    -0.744 OA
ENDBRANCH  54  57
ENDBRANCH  26  50
BRANCH  38  61
ATOM     61  C   UNL A   1      44.083  28.869  35.276  1.00  0.00     0.023 A 
ATOM     62  C   UNL A   1      45.404  29.347  35.155  1.00  0.00     0.012 A 
ATOM     63  C   UNL A   1      43.808  27.807  36.159  1.00  0.00     0.148 A 
ATOM     64  C   UNL A   1      46.440  28.755  35.875  1.00  0.00     0.002 A 
ATOM     65  C   UNL A   1      44.837  27.255  36.910  1.00  0.00     0.091 A 
ATOM     66  F   UNL A   1      42.547  27.355  36.244  1.00  0.00    -0.205 F 
ATOM     67  C   UNL A   1      46.155  27.717  36.760  1.00  0.00     0.022 A 
BRANCH  65  68
ATOM     68  S   UNL A   1      44.553  25.978  38.141  1.00  0.00     0.127 S 
ATOM     69  O   UNL A   1      44.107  24.859  37.312  1.00  0.00    -0.237 OA
ATOM     70  O   UNL A   1      45.883  25.812  38.727  1.00  0.00    -0.237 OA
ATOM     71  O   UNL A   1      43.552  26.515  39.053  1.00  0.00    -0.744 OA
ENDBRANCH  65  68
ENDBRANCH  38  61
ENDBRANCH  12  13
ENDBRANCH   5   7
ENDBRANCH   2   3
ENDBRANCH   1   2
BRANCH   1  72
ATOM     72  C   UNL A   1      31.875  30.876  25.922  1.00  0.00     0.023 C 
BRANCH  72  73
ATOM     73  C   UNL A   1      32.982  29.943  26.407  1.00  0.00     0.116 C 
BRANCH  73  74
ATOM     74  N   UNL A   1      32.388  28.903  27.215  1.00  0.00    -0.354 N 
ATOM     75  C   UNL A   1      31.668  27.811  26.828  1.00  0.00     0.246 C 
ATOM     76  H   UNL A   1      32.522  28.996  28.185  1.00  0.00     0.163 HD
ATOM     77  O   UNL A   1      30.793  27.429  27.608  1.00  0.00    -0.272 OA
BRANCH  75  78
ATOM     78  C   UNL A   1      31.842  27.198  25.409  1.00  0.00     0.129 C 
ATOM     79  C   UNL A   1      31.381  25.718  25.471  1.00  0.00     0.050 C 
ATOM     80  C   UNL A   1      33.330  27.127  25.013  1.00  0.00     0.108 C 
ATOM     81  C   UNL A   1      32.410  24.939  26.268  1.00  0.00     0.072 C 
ATOM     82  S   UNL A   1      33.983  25.516  25.592  1.00  0.00    -0.159 SA
BRANCH  78  83
ATOM     83  N   UNL A   1      31.052  27.881  24.347  1.00  0.00    -0.334 N 
ATOM     84  C   UNL A   1      30.801  27.550  23.033  1.00  0.00     0.289 C 
ATOM     85  H   UNL A   1      30.633  28.723  24.637  1.00  0.00     0.165 HD
ATOM     86  O   UNL A   1      29.958  28.233  22.446  1.00  0.00    -0.266 OA
BRANCH  84  87
ATOM     87  C   UNL A   1      31.627  26.600  22.336  1.00  0.00     0.214 A 
ATOM     88  N   UNL A   1      31.569  25.282  22.351  1.00  0.00    -0.207 NA
ATOM     89  N   UNL A   1      32.720  26.982  21.613  1.00  0.00    -0.255 N 
ATOM     90  C   UNL A   1      32.763  24.914  21.770  1.00  0.00     0.154 A 
ATOM     91  N   UNL A   1      33.509  25.937  21.334  1.00  0.00    -0.158 NA
ATOM     92  H   UNL A   1      32.904  27.907  21.332  1.00  0.00     0.192 HD
BRANCH  90  93
ATOM     93  C   UNL A   1      33.289  23.489  21.710  1.00  0.00     0.060 C 
ATOM     94  C   UNL A   1      34.039  22.932  22.901  1.00  0.00     0.012 C 
ATOM     95  C   UNL A   1      32.675  22.421  22.585  1.00  0.00     0.012 C 
ENDBRANCH  90  93
ENDBRANCH  84  87
ENDBRANCH  78  83
ENDBRANCH  75  78
ENDBRANCH  73  74
ENDBRANCH  72  73
ENDBRANCH   1  72
TORSDOF 17
ENDMDL
MODEL 2
REMARK VINA RESULT:     -11.9      1.809      2.376
REMARK SMILES O=C(NCCCCNC(=O)[C@]1(NC(=O)c2nc(C3CC3)n[nH]2)CCSC1)c1ccc(-c2c3nc(c(-c4cccc(S(=O)(=O)[O-])c4F)c4ccc([nH]4)c(-c4cccc(S(=O)(=O)[O-])c4F)c4nc(c(-c5cccc(S(=O)(=O)[O-])c5F)c5ccc2[nH]5)C=C4)C=C3)cc1
REMARK SMILES IDX 5 1 4 2 3 3 1 4 2 5 27 7 28 8 89 9 29 10 88 11 30 12 31 13
REMARK SMILES IDX 32 14 82 15 33 16 87 17 81 18 83 19 34 20 86 21 80 22 79 23
REMARK SMILES IDX 35 25 67 26 47 27 66 28 48 29 51 30 65 31 84 32 49 33 50 34
REMARK SMILES IDX 64 36 85 37 52 38 36 39 37 40 45 41 38 42 40 43 46 44 39 45
REMARK SMILES IDX 41 46 42 47 43 48 44 49 68 50 69 51 77 52 70 53 72 54 78 55
REMARK SMILES IDX 71 56 73 57 74 58 75 59 76 60 53 61 54 62 62 63 55 64 57 65
REMARK SMILES IDX 63 66 56 67 58 68 59 69 60 70 61 71 6 72 7 73 8 74 9 75
REMARK SMILES IDX 10 77 11 78 23 79 26 80 24 81 25 82 12 83 13 84 14 86 15 87
REMARK SMILES IDX 16 88 22 89 17 90 21 91 18 93 19 94 20 95
REMARK H PARENT 3 6 83 24 51 35 8 76 12 85 22 92
REMARK Flexibility Score: inf
ROOT
ATOM      1  C   UNL A   1      31.503  31.441  26.478  1.00  0.00     0.023 C 
ENDROOT
BRANCH   1   2
ATOM      2  C   UNL A   1      32.785  32.166  26.853  1.00  0.00     0.116 C 
BRANCH   2   3
ATOM      3  N   UNL A   1      32.529  33.536  27.264  1.00  0.00    -0.352 N 
ATOM      4  O   UNL A   1      32.708  35.307  28.647  1.00  0.00    -0.269 OA
ATOM      5  C   UNL A   1      33.148  34.235  28.274  1.00  0.00     0.251 C 
ATOM      6  H   UNL A   1      31.834  34.019  26.761  1.00  0.00     0.163 HD
BRANCH   5   7
ATOM      7  C   UNL A   1      34.343  33.629  28.894  1.00  0.00     0.039 A 
ATOM      8  C   UNL A   1      34.186  32.636  29.866  1.00  0.00     0.014 A 
ATOM      9  C   UNL A   1      35.611  34.087  28.534  1.00  0.00     0.014 A 
ATOM     10  C   UNL A   1      35.296  32.167  30.552  1.00  0.00     0.010 A 
ATOM     11  C   UNL A   1      36.733  33.551  29.166  1.00  0.00     0.010 A 
ATOM     12  C   UNL A   1      36.582  32.591  30.180  1.00  0.00    -0.014 A 
BRANCH  12  13
ATOM     13  C   UNL A   1      37.757  31.895  30.751  1.00  0.00     0.031 A 
ATOM     14  C   UNL A   1      38.503  30.844  29.986  1.00  0.00     0.074 A 
ATOM     15  C   UNL A   1      38.114  32.218  32.010  1.00  0.00     0.049 A 
ATOM     16  N   UNL A   1      39.537  30.140  30.366  1.00  0.00    -0.248 NA
ATOM     17  C   UNL A   1      38.031  30.530  28.628  1.00  0.00     0.031 C 
ATOM     18  C   UNL A   1      37.413  33.189  32.859  1.00  0.00     0.029 A 
ATOM     19  N   UNL A   1      39.132  31.763  32.804  1.00  0.00    -0.354 N 
ATOM     20  C   UNL A   1      39.815  29.271  29.320  1.00  0.00     0.074 A 
ATOM     21  C   UNL A   1      38.846  29.541  28.279  1.00  0.00     0.031 C 
ATOM     22  C   UNL A   1      38.027  33.263  34.047  1.00  0.00     0.029 A 
ATOM     23  C   UNL A   1      39.121  32.302  34.069  1.00  0.00     0.049 A 
ATOM     24  H   UNL A   1      39.807  31.112  32.500  1.00  0.00     0.167 HD
ATOM     25  C   UNL A   1      40.796  28.340  29.242  1.00  0.00     0.034 A 
ATOM     26  C   UNL A   1      39.881  32.028  35.144  1.00  0.00     0.034 A 
ATOM     27  C   UNL A   1      41.774  28.112  30.274  1.00  0.00     0.049 A 
ATOM     28  C   UNL A   1      40.967  31.004  35.011  1.00  0.00     0.074 A 
ATOM     29  C   UNL A   1      42.869  27.265  30.246  1.00  0.00     0.029 A 
ATOM     30  N   UNL A   1      41.766  28.713  31.523  1.00  0.00    -0.354 N 
ATOM     31  N   UNL A   1      41.321  30.313  33.954  1.00  0.00    -0.248 NA
ATOM     32  C   UNL A   1      41.773  30.734  36.208  1.00  0.00     0.031 C 
ATOM     33  C   UNL A   1      43.502  27.329  31.491  1.00  0.00     0.029 A 
ATOM     34  C   UNL A   1      42.817  28.233  32.286  1.00  0.00     0.049 A 
ATOM     35  H   UNL A   1      41.109  29.382  31.825  1.00  0.00     0.167 HD
ATOM     36  C   UNL A   1      42.399  29.536  34.354  1.00  0.00     0.074 A 
ATOM     37  C   UNL A   1      42.666  29.873  35.739  1.00  0.00     0.031 C 
ATOM     38  C   UNL A   1      43.089  28.608  33.650  1.00  0.00     0.034 A 
BRANCH  25  39
ATOM     39  C   UNL A   1      40.898  27.505  27.994  1.00  0.00     0.023 A 
ATOM     40  C   UNL A   1      41.525  28.036  26.848  1.00  0.00     0.012 A 
ATOM     41  C   UNL A   1      40.491  26.155  27.999  1.00  0.00     0.148 A 
ATOM     42  C   UNL A   1      41.738  27.238  25.724  1.00  0.00     0.002 A 
ATOM     43  C   UNL A   1      40.740  25.357  26.889  1.00  0.00     0.091 A 
ATOM     44  F   UNL A   1      39.882  25.678  29.093  1.00  0.00    -0.205 F 
ATOM     45  C   UNL A   1      41.358  25.898  25.748  1.00  0.00     0.022 A 
BRANCH  43  46
ATOM     46  S   UNL A   1      40.360  23.602  26.847  1.00  0.00     0.127 S 
ATOM     47  O   UNL A   1      38.941  23.616  26.490  1.00  0.00    -0.237 OA
ATOM     48  O   UNL A   1      41.249  23.121  25.789  1.00  0.00    -0.237 OA
ATOM     49  O   UNL A   1      40.658  23.091  28.177  1.00  0.00    -0.744 OA
ENDBRANCH  43  46
ENDBRANCH  25  39
BRANCH  26  50
ATOM     50  C   UNL A   1      39.637  32.741  36.429  1.00  0.00     0.023 A 
ATOM     51  C   UNL A   1      40.327  33.934  36.706  1.00  0.00     0.012 A 
ATOM     52  C   UNL A   1      38.696  32.258  37.360  1.00  0.00     0.148 A 
ATOM     53  C   UNL A   1      40.110  34.617  37.904  1.00  0.00     0.002 A 
ATOM     54  C   UNL A   1      38.437  32.977  38.521  1.00  0.00     0.091 A 
ATOM     55  F   UNL A   1      38.059  31.110  37.088  1.00  0.00    -0.205 F 
ATOM     56  C   UNL A   1      39.157  34.146  38.805  1.00  0.00     0.022 A 
BRANCH  54  57
ATOM     57  S   UNL A   1      37.116  32.512  39.645  1.00  0.00     0.127 S 
ATOM     58  O   UNL A   1      35.939  32.628  38.790  1.00  0.00    -0.237 OA
ATOM     59  O   UNL A   1      37.485  31.141  40.004  1.00  0.00    -0.237 OA
ATOM     60  O   UNL A   1      37.203  33.458  40.750  1.00  0.00    -0.744 OA
ENDBRANCH  54  57
ENDBRANCH  26  50
BRANCH  38  61
ATOM     61  C   UNL A   1      44.203  27.894  34.365  1.00  0.00     0.023 A 
ATOM     62  C   UNL A   1      45.490  28.468  34.392  1.00  0.00     0.012 A 
ATOM     63  C   UNL A   1      43.966  26.688  35.052  1.00  0.00     0.148 A 
ATOM     64  C   UNL A   1      46.533  27.834  35.064  1.00  0.00     0.002 A 
ATOM     65  C   UNL A   1      44.999  26.088  35.761  1.00  0.00     0.091 A 
ATOM     66  F   UNL A   1      42.738  26.150  34.997  1.00  0.00    -0.205 F 
ATOM     67  C   UNL A   1      46.285  26.651  35.757  1.00  0.00     0.022 A 
BRANCH  65  68
ATOM     68  S   UNL A   1      44.754  24.614  36.757  1.00  0.00     0.127 S 
ATOM     69  O   UNL A   1      43.977  23.768  35.852  1.00  0.00    -0.237 OA
ATOM     70  O   UNL A   1      46.127  24.164  36.987  1.00  0.00    -0.237 OA
ATOM     71  O   UNL A   1      44.052  25.052  37.956  1.00  0.00    -0.744 OA
ENDBRANCH  65  68
ENDBRANCH  38  61
ENDBRANCH  12  13
ENDBRANCH   5   7
ENDBRANCH   2   3
ENDBRANCH   1   2
BRANCH   1  72
ATOM     72  C   UNL A   1      31.699  29.947  26.211  1.00  0.00     0.023 C 
BRANCH  72  73
ATOM     73  C   UNL A   1      32.058  29.636  24.760  1.00  0.00     0.116 C 
BRANCH  73  74
ATOM     74  N   UNL A   1      30.837  29.408  24.022  1.00  0.00    -0.354 N 
ATOM     75  C   UNL A   1      30.559  28.465  23.078  1.00  0.00     0.246 C 
ATOM     76  H   UNL A   1      30.098  30.024  24.231  1.00  0.00     0.163 HD
ATOM     77  O   UNL A   1      29.765  28.793  22.194  1.00  0.00    -0.272 OA
BRANCH  75  78
ATOM     78  C   UNL A   1      31.336  27.117  23.038  1.00  0.00     0.129 C 
ATOM     79  C   UNL A   1      30.307  25.970  23.212  1.00  0.00     0.050 C 
ATOM     80  C   UNL A   1      32.278  26.983  24.251  1.00  0.00     0.108 C 
ATOM     81  C   UNL A   1      29.813  25.996  24.646  1.00  0.00     0.072 C 
ATOM     82  S   UNL A   1      31.332  26.190  25.605  1.00  0.00    -0.159 SA
BRANCH  78  83
ATOM     83  N   UNL A   1      32.081  26.878  21.771  1.00  0.00    -0.334 N 
ATOM     84  C   UNL A   1      32.723  25.762  21.280  1.00  0.00     0.289 C 
ATOM     85  H   UNL A   1      32.123  27.660  21.176  1.00  0.00     0.165 HD
ATOM     86  O   UNL A   1      33.105  25.818  20.109  1.00  0.00    -0.266 OA
BRANCH  84  87
ATOM     87  C   UNL A   1      33.103  24.681  22.150  1.00  0.00     0.214 A 
ATOM     88  N   UNL A   1      34.207  24.533  22.857  1.00  0.00    -0.207 NA
ATOM     89  N   UNL A   1      32.355  23.544  22.264  1.00  0.00    -0.255 N 
ATOM     90  C   UNL A   1      34.158  23.207  23.232  1.00  0.00     0.154 A 
ATOM     91  N   UNL A   1      33.048  22.562  22.855  1.00  0.00    -0.158 NA
ATOM     92  H   UNL A   1      31.426  23.457  21.951  1.00  0.00     0.192 HD
BRANCH  90  93
ATOM     93  C   UNL A   1      35.294  22.463  23.914  1.00  0.00     0.060 C 
ATOM     94  C   UNL A   1      35.514  22.658  25.399  1.00  0.00     0.012 C 
ATOM     95  C   UNL A   1      34.988  21.357  24.899  1.00  0.00     0.012 C 
ENDBRANCH  90  93
ENDBRANCH  84  87
ENDBRANCH  78  83
ENDBRANCH  75  78
ENDBRANCH  73  74
ENDBRANCH  72  73
ENDBRANCH   1  72
TORSDOF 17
ENDMDL
MODEL 3
REMARK VINA RESULT:     -11.7      6.410     11.456
REMARK SMILES O=C(NCCCCNC(=O)[C@]1(NC(=O)c2nc(C3CC3)n[nH]2)CCSC1)c1ccc(-c2c3nc(c(-c4cccc(S(=O)(=O)[O-])c4F)c4ccc([nH]4)c(-c4cccc(S(=O)(=O)[O-])c4F)c4nc(c(-c5cccc(S(=O)(=O)[O-])c5F)c5ccc2[nH]5)C=C4)C=C3)cc1
REMARK SMILES IDX 5 1 4 2 3 3 1 4 2 5 27 7 28 8 89 9 29 10 88 11 30 12 31 13
REMARK SMILES IDX 32 14 82 15 33 16 87 17 81 18 83 19 34 20 86 21 80 22 79 23
REMARK SMILES IDX 35 25 67 26 47 27 66 28 48 29 51 30 65 31 84 32 49 33 50 34
REMARK SMILES IDX 64 36 85 37 52 38 36 39 37 40 45 41 38 42 40 43 46 44 39 45
REMARK SMILES IDX 41 46 42 47 43 48 44 49 68 50 69 51 77 52 70 53 72 54 78 55
REMARK SMILES IDX 71 56 73 57 74 58 75 59 76 60 53 61 54 62 62 63 55 64 57 65
REMARK SMILES IDX 63 66 56 67 58 68 59 69 60 70 61 71 6 72 7 73 8 74 9 75
REMARK SMILES IDX 10 77 11 78 23 79 26 80 24 81 25 82 12 83 13 84 14 86 15 87
REMARK SMILES IDX 16 88 22 89 17 90 21 91 18 93 19 94 20 95
REMARK H PARENT 3 6 83 24 51 35 8 76 12 85 22 92
REMARK Flexibility Score: inf
ROOT
ATOM      1  C   UNL A   1      37.583  19.982  25.004  1.00  0.00     0.023 C 
ENDROOT
BRANCH   1   2
ATOM      2  C   UNL A   1      38.803  20.474  25.763  1.00  0.00     0.116 C 
BRANCH   2   3
ATOM      3  N   UNL A   1      39.813  19.438  25.891  1.00  0.00    -0.352 N 
ATOM      4  O   UNL A   1      41.929  18.669  26.017  1.00  0.00    -0.269 OA
ATOM      5  C   UNL A   1      41.158  19.605  26.127  1.00  0.00     0.251 C 
ATOM      6  H   UNL A   1      39.499  18.509  25.800  1.00  0.00     0.163 HD
BRANCH   5   7
ATOM      7  C   UNL A   1      41.626  20.956  26.494  1.00  0.00     0.039 A 
ATOM      8  C   UNL A   1      41.798  21.921  25.497  1.00  0.00     0.014 A 
ATOM      9  C   UNL A   1      41.933  21.237  27.826  1.00  0.00     0.014 A 
ATOM     10  C   UNL A   1      42.371  23.142  25.817  1.00  0.00     0.010 A 
ATOM     11  C   UNL A   1      42.430  22.498  28.158  1.00  0.00     0.010 A 
ATOM     12  C   UNL A   1      42.655  23.456  27.156  1.00  0.00    -0.014 A 
BRANCH  12  13
ATOM     13  C   UNL A   1      43.029  24.846  27.500  1.00  0.00     0.031 A 
ATOM     14  C   UNL A   1      42.042  25.808  28.087  1.00  0.00     0.074 A 
ATOM     15  C   UNL A   1      44.293  25.230  27.232  1.00  0.00     0.049 A 
ATOM     16  N   UNL A   1      42.224  27.059  28.421  1.00  0.00    -0.248 NA
ATOM     17  C   UNL A   1      40.674  25.318  28.323  1.00  0.00     0.031 C 
ATOM     18  C   UNL A   1      45.314  24.380  26.606  1.00  0.00     0.029 A 
ATOM     19  N   UNL A   1      44.935  26.423  27.427  1.00  0.00    -0.354 N 
ATOM     20  C   UNL A   1      40.992  27.522  28.864  1.00  0.00     0.074 A 
ATOM     21  C   UNL A   1      40.066  26.413  28.767  1.00  0.00     0.031 C 
ATOM     22  C   UNL A   1      46.452  25.075  26.480  1.00  0.00     0.029 A 
ATOM     23  C   UNL A   1      46.226  26.434  26.953  1.00  0.00     0.049 A 
ATOM     24  H   UNL A   1      44.514  27.199  27.865  1.00  0.00     0.167 HD
ATOM     25  C   UNL A   1      40.673  28.758  29.314  1.00  0.00     0.034 A 
ATOM     26  C   UNL A   1      47.120  27.435  26.870  1.00  0.00     0.034 A 
ATOM     27  C   UNL A   1      41.618  29.838  29.438  1.00  0.00     0.049 A 
ATOM     28  C   UNL A   1      46.734  28.785  27.396  1.00  0.00     0.074 A 
ATOM     29  C   UNL A   1      41.417  31.096  29.980  1.00  0.00     0.029 A 
ATOM     30  N   UNL A   1      42.932  29.800  28.997  1.00  0.00    -0.354 N 
ATOM     31  N   UNL A   1      45.614  29.155  27.968  1.00  0.00    -0.248 NA
ATOM     32  C   UNL A   1      47.738  29.849  27.286  1.00  0.00     0.031 C 
ATOM     33  C   UNL A   1      42.598  31.829  29.835  1.00  0.00     0.029 A 
ATOM     34  C   UNL A   1      43.544  31.021  29.226  1.00  0.00     0.049 A 
ATOM     35  H   UNL A   1      43.366  29.020  28.581  1.00  0.00     0.167 HD
ATOM     36  C   UNL A   1      45.783  30.492  28.299  1.00  0.00     0.074 A 
ATOM     37  C   UNL A   1      47.128  30.854  27.900  1.00  0.00     0.031 C 
ATOM     38  C   UNL A   1      44.896  31.351  28.856  1.00  0.00     0.034 A 
BRANCH  25  39
ATOM     39  C   UNL A   1      39.255  29.027  29.741  1.00  0.00     0.023 A 
ATOM     40  C   UNL A   1      38.845  28.697  31.048  1.00  0.00     0.012 A 
ATOM     41  C   UNL A   1      38.370  29.720  28.891  1.00  0.00     0.148 A 
ATOM     42  C   UNL A   1      37.573  29.047  31.502  1.00  0.00     0.002 A 
ATOM     43  C   UNL A   1      37.118  30.098  29.362  1.00  0.00     0.091 A 
ATOM     44  F   UNL A   1      38.775  30.008  27.646  1.00  0.00    -0.205 F 
ATOM     45  C   UNL A   1      36.716  29.758  30.665  1.00  0.00     0.022 A 
BRANCH  43  46
ATOM     46  S   UNL A   1      35.969  31.081  28.392  1.00  0.00     0.127 S 
ATOM     47  O   UNL A   1      35.770  30.229  27.220  1.00  0.00    -0.237 OA
ATOM     48  O   UNL A   1      34.813  31.170  29.284  1.00  0.00    -0.237 OA
ATOM     49  O   UNL A   1      36.639  32.346  28.130  1.00  0.00    -0.744 OA
ENDBRANCH  43  46
ENDBRANCH  25  39
BRANCH  26  50
ATOM     50  C   UNL A   1      48.459  27.187  26.270  1.00  0.00     0.023 A 
ATOM     51  C   UNL A   1      49.484  26.631  27.058  1.00  0.00     0.012 A 
ATOM     52  C   UNL A   1      48.712  27.469  24.913  1.00  0.00     0.148 A 
ATOM     53  C   UNL A   1      50.745  26.390  26.512  1.00  0.00     0.002 A 
ATOM     54  C   UNL A   1      49.950  27.167  24.360  1.00  0.00     0.091 A 
ATOM     55  F   UNL A   1      47.730  28.016  24.181  1.00  0.00    -0.205 F 
ATOM     56  C   UNL A   1      50.975  26.645  25.162  1.00  0.00     0.022 A 
BRANCH  54  57
ATOM     57  S   UNL A   1      50.262  27.325  22.599  1.00  0.00     0.127 S 
ATOM     58  O   UNL A   1      50.100  28.761  22.393  1.00  0.00    -0.237 OA
ATOM     59  O   UNL A   1      51.638  26.837  22.484  1.00  0.00    -0.237 OA
ATOM     60  O   UNL A   1      49.274  26.468  21.956  1.00  0.00    -0.744 OA
ENDBRANCH  54  57
ENDBRANCH  26  50
BRANCH  38  61
ATOM     61  C   UNL A   1      45.357  32.766  29.071  1.00  0.00     0.023 A 
ATOM     62  C   UNL A   1      45.902  33.136  30.317  1.00  0.00     0.012 A 
ATOM     63  C   UNL A   1      45.301  33.713  28.030  1.00  0.00     0.148 A 
ATOM     64  C   UNL A   1      46.352  34.437  30.535  1.00  0.00     0.002 A 
ATOM     65  C   UNL A   1      45.797  34.992  28.238  1.00  0.00     0.091 A 
ATOM     66  F   UNL A   1      44.760  33.344  26.858  1.00  0.00    -0.205 F 
ATOM     67  C   UNL A   1      46.310  35.361  29.493  1.00  0.00     0.022 A 
BRANCH  65  68
ATOM     68  S   UNL A   1      45.869  36.222  26.931  1.00  0.00     0.127 S 
ATOM     69  O   UNL A   1      44.566  36.873  27.062  1.00  0.00    -0.237 OA
ATOM     70  O   UNL A   1      47.007  37.045  27.342  1.00  0.00    -0.237 OA
ATOM     71  O   UNL A   1      46.074  35.481  25.694  1.00  0.00    -0.744 OA
ENDBRANCH  65  68
ENDBRANCH  38  61
ENDBRANCH  12  13
ENDBRANCH   5   7
ENDBRANCH   2   3
ENDBRANCH   1   2
BRANCH   1  72
ATOM     72  C   UNL A   1      36.561  21.082  24.708  1.00  0.00     0.023 C 
BRANCH  72  73
ATOM     73  C   UNL A   1      35.333  21.022  25.613  1.00  0.00     0.116 C 
BRANCH  73  74
ATOM     74  N   UNL A   1      34.283  20.312  24.920  1.00  0.00    -0.354 N 
ATOM     75  C   UNL A   1      32.945  20.571  24.878  1.00  0.00     0.246 C 
ATOM     76  H   UNL A   1      34.576  19.527  24.404  1.00  0.00     0.163 HD
ATOM     77  O   UNL A   1      32.202  19.592  24.773  1.00  0.00    -0.272 OA
BRANCH  75  78
ATOM     78  C   UNL A   1      32.398  22.007  25.118  1.00  0.00     0.129 C 
ATOM     79  C   UNL A   1      31.607  22.432  23.853  1.00  0.00     0.050 C 
ATOM     80  C   UNL A   1      33.547  23.029  25.221  1.00  0.00     0.108 C 
ATOM     81  C   UNL A   1      32.603  22.668  22.734  1.00  0.00     0.072 C 
ATOM     82  S   UNL A   1      33.900  23.641  23.530  1.00  0.00    -0.159 SA
BRANCH  78  83
ATOM     83  N   UNL A   1      31.487  22.127  26.291  1.00  0.00    -0.334 N 
ATOM     84  C   UNL A   1      30.642  23.136  26.698  1.00  0.00     0.289 C 
ATOM     85  H   UNL A   1      31.491  21.342  26.884  1.00  0.00     0.165 HD
ATOM     86  O   UNL A   1      29.877  22.870  27.628  1.00  0.00    -0.266 OA
BRANCH  84  87
ATOM     87  C   UNL A   1      30.794  24.477  26.200  1.00  0.00     0.214 A 
ATOM     88  N   UNL A   1      31.587  25.439  26.633  1.00  0.00    -0.207 NA
ATOM     89  N   UNL A   1      29.989  24.983  25.219  1.00  0.00    -0.255 N 
ATOM     90  C   UNL A   1      31.090  26.558  26.000  1.00  0.00     0.154 A 
ATOM     91  N   UNL A   1      30.086  26.316  25.148  1.00  0.00    -0.158 NA
ATOM     92  H   UNL A   1      29.412  24.436  24.638  1.00  0.00     0.192 HD
BRANCH  90  93
ATOM     93  C   UNL A   1      31.531  27.982  26.296  1.00  0.00     0.060 C 
ATOM     94  C   UNL A   1      31.543  28.464  27.731  1.00  0.00     0.012 C 
ATOM     95  C   UNL A   1      32.833  28.233  27.022  1.00  0.00     0.012 C 
ENDBRANCH  90  93
ENDBRANCH  84  87
ENDBRANCH  78  83
ENDBRANCH  75  78
ENDBRANCH  73  74
ENDBRANCH  72  73
ENDBRANCH   1  72
TORSDOF 17
ENDMDL
