MODEL 1
REMARK VINA RESULT:     -12.8      0.000      0.000
REMARK SMILES O=C(NCCCCNC(=O)[C@H](c1ccccc1)C(c1ccccc1)c1ccccc1)c1ccc(-c2c3nc(c(-c4cccc(S(=O)(=O)[O-])c4F)c4ccc([nH]4)c(-c4cccc(S(=O)(=O)[O-])c4F)c4nc(c(-c5cccc(S(=O)(=O)[O-])c5F)c5ccc2[nH]5)C=C4)C=C3)cc1
REMARK SMILES IDX 5 1 4 2 3 3 1 4 2 5 31 7 32 8 93 9 33 10 92 11 34 12 35 13
REMARK SMILES IDX 36 14 86 15 37 16 91 17 85 18 87 19 38 20 90 21 84 22 83 23
REMARK SMILES IDX 39 25 71 26 51 27 70 28 52 29 55 30 69 31 88 32 53 33 54 34
REMARK SMILES IDX 68 36 89 37 56 38 40 39 41 40 49 41 42 42 44 43 50 44 43 45
REMARK SMILES IDX 45 46 46 47 47 48 48 49 72 50 73 51 81 52 74 53 76 54 82 55
REMARK SMILES IDX 75 56 77 57 78 58 79 59 80 60 57 61 58 62 66 63 59 64 61 65
REMARK SMILES IDX 67 66 60 67 62 68 63 69 64 70 65 71 6 72 7 73 8 74 9 75
REMARK SMILES IDX 10 77 11 78 18 79 19 80 20 81 24 82 21 83 23 84 22 85 25 86
REMARK SMILES IDX 26 87 30 88 27 89 29 90 28 91 12 92 13 93 17 94 14 95 16 96
REMARK SMILES IDX 15 97
REMARK H PARENT 3 6 87 24 55 35 8 76
REMARK Flexibility Score: inf
ROOT
ATOM      1  C   UNL A   1      31.379  28.409  25.853  1.00  0.00     0.023 C 
ENDROOT
BRANCH   1   2
ATOM      2  C   UNL A   1      32.595  29.314  26.025  1.00  0.00     0.116 C 
BRANCH   2   3
ATOM      3  N   UNL A   1      32.277  30.686  26.391  1.00  0.00    -0.352 N 
ATOM      4  O   UNL A   1      32.551  32.713  27.346  1.00  0.00    -0.269 OA
ATOM      5  C   UNL A   1      33.020  31.608  27.101  1.00  0.00     0.251 C 
ATOM      6  H   UNL A   1      31.397  31.005  26.086  1.00  0.00     0.163 HD
BRANCH   5   7
ATOM      7  C   UNL A   1      34.367  31.240  27.602  1.00  0.00     0.039 A 
ATOM      8  C   UNL A   1      34.664  29.920  27.938  1.00  0.00     0.014 A 
ATOM      9  C   UNL A   1      35.334  32.236  27.776  1.00  0.00     0.014 A 
ATOM     10  C   UNL A   1      35.831  29.634  28.637  1.00  0.00     0.010 A 
ATOM     11  C   UNL A   1      36.554  31.925  28.391  1.00  0.00     0.010 A 
ATOM     12  C   UNL A   1      36.790  30.633  28.883  1.00  0.00    -0.014 A 
BRANCH  12  13
ATOM     13  C   UNL A   1      38.029  30.271  29.626  1.00  0.00     0.031 A 
ATOM     14  C   UNL A   1      38.270  30.730  31.042  1.00  0.00     0.074 A 
ATOM     15  C   UNL A   1      38.924  29.459  29.028  1.00  0.00     0.049 A 
ATOM     16  N   UNL A   1      39.242  30.401  31.856  1.00  0.00    -0.248 NA
ATOM     17  C   UNL A   1      37.309  31.682  31.620  1.00  0.00     0.031 C 
ATOM     18  C   UNL A   1      38.838  28.996  27.641  1.00  0.00     0.029 A 
ATOM     19  N   UNL A   1      40.064  28.863  29.506  1.00  0.00    -0.354 N 
ATOM     20  C   UNL A   1      39.029  31.122  33.026  1.00  0.00     0.074 A 
ATOM     21  C   UNL A   1      37.842  31.921  32.812  1.00  0.00     0.031 C 
ATOM     22  C   UNL A   1      39.851  28.154  27.393  1.00  0.00     0.029 A 
ATOM     23  C   UNL A   1      40.682  28.048  28.588  1.00  0.00     0.049 A 
ATOM     24  H   UNL A   1      40.405  29.006  30.418  1.00  0.00     0.167 HD
ATOM     25  C   UNL A   1      39.741  31.103  34.180  1.00  0.00     0.034 A 
ATOM     26  C   UNL A   1      41.794  27.294  28.689  1.00  0.00     0.034 A 
ATOM     27  C   UNL A   1      40.899  30.277  34.407  1.00  0.00     0.049 A 
ATOM     28  C   UNL A   1      42.522  27.240  30.001  1.00  0.00     0.074 A 
ATOM     29  C   UNL A   1      41.662  30.162  35.557  1.00  0.00     0.029 A 
ATOM     30  N   UNL A   1      41.460  29.422  33.471  1.00  0.00    -0.354 N 
ATOM     31  N   UNL A   1      42.228  27.836  31.130  1.00  0.00    -0.248 NA
ATOM     32  C   UNL A   1      43.716  26.387  30.062  1.00  0.00     0.031 C 
ATOM     33  C   UNL A   1      42.686  29.239  35.315  1.00  0.00     0.029 A 
ATOM     34  C   UNL A   1      42.556  28.774  34.018  1.00  0.00     0.049 A 
ATOM     35  H   UNL A   1      41.128  29.294  32.554  1.00  0.00     0.167 HD
ATOM     36  C   UNL A   1      43.197  27.429  32.037  1.00  0.00     0.074 A 
ATOM     37  C   UNL A   1      44.058  26.497  31.339  1.00  0.00     0.031 C 
ATOM     38  C   UNL A   1      43.379  27.818  33.323  1.00  0.00     0.034 A 
BRANCH  25  39
ATOM     39  C   UNL A   1      39.253  31.954  35.325  1.00  0.00     0.023 A 
ATOM     40  C   UNL A   1      38.368  31.395  36.268  1.00  0.00     0.012 A 
ATOM     41  C   UNL A   1      39.736  33.264  35.524  1.00  0.00     0.148 A 
ATOM     42  C   UNL A   1      37.956  32.128  37.380  1.00  0.00     0.002 A 
ATOM     43  C   UNL A   1      39.348  33.977  36.654  1.00  0.00     0.091 A 
ATOM     44  F   UNL A   1      40.563  33.786  34.607  1.00  0.00    -0.205 F 
ATOM     45  C   UNL A   1      38.454  33.414  37.579  1.00  0.00     0.022 A 
BRANCH  43  46
ATOM     46  S   UNL A   1      39.987  35.613  37.037  1.00  0.00     0.127 S 
ATOM     47  O   UNL A   1      39.274  35.925  38.275  1.00  0.00    -0.237 OA
ATOM     48  O   UNL A   1      41.418  35.354  37.208  1.00  0.00    -0.237 OA
ATOM     49  O   UNL A   1      39.655  36.451  35.894  1.00  0.00    -0.744 OA
ENDBRANCH  43  46
ENDBRANCH  25  39
BRANCH  26  50
ATOM     50  C   UNL A   1      42.240  26.486  27.520  1.00  0.00     0.023 A 
ATOM     51  C   UNL A   1      43.104  27.056  26.565  1.00  0.00     0.012 A 
ATOM     52  C   UNL A   1      41.865  25.136  27.385  1.00  0.00     0.148 A 
ATOM     53  C   UNL A   1      43.570  26.300  25.488  1.00  0.00     0.002 A 
ATOM     54  C   UNL A   1      42.384  24.371  26.347  1.00  0.00     0.091 A 
ATOM     55  F   UNL A   1      41.021  24.614  28.287  1.00  0.00    -0.205 F 
ATOM     56  C   UNL A   1      43.223  24.954  25.388  1.00  0.00     0.022 A 
BRANCH  54  57
ATOM     57  S   UNL A   1      42.107  22.598  26.269  1.00  0.00     0.127 S 
ATOM     58  O   UNL A   1      42.626  22.153  27.559  1.00  0.00    -0.237 OA
ATOM     59  O   UNL A   1      40.653  22.513  26.127  1.00  0.00    -0.237 OA
ATOM     60  O   UNL A   1      42.841  22.158  25.089  1.00  0.00    -0.744 OA
ENDBRANCH  54  57
ENDBRANCH  26  50
BRANCH  38  61
ATOM     61  C   UNL A   1      44.563  27.241  34.052  1.00  0.00     0.023 A 
ATOM     62  C   UNL A   1      45.800  27.918  33.998  1.00  0.00     0.012 A 
ATOM     63  C   UNL A   1      44.452  26.064  34.814  1.00  0.00     0.148 A 
ATOM     64  C   UNL A   1      46.915  27.410  34.662  1.00  0.00     0.002 A 
ATOM     65  C   UNL A   1      45.560  25.585  35.506  1.00  0.00     0.091 A 
ATOM     66  F   UNL A   1      43.276  25.420  34.835  1.00  0.00    -0.205 F 
ATOM     67  C   UNL A   1      46.793  26.250  35.423  1.00  0.00     0.022 A 
BRANCH  65  68
ATOM     68  S   UNL A   1      45.463  24.141  36.569  1.00  0.00     0.127 S 
ATOM     69  O   UNL A   1      46.875  23.824  36.774  1.00  0.00    -0.237 OA
ATOM     70  O   UNL A   1      44.778  24.663  37.753  1.00  0.00    -0.237 OA
ATOM     71  O   UNL A   1      44.695  23.155  35.821  1.00  0.00    -0.744 OA
ENDBRANCH  65  68
ENDBRANCH  38  61
ENDBRANCH  12  13
ENDBRANCH   5   7
ENDBRANCH   2   3
ENDBRANCH   1   2
BRANCH   1  72
ATOM     72  C   UNL A   1      31.359  27.109  26.657  1.00  0.00     0.023 C 
BRANCH  72  73
ATOM     73  C   UNL A   1      30.510  25.980  26.087  1.00  0.00     0.116 C 
BRANCH  73  74
ATOM     74  N   UNL A   1      30.621  24.702  26.759  1.00  0.00    -0.356 N 
ATOM     75  C   UNL A   1      31.593  23.752  26.555  1.00  0.00     0.228 C 
ATOM     76  H   UNL A   1      29.931  24.492  27.429  1.00  0.00     0.163 HD
ATOM     77  O   UNL A   1      31.866  23.008  27.502  1.00  0.00    -0.274 OA
BRANCH  75  78
ATOM     78  C   UNL A   1      32.263  23.591  25.168  1.00  0.00     0.120 C 
BRANCH  78  79
ATOM     79  C   UNL A   1      33.534  24.515  25.000  1.00  0.00     0.066 C 
BRANCH  79  80
ATOM     80  C   UNL A   1      34.908  23.809  24.803  1.00  0.00    -0.039 A 
ATOM     81  C   UNL A   1      35.357  23.290  23.578  1.00  0.00     0.004 A 
ATOM     82  C   UNL A   1      35.762  23.634  25.915  1.00  0.00     0.004 A 
ATOM     83  C   UNL A   1      36.594  22.641  23.466  1.00  0.00     0.000 A 
ATOM     84  C   UNL A   1      37.018  23.032  25.794  1.00  0.00     0.000 A 
ATOM     85  C   UNL A   1      37.431  22.527  24.568  1.00  0.00     0.000 A 
ENDBRANCH  79  80
BRANCH  79  86
ATOM     86  C   UNL A   1      33.308  25.588  23.915  1.00  0.00    -0.039 A 
ATOM     87  C   UNL A   1      32.407  25.396  22.849  1.00  0.00     0.004 A 
ATOM     88  C   UNL A   1      34.027  26.795  23.974  1.00  0.00     0.004 A 
ATOM     89  C   UNL A   1      32.241  26.378  21.869  1.00  0.00     0.000 A 
ATOM     90  C   UNL A   1      33.850  27.779  22.999  1.00  0.00     0.000 A 
ATOM     91  C   UNL A   1      32.960  27.570  21.948  1.00  0.00     0.000 A 
ENDBRANCH  79  86
ENDBRANCH  78  79
BRANCH  78  92
ATOM     92  C   UNL A   1      32.500  22.078  24.961  1.00  0.00    -0.035 A 
ATOM     93  C   UNL A   1      32.165  21.497  23.723  1.00  0.00     0.004 A 
ATOM     94  C   UNL A   1      33.024  21.243  25.962  1.00  0.00     0.004 A 
ATOM     95  C   UNL A   1      32.400  20.141  23.481  1.00  0.00     0.000 A 
ATOM     96  C   UNL A   1      33.269  19.890  25.713  1.00  0.00     0.000 A 
ATOM     97  C   UNL A   1      32.964  19.341  24.471  1.00  0.00     0.000 A 
ENDBRANCH  78  92
ENDBRANCH  75  78
ENDBRANCH  73  74
ENDBRANCH  72  73
ENDBRANCH   1  72
TORSDOF 18
ENDMDL
MODEL 2
REMARK VINA RESULT:     -12.7      4.639      9.799
REMARK SMILES O=C(NCCCCNC(=O)[C@H](c1ccccc1)C(c1ccccc1)c1ccccc1)c1ccc(-c2c3nc(c(-c4cccc(S(=O)(=O)[O-])c4F)c4ccc([nH]4)c(-c4cccc(S(=O)(=O)[O-])c4F)c4nc(c(-c5cccc(S(=O)(=O)[O-])c5F)c5ccc2[nH]5)C=C4)C=C3)cc1
REMARK SMILES IDX 5 1 4 2 3 3 1 4 2 5 31 7 32 8 93 9 33 10 92 11 34 12 35 13
REMARK SMILES IDX 36 14 86 15 37 16 91 17 85 18 87 19 38 20 90 21 84 22 83 23
REMARK SMILES IDX 39 25 71 26 51 27 70 28 52 29 55 30 69 31 88 32 53 33 54 34
REMARK SMILES IDX 68 36 89 37 56 38 40 39 41 40 49 41 42 42 44 43 50 44 43 45
REMARK SMILES IDX 45 46 46 47 47 48 48 49 72 50 73 51 81 52 74 53 76 54 82 55
REMARK SMILES IDX 75 56 77 57 78 58 79 59 80 60 57 61 58 62 66 63 59 64 61 65
REMARK SMILES IDX 67 66 60 67 62 68 63 69 64 70 65 71 6 72 7 73 8 74 9 75
REMARK SMILES IDX 10 77 11 78 18 79 19 80 20 81 24 82 21 83 23 84 22 85 25 86
REMARK SMILES IDX 26 87 30 88 27 89 29 90 28 91 12 92 13 93 17 94 14 95 16 96
REMARK SMILES IDX 15 97
REMARK H PARENT 3 6 87 24 55 35 8 76
REMARK Flexibility Score: inf
ROOT
ATOM      1  C   UNL A   1      35.501  22.717  23.031  1.00  0.00     0.023 C 
ENDROOT
BRANCH   1   2
ATOM      2  C   UNL A   1      36.597  22.837  24.085  1.00  0.00     0.116 C 
BRANCH   2   3
ATOM      3  N   UNL A   1      37.182  21.568  24.493  1.00  0.00    -0.352 N 
ATOM      4  O   UNL A   1      38.578  20.160  25.569  1.00  0.00    -0.269 OA
ATOM      5  C   UNL A   1      38.196  21.310  25.394  1.00  0.00     0.251 C 
ATOM      6  H   UNL A   1      36.794  20.773  24.061  1.00  0.00     0.163 HD
BRANCH   5   7
ATOM      7  C   UNL A   1      38.847  22.433  26.113  1.00  0.00     0.039 A 
ATOM      8  C   UNL A   1      38.285  23.708  26.096  1.00  0.00     0.014 A 
ATOM      9  C   UNL A   1      40.057  22.215  26.780  1.00  0.00     0.014 A 
ATOM     10  C   UNL A   1      39.026  24.792  26.552  1.00  0.00     0.010 A 
ATOM     11  C   UNL A   1      40.756  23.298  27.330  1.00  0.00     0.010 A 
ATOM     12  C   UNL A   1      40.276  24.606  27.168  1.00  0.00    -0.014 A 
BRANCH  12  13
ATOM     13  C   UNL A   1      41.024  25.800  27.650  1.00  0.00     0.031 A 
ATOM     14  C   UNL A   1      42.454  26.059  27.248  1.00  0.00     0.074 A 
ATOM     15  C   UNL A   1      40.375  26.699  28.418  1.00  0.00     0.049 A 
ATOM     16  N   UNL A   1      43.196  27.111  27.491  1.00  0.00    -0.248 NA
ATOM     17  C   UNL A   1      43.145  25.011  26.482  1.00  0.00     0.031 C 
ATOM     18  C   UNL A   1      39.011  26.535  28.927  1.00  0.00     0.029 A 
ATOM     19  N   UNL A   1      40.757  27.930  28.886  1.00  0.00    -0.354 N 
ATOM     20  C   UNL A   1      44.444  26.842  26.939  1.00  0.00     0.074 A 
ATOM     21  C   UNL A   1      44.365  25.518  26.359  1.00  0.00     0.031 C 
ATOM     22  C   UNL A   1      38.654  27.640  29.596  1.00  0.00     0.029 A 
ATOM     23  C   UNL A   1      39.774  28.575  29.600  1.00  0.00     0.049 A 
ATOM     24  H   UNL A   1      41.649  28.314  28.727  1.00  0.00     0.167 HD
ATOM     25  C   UNL A   1      45.545  27.632  26.897  1.00  0.00     0.034 A 
ATOM     26  C   UNL A   1      39.767  29.784  30.193  1.00  0.00     0.034 A 
ATOM     27  C   UNL A   1      45.611  28.964  27.438  1.00  0.00     0.049 A 
ATOM     28  C   UNL A   1      40.978  30.664  30.070  1.00  0.00     0.074 A 
ATOM     29  C   UNL A   1      46.671  29.855  27.409  1.00  0.00     0.029 A 
ATOM     30  N   UNL A   1      44.575  29.603  28.104  1.00  0.00    -0.354 N 
ATOM     31  N   UNL A   1      42.101  30.434  29.435  1.00  0.00    -0.248 NA
ATOM     32  C   UNL A   1      40.910  31.981  30.719  1.00  0.00     0.031 C 
ATOM     33  C   UNL A   1      46.277  31.031  28.058  1.00  0.00     0.029 A 
ATOM     34  C   UNL A   1      44.969  30.876  28.485  1.00  0.00     0.049 A 
ATOM     35  H   UNL A   1      43.690  29.210  28.278  1.00  0.00     0.167 HD
ATOM     36  C   UNL A   1      42.872  31.576  29.604  1.00  0.00     0.074 A 
ATOM     37  C   UNL A   1      42.069  32.516  30.358  1.00  0.00     0.031 C 
ATOM     38  C   UNL A   1      44.144  31.815  29.200  1.00  0.00     0.034 A 
BRANCH  25  39
ATOM     39  C   UNL A   1      46.763  27.107  26.180  1.00  0.00     0.023 A 
ATOM     40  C   UNL A   1      46.883  27.309  24.791  1.00  0.00     0.012 A 
ATOM     41  C   UNL A   1      47.826  26.504  26.884  1.00  0.00     0.148 A 
ATOM     42  C   UNL A   1      48.029  26.904  24.108  1.00  0.00     0.002 A 
ATOM     43  C   UNL A   1      48.982  26.135  26.202  1.00  0.00     0.091 A 
ATOM     44  F   UNL A   1      47.688  26.304  28.201  1.00  0.00    -0.205 F 
ATOM     45  C   UNL A   1      49.082  26.328  24.814  1.00  0.00     0.022 A 
BRANCH  43  46
ATOM     46  S   UNL A   1      50.421  25.449  27.031  1.00  0.00     0.127 S 
ATOM     47  O   UNL A   1      51.332  25.233  25.908  1.00  0.00    -0.237 OA
ATOM     48  O   UNL A   1      50.809  26.538  27.928  1.00  0.00    -0.237 OA
ATOM     49  O   UNL A   1      49.960  24.244  27.705  1.00  0.00    -0.744 OA
ENDBRANCH  43  46
ENDBRANCH  25  39
BRANCH  26  50
ATOM     50  C   UNL A   1      38.542  30.245  30.903  1.00  0.00     0.023 A 
ATOM     51  C   UNL A   1      38.424  30.049  32.292  1.00  0.00     0.012 A 
ATOM     52  C   UNL A   1      37.523  30.934  30.219  1.00  0.00     0.148 A 
ATOM     53  C   UNL A   1      37.303  30.515  32.982  1.00  0.00     0.002 A 
ATOM     54  C   UNL A   1      36.442  31.453  30.922  1.00  0.00     0.091 A 
ATOM     55  F   UNL A   1      37.637  31.091  28.892  1.00  0.00    -0.205 F 
ATOM     56  C   UNL A   1      36.321  31.230  32.301  1.00  0.00     0.022 A 
BRANCH  54  57
ATOM     57  S   UNL A   1      35.241  32.524  30.125  1.00  0.00     0.127 S 
ATOM     58  O   UNL A   1      34.318  32.810  31.219  1.00  0.00    -0.237 OA
ATOM     59  O   UNL A   1      36.064  33.657  29.700  1.00  0.00    -0.237 OA
ATOM     60  O   UNL A   1      34.711  31.733  29.021  1.00  0.00    -0.744 OA
ENDBRANCH  54  57
ENDBRANCH  26  50
BRANCH  38  61
ATOM     61  C   UNL A   1      44.746  33.141  29.579  1.00  0.00     0.023 A 
ATOM     62  C   UNL A   1      45.472  33.247  30.784  1.00  0.00     0.012 A 
ATOM     63  C   UNL A   1      44.631  34.264  28.740  1.00  0.00     0.148 A 
ATOM     64  C   UNL A   1      46.042  34.461  31.163  1.00  0.00     0.002 A 
ATOM     65  C   UNL A   1      45.237  35.462  29.107  1.00  0.00     0.091 A 
ATOM     66  F   UNL A   1      43.918  34.153  27.611  1.00  0.00    -0.205 F 
ATOM     67  C   UNL A   1      45.932  35.565  30.322  1.00  0.00     0.022 A 
BRANCH  65  68
ATOM     68  S   UNL A   1      45.207  36.906  28.040  1.00  0.00     0.127 S 
ATOM     69  O   UNL A   1      46.035  37.849  28.788  1.00  0.00    -0.237 OA
ATOM     70  O   UNL A   1      45.817  36.404  26.807  1.00  0.00    -0.237 OA
ATOM     71  O   UNL A   1      43.801  37.264  27.907  1.00  0.00    -0.744 OA
ENDBRANCH  65  68
ENDBRANCH  38  61
ENDBRANCH  12  13
ENDBRANCH   5   7
ENDBRANCH   2   3
ENDBRANCH   1   2
BRANCH   1  72
ATOM     72  C   UNL A   1      34.124  22.256  23.508  1.00  0.00     0.023 C 
BRANCH  72  73
ATOM     73  C   UNL A   1      32.943  22.646  22.629  1.00  0.00     0.116 C 
BRANCH  73  74
ATOM     74  N   UNL A   1      33.081  23.889  21.898  1.00  0.00    -0.356 N 
ATOM     75  C   UNL A   1      33.088  25.156  22.431  1.00  0.00     0.228 C 
ATOM     76  H   UNL A   1      33.180  23.820  20.920  1.00  0.00     0.163 HD
ATOM     77  O   UNL A   1      33.711  26.026  21.817  1.00  0.00    -0.274 OA
BRANCH  75  78
ATOM     78  C   UNL A   1      32.287  25.476  23.718  1.00  0.00     0.120 C 
BRANCH  78  79
ATOM     79  C   UNL A   1      33.225  25.742  24.963  1.00  0.00     0.066 C 
BRANCH  79  80
ATOM     80  C   UNL A   1      33.004  27.066  25.752  1.00  0.00    -0.039 A 
ATOM     81  C   UNL A   1      33.820  28.201  25.629  1.00  0.00     0.004 A 
ATOM     82  C   UNL A   1      31.946  27.146  26.685  1.00  0.00     0.004 A 
ATOM     83  C   UNL A   1      33.588  29.357  26.386  1.00  0.00     0.000 A 
ATOM     84  C   UNL A   1      31.681  28.317  27.403  1.00  0.00     0.000 A 
ATOM     85  C   UNL A   1      32.509  29.422  27.259  1.00  0.00     0.000 A 
ENDBRANCH  79  80
BRANCH  79  86
ATOM     86  C   UNL A   1      33.246  24.530  25.918  1.00  0.00    -0.039 A 
ATOM     87  C   UNL A   1      34.441  24.041  26.480  1.00  0.00     0.004 A 
ATOM     88  C   UNL A   1      32.041  23.879  26.236  1.00  0.00     0.004 A 
ATOM     89  C   UNL A   1      34.429  22.928  27.325  1.00  0.00     0.000 A 
ATOM     90  C   UNL A   1      32.031  22.774  27.089  1.00  0.00     0.000 A 
ATOM     91  C   UNL A   1      33.223  22.298  27.631  1.00  0.00     0.000 A 
ENDBRANCH  79  86
ENDBRANCH  78  79
BRANCH  78  92
ATOM     92  C   UNL A   1      31.307  26.615  23.360  1.00  0.00    -0.035 A 
ATOM     93  C   UNL A   1      29.946  26.474  23.690  1.00  0.00     0.004 A 
ATOM     94  C   UNL A   1      31.708  27.790  22.702  1.00  0.00     0.004 A 
ATOM     95  C   UNL A   1      29.032  27.496  23.419  1.00  0.00     0.000 A 
ATOM     96  C   UNL A   1      30.795  28.816  22.444  1.00  0.00     0.000 A 
ATOM     97  C   UNL A   1      29.459  28.672  22.809  1.00  0.00     0.000 A 
ENDBRANCH  78  92
ENDBRANCH  75  78
ENDBRANCH  73  74
ENDBRANCH  72  73
ENDBRANCH   1  72
TORSDOF 18
ENDMDL
MODEL 3
REMARK VINA RESULT:     -12.5      4.995     10.020
REMARK SMILES O=C(NCCCCNC(=O)[C@H](c1ccccc1)C(c1ccccc1)c1ccccc1)c1ccc(-c2c3nc(c(-c4cccc(S(=O)(=O)[O-])c4F)c4ccc([nH]4)c(-c4cccc(S(=O)(=O)[O-])c4F)c4nc(c(-c5cccc(S(=O)(=O)[O-])c5F)c5ccc2[nH]5)C=C4)C=C3)cc1
REMARK SMILES IDX 5 1 4 2 3 3 1 4 2 5 31 7 32 8 93 9 33 10 92 11 34 12 35 13
REMARK SMILES IDX 36 14 86 15 37 16 91 17 85 18 87 19 38 20 90 21 84 22 83 23
REMARK SMILES IDX 39 25 71 26 51 27 70 28 52 29 55 30 69 31 88 32 53 33 54 34
REMARK SMILES IDX 68 36 89 37 56 38 40 39 41 40 49 41 42 42 44 43 50 44 43 45
REMARK SMILES IDX 45 46 46 47 47 48 48 49 72 50 73 51 81 52 74 53 76 54 82 55
REMARK SMILES IDX 75 56 77 57 78 58 79 59 80 60 57 61 58 62 66 63 59 64 61 65
REMARK SMILES IDX 67 66 60 67 62 68 63 69 64 70 65 71 6 72 7 73 8 74 9 75
REMARK SMILES IDX 10 77 11 78 18 79 19 80 20 81 24 82 21 83 23 84 22 85 25 86
REMARK SMILES IDX 26 87 30 88 27 89 29 90 28 91 12 92 13 93 17 94 14 95 16 96
REMARK SMILES IDX 15 97
REMARK H PARENT 3 6 87 24 55 35 8 76
REMARK Flexibility Score: inf
ROOT
ATOM      1  C   UNL A   1      35.496  21.844  24.307  1.00  0.00     0.023 C 
ENDROOT
BRANCH   1   2
ATOM      2  C   UNL A   1      36.605  22.061  25.332  1.00  0.00     0.116 C 
BRANCH   2   3
ATOM      3  N   UNL A   1      37.625  21.023  25.344  1.00  0.00    -0.352 N 
ATOM      4  O   UNL A   1      39.641  20.077  25.711  1.00  0.00    -0.269 OA
ATOM      5  C   UNL A   1      38.914  21.056  25.837  1.00  0.00     0.251 C 
ATOM      6  H   UNL A   1      37.354  20.168  24.940  1.00  0.00     0.163 HD
BRANCH   5   7
ATOM      7  C   UNL A   1      39.428  22.290  26.479  1.00  0.00     0.039 A 
ATOM      8  C   UNL A   1      38.959  23.543  26.085  1.00  0.00     0.014 A 
ATOM      9  C   UNL A   1      40.420  22.196  27.460  1.00  0.00     0.014 A 
ATOM     10  C   UNL A   1      39.623  24.689  26.508  1.00  0.00     0.010 A 
ATOM     11  C   UNL A   1      41.020  23.359  27.961  1.00  0.00     0.010 A 
ATOM     12  C   UNL A   1      40.669  24.616  27.445  1.00  0.00    -0.014 A 
BRANCH  12  13
ATOM     13  C   UNL A   1      41.338  25.875  27.873  1.00  0.00     0.031 A 
ATOM     14  C   UNL A   1      42.742  26.216  27.442  1.00  0.00     0.074 A 
ATOM     15  C   UNL A   1      40.637  26.755  28.617  1.00  0.00     0.049 A 
ATOM     16  N   UNL A   1      43.414  27.324  27.638  1.00  0.00    -0.248 NA
ATOM     17  C   UNL A   1      43.495  25.189  26.706  1.00  0.00     0.031 C 
ATOM     18  C   UNL A   1      39.294  26.518  29.150  1.00  0.00     0.029 A 
ATOM     19  N   UNL A   1      40.940  28.026  29.035  1.00  0.00    -0.354 N 
ATOM     20  C   UNL A   1      44.671  27.120  27.078  1.00  0.00     0.074 A 
ATOM     21  C   UNL A   1      44.676  25.773  26.548  1.00  0.00     0.031 C 
ATOM     22  C   UNL A   1      38.870  27.621  29.783  1.00  0.00     0.029 A 
ATOM     23  C   UNL A   1      39.923  28.629  29.738  1.00  0.00     0.049 A 
ATOM     24  H   UNL A   1      41.802  28.464  28.849  1.00  0.00     0.167 HD
ATOM     25  C   UNL A   1      45.714  27.981  26.993  1.00  0.00     0.034 A 
ATOM     26  C   UNL A   1      39.840  29.856  30.287  1.00  0.00     0.034 A 
ATOM     27  C   UNL A   1      45.695  29.334  27.485  1.00  0.00     0.049 A 
ATOM     28  C   UNL A   1      40.986  30.811  30.116  1.00  0.00     0.074 A 
ATOM     29  C   UNL A   1      46.692  30.292  27.409  1.00  0.00     0.029 A 
ATOM     30  N   UNL A   1      44.625  29.925  28.140  1.00  0.00    -0.354 N 
ATOM     31  N   UNL A   1      42.115  30.635  29.475  1.00  0.00    -0.248 NA
ATOM     32  C   UNL A   1      40.835  32.143  30.717  1.00  0.00     0.031 C 
ATOM     33  C   UNL A   1      46.225  31.462  28.020  1.00  0.00     0.029 A 
ATOM     34  C   UNL A   1      44.936  31.235  28.470  1.00  0.00     0.049 A 
ATOM     35  H   UNL A   1      43.771  29.479  28.341  1.00  0.00     0.167 HD
ATOM     36  C   UNL A   1      42.808  31.832  29.591  1.00  0.00     0.074 A 
ATOM     37  C   UNL A   1      41.951  32.742  30.322  1.00  0.00     0.031 C 
ATOM     38  C   UNL A   1      44.056  32.141  29.162  1.00  0.00     0.034 A 
BRANCH  25  39
ATOM     39  C   UNL A   1      46.958  27.513  26.279  1.00  0.00     0.023 A 
ATOM     40  C   UNL A   1      47.872  26.686  26.962  1.00  0.00     0.012 A 
ATOM     41  C   UNL A   1      47.178  27.808  24.918  1.00  0.00     0.148 A 
ATOM     42  C   UNL A   1      48.993  26.174  26.311  1.00  0.00     0.002 A 
ATOM     43  C   UNL A   1      48.281  27.265  24.266  1.00  0.00     0.091 A 
ATOM     44  F   UNL A   1      46.309  28.611  24.289  1.00  0.00    -0.205 F 
ATOM     45  C   UNL A   1      49.192  26.454  24.961  1.00  0.00     0.022 A 
BRANCH  43  46
ATOM     46  S   UNL A   1      48.588  27.509  22.511  1.00  0.00     0.127 S 
ATOM     47  O   UNL A   1      49.876  28.201  22.532  1.00  0.00    -0.237 OA
ATOM     48  O   UNL A   1      48.644  26.134  22.014  1.00  0.00    -0.237 OA
ATOM     49  O   UNL A   1      47.465  28.289  22.012  1.00  0.00    -0.744 OA
ENDBRANCH  43  46
ENDBRANCH  25  39
BRANCH  26  50
ATOM     50  C   UNL A   1      38.594  30.258  30.996  1.00  0.00     0.023 A 
ATOM     51  C   UNL A   1      38.438  29.954  32.362  1.00  0.00     0.012 A 
ATOM     52  C   UNL A   1      37.592  30.998  30.340  1.00  0.00     0.148 A 
ATOM     53  C   UNL A   1      37.297  30.364  33.054  1.00  0.00     0.002 A 
ATOM     54  C   UNL A   1      36.490  31.459  31.051  1.00  0.00     0.091 A 
ATOM     55  F   UNL A   1      37.742  31.259  29.033  1.00  0.00    -0.205 F 
ATOM     56  C   UNL A   1      36.332  31.129  32.404  1.00  0.00     0.022 A 
BRANCH  54  57
ATOM     57  S   UNL A   1      35.308  32.589  30.307  1.00  0.00     0.127 S 
ATOM     58  O   UNL A   1      34.808  31.805  29.182  1.00  0.00    -0.237 OA
ATOM     59  O   UNL A   1      34.347  32.795  31.391  1.00  0.00    -0.237 OA
ATOM     60  O   UNL A   1      36.086  33.776  29.974  1.00  0.00    -0.744 OA
ENDBRANCH  54  57
ENDBRANCH  26  50
BRANCH  38  61
ATOM     61  C   UNL A   1      44.571  33.519  29.484  1.00  0.00     0.023 A 
ATOM     62  C   UNL A   1      45.385  33.699  30.622  1.00  0.00     0.012 A 
ATOM     63  C   UNL A   1      44.286  34.619  28.655  1.00  0.00     0.148 A 
ATOM     64  C   UNL A   1      45.877  34.961  30.948  1.00  0.00     0.002 A 
ATOM     65  C   UNL A   1      44.814  35.868  28.966  1.00  0.00     0.091 A 
ATOM     66  F   UNL A   1      43.491  34.435  27.592  1.00  0.00    -0.205 F 
ATOM     67  C   UNL A   1      45.599  36.044  30.116  1.00  0.00     0.022 A 
BRANCH  65  68
ATOM     68  S   UNL A   1      44.566  37.294  27.902  1.00  0.00     0.127 S 
ATOM     69  O   UNL A   1      45.168  36.841  26.649  1.00  0.00    -0.237 OA
ATOM     70  O   UNL A   1      43.108  37.416  27.867  1.00  0.00    -0.237 OA
ATOM     71  O   UNL A   1      45.243  38.399  28.566  1.00  0.00    -0.744 OA
ENDBRANCH  65  68
ENDBRANCH  38  61
ENDBRANCH  12  13
ENDBRANCH   5   7
ENDBRANCH   2   3
ENDBRANCH   1   2
BRANCH   1  72
ATOM     72  C   UNL A   1      35.263  22.956  23.285  1.00  0.00     0.023 C 
BRANCH  72  73
ATOM     73  C   UNL A   1      33.819  23.189  22.863  1.00  0.00     0.116 C 
BRANCH  73  74
ATOM     74  N   UNL A   1      33.585  24.335  22.009  1.00  0.00    -0.356 N 
ATOM     75  C   UNL A   1      33.167  25.582  22.409  1.00  0.00     0.228 C 
ATOM     76  H   UNL A   1      33.740  24.208  21.045  1.00  0.00     0.163 HD
ATOM     77  O   UNL A   1      33.506  26.544  21.713  1.00  0.00    -0.274 OA
BRANCH  75  78
ATOM     78  C   UNL A   1      32.254  25.751  23.649  1.00  0.00     0.120 C 
BRANCH  78  79
ATOM     79  C   UNL A   1      33.077  25.866  24.993  1.00  0.00     0.066 C 
BRANCH  79  80
ATOM     80  C   UNL A   1      32.896  27.167  25.830  1.00  0.00    -0.039 A 
ATOM     81  C   UNL A   1      31.764  27.449  26.611  1.00  0.00     0.004 A 
ATOM     82  C   UNL A   1      33.901  28.159  25.792  1.00  0.00     0.004 A 
ATOM     83  C   UNL A   1      31.645  28.649  27.324  1.00  0.00     0.000 A 
ATOM     84  C   UNL A   1      33.807  29.335  26.544  1.00  0.00     0.000 A 
ATOM     85  C   UNL A   1      32.673  29.584  27.304  1.00  0.00     0.000 A 
ENDBRANCH  79  80
BRANCH  79  86
ATOM     86  C   UNL A   1      32.886  24.615  25.876  1.00  0.00    -0.039 A 
ATOM     87  C   UNL A   1      33.938  24.072  26.640  1.00  0.00     0.004 A 
ATOM     88  C   UNL A   1      31.632  23.982  25.917  1.00  0.00     0.004 A 
ATOM     89  C   UNL A   1      33.739  22.924  27.412  1.00  0.00     0.000 A 
ATOM     90  C   UNL A   1      31.434  22.842  26.700  1.00  0.00     0.000 A 
ATOM     91  C   UNL A   1      32.486  22.312  27.444  1.00  0.00     0.000 A 
ENDBRANCH  79  86
ENDBRANCH  78  79
BRANCH  78  92
ATOM     92  C   UNL A   1      31.299  26.926  23.341  1.00  0.00    -0.035 A 
ATOM     93  C   UNL A   1      29.913  26.740  23.499  1.00  0.00     0.004 A 
ATOM     94  C   UNL A   1      31.750  28.179  22.893  1.00  0.00     0.004 A 
ATOM     95  C   UNL A   1      29.018  27.788  23.270  1.00  0.00     0.000 A 
ATOM     96  C   UNL A   1      30.854  29.229  22.677  1.00  0.00     0.000 A 
ATOM     97  C   UNL A   1      29.489  29.036  22.872  1.00  0.00     0.000 A 
ENDBRANCH  78  92
ENDBRANCH  75  78
ENDBRANCH  73  74
ENDBRANCH  72  73
ENDBRANCH   1  72
TORSDOF 18
ENDMDL
