MODEL 1
REMARK VINA RESULT:     -11.8      0.000      0.000
REMARK SMILES C[C@@H](Nc1cccc(C(=O)NCCCCNC(=O)c2ccc(-c3c4nc(c(-c5cccc(S(=O)(=O)[O-])c5F)c5ccc([nH]5)c(-c5cccc(S(=O)(=O)[O-])c5F)c5nc(c(-c6cccc(S(=O)(=O)[O-])c6F)c6ccc3[nH]6)C=C5)C=C4)cc2)c1)C1CC[NH+](C)CC1
REMARK SMILES IDX 13 1 12 2 11 3 9 4 10 5 8 7 4 8 5 9 82 10 6 11 7 12 3 13
REMARK SMILES IDX 2 15 1 16 83 17 84 18 89 19 85 20 88 21 86 22 87 23 14 25
REMARK SMILES IDX 15 26 16 27 17 28 18 30 19 31 20 32 81 33 21 34 80 35 22 36
REMARK SMILES IDX 23 37 24 38 74 39 25 40 79 41 73 42 75 43 26 44 78 45 72 46
REMARK SMILES IDX 71 47 27 49 59 50 39 51 58 52 40 53 43 54 57 55 76 56 41 57
REMARK SMILES IDX 42 58 56 60 77 61 44 62 28 63 29 64 37 65 30 66 32 67 38 68
REMARK SMILES IDX 31 69 33 70 34 71 35 72 36 73 60 74 61 75 69 76 62 77 64 78
REMARK SMILES IDX 70 79 63 80 65 81 66 82 67 83 68 84 45 85 46 86 54 87 47 88
REMARK SMILES IDX 49 89 55 90 48 91 50 92 51 93 52 94 53 95
REMARK H PARENT 11 6 3 14 86 24 16 29 75 48 43 59
REMARK Flexibility Score: inf
ROOT
ATOM      1  C   UNL A   1      34.447  20.621  25.965  1.00  0.00     0.023 C 
ENDROOT
BRANCH   1   2
ATOM      2  C   UNL A   1      33.782  21.526  27.040  1.00  0.00     0.116 C 
BRANCH   2   3
ATOM      3  N   UNL A   1      32.386  21.984  26.679  1.00  0.00    -0.352 N 
ATOM      4  C   UNL A   1      31.541  22.684  25.827  1.00  0.00     0.251 C 
ATOM      5  O   UNL A   1      30.349  22.402  26.051  1.00  0.00    -0.269 OA
ATOM      6  H   UNL A   1      31.801  21.609  27.375  1.00  0.00     0.163 HD
BRANCH   4   7
ATOM      7  C   UNL A   1      31.716  23.665  24.673  1.00  0.00     0.041 A 
ATOM      8  C   UNL A   1      31.046  25.522  23.118  1.00  0.00     0.035 A 
ATOM      9  C   UNL A   1      32.112  25.185  22.287  1.00  0.00     0.026 A 
ATOM     10  C   UNL A   1      30.829  24.651  24.205  1.00  0.00     0.039 A 
ATOM     11  C   UNL A   1      32.946  24.109  22.593  1.00  0.00     0.003 A 
ATOM     12  C   UNL A   1      32.776  23.396  23.791  1.00  0.00     0.014 A 
BRANCH   8  13
ATOM     13  N   UNL A   1      30.365  26.705  22.869  1.00  0.00    -0.382 N 
ATOM     14  H   UNL A   1      29.962  26.731  21.971  1.00  0.00     0.160 HD
BRANCH  13  15
ATOM     15  C   UNL A   1      30.108  27.938  23.651  1.00  0.00     0.079 C 
ATOM     16  C   UNL A   1      28.792  28.535  23.074  1.00  0.00     0.031 C 
BRANCH  15  17
ATOM     17  C   UNL A   1      31.126  29.131  23.583  1.00  0.00     0.022 C 
ATOM     18  C   UNL A   1      32.510  28.843  23.021  1.00  0.00     0.067 C 
ATOM     19  C   UNL A   1      31.353  29.773  24.990  1.00  0.00     0.067 C 
ATOM     20  C   UNL A   1      33.464  28.322  24.103  1.00  0.00     0.262 C 
ATOM     21  C   UNL A   1      31.968  28.789  25.991  1.00  0.00     0.262 C 
ATOM     22  N   UNL A   1      32.764  27.825  25.282  1.00  0.00    -0.337 N 
ATOM     23  C   UNL A   1      33.223  26.691  26.070  1.00  0.00     0.332 C 
ATOM     24  H   UNL A   1      32.157  27.236  24.712  1.00  0.00     0.347 HD
ENDBRANCH  15  17
ENDBRANCH  13  15
ENDBRANCH   8  13
ENDBRANCH   4   7
ENDBRANCH   2   3
ENDBRANCH   1   2
BRANCH   1  25
ATOM     25  C   UNL A   1      35.457  21.173  24.950  1.00  0.00     0.023 C 
BRANCH  25  26
ATOM     26  C   UNL A   1      36.738  21.816  25.491  1.00  0.00     0.116 C 
BRANCH  26  27
ATOM     27  N   UNL A   1      37.946  20.982  25.481  1.00  0.00    -0.352 N 
ATOM     28  C   UNL A   1      39.208  21.226  26.018  1.00  0.00     0.251 C 
ATOM     29  H   UNL A   1      37.848  20.114  25.025  1.00  0.00     0.163 HD
ATOM     30  O   UNL A   1      40.088  20.388  25.922  1.00  0.00    -0.269 OA
BRANCH  28  31
ATOM     31  C   UNL A   1      39.507  22.538  26.664  1.00  0.00     0.039 A 
ATOM     32  C   UNL A   1      40.476  22.610  27.673  1.00  0.00     0.014 A 
ATOM     33  C   UNL A   1      38.890  23.705  26.225  1.00  0.00     0.014 A 
ATOM     34  C   UNL A   1      40.927  23.862  28.122  1.00  0.00     0.010 A 
ATOM     35  C   UNL A   1      39.420  24.942  26.582  1.00  0.00     0.010 A 
ATOM     36  C   UNL A   1      40.458  25.042  27.523  1.00  0.00    -0.014 A 
BRANCH  36  37
ATOM     37  C   UNL A   1      41.042  26.383  27.822  1.00  0.00     0.031 A 
ATOM     38  C   UNL A   1      42.489  26.670  27.501  1.00  0.00     0.074 A 
ATOM     39  C   UNL A   1      40.324  27.297  28.510  1.00  0.00     0.049 A 
ATOM     40  N   UNL A   1      43.212  27.719  27.801  1.00  0.00    -0.248 NA
ATOM     41  C   UNL A   1      43.235  25.619  26.789  1.00  0.00     0.031 C 
ATOM     42  C   UNL A   1      38.948  27.118  28.982  1.00  0.00     0.029 A 
ATOM     43  N   UNL A   1      40.664  28.549  28.966  1.00  0.00    -0.354 N 
ATOM     44  C   UNL A   1      44.501  27.432  27.366  1.00  0.00     0.074 A 
ATOM     45  C   UNL A   1      44.472  26.093  26.822  1.00  0.00     0.031 C 
ATOM     46  C   UNL A   1      38.560  28.220  29.646  1.00  0.00     0.029 A 
ATOM     47  C   UNL A   1      39.663  29.174  29.678  1.00  0.00     0.049 A 
ATOM     48  H   UNL A   1      41.541  28.963  28.797  1.00  0.00     0.167 HD
ATOM     49  C   UNL A   1      45.602  28.220  27.379  1.00  0.00     0.034 A 
ATOM     50  C   UNL A   1      39.636  30.375  30.293  1.00  0.00     0.034 A 
ATOM     51  C   UNL A   1      45.617  29.578  27.850  1.00  0.00     0.049 A 
ATOM     52  C   UNL A   1      40.848  31.265  30.219  1.00  0.00     0.074 A 
ATOM     53  C   UNL A   1      46.653  30.494  27.803  1.00  0.00     0.029 A 
ATOM     54  N   UNL A   1      44.544  30.217  28.450  1.00  0.00    -0.354 N 
ATOM     55  N   UNL A   1      42.007  31.035  29.650  1.00  0.00    -0.248 NA
ATOM     56  C   UNL A   1      40.737  32.595  30.836  1.00  0.00     0.031 C 
ATOM     57  C   UNL A   1      46.210  31.684  28.388  1.00  0.00     0.029 A 
ATOM     58  C   UNL A   1      44.891  31.516  28.778  1.00  0.00     0.049 A 
ATOM     59  H   UNL A   1      43.664  29.808  28.618  1.00  0.00     0.167 HD
ATOM     60  C   UNL A   1      42.745  32.204  29.803  1.00  0.00     0.074 A 
ATOM     61  C   UNL A   1      41.897  33.146  30.501  1.00  0.00     0.031 C 
ATOM     62  C   UNL A   1      44.016  32.467  29.413  1.00  0.00     0.034 A 
BRANCH  49  63
ATOM     63  C   UNL A   1      46.872  27.656  26.793  1.00  0.00     0.023 A 
ATOM     64  C   UNL A   1      47.778  26.971  27.630  1.00  0.00     0.012 A 
ATOM     65  C   UNL A   1      47.146  27.753  25.414  1.00  0.00     0.148 A 
ATOM     66  C   UNL A   1      48.954  26.430  27.114  1.00  0.00     0.002 A 
ATOM     67  C   UNL A   1      48.297  27.169  24.899  1.00  0.00     0.091 A 
ATOM     68  F   UNL A   1      46.283  28.423  24.636  1.00  0.00    -0.205 F 
ATOM     69  C   UNL A   1      49.208  26.519  25.749  1.00  0.00     0.022 A 
BRANCH  67  70
ATOM     70  S   UNL A   1      48.678  27.156  23.143  1.00  0.00     0.127 S 
ATOM     71  O   UNL A   1      47.863  28.268  22.657  1.00  0.00    -0.237 OA
ATOM     72  O   UNL A   1      50.119  27.409  23.140  1.00  0.00    -0.237 OA
ATOM     73  O   UNL A   1      48.291  25.839  22.659  1.00  0.00    -0.744 OA
ENDBRANCH  67  70
ENDBRANCH  49  63
BRANCH  50  74
ATOM     74  C   UNL A   1      38.387  30.848  30.960  1.00  0.00     0.023 A 
ATOM     75  C   UNL A   1      38.219  30.625  32.342  1.00  0.00     0.012 A 
ATOM     76  C   UNL A   1      37.376  31.521  30.248  1.00  0.00     0.148 A 
ATOM     77  C   UNL A   1      37.053  31.031  32.994  1.00  0.00     0.002 A 
ATOM     78  C   UNL A   1      36.241  31.971  30.916  1.00  0.00     0.091 A 
ATOM     79  F   UNL A   1      37.546  31.713  28.933  1.00  0.00    -0.205 F 
ATOM     80  C   UNL A   1      36.069  31.712  32.284  1.00  0.00     0.022 A 
BRANCH  78  81
ATOM     81  S   UNL A   1      34.982  32.968  30.110  1.00  0.00     0.127 S 
ATOM     82  O   UNL A   1      34.446  32.034  29.124  1.00  0.00    -0.237 OA
ATOM     83  O   UNL A   1      34.081  33.274  31.222  1.00  0.00    -0.237 OA
ATOM     84  O   UNL A   1      35.684  34.126  29.573  1.00  0.00    -0.744 OA
ENDBRANCH  78  81
ENDBRANCH  50  74
BRANCH  62  85
ATOM     85  C   UNL A   1      44.564  33.844  29.682  1.00  0.00     0.023 A 
ATOM     86  C   UNL A   1      45.157  34.133  30.927  1.00  0.00     0.012 A 
ATOM     87  C   UNL A   1      44.565  34.825  28.671  1.00  0.00     0.148 A 
ATOM     88  C   UNL A   1      45.713  35.388  31.172  1.00  0.00     0.002 A 
ATOM     89  C   UNL A   1      45.164  36.056  28.905  1.00  0.00     0.091 A 
ATOM     90  F   UNL A   1      43.978  34.537  27.499  1.00  0.00    -0.205 F 
ATOM     91  C   UNL A   1      45.729  36.344  30.157  1.00  0.00     0.022 A 
BRANCH  89  92
ATOM     92  S   UNL A   1      45.317  37.308  27.624  1.00  0.00     0.127 S 
ATOM     93  O   UNL A   1      46.039  38.366  28.328  1.00  0.00    -0.237 OA
ATOM     94  O   UNL A   1      46.099  36.613  26.601  1.00  0.00    -0.237 OA
ATOM     95  O   UNL A   1      43.957  37.636  27.222  1.00  0.00    -0.744 OA
ENDBRANCH  89  92
ENDBRANCH  62  85
ENDBRANCH  36  37
ENDBRANCH  28  31
ENDBRANCH  26  27
ENDBRANCH  25  26
ENDBRANCH   1  25
TORSDOF 17
ENDMDL
MODEL 2
REMARK VINA RESULT:     -11.7      5.770      8.921
REMARK SMILES C[C@@H](Nc1cccc(C(=O)NCCCCNC(=O)c2ccc(-c3c4nc(c(-c5cccc(S(=O)(=O)[O-])c5F)c5ccc([nH]5)c(-c5cccc(S(=O)(=O)[O-])c5F)c5nc(c(-c6cccc(S(=O)(=O)[O-])c6F)c6ccc3[nH]6)C=C5)C=C4)cc2)c1)C1CC[NH+](C)CC1
REMARK SMILES IDX 13 1 12 2 11 3 9 4 10 5 8 7 4 8 5 9 82 10 6 11 7 12 3 13
REMARK SMILES IDX 2 15 1 16 83 17 84 18 89 19 85 20 88 21 86 22 87 23 14 25
REMARK SMILES IDX 15 26 16 27 17 28 18 30 19 31 20 32 81 33 21 34 80 35 22 36
REMARK SMILES IDX 23 37 24 38 74 39 25 40 79 41 73 42 75 43 26 44 78 45 72 46
REMARK SMILES IDX 71 47 27 49 59 50 39 51 58 52 40 53 43 54 57 55 76 56 41 57
REMARK SMILES IDX 42 58 56 60 77 61 44 62 28 63 29 64 37 65 30 66 32 67 38 68
REMARK SMILES IDX 31 69 33 70 34 71 35 72 36 73 60 74 61 75 69 76 62 77 64 78
REMARK SMILES IDX 70 79 63 80 65 81 66 82 67 83 68 84 45 85 46 86 54 87 47 88
REMARK SMILES IDX 49 89 55 90 48 91 50 92 51 93 52 94 53 95
REMARK H PARENT 11 6 3 14 86 24 16 29 75 48 43 59
REMARK Flexibility Score: inf
ROOT
ATOM      1  C   UNL A   1      35.002  30.628  28.045  1.00  0.00     0.023 C 
ENDROOT
BRANCH   1   2
ATOM      2  C   UNL A   1      34.785  29.175  27.535  1.00  0.00     0.116 C 
BRANCH   2   3
ATOM      3  N   UNL A   1      33.353  28.698  27.635  1.00  0.00    -0.352 N 
ATOM      4  C   UNL A   1      32.335  27.871  27.179  1.00  0.00     0.251 C 
ATOM      5  O   UNL A   1      31.379  27.858  27.977  1.00  0.00    -0.269 OA
ATOM      6  H   UNL A   1      32.955  29.218  28.370  1.00  0.00     0.163 HD
BRANCH   4   7
ATOM      7  C   UNL A   1      32.122  26.955  25.978  1.00  0.00     0.041 A 
ATOM      8  C   UNL A   1      32.752  25.212  24.281  1.00  0.00     0.035 A 
ATOM      9  C   UNL A   1      31.635  25.568  23.529  1.00  0.00     0.026 A 
ATOM     10  C   UNL A   1      33.006  26.023  25.406  1.00  0.00     0.039 A 
ATOM     11  C   UNL A   1      30.792  26.601  23.943  1.00  0.00     0.003 A 
ATOM     12  C   UNL A   1      31.010  27.246  25.171  1.00  0.00     0.014 A 
BRANCH   8  13
ATOM     13  N   UNL A   1      33.447  24.065  23.926  1.00  0.00    -0.382 N 
ATOM     14  H   UNL A   1      33.157  23.696  23.060  1.00  0.00     0.160 HD
BRANCH  13  15
ATOM     15  C   UNL A   1      34.528  23.269  24.556  1.00  0.00     0.079 C 
ATOM     16  C   UNL A   1      35.730  23.338  23.570  1.00  0.00     0.031 C 
BRANCH  15  17
ATOM     17  C   UNL A   1      34.325  21.733  24.799  1.00  0.00     0.022 C 
ATOM     18  C   UNL A   1      33.051  21.098  24.261  1.00  0.00     0.067 C 
ATOM     19  C   UNL A   1      34.378  21.380  26.321  1.00  0.00     0.067 C 
ATOM     20  C   UNL A   1      31.891  21.228  25.255  1.00  0.00     0.262 C 
ATOM     21  C   UNL A   1      33.256  22.054  27.119  1.00  0.00     0.262 C 
ATOM     22  N   UNL A   1      32.120  22.258  26.262  1.00  0.00    -0.337 N 
ATOM     23  C   UNL A   1      31.064  23.094  26.811  1.00  0.00     0.332 C 
ATOM     24  H   UNL A   1      32.352  22.948  25.547  1.00  0.00     0.347 HD
ENDBRANCH  15  17
ENDBRANCH  13  15
ENDBRANCH   8  13
ENDBRANCH   4   7
ENDBRANCH   2   3
ENDBRANCH   1   2
BRANCH   1  25
ATOM     25  C   UNL A   1      33.830  31.584  28.296  1.00  0.00     0.023 C 
BRANCH  25  26
ATOM     26  C   UNL A   1      33.485  32.599  27.201  1.00  0.00     0.116 C 
BRANCH  26  27
ATOM     27  N   UNL A   1      32.813  33.830  27.635  1.00  0.00    -0.352 N 
ATOM     28  C   UNL A   1      33.168  34.744  28.625  1.00  0.00     0.251 C 
ATOM     29  H   UNL A   1      31.983  34.044  27.150  1.00  0.00     0.163 HD
ATOM     30  O   UNL A   1      32.481  35.729  28.825  1.00  0.00    -0.269 OA
BRANCH  28  31
ATOM     31  C   UNL A   1      34.361  34.491  29.486  1.00  0.00     0.039 A 
ATOM     32  C   UNL A   1      34.186  34.092  30.817  1.00  0.00     0.014 A 
ATOM     33  C   UNL A   1      35.648  34.573  28.962  1.00  0.00     0.014 A 
ATOM     34  C   UNL A   1      35.284  33.631  31.560  1.00  0.00     0.010 A 
ATOM     35  C   UNL A   1      36.713  34.007  29.656  1.00  0.00     0.010 A 
ATOM     36  C   UNL A   1      36.547  33.511  30.959  1.00  0.00    -0.014 A 
BRANCH  36  37
ATOM     37  C   UNL A   1      37.701  32.848  31.638  1.00  0.00     0.031 A 
ATOM     38  C   UNL A   1      38.406  31.688  30.977  1.00  0.00     0.074 A 
ATOM     39  C   UNL A   1      38.028  33.185  32.903  1.00  0.00     0.049 A 
ATOM     40  N   UNL A   1      39.335  30.902  31.458  1.00  0.00    -0.248 NA
ATOM     41  C   UNL A   1      37.977  31.335  29.613  1.00  0.00     0.031 C 
ATOM     42  C   UNL A   1      37.364  34.215  33.708  1.00  0.00     0.029 A 
ATOM     43  N   UNL A   1      38.981  32.674  33.753  1.00  0.00    -0.354 N 
ATOM     44  C   UNL A   1      39.561  29.936  30.482  1.00  0.00     0.074 A 
ATOM     45  C   UNL A   1      38.640  30.208  29.401  1.00  0.00     0.031 C 
ATOM     46  C   UNL A   1      37.935  34.266  34.923  1.00  0.00     0.029 A 
ATOM     47  C   UNL A   1      38.985  33.256  35.002  1.00  0.00     0.049 A 
ATOM     48  H   UNL A   1      39.605  31.958  33.493  1.00  0.00     0.167 HD
ATOM     49  C   UNL A   1      40.476  28.938  30.463  1.00  0.00     0.034 A 
ATOM     50  C   UNL A   1      39.743  33.005  36.090  1.00  0.00     0.034 A 
ATOM     51  C   UNL A   1      41.443  28.711  31.502  1.00  0.00     0.049 A 
ATOM     52  C   UNL A   1      40.809  31.944  36.013  1.00  0.00     0.074 A 
ATOM     53  C   UNL A   1      42.481  27.796  31.526  1.00  0.00     0.029 A 
ATOM     54  N   UNL A   1      41.495  29.408  32.698  1.00  0.00    -0.354 N 
ATOM     55  N   UNL A   1      41.116  31.155  35.011  1.00  0.00    -0.248 NA
ATOM     56  C   UNL A   1      41.660  31.766  37.199  1.00  0.00     0.031 C 
ATOM     57  C   UNL A   1      43.153  27.932  32.745  1.00  0.00     0.029 A 
ATOM     58  C   UNL A   1      42.548  28.945  33.469  1.00  0.00     0.049 A 
ATOM     59  H   UNL A   1      40.875  30.126  32.962  1.00  0.00     0.167 HD
ATOM     60  C   UNL A   1      42.219  30.419  35.431  1.00  0.00     0.074 A 
ATOM     61  C   UNL A   1      42.538  30.869  36.770  1.00  0.00     0.031 C 
ATOM     62  C   UNL A   1      42.897  29.447  34.773  1.00  0.00     0.034 A 
BRANCH  49  63
ATOM     63  C   UNL A   1      40.524  28.057  29.240  1.00  0.00     0.023 A 
ATOM     64  C   UNL A   1      39.603  26.997  29.111  1.00  0.00     0.012 A 
ATOM     65  C   UNL A   1      41.440  28.307  28.198  1.00  0.00     0.148 A 
ATOM     66  C   UNL A   1      39.618  26.174  27.986  1.00  0.00     0.002 A 
ATOM     67  C   UNL A   1      41.417  27.512  27.059  1.00  0.00     0.091 A 
ATOM     68  F   UNL A   1      42.321  29.307  28.345  1.00  0.00    -0.205 F 
ATOM     69  C   UNL A   1      40.517  26.437  26.957  1.00  0.00     0.022 A 
BRANCH  67  70
ATOM     70  S   UNL A   1      42.476  27.817  25.640  1.00  0.00     0.127 S 
ATOM     71  O   UNL A   1      42.241  26.620  24.834  1.00  0.00    -0.237 OA
ATOM     72  O   UNL A   1      41.905  29.046  25.088  1.00  0.00    -0.237 OA
ATOM     73  O   UNL A   1      43.825  27.960  26.170  1.00  0.00    -0.744 OA
ENDBRANCH  67  70
ENDBRANCH  49  63
BRANCH  50  74
ATOM     74  C   UNL A   1      39.583  33.831  37.323  1.00  0.00     0.023 A 
ATOM     75  C   UNL A   1      40.157  35.118  37.367  1.00  0.00     0.012 A 
ATOM     76  C   UNL A   1      38.866  33.364  38.441  1.00  0.00     0.148 A 
ATOM     77  C   UNL A   1      40.051  35.909  38.512  1.00  0.00     0.002 A 
ATOM     78  C   UNL A   1      38.717  34.179  39.558  1.00  0.00     0.091 A 
ATOM     79  F   UNL A   1      38.337  32.134  38.387  1.00  0.00    -0.205 F 
ATOM     80  C   UNL A   1      39.323  35.444  39.604  1.00  0.00     0.022 A 
BRANCH  78  81
ATOM     81  S   UNL A   1      37.691  33.716  40.958  1.00  0.00     0.127 S 
ATOM     82  O   UNL A   1      37.485  35.003  41.617  1.00  0.00    -0.237 OA
ATOM     83  O   UNL A   1      36.506  33.166  40.298  1.00  0.00    -0.237 OA
ATOM     84  O   UNL A   1      38.468  32.737  41.706  1.00  0.00    -0.744 OA
ENDBRANCH  78  81
ENDBRANCH  50  74
BRANCH  62  85
ATOM     85  C   UNL A   1      44.087  28.830  35.460  1.00  0.00     0.023 A 
ATOM     86  C   UNL A   1      45.375  29.359  35.245  1.00  0.00     0.012 A 
ATOM     87  C   UNL A   1      43.915  27.779  36.383  1.00  0.00     0.148 A 
ATOM     88  C   UNL A   1      46.478  28.829  35.914  1.00  0.00     0.002 A 
ATOM     89  C   UNL A   1      45.011  27.289  37.082  1.00  0.00     0.091 A 
ATOM     90  F   UNL A   1      42.684  27.276  36.559  1.00  0.00    -0.205 F 
ATOM     91  C   UNL A   1      46.295  27.805  36.841  1.00  0.00     0.022 A 
BRANCH  89  92
ATOM     92  S   UNL A   1      44.852  26.041  38.365  1.00  0.00     0.127 S 
ATOM     93  O   UNL A   1      43.941  26.694  39.303  1.00  0.00    -0.237 OA
ATOM     94  O   UNL A   1      44.270  24.915  37.634  1.00  0.00    -0.237 OA
ATOM     95  O   UNL A   1      46.200  25.804  38.861  1.00  0.00    -0.744 OA
ENDBRANCH  89  92
ENDBRANCH  62  85
ENDBRANCH  36  37
ENDBRANCH  28  31
ENDBRANCH  26  27
ENDBRANCH  25  26
ENDBRANCH   1  25
TORSDOF 17
ENDMDL
MODEL 3
REMARK VINA RESULT:     -11.6      1.756      2.103
REMARK SMILES C[C@@H](Nc1cccc(C(=O)NCCCCNC(=O)c2ccc(-c3c4nc(c(-c5cccc(S(=O)(=O)[O-])c5F)c5ccc([nH]5)c(-c5cccc(S(=O)(=O)[O-])c5F)c5nc(c(-c6cccc(S(=O)(=O)[O-])c6F)c6ccc3[nH]6)C=C5)C=C4)cc2)c1)C1CC[NH+](C)CC1
REMARK SMILES IDX 13 1 12 2 11 3 9 4 10 5 8 7 4 8 5 9 82 10 6 11 7 12 3 13
REMARK SMILES IDX 2 15 1 16 83 17 84 18 89 19 85 20 88 21 86 22 87 23 14 25
REMARK SMILES IDX 15 26 16 27 17 28 18 30 19 31 20 32 81 33 21 34 80 35 22 36
REMARK SMILES IDX 23 37 24 38 74 39 25 40 79 41 73 42 75 43 26 44 78 45 72 46
REMARK SMILES IDX 71 47 27 49 59 50 39 51 58 52 40 53 43 54 57 55 76 56 41 57
REMARK SMILES IDX 42 58 56 60 77 61 44 62 28 63 29 64 37 65 30 66 32 67 38 68
REMARK SMILES IDX 31 69 33 70 34 71 35 72 36 73 60 74 61 75 69 76 62 77 64 78
REMARK SMILES IDX 70 79 63 80 65 81 66 82 67 83 68 84 45 85 46 86 54 87 47 88
REMARK SMILES IDX 49 89 55 90 48 91 50 92 51 93 52 94 53 95
REMARK H PARENT 11 6 3 14 86 24 16 29 75 48 43 59
REMARK Flexibility Score: inf
ROOT
ATOM      1  C   UNL A   1      34.276  20.576  25.902  1.00  0.00     0.023 C 
ENDROOT
BRANCH   1   2
ATOM      2  C   UNL A   1      33.689  21.476  27.026  1.00  0.00     0.116 C 
BRANCH   2   3
ATOM      3  N   UNL A   1      32.304  22.006  26.728  1.00  0.00    -0.352 N 
ATOM      4  C   UNL A   1      31.456  22.742  25.910  1.00  0.00     0.251 C 
ATOM      5  O   UNL A   1      30.263  22.527  26.195  1.00  0.00    -0.269 OA
ATOM      6  H   UNL A   1      31.734  21.669  27.456  1.00  0.00     0.163 HD
BRANCH   4   7
ATOM      7  C   UNL A   1      31.626  23.703  24.739  1.00  0.00     0.041 A 
ATOM      8  C   UNL A   1      30.950  25.533  23.155  1.00  0.00     0.035 A 
ATOM      9  C   UNL A   1      32.010  25.180  22.324  1.00  0.00     0.026 A 
ATOM     10  C   UNL A   1      30.737  24.682  24.258  1.00  0.00     0.039 A 
ATOM     11  C   UNL A   1      32.845  24.108  22.645  1.00  0.00     0.003 A 
ATOM     12  C   UNL A   1      32.680  23.417  23.855  1.00  0.00     0.014 A 
BRANCH   8  13
ATOM     13  N   UNL A   1      30.270  26.713  22.889  1.00  0.00    -0.382 N 
ATOM     14  H   UNL A   1      29.828  26.708  22.009  1.00  0.00     0.160 HD
BRANCH  13  15
ATOM     15  C   UNL A   1      30.058  27.979  23.632  1.00  0.00     0.079 C 
ATOM     16  C   UNL A   1      28.749  28.591  23.055  1.00  0.00     0.031 C 
BRANCH  15  17
ATOM     17  C   UNL A   1      31.106  29.140  23.507  1.00  0.00     0.022 C 
ATOM     18  C   UNL A   1      32.459  28.804  22.900  1.00  0.00     0.067 C 
ATOM     19  C   UNL A   1      31.402  29.798  24.894  1.00  0.00     0.067 C 
ATOM     20  C   UNL A   1      33.437  28.274  23.956  1.00  0.00     0.262 C 
ATOM     21  C   UNL A   1      32.026  28.814  25.889  1.00  0.00     0.262 C 
ATOM     22  N   UNL A   1      32.768  27.816  25.168  1.00  0.00    -0.337 N 
ATOM     23  C   UNL A   1      33.224  26.683  25.958  1.00  0.00     0.332 C 
ATOM     24  H   UNL A   1      32.124  27.236  24.630  1.00  0.00     0.347 HD
ENDBRANCH  15  17
ENDBRANCH  13  15
ENDBRANCH   8  13
ENDBRANCH   4   7
ENDBRANCH   2   3
ENDBRANCH   1   2
BRANCH   1  25
ATOM     25  C   UNL A   1      35.277  21.112  24.871  1.00  0.00     0.023 C 
BRANCH  25  26
ATOM     26  C   UNL A   1      36.594  21.701  25.390  1.00  0.00     0.116 C 
BRANCH  26  27
ATOM     27  N   UNL A   1      37.764  20.815  25.362  1.00  0.00    -0.352 N 
ATOM     28  C   UNL A   1      39.042  21.001  25.885  1.00  0.00     0.251 C 
ATOM     29  H   UNL A   1      37.623  19.954  24.903  1.00  0.00     0.163 HD
ATOM     30  O   UNL A   1      39.883  20.127  25.775  1.00  0.00    -0.269 OA
BRANCH  28  31
ATOM     31  C   UNL A   1      39.405  22.296  26.533  1.00  0.00     0.039 A 
ATOM     32  C   UNL A   1      40.442  22.335  27.474  1.00  0.00     0.014 A 
ATOM     33  C   UNL A   1      38.777  23.481  26.160  1.00  0.00     0.014 A 
ATOM     34  C   UNL A   1      40.942  23.572  27.913  1.00  0.00     0.010 A 
ATOM     35  C   UNL A   1      39.349  24.703  26.502  1.00  0.00     0.010 A 
ATOM     36  C   UNL A   1      40.451  24.769  27.370  1.00  0.00    -0.014 A 
BRANCH  36  37
ATOM     37  C   UNL A   1      41.075  26.096  27.653  1.00  0.00     0.031 A 
ATOM     38  C   UNL A   1      42.509  26.359  27.263  1.00  0.00     0.074 A 
ATOM     39  C   UNL A   1      40.410  27.015  28.385  1.00  0.00     0.049 A 
ATOM     40  N   UNL A   1      43.266  27.391  27.537  1.00  0.00    -0.248 NA
ATOM     41  C   UNL A   1      43.199  25.302  26.504  1.00  0.00     0.031 C 
ATOM     42  C   UNL A   1      39.056  26.858  28.923  1.00  0.00     0.029 A 
ATOM     43  N   UNL A   1      40.796  28.257  28.835  1.00  0.00    -0.354 N 
ATOM     44  C   UNL A   1      44.526  27.085  27.035  1.00  0.00     0.074 A 
ATOM     45  C   UNL A   1      44.444  25.753  26.479  1.00  0.00     0.031 C 
ATOM     46  C   UNL A   1      38.723  27.959  29.617  1.00  0.00     0.029 A 
ATOM     47  C   UNL A   1      39.844  28.892  29.603  1.00  0.00     0.049 A 
ATOM     48  H   UNL A   1      41.671  28.656  28.627  1.00  0.00     0.167 HD
ATOM     49  C   UNL A   1      45.642  27.852  26.999  1.00  0.00     0.034 A 
ATOM     50  C   UNL A   1      39.871  30.086  30.231  1.00  0.00     0.034 A 
ATOM     51  C   UNL A   1      45.706  29.205  27.483  1.00  0.00     0.049 A 
ATOM     52  C   UNL A   1      41.095  30.954  30.105  1.00  0.00     0.074 A 
ATOM     53  C   UNL A   1      46.756  30.101  27.393  1.00  0.00     0.029 A 
ATOM     54  N   UNL A   1      44.677  29.857  28.142  1.00  0.00    -0.354 N 
ATOM     55  N   UNL A   1      42.219  30.709  29.476  1.00  0.00    -0.248 NA
ATOM     56  C   UNL A   1      41.040  32.280  30.740  1.00  0.00     0.031 C 
ATOM     57  C   UNL A   1      46.365  31.293  28.011  1.00  0.00     0.029 A 
ATOM     58  C   UNL A   1      45.065  31.146  28.465  1.00  0.00     0.049 A 
ATOM     59  H   UNL A   1      43.798  29.463  28.350  1.00  0.00     0.167 HD
ATOM     60  C   UNL A   1      42.986  31.862  29.603  1.00  0.00     0.074 A 
ATOM     61  C   UNL A   1      42.192  32.813  30.353  1.00  0.00     0.031 C 
ATOM     62  C   UNL A   1      44.241  32.106  29.153  1.00  0.00     0.034 A 
BRANCH  49  63
ATOM     63  C   UNL A   1      46.870  27.271  26.346  1.00  0.00     0.023 A 
ATOM     64  C   UNL A   1      47.083  27.472  24.966  1.00  0.00     0.012 A 
ATOM     65  C   UNL A   1      47.836  26.575  27.099  1.00  0.00     0.148 A 
ATOM     66  C   UNL A   1      48.215  26.956  24.338  1.00  0.00     0.002 A 
ATOM     67  C   UNL A   1      48.986  26.105  26.476  1.00  0.00     0.091 A 
ATOM     68  F   UNL A   1      47.609  26.377  28.406  1.00  0.00    -0.205 F 
ATOM     69  C   UNL A   1      49.170  26.282  25.093  1.00  0.00     0.022 A 
BRANCH  67  70
ATOM     70  S   UNL A   1      50.316  25.296  27.372  1.00  0.00     0.127 S 
ATOM     71  O   UNL A   1      49.638  24.115  27.904  1.00  0.00    -0.237 OA
ATOM     72  O   UNL A   1      51.280  25.017  26.307  1.00  0.00    -0.237 OA
ATOM     73  O   UNL A   1      50.772  26.256  28.366  1.00  0.00    -0.744 OA
ENDBRANCH  67  70
ENDBRANCH  49  63
BRANCH  50  74
ATOM     74  C   UNL A   1      38.666  30.576  30.964  1.00  0.00     0.023 A 
ATOM     75  C   UNL A   1      38.593  30.399  32.361  1.00  0.00     0.012 A 
ATOM     76  C   UNL A   1      37.604  31.219  30.300  1.00  0.00     0.148 A 
ATOM     77  C   UNL A   1      37.471  30.821  33.076  1.00  0.00     0.002 A 
ATOM     78  C   UNL A   1      36.514  31.685  31.027  1.00  0.00     0.091 A 
ATOM     79  F   UNL A   1      37.684  31.367  28.970  1.00  0.00    -0.205 F 
ATOM     80  C   UNL A   1      36.436  31.472  32.411  1.00  0.00     0.022 A 
BRANCH  78  81
ATOM     81  S   UNL A   1      35.196  32.648  30.275  1.00  0.00     0.127 S 
ATOM     82  O   UNL A   1      34.247  32.769  31.378  1.00  0.00    -0.237 OA
ATOM     83  O   UNL A   1      35.889  33.886  29.920  1.00  0.00    -0.237 OA
ATOM     84  O   UNL A   1      34.744  31.865  29.132  1.00  0.00    -0.744 OA
ENDBRANCH  78  81
ENDBRANCH  50  74
BRANCH  62  85
ATOM     85  C   UNL A   1      44.828  33.469  29.408  1.00  0.00     0.023 A 
ATOM     86  C   UNL A   1      44.629  34.506  28.475  1.00  0.00     0.012 A 
ATOM     87  C   UNL A   1      45.506  33.744  30.613  1.00  0.00     0.148 A 
ATOM     88  C   UNL A   1      45.124  35.786  28.723  1.00  0.00     0.002 A 
ATOM     89  C   UNL A   1      45.952  35.033  30.875  1.00  0.00     0.091 A 
ATOM     90  F   UNL A   1      45.702  32.739  31.480  1.00  0.00    -0.205 F 
ATOM     91  C   UNL A   1      45.773  36.053  29.927  1.00  0.00     0.022 A 
BRANCH  89  92
ATOM     92  S   UNL A   1      46.709  35.486  32.441  1.00  0.00     0.127 S 
ATOM     93  O   UNL A   1      46.781  36.942  32.325  1.00  0.00    -0.237 OA
ATOM     94  O   UNL A   1      45.729  35.000  33.413  1.00  0.00    -0.237 OA
ATOM     95  O   UNL A   1      47.990  34.796  32.480  1.00  0.00    -0.744 OA
ENDBRANCH  89  92
ENDBRANCH  62  85
ENDBRANCH  36  37
ENDBRANCH  28  31
ENDBRANCH  26  27
ENDBRANCH  25  26
ENDBRANCH   1  25
TORSDOF 17
ENDMDL
