MODEL 1
REMARK VINA RESULT:     -10.8      0.000      0.000
REMARK SMILES CC(C)C[C@H](NC(=O)[C@H](C)NC(=O)[C@@H](NC(=O)CNC(=O)OCc1ccccc1)C(C)C)C(=O)NCCCCNC(=O)c1ccc(-c2c3nc(c(-c4cccc(S(=O)(=O)[O-])c4F)c4ccc([nH]4)c(-c4cccc(S(=O)(=O)[O-])c4F)c4nc(c(-c5cccc(S(=O)(=O)[O-])c5F)c5ccc2[nH]5)C=C4)C=C3)cc1
REMARK SMILES IDX 5 1 4 2 2 3 1 4 3 5 33 6 34 7 35 8 36 10 37 11 38 12 39 13
REMARK SMILES IDX 40 14 41 15 42 17 43 18 44 19 105 20 45 21 104 22 46 23
REMARK SMILES IDX 47 24 48 25 98 26 49 27 103 28 97 29 99 30 50 31 102 32
REMARK SMILES IDX 96 33 95 34 51 36 83 37 63 38 82 39 64 40 67 41 81 42 100 43
REMARK SMILES IDX 65 44 66 45 80 47 101 48 68 49 52 50 53 51 61 52 54 53 56 54
REMARK SMILES IDX 62 55 55 56 57 57 58 58 59 59 60 60 84 61 85 62 93 63 86 64
REMARK SMILES IDX 88 65 94 66 87 67 89 68 90 69 91 70 92 71 69 72 70 73 78 74
REMARK SMILES IDX 71 75 73 76 79 77 72 78 74 79 75 80 76 81 77 82 6 83 7 84
REMARK SMILES IDX 8 86 9 87 10 88 11 89 12 90 13 92 14 93 15 94 16 95 17 97
REMARK SMILES IDX 18 98 19 99 20 100 21 102 22 103 23 104 24 105 25 106 29 107
REMARK SMILES IDX 26 108 28 109 27 110 30 111 31 112 32 113
REMARK H PARENT 35 9 40 16 99 35 67 46 6 85 11 91 15 96 19 101
REMARK Flexibility Score: inf
ROOT
ATOM      1  C   UNL A   1      31.009  28.575  22.479  1.00  0.00     0.171 C 
ENDROOT
BRANCH   1   2
ATOM      2  C   UNL A   1      30.165  29.812  22.134  1.00  0.00     0.038 C 
BRANCH   2   3
ATOM      3  C   UNL A   1      28.973  29.962  23.110  1.00  0.00    -0.015 C 
ATOM      4  C   UNL A   1      28.892  31.367  23.714  1.00  0.00     0.007 C 
ATOM      5  C   UNL A   1      27.659  29.646  22.402  1.00  0.00     0.007 C 
ENDBRANCH   2   3
ENDBRANCH   1   2
BRANCH   1   6
ATOM      6  C   UNL A   1      32.332  29.004  23.151  1.00  0.00     0.242 C 
ATOM      7  O   UNL A   1      33.418  28.786  22.610  1.00  0.00    -0.273 OA
ATOM      8  N   UNL A   1      32.384  29.753  24.273  1.00  0.00    -0.354 N 
ATOM      9  H   UNL A   1      33.109  30.418  24.293  1.00  0.00     0.163 HD
BRANCH   8  10
ATOM     10  C   UNL A   1      31.547  29.734  25.444  1.00  0.00     0.116 C 
BRANCH  10  11
ATOM     11  C   UNL A   1      31.827  28.476  26.271  1.00  0.00     0.023 C 
BRANCH  11  12
ATOM     12  C   UNL A   1      32.910  28.592  27.360  1.00  0.00     0.023 C 
BRANCH  12  13
ATOM     13  C   UNL A   1      34.013  29.629  27.158  1.00  0.00     0.116 C 
BRANCH  13  14
ATOM     14  N   UNL A   1      33.861  30.825  27.961  1.00  0.00    -0.352 N 
ATOM     15  C   UNL A   1      34.755  31.381  28.843  1.00  0.00     0.251 C 
ATOM     16  H   UNL A   1      33.005  31.302  27.862  1.00  0.00     0.163 HD
ATOM     17  O   UNL A   1      34.463  32.415  29.438  1.00  0.00    -0.269 OA
BRANCH  15  18
ATOM     18  C   UNL A   1      36.032  30.693  29.124  1.00  0.00     0.039 A 
ATOM     19  C   UNL A   1      37.174  31.146  28.460  1.00  0.00     0.014 A 
ATOM     20  C   UNL A   1      36.118  29.651  30.052  1.00  0.00     0.014 A 
ATOM     21  C   UNL A   1      38.417  30.594  28.770  1.00  0.00     0.010 A 
ATOM     22  C   UNL A   1      37.368  29.144  30.402  1.00  0.00     0.010 A 
ATOM     23  C   UNL A   1      38.528  29.610  29.766  1.00  0.00    -0.014 A 
BRANCH  23  24
ATOM     24  C   UNL A   1      39.858  29.077  30.154  1.00  0.00     0.031 A 
ATOM     25  C   UNL A   1      40.651  29.741  31.245  1.00  0.00     0.074 A 
ATOM     26  C   UNL A   1      40.376  28.033  29.478  1.00  0.00     0.049 A 
ATOM     27  N   UNL A   1      41.832  29.432  31.709  1.00  0.00    -0.248 NA
ATOM     28  C   UNL A   1      40.047  30.923  31.883  1.00  0.00     0.031 C 
ATOM     29  C   UNL A   1      39.737  27.358  28.346  1.00  0.00     0.029 A 
ATOM     30  N   UNL A   1      41.568  27.369  29.630  1.00  0.00    -0.354 N 
ATOM     31  C   UNL A   1      42.127  30.391  32.668  1.00  0.00     0.074 A 
ATOM     32  C   UNL A   1      41.016  31.317  32.696  1.00  0.00     0.031 C 
ATOM     33  C   UNL A   1      40.541  26.377  27.907  1.00  0.00     0.029 A 
ATOM     34  C   UNL A   1      41.760  26.365  28.708  1.00  0.00     0.049 A 
ATOM     35  H   UNL A   1      42.223  27.591  30.330  1.00  0.00     0.167 HD
ATOM     36  C   UNL A   1      43.210  30.477  33.479  1.00  0.00     0.034 A 
ATOM     37  C   UNL A   1      42.804  25.531  28.531  1.00  0.00     0.034 A 
ATOM     38  C   UNL A   1      44.291  29.529  33.475  1.00  0.00     0.049 A 
ATOM     39  C   UNL A   1      43.971  25.614  29.477  1.00  0.00     0.074 A 
ATOM     40  C   UNL A   1      45.394  29.478  34.309  1.00  0.00     0.029 A 
ATOM     41  N   UNL A   1      44.409  28.467  32.591  1.00  0.00    -0.354 N 
ATOM     42  N   UNL A   1      44.157  26.429  30.487  1.00  0.00    -0.248 NA
ATOM     43  C   UNL A   1      45.053  24.638  29.287  1.00  0.00     0.031 C 
ATOM     44  C   UNL A   1      46.187  28.394  33.918  1.00  0.00     0.029 A 
ATOM     45  C   UNL A   1      45.567  27.756  32.855  1.00  0.00     0.049 A 
ATOM     46  H   UNL A   1      43.763  28.251  31.880  1.00  0.00     0.167 HD
ATOM     47  C   UNL A   1      45.357  26.045  31.072  1.00  0.00     0.074 A 
ATOM     48  C   UNL A   1      45.843  24.908  30.317  1.00  0.00     0.031 C 
ATOM     49  C   UNL A   1      46.008  26.594  32.128  1.00  0.00     0.034 A 
BRANCH  36  50
ATOM     50  C   UNL A   1      43.245  31.602  34.479  1.00  0.00     0.023 A 
ATOM     51  C   UNL A   1      43.938  32.789  34.162  1.00  0.00     0.012 A 
ATOM     52  C   UNL A   1      42.558  31.510  35.705  1.00  0.00     0.148 A 
ATOM     53  C   UNL A   1      43.978  33.852  35.063  1.00  0.00     0.002 A 
ATOM     54  C   UNL A   1      42.565  32.591  36.580  1.00  0.00     0.091 A 
ATOM     55  F   UNL A   1      41.923  30.366  35.999  1.00  0.00    -0.205 F 
ATOM     56  C   UNL A   1      43.283  33.757  36.266  1.00  0.00     0.022 A 
BRANCH  54  57
ATOM     57  S   UNL A   1      41.642  32.598  38.120  1.00  0.00     0.127 S 
ATOM     58  O   UNL A   1      42.389  31.627  38.917  1.00  0.00    -0.237 OA
ATOM     59  O   UNL A   1      41.787  33.987  38.560  1.00  0.00    -0.237 OA
ATOM     60  O   UNL A   1      40.282  32.210  37.775  1.00  0.00    -0.744 OA
ENDBRANCH  54  57
ENDBRANCH  36  50
BRANCH  37  61
ATOM     61  C   UNL A   1      42.756  24.499  27.455  1.00  0.00     0.023 A 
ATOM     62  C   UNL A   1      43.257  24.808  26.176  1.00  0.00     0.012 A 
ATOM     63  C   UNL A   1      42.250  23.208  27.700  1.00  0.00     0.148 A 
ATOM     64  C   UNL A   1      43.227  23.861  25.152  1.00  0.00     0.002 A 
ATOM     65  C   UNL A   1      42.274  22.252  26.692  1.00  0.00     0.091 A 
ATOM     66  F   UNL A   1      41.766  22.936  28.920  1.00  0.00    -0.205 F 
ATOM     67  C   UNL A   1      42.746  22.581  25.412  1.00  0.00     0.022 A 
BRANCH  65  68
ATOM     68  S   UNL A   1      41.799  20.542  26.976  1.00  0.00     0.127 S 
ATOM     69  O   UNL A   1      42.874  20.072  27.844  1.00  0.00    -0.237 OA
ATOM     70  O   UNL A   1      40.499  20.693  27.630  1.00  0.00    -0.237 OA
ATOM     71  O   UNL A   1      41.733  19.930  25.655  1.00  0.00    -0.744 OA
ENDBRANCH  65  68
ENDBRANCH  37  61
BRANCH  49  72
ATOM     72  C   UNL A   1      47.304  25.958  32.556  1.00  0.00     0.023 A 
ATOM     73  C   UNL A   1      47.308  25.009  33.596  1.00  0.00     0.012 A 
ATOM     74  C   UNL A   1      48.503  26.241  31.872  1.00  0.00     0.148 A 
ATOM     75  C   UNL A   1      48.491  24.373  33.970  1.00  0.00     0.002 A 
ATOM     76  C   UNL A   1      49.669  25.569  32.218  1.00  0.00     0.091 A 
ATOM     77  F   UNL A   1      48.482  27.163  30.897  1.00  0.00    -0.205 F 
ATOM     78  C   UNL A   1      49.667  24.644  33.275  1.00  0.00     0.022 A 
BRANCH  76  79
ATOM     79  S   UNL A   1      51.206  25.783  31.314  1.00  0.00     0.127 S 
ATOM     80  O   UNL A   1      50.801  25.446  29.952  1.00  0.00    -0.237 OA
ATOM     81  O   UNL A   1      51.499  27.202  31.530  1.00  0.00    -0.237 OA
ATOM     82  O   UNL A   1      52.162  24.872  31.928  1.00  0.00    -0.744 OA
ENDBRANCH  76  79
ENDBRANCH  49  72
ENDBRANCH  23  24
ENDBRANCH  15  18
ENDBRANCH  13  14
ENDBRANCH  12  13
ENDBRANCH  11  12
ENDBRANCH  10  11
ENDBRANCH   8  10
ENDBRANCH   1   6
BRANCH   1  83
ATOM     83  N   UNL A   1      30.233  27.529  23.147  1.00  0.00    -0.343 N 
ATOM     84  C   UNL A   1      30.456  26.173  23.185  1.00  0.00     0.242 C 
ATOM     85  H   UNL A   1      29.439  27.840  23.639  1.00  0.00     0.164 HD
ATOM     86  O   UNL A   1      29.622  25.452  23.740  1.00  0.00    -0.273 OA
BRANCH  84  87
ATOM     87  C   UNL A   1      31.699  25.556  22.487  1.00  0.00     0.168 C 
ATOM     88  C   UNL A   1      31.683  26.015  21.028  1.00  0.00     0.041 C 
BRANCH  87  89
ATOM     89  N   UNL A   1      31.635  24.093  22.517  1.00  0.00    -0.343 N 
ATOM     90  C   UNL A   1      32.251  23.124  23.237  1.00  0.00     0.243 C 
ATOM     91  H   UNL A   1      30.996  23.728  21.862  1.00  0.00     0.164 HD
ATOM     92  O   UNL A   1      32.307  22.019  22.677  1.00  0.00    -0.273 OA
BRANCH  90  93
ATOM     93  C   UNL A   1      32.706  23.230  24.733  1.00  0.00     0.174 C 
BRANCH  93  94
ATOM     94  N   UNL A   1      33.902  24.052  25.014  1.00  0.00    -0.343 N 
ATOM     95  C   UNL A   1      35.126  23.855  25.588  1.00  0.00     0.240 C 
ATOM     96  H   UNL A   1      33.789  24.980  24.707  1.00  0.00     0.164 HD
ATOM     97  O   UNL A   1      35.980  24.709  25.330  1.00  0.00    -0.273 OA
BRANCH  95  98
ATOM     98  C   UNL A   1      35.466  22.636  26.458  1.00  0.00     0.219 C 
BRANCH  98  99
ATOM     99  N   UNL A   1      36.838  22.286  26.183  1.00  0.00    -0.312 N 
ATOM    100  C   UNL A   1      37.400  21.409  25.332  1.00  0.00     0.407 C 
ATOM    101  H   UNL A   1      37.489  22.787  26.724  1.00  0.00     0.167 HD
ATOM    102  O   UNL A   1      38.590  21.164  25.503  1.00  0.00    -0.225 OA
BRANCH 100 103
ATOM    103  O   UNL A   1      36.557  20.775  24.500  1.00  0.00    -0.445 OA
BRANCH 103 104
ATOM    104  C   UNL A   1      36.371  19.388  24.826  1.00  0.00     0.270 C 
BRANCH 104 105
ATOM    105  C   UNL A   1      34.970  18.854  24.632  1.00  0.00    -0.011 A 
ATOM    106  C   UNL A   1      34.765  17.536  24.212  1.00  0.00     0.007 A 
ATOM    107  C   UNL A   1      33.845  19.675  24.822  1.00  0.00     0.007 A 
ATOM    108  C   UNL A   1      33.471  17.055  23.991  1.00  0.00     0.000 A 
ATOM    109  C   UNL A   1      32.553  19.187  24.634  1.00  0.00     0.000 A 
ATOM    110  C   UNL A   1      32.366  17.877  24.211  1.00  0.00     0.000 A 
ENDBRANCH 104 105
ENDBRANCH 103 104
ENDBRANCH 100 103
ENDBRANCH  98  99
ENDBRANCH  95  98
ENDBRANCH  93  94
BRANCH  93 111
ATOM    111  C   UNL A   1      31.498  23.365  25.708  1.00  0.00     0.015 C 
ATOM    112  C   UNL A   1      30.548  22.162  25.714  1.00  0.00     0.010 C 
ATOM    113  C   UNL A   1      31.901  23.670  27.158  1.00  0.00     0.010 C 
ENDBRANCH  93 111
ENDBRANCH  90  93
ENDBRANCH  87  89
ENDBRANCH  84  87
ENDBRANCH   1  83
TORSDOF 27
ENDMDL
MODEL 2
REMARK VINA RESULT:     -10.3      1.472      7.149
REMARK SMILES CC(C)C[C@H](NC(=O)[C@H](C)NC(=O)[C@@H](NC(=O)CNC(=O)OCc1ccccc1)C(C)C)C(=O)NCCCCNC(=O)c1ccc(-c2c3nc(c(-c4cccc(S(=O)(=O)[O-])c4F)c4ccc([nH]4)c(-c4cccc(S(=O)(=O)[O-])c4F)c4nc(c(-c5cccc(S(=O)(=O)[O-])c5F)c5ccc2[nH]5)C=C4)C=C3)cc1
REMARK SMILES IDX 5 1 4 2 2 3 1 4 3 5 33 6 34 7 35 8 36 10 37 11 38 12 39 13
REMARK SMILES IDX 40 14 41 15 42 17 43 18 44 19 105 20 45 21 104 22 46 23
REMARK SMILES IDX 47 24 48 25 98 26 49 27 103 28 97 29 99 30 50 31 102 32
REMARK SMILES IDX 96 33 95 34 51 36 83 37 63 38 82 39 64 40 67 41 81 42 100 43
REMARK SMILES IDX 65 44 66 45 80 47 101 48 68 49 52 50 53 51 61 52 54 53 56 54
REMARK SMILES IDX 62 55 55 56 57 57 58 58 59 59 60 60 84 61 85 62 93 63 86 64
REMARK SMILES IDX 88 65 94 66 87 67 89 68 90 69 91 70 92 71 69 72 70 73 78 74
REMARK SMILES IDX 71 75 73 76 79 77 72 78 74 79 75 80 76 81 77 82 6 83 7 84
REMARK SMILES IDX 8 86 9 87 10 88 11 89 12 90 13 92 14 93 15 94 16 95 17 97
REMARK SMILES IDX 18 98 19 99 20 100 21 102 22 103 23 104 24 105 25 106 29 107
REMARK SMILES IDX 26 108 28 109 27 110 30 111 31 112 32 113
REMARK H PARENT 35 9 40 16 99 35 67 46 6 85 11 91 15 96 19 101
REMARK Flexibility Score: inf
ROOT
ATOM      1  C   UNL A   1      31.193  28.648  22.399  1.00  0.00     0.171 C 
ENDROOT
BRANCH   1   2
ATOM      2  C   UNL A   1      30.480  29.959  22.030  1.00  0.00     0.038 C 
BRANCH   2   3
ATOM      3  C   UNL A   1      29.017  29.958  22.535  1.00  0.00    -0.015 C 
ATOM      4  C   UNL A   1      28.764  31.047  23.581  1.00  0.00     0.007 C 
ATOM      5  C   UNL A   1      28.050  30.150  21.370  1.00  0.00     0.007 C 
ENDBRANCH   2   3
ENDBRANCH   1   2
BRANCH   1   6
ATOM      6  C   UNL A   1      32.520  28.952  23.130  1.00  0.00     0.242 C 
ATOM      7  O   UNL A   1      33.606  28.680  22.613  1.00  0.00    -0.273 OA
ATOM      8  N   UNL A   1      32.586  29.645  24.287  1.00  0.00    -0.354 N 
ATOM      9  H   UNL A   1      33.355  30.254  24.359  1.00  0.00     0.163 HD
BRANCH   8  10
ATOM     10  C   UNL A   1      31.711  29.633  25.429  1.00  0.00     0.116 C 
BRANCH  10  11
ATOM     11  C   UNL A   1      31.909  28.344  26.232  1.00  0.00     0.023 C 
BRANCH  11  12
ATOM     12  C   UNL A   1      33.047  28.343  27.268  1.00  0.00     0.023 C 
BRANCH  12  13
ATOM     13  C   UNL A   1      34.184  29.345  27.077  1.00  0.00     0.116 C 
BRANCH  13  14
ATOM     14  N   UNL A   1      34.025  30.577  27.824  1.00  0.00    -0.352 N 
ATOM     15  C   UNL A   1      34.912  31.174  28.685  1.00  0.00     0.251 C 
ATOM     16  H   UNL A   1      33.169  31.046  27.698  1.00  0.00     0.163 HD
ATOM     17  O   UNL A   1      34.615  32.234  29.231  1.00  0.00    -0.269 OA
BRANCH  15  18
ATOM     18  C   UNL A   1      36.189  30.502  29.005  1.00  0.00     0.039 A 
ATOM     19  C   UNL A   1      37.348  30.981  28.389  1.00  0.00     0.014 A 
ATOM     20  C   UNL A   1      36.258  29.450  29.922  1.00  0.00     0.014 A 
ATOM     21  C   UNL A   1      38.587  30.445  28.738  1.00  0.00     0.010 A 
ATOM     22  C   UNL A   1      37.502  28.958  30.312  1.00  0.00     0.010 A 
ATOM     23  C   UNL A   1      38.677  29.450  29.725  1.00  0.00    -0.014 A 
BRANCH  23  24
ATOM     24  C   UNL A   1      39.999  28.933  30.156  1.00  0.00     0.031 A 
ATOM     25  C   UNL A   1      40.635  27.780  29.429  1.00  0.00     0.074 A 
ATOM     26  C   UNL A   1      40.597  29.462  31.242  1.00  0.00     0.049 A 
ATOM     27  N   UNL A   1      41.773  27.183  29.668  1.00  0.00    -0.248 NA
ATOM     28  C   UNL A   1      39.884  27.209  28.299  1.00  0.00     0.031 C 
ATOM     29  C   UNL A   1      40.038  30.527  32.077  1.00  0.00     0.029 A 
ATOM     30  N   UNL A   1      41.794  29.162  31.843  1.00  0.00    -0.354 N 
ATOM     31  C   UNL A   1      41.862  26.151  28.743  1.00  0.00     0.074 A 
ATOM     32  C   UNL A   1      40.646  26.179  27.960  1.00  0.00     0.031 C 
ATOM     33  C   UNL A   1      40.890  30.793  33.081  1.00  0.00     0.029 A 
ATOM     34  C   UNL A   1      42.043  29.905  32.974  1.00  0.00     0.049 A 
ATOM     35  H   UNL A   1      42.414  28.480  31.498  1.00  0.00     0.167 HD
ATOM     36  C   UNL A   1      42.878  25.278  28.540  1.00  0.00     0.034 A 
ATOM     37  C   UNL A   1      43.085  29.872  33.829  1.00  0.00     0.034 A 
ATOM     38  C   UNL A   1      44.102  25.283  29.295  1.00  0.00     0.049 A 
ATOM     39  C   UNL A   1      44.224  28.929  33.551  1.00  0.00     0.074 A 
ATOM     40  C   UNL A   1      45.226  24.496  29.117  1.00  0.00     0.029 A 
ATOM     41  N   UNL A   1      44.361  26.113  30.375  1.00  0.00    -0.354 N 
ATOM     42  N   UNL A   1      44.362  28.069  32.570  1.00  0.00    -0.248 NA
ATOM     43  C   UNL A   1      45.369  28.978  34.471  1.00  0.00     0.031 C 
ATOM     44  C   UNL A   1      46.160  24.840  30.101  1.00  0.00     0.029 A 
ATOM     45  C   UNL A   1      45.625  25.856  30.877  1.00  0.00     0.049 A 
ATOM     46  H   UNL A   1      43.738  26.786  30.732  1.00  0.00     0.167 HD
ATOM     47  C   UNL A   1      45.619  27.500  32.735  1.00  0.00     0.074 A 
ATOM     48  C   UNL A   1      46.212  28.129  33.897  1.00  0.00     0.031 C 
ATOM     49  C   UNL A   1      46.222  26.531  32.002  1.00  0.00     0.034 A 
BRANCH  36  50
ATOM     50  C   UNL A   1      42.732  24.287  27.416  1.00  0.00     0.023 A 
ATOM     51  C   UNL A   1      43.133  24.653  26.114  1.00  0.00     0.012 A 
ATOM     52  C   UNL A   1      42.249  22.985  27.649  1.00  0.00     0.148 A 
ATOM     53  C   UNL A   1      43.021  23.752  25.056  1.00  0.00     0.002 A 
ATOM     54  C   UNL A   1      42.181  22.078  26.597  1.00  0.00     0.091 A 
ATOM     55  F   UNL A   1      41.852  22.661  28.889  1.00  0.00    -0.205 F 
ATOM     56  C   UNL A   1      42.555  22.463  25.300  1.00  0.00     0.022 A 
BRANCH  54  57
ATOM     57  S   UNL A   1      41.667  20.372  26.820  1.00  0.00     0.127 S 
ATOM     58  O   UNL A   1      42.765  19.834  27.621  1.00  0.00    -0.237 OA
ATOM     59  O   UNL A   1      40.403  20.522  27.542  1.00  0.00    -0.237 OA
ATOM     60  O   UNL A   1      41.537  19.814  25.481  1.00  0.00    -0.744 OA
ENDBRANCH  54  57
ENDBRANCH  36  50
BRANCH  37  61
ATOM     61  C   UNL A   1      43.128  30.812  34.985  1.00  0.00     0.023 A 
ATOM     62  C   UNL A   1      42.623  30.398  36.233  1.00  0.00     0.012 A 
ATOM     63  C   UNL A   1      43.693  32.096  34.866  1.00  0.00     0.148 A 
ATOM     64  C   UNL A   1      42.652  31.256  37.333  1.00  0.00     0.002 A 
ATOM     65  C   UNL A   1      43.771  32.924  35.979  1.00  0.00     0.091 A 
ATOM     66  F   UNL A   1      44.158  32.476  33.668  1.00  0.00    -0.205 F 
ATOM     67  C   UNL A   1      43.235  32.513  37.210  1.00  0.00     0.022 A 
BRANCH  65  68
ATOM     68  S   UNL A   1      44.623  34.506  35.944  1.00  0.00     0.127 S 
ATOM     69  O   UNL A   1      45.709  34.240  35.005  1.00  0.00    -0.237 OA
ATOM     70  O   UNL A   1      43.580  35.401  35.443  1.00  0.00    -0.237 OA
ATOM     71  O   UNL A   1      45.021  34.766  37.321  1.00  0.00    -0.744 OA
ENDBRANCH  65  68
ENDBRANCH  37  61
BRANCH  49  72
ATOM     72  C   UNL A   1      47.608  26.107  32.411  1.00  0.00     0.023 A 
ATOM     73  C   UNL A   1      48.721  26.865  31.999  1.00  0.00     0.012 A 
ATOM     74  C   UNL A   1      47.798  25.006  33.269  1.00  0.00     0.148 A 
ATOM     75  C   UNL A   1      50.006  26.516  32.411  1.00  0.00     0.002 A 
ATOM     76  C   UNL A   1      49.076  24.693  33.714  1.00  0.00     0.091 A 
ATOM     77  F   UNL A   1      46.727  24.285  33.634  1.00  0.00    -0.205 F 
ATOM     78  C   UNL A   1      50.183  25.439  33.277  1.00  0.00     0.022 A 
BRANCH  76  79
ATOM     79  S   UNL A   1      49.386  23.384  34.905  1.00  0.00     0.127 S 
ATOM     80  O   UNL A   1      49.444  22.205  34.044  1.00  0.00    -0.237 OA
ATOM     81  O   UNL A   1      50.672  23.784  35.479  1.00  0.00    -0.237 OA
ATOM     82  O   UNL A   1      48.271  23.423  35.841  1.00  0.00    -0.744 OA
ENDBRANCH  76  79
ENDBRANCH  49  72
ENDBRANCH  23  24
ENDBRANCH  15  18
ENDBRANCH  13  14
ENDBRANCH  12  13
ENDBRANCH  11  12
ENDBRANCH  10  11
ENDBRANCH   8  10
ENDBRANCH   1   6
BRANCH   1  83
ATOM     83  N   UNL A   1      30.297  27.674  23.024  1.00  0.00    -0.343 N 
ATOM     84  C   UNL A   1      30.406  26.305  23.077  1.00  0.00     0.242 C 
ATOM     85  H   UNL A   1      29.505  28.052  23.469  1.00  0.00     0.164 HD
ATOM     86  O   UNL A   1      29.485  25.658  23.586  1.00  0.00    -0.273 OA
BRANCH  84  87
ATOM     87  C   UNL A   1      31.632  25.583  22.453  1.00  0.00     0.168 C 
ATOM     88  C   UNL A   1      31.717  26.007  20.986  1.00  0.00     0.041 C 
BRANCH  87  89
ATOM     89  N   UNL A   1      31.460  24.130  22.510  1.00  0.00    -0.343 N 
ATOM     90  C   UNL A   1      31.958  23.139  23.290  1.00  0.00     0.243 C 
ATOM     91  H   UNL A   1      30.838  23.794  21.824  1.00  0.00     0.164 HD
ATOM     92  O   UNL A   1      31.969  22.018  22.759  1.00  0.00    -0.273 OA
BRANCH  90  93
ATOM     93  C   UNL A   1      32.325  23.252  24.810  1.00  0.00     0.174 C 
BRANCH  93  94
ATOM     94  N   UNL A   1      33.488  24.096  25.158  1.00  0.00    -0.343 N 
ATOM     95  C   UNL A   1      34.736  23.896  25.675  1.00  0.00     0.240 C 
ATOM     96  H   UNL A   1      33.319  25.046  24.968  1.00  0.00     0.164 HD
ATOM     97  O   UNL A   1      35.539  24.818  25.501  1.00  0.00    -0.273 OA
BRANCH  95  98
ATOM     98  C   UNL A   1      35.161  22.601  26.383  1.00  0.00     0.219 C 
BRANCH  98  99
ATOM     99  N   UNL A   1      36.569  22.420  26.130  1.00  0.00    -0.312 N 
ATOM    100  C   UNL A   1      37.248  21.596  25.313  1.00  0.00     0.407 C 
ATOM    101  H   UNL A   1      37.146  23.017  26.658  1.00  0.00     0.167 HD
ATOM    102  O   UNL A   1      38.457  21.509  25.500  1.00  0.00    -0.225 OA
BRANCH 100 103
ATOM    103  O   UNL A   1      36.502  20.833  24.496  1.00  0.00    -0.445 OA
BRANCH 103 104
ATOM    104  C   UNL A   1      36.283  19.505  24.999  1.00  0.00     0.270 C 
BRANCH 104 105
ATOM    105  C   UNL A   1      34.957  18.878  24.633  1.00  0.00    -0.011 A 
ATOM    106  C   UNL A   1      34.888  17.533  24.256  1.00  0.00     0.007 A 
ATOM    107  C   UNL A   1      33.773  19.635  24.617  1.00  0.00     0.007 A 
ATOM    108  C   UNL A   1      33.668  16.965  23.876  1.00  0.00     0.000 A 
ATOM    109  C   UNL A   1      32.551  19.061  24.271  1.00  0.00     0.000 A 
ATOM    110  C   UNL A   1      32.500  17.726  23.893  1.00  0.00     0.000 A 
ENDBRANCH 104 105
ENDBRANCH 103 104
ENDBRANCH 100 103
ENDBRANCH  98  99
ENDBRANCH  95  98
ENDBRANCH  93  94
BRANCH  93 111
ATOM    111  C   UNL A   1      31.061  23.363  25.714  1.00  0.00     0.015 C 
ATOM    112  C   UNL A   1      30.892  22.213  26.714  1.00  0.00     0.010 C 
ATOM    113  C   UNL A   1      30.960  24.689  26.481  1.00  0.00     0.010 C 
ENDBRANCH  93 111
ENDBRANCH  90  93
ENDBRANCH  87  89
ENDBRANCH  84  87
ENDBRANCH   1  83
TORSDOF 27
ENDMDL
MODEL 3
REMARK VINA RESULT:      -8.8      2.007      7.398
REMARK SMILES CC(C)C[C@H](NC(=O)[C@H](C)NC(=O)[C@@H](NC(=O)CNC(=O)OCc1ccccc1)C(C)C)C(=O)NCCCCNC(=O)c1ccc(-c2c3nc(c(-c4cccc(S(=O)(=O)[O-])c4F)c4ccc([nH]4)c(-c4cccc(S(=O)(=O)[O-])c4F)c4nc(c(-c5cccc(S(=O)(=O)[O-])c5F)c5ccc2[nH]5)C=C4)C=C3)cc1
REMARK SMILES IDX 5 1 4 2 2 3 1 4 3 5 33 6 34 7 35 8 36 10 37 11 38 12 39 13
REMARK SMILES IDX 40 14 41 15 42 17 43 18 44 19 105 20 45 21 104 22 46 23
REMARK SMILES IDX 47 24 48 25 98 26 49 27 103 28 97 29 99 30 50 31 102 32
REMARK SMILES IDX 96 33 95 34 51 36 83 37 63 38 82 39 64 40 67 41 81 42 100 43
REMARK SMILES IDX 65 44 66 45 80 47 101 48 68 49 52 50 53 51 61 52 54 53 56 54
REMARK SMILES IDX 62 55 55 56 57 57 58 58 59 59 60 60 84 61 85 62 93 63 86 64
REMARK SMILES IDX 88 65 94 66 87 67 89 68 90 69 91 70 92 71 69 72 70 73 78 74
REMARK SMILES IDX 71 75 73 76 79 77 72 78 74 79 75 80 76 81 77 82 6 83 7 84
REMARK SMILES IDX 8 86 9 87 10 88 11 89 12 90 13 92 14 93 15 94 16 95 17 97
REMARK SMILES IDX 18 98 19 99 20 100 21 102 22 103 23 104 24 105 25 106 29 107
REMARK SMILES IDX 26 108 28 109 27 110 30 111 31 112 32 113
REMARK H PARENT 35 9 40 16 99 35 67 46 6 85 11 91 15 96 19 101
REMARK Flexibility Score: inf
ROOT
ATOM      1  C   UNL A   1      31.336  28.867  24.580  1.00  0.00     0.171 C 
ENDROOT
BRANCH   1   2
ATOM      2  C   UNL A   1      30.298  30.001  24.604  1.00  0.00     0.038 C 
BRANCH   2   3
ATOM      3  C   UNL A   1      29.793  30.323  23.176  1.00  0.00    -0.015 C 
ATOM      4  C   UNL A   1      29.779  29.086  22.273  1.00  0.00     0.007 C 
ATOM      5  C   UNL A   1      28.391  30.921  23.228  1.00  0.00     0.007 C 
ENDBRANCH   2   3
ENDBRANCH   1   2
BRANCH   1   6
ATOM      6  C   UNL A   1      32.762  29.454  24.483  1.00  0.00     0.242 C 
ATOM      7  O   UNL A   1      33.380  29.445  23.415  1.00  0.00    -0.273 OA
ATOM      8  N   UNL A   1      33.357  30.126  25.490  1.00  0.00    -0.354 N 
ATOM      9  H   UNL A   1      33.905  30.894  25.209  1.00  0.00     0.163 HD
BRANCH   8  10
ATOM     10  C   UNL A   1      33.317  29.898  26.911  1.00  0.00     0.116 C 
BRANCH  10  11
ATOM     11  C   UNL A   1      34.554  29.110  27.353  1.00  0.00     0.023 C 
BRANCH  11  12
ATOM     12  C   UNL A   1      35.362  29.694  28.526  1.00  0.00     0.023 C 
BRANCH  12  13
ATOM     13  C   UNL A   1      35.416  31.214  28.667  1.00  0.00     0.116 C 
BRANCH  13  14
ATOM     14  N   UNL A   1      35.092  31.702  29.992  1.00  0.00    -0.352 N 
ATOM     15  C   UNL A   1      35.859  31.655  31.130  1.00  0.00     0.251 C 
ATOM     16  H   UNL A   1      34.208  32.122  30.090  1.00  0.00     0.163 HD
ATOM     17  O   UNL A   1      35.429  32.131  32.178  1.00  0.00    -0.269 OA
BRANCH  15  18
ATOM     18  C   UNL A   1      37.168  30.969  31.105  1.00  0.00     0.039 A 
ATOM     19  C   UNL A   1      38.238  31.630  30.500  1.00  0.00     0.014 A 
ATOM     20  C   UNL A   1      37.354  29.717  31.700  1.00  0.00     0.014 A 
ATOM     21  C   UNL A   1      39.513  31.066  30.543  1.00  0.00     0.010 A 
ATOM     22  C   UNL A   1      38.638  29.184  31.793  1.00  0.00     0.010 A 
ATOM     23  C   UNL A   1      39.729  29.853  31.217  1.00  0.00    -0.014 A 
BRANCH  23  24
ATOM     24  C   UNL A   1      41.096  29.288  31.333  1.00  0.00     0.031 A 
ATOM     25  C   UNL A   1      41.563  28.232  30.370  1.00  0.00     0.074 A 
ATOM     26  C   UNL A   1      41.893  29.683  32.345  1.00  0.00     0.049 A 
ATOM     27  N   UNL A   1      42.712  27.611  30.324  1.00  0.00    -0.248 NA
ATOM     28  C   UNL A   1      40.606  27.801  29.338  1.00  0.00     0.031 C 
ATOM     29  C   UNL A   1      41.519  30.640  33.390  1.00  0.00     0.029 A 
ATOM     30  N   UNL A   1      43.172  29.314  32.676  1.00  0.00    -0.354 N 
ATOM     31  C   UNL A   1      42.609  26.698  29.283  1.00  0.00     0.074 A 
ATOM     32  C   UNL A   1      41.271  26.819  28.745  1.00  0.00     0.031 C 
ATOM     33  C   UNL A   1      42.545  30.783  34.244  1.00  0.00     0.029 A 
ATOM     34  C   UNL A   1      43.640  29.915  33.822  1.00  0.00     0.049 A 
ATOM     35  H   UNL A   1      43.705  28.679  32.145  1.00  0.00     0.167 HD
ATOM     36  C   UNL A   1      43.552  25.856  28.795  1.00  0.00     0.034 A 
ATOM     37  C   UNL A   1      44.819  29.779  34.461  1.00  0.00     0.034 A 
ATOM     38  C   UNL A   1      44.893  25.770  29.307  1.00  0.00     0.049 A 
ATOM     39  C   UNL A   1      45.868  28.877  33.869  1.00  0.00     0.074 A 
ATOM     40  C   UNL A   1      45.947  25.011  28.834  1.00  0.00     0.029 A 
ATOM     41  N   UNL A   1      45.363  26.464  30.412  1.00  0.00    -0.354 N 
ATOM     42  N   UNL A   1      45.806  28.142  32.785  1.00  0.00    -0.248 NA
ATOM     43  C   UNL A   1      47.162  28.816  34.563  1.00  0.00     0.031 C 
ATOM     44  C   UNL A   1      47.052  25.235  29.663  1.00  0.00     0.029 A 
ATOM     45  C   UNL A   1      46.691  26.150  30.639  1.00  0.00     0.049 A 
ATOM     46  H   UNL A   1      44.829  27.089  30.954  1.00  0.00     0.167 HD
ATOM     47  C   UNL A   1      47.059  27.557  32.647  1.00  0.00     0.074 A 
ATOM     48  C   UNL A   1      47.868  28.043  33.748  1.00  0.00     0.031 C 
ATOM     49  C   UNL A   1      47.497  26.684  31.707  1.00  0.00     0.034 A 
BRANCH  36  50
ATOM     50  C   UNL A   1      43.181  25.007  27.607  1.00  0.00     0.023 A 
ATOM     51  C   UNL A   1      43.540  25.435  26.312  1.00  0.00     0.012 A 
ATOM     52  C   UNL A   1      42.527  23.771  27.769  1.00  0.00     0.148 A 
ATOM     53  C   UNL A   1      43.221  24.664  25.194  1.00  0.00     0.002 A 
ATOM     54  C   UNL A   1      42.252  22.987  26.654  1.00  0.00     0.091 A 
ATOM     55  F   UNL A   1      42.175  23.390  29.006  1.00  0.00    -0.205 F 
ATOM     56  C   UNL A   1      42.588  23.437  25.367  1.00  0.00     0.022 A 
BRANCH  54  57
ATOM     57  S   UNL A   1      41.506  21.357  26.774  1.00  0.00     0.127 S 
ATOM     58  O   UNL A   1      40.835  21.244  25.481  1.00  0.00    -0.237 OA
ATOM     59  O   UNL A   1      42.677  20.493  26.930  1.00  0.00    -0.237 OA
ATOM     60  O   UNL A   1      40.628  21.403  27.934  1.00  0.00    -0.744 OA
ENDBRANCH  54  57
ENDBRANCH  36  50
BRANCH  37  61
ATOM     61  C   UNL A   1      45.093  30.573  35.694  1.00  0.00     0.023 A 
ATOM     62  C   UNL A   1      44.779  30.027  36.953  1.00  0.00     0.012 A 
ATOM     63  C   UNL A   1      45.690  31.847  35.628  1.00  0.00     0.148 A 
ATOM     64  C   UNL A   1      45.027  30.746  38.123  1.00  0.00     0.002 A 
ATOM     65  C   UNL A   1      45.985  32.534  36.799  1.00  0.00     0.091 A 
ATOM     66  F   UNL A   1      45.970  32.355  34.420  1.00  0.00    -0.205 F 
ATOM     67  C   UNL A   1      45.638  31.994  38.047  1.00  0.00     0.022 A 
BRANCH  65  68
ATOM     68  S   UNL A   1      46.891  34.086  36.800  1.00  0.00     0.127 S 
ATOM     69  O   UNL A   1      45.860  35.036  37.208  1.00  0.00    -0.237 OA
ATOM     70  O   UNL A   1      47.926  33.832  37.803  1.00  0.00    -0.237 OA
ATOM     71  O   UNL A   1      47.401  34.243  35.444  1.00  0.00    -0.744 OA
ENDBRANCH  65  68
ENDBRANCH  37  61
BRANCH  49  72
ATOM     72  C   UNL A   1      48.925  26.215  31.801  1.00  0.00     0.023 A 
ATOM     73  C   UNL A   1      49.238  25.081  32.576  1.00  0.00     0.012 A 
ATOM     74  C   UNL A   1      49.940  26.848  31.057  1.00  0.00     0.148 A 
ATOM     75  C   UNL A   1      50.546  24.603  32.634  1.00  0.00     0.002 A 
ATOM     76  C   UNL A   1      51.232  26.337  31.081  1.00  0.00     0.091 A 
ATOM     77  F   UNL A   1      49.624  27.938  30.341  1.00  0.00    -0.205 F 
ATOM     78  C   UNL A   1      51.539  25.222  31.878  1.00  0.00     0.022 A 
BRANCH  76  79
ATOM     79  S   UNL A   1      52.551  27.011  30.065  1.00  0.00     0.127 S 
ATOM     80  O   UNL A   1      52.680  28.364  30.603  1.00  0.00    -0.237 OA
ATOM     81  O   UNL A   1      53.670  26.121  30.378  1.00  0.00    -0.237 OA
ATOM     82  O   UNL A   1      52.081  26.926  28.690  1.00  0.00    -0.744 OA
ENDBRANCH  76  79
ENDBRANCH  49  72
ENDBRANCH  23  24
ENDBRANCH  15  18
ENDBRANCH  13  14
ENDBRANCH  12  13
ENDBRANCH  11  12
ENDBRANCH  10  11
ENDBRANCH   8  10
ENDBRANCH   1   6
BRANCH   1  83
ATOM     83  N   UNL A   1      31.101  27.862  25.618  1.00  0.00    -0.343 N 
ATOM     84  C   UNL A   1      30.436  26.663  25.529  1.00  0.00     0.242 C 
ATOM     85  H   UNL A   1      31.469  28.076  26.504  1.00  0.00     0.164 HD
ATOM     86  O   UNL A   1      30.276  25.999  26.557  1.00  0.00    -0.273 OA
BRANCH  84  87
ATOM     87  C   UNL A   1      29.843  26.184  24.175  1.00  0.00     0.168 C 
ATOM     88  C   UNL A   1      28.320  26.280  24.280  1.00  0.00     0.041 C 
BRANCH  87  89
ATOM     89  N   UNL A   1      30.207  24.789  23.916  1.00  0.00    -0.343 N 
ATOM     90  C   UNL A   1      31.062  24.167  23.069  1.00  0.00     0.243 C 
ATOM     91  H   UNL A   1      29.717  24.157  24.491  1.00  0.00     0.164 HD
ATOM     92  O   UNL A   1      30.762  22.993  22.800  1.00  0.00    -0.273 OA
BRANCH  90  93
ATOM     93  C   UNL A   1      32.445  24.718  22.577  1.00  0.00     0.174 C 
BRANCH  93  94
ATOM     94  N   UNL A   1      33.557  23.749  22.484  1.00  0.00    -0.343 N 
ATOM     95  C   UNL A   1      34.710  23.496  23.170  1.00  0.00     0.240 C 
ATOM     96  H   UNL A   1      33.435  23.124  21.733  1.00  0.00     0.164 HD
ATOM     97  O   UNL A   1      35.207  22.380  22.986  1.00  0.00    -0.273 OA
BRANCH  95  98
ATOM     98  C   UNL A   1      35.343  24.490  24.155  1.00  0.00     0.219 C 
BRANCH  98  99
ATOM     99  N   UNL A   1      36.439  23.810  24.802  1.00  0.00    -0.312 N 
ATOM    100  C   UNL A   1      36.547  23.177  25.983  1.00  0.00     0.407 C 
ATOM    101  H   UNL A   1      37.269  23.808  24.274  1.00  0.00     0.167 HD
ATOM    102  O   UNL A   1      37.682  22.907  26.361  1.00  0.00    -0.225 OA
BRANCH 100 103
ATOM    103  O   UNL A   1      35.412  23.064  26.694  1.00  0.00    -0.445 OA
BRANCH 103 104
ATOM    104  C   UNL A   1      35.067  21.703  27.004  1.00  0.00     0.270 C 
BRANCH 104 105
ATOM    105  C   UNL A   1      34.176  21.011  25.997  1.00  0.00    -0.011 A 
ATOM    106  C   UNL A   1      32.845  21.411  25.835  1.00  0.00     0.007 A 
ATOM    107  C   UNL A   1      34.643  19.927  25.234  1.00  0.00     0.007 A 
ATOM    108  C   UNL A   1      32.010  20.743  24.935  1.00  0.00     0.000 A 
ATOM    109  C   UNL A   1      33.820  19.282  24.312  1.00  0.00     0.000 A 
ATOM    110  C   UNL A   1      32.500  19.687  24.167  1.00  0.00     0.000 A 
ENDBRANCH 104 105
ENDBRANCH 103 104
ENDBRANCH 100 103
ENDBRANCH  98  99
ENDBRANCH  95  98
ENDBRANCH  93  94
BRANCH  93 111
ATOM    111  C   UNL A   1      32.291  25.748  21.419  1.00  0.00     0.015 C 
ATOM    112  C   UNL A   1      33.116  27.028  21.593  1.00  0.00     0.010 C 
ATOM    113  C   UNL A   1      32.585  25.168  20.028  1.00  0.00     0.010 C 
ENDBRANCH  93 111
ENDBRANCH  90  93
ENDBRANCH  87  89
ENDBRANCH  84  87
ENDBRANCH   1  83
TORSDOF 27
ENDMDL
