MODEL 1
REMARK VINA RESULT:     -12.0      0.000      0.000
REMARK SMILES O=C(NCCCCNC(=O)[C@@H]1CCC(=O)N1C(=O)/C=C/c1ccccc1)c1ccc(-c2c3nc(c(-c4cccc(S(=O)(=O)[O-])c4F)c4ccc([nH]4)c(-c4cccc(S(=O)(=O)[O-])c4F)c4nc(c(-c5cccc(S(=O)(=O)[O-])c5F)c5ccc2[nH]5)C=C4)C=C3)cc1
REMARK SMILES IDX 5 1 4 2 3 3 1 4 2 5 27 7 28 8 89 9 29 10 88 11 30 12 31 13
REMARK SMILES IDX 32 14 82 15 33 16 87 17 81 18 83 19 34 20 86 21 80 22 79 23
REMARK SMILES IDX 35 25 67 26 47 27 66 28 48 29 51 30 65 31 84 32 49 33 50 34
REMARK SMILES IDX 64 36 85 37 52 38 36 39 37 40 45 41 38 42 40 43 46 44 39 45
REMARK SMILES IDX 41 46 42 47 43 48 44 49 68 50 69 51 77 52 70 53 72 54 78 55
REMARK SMILES IDX 71 56 73 57 74 58 75 59 76 60 53 61 54 62 62 63 55 64 57 65
REMARK SMILES IDX 63 66 56 67 58 68 59 69 60 70 61 71 6 72 7 73 8 74 9 75
REMARK SMILES IDX 10 77 11 78 12 79 16 80 13 81 14 82 15 83 17 84 18 85 19 86
REMARK SMILES IDX 20 87 21 88 22 89 26 90 23 91 25 92 24 93
REMARK H PARENT 3 6 83 24 51 35 8 76
REMARK Flexibility Score: inf
ROOT
ATOM      1  C   UNL A   1      31.581  28.821  26.108  1.00  0.00     0.023 C 
ENDROOT
BRANCH   1   2
ATOM      2  C   UNL A   1      32.738  29.782  25.862  1.00  0.00     0.116 C 
BRANCH   2   3
ATOM      3  N   UNL A   1      32.410  31.158  26.192  1.00  0.00    -0.352 N 
ATOM      4  O   UNL A   1      32.537  33.091  27.345  1.00  0.00    -0.269 OA
ATOM      5  C   UNL A   1      33.038  32.004  27.079  1.00  0.00     0.251 C 
ATOM      6  H   UNL A   1      31.636  31.538  25.718  1.00  0.00     0.163 HD
BRANCH   5   7
ATOM      7  C   UNL A   1      34.295  31.572  27.726  1.00  0.00     0.039 A 
ATOM      8  C   UNL A   1      34.487  30.234  28.080  1.00  0.00     0.014 A 
ATOM      9  C   UNL A   1      35.284  32.521  28.000  1.00  0.00     0.014 A 
ATOM     10  C   UNL A   1      35.598  29.873  28.833  1.00  0.00     0.010 A 
ATOM     11  C   UNL A   1      36.438  32.138  28.688  1.00  0.00     0.010 A 
ATOM     12  C   UNL A   1      36.590  30.818  29.139  1.00  0.00    -0.014 A 
BRANCH  12  13
ATOM     13  C   UNL A   1      37.809  30.383  29.867  1.00  0.00     0.031 A 
ATOM     14  C   UNL A   1      38.083  30.827  31.277  1.00  0.00     0.074 A 
ATOM     15  C   UNL A   1      38.678  29.572  29.234  1.00  0.00     0.049 A 
ATOM     16  N   UNL A   1      39.084  30.508  32.057  1.00  0.00    -0.248 NA
ATOM     17  C   UNL A   1      37.119  31.753  31.893  1.00  0.00     0.031 C 
ATOM     18  C   UNL A   1      38.544  29.119  27.846  1.00  0.00     0.029 A 
ATOM     19  N   UNL A   1      39.840  28.986  29.661  1.00  0.00    -0.354 N 
ATOM     20  C   UNL A   1      38.898  31.222  33.234  1.00  0.00     0.074 A 
ATOM     21  C   UNL A   1      37.687  31.995  33.069  1.00  0.00     0.031 C 
ATOM     22  C   UNL A   1      39.569  28.313  27.545  1.00  0.00     0.029 A 
ATOM     23  C   UNL A   1      40.458  28.224  28.698  1.00  0.00     0.049 A 
ATOM     24  H   UNL A   1      40.200  29.101  30.571  1.00  0.00     0.167 HD
ATOM     25  C   UNL A   1      39.658  31.217  34.356  1.00  0.00     0.034 A 
ATOM     26  C   UNL A   1      41.616  27.538  28.731  1.00  0.00     0.034 A 
ATOM     27  C   UNL A   1      40.838  30.410  34.530  1.00  0.00     0.049 A 
ATOM     28  C   UNL A   1      42.412  27.515  30.002  1.00  0.00     0.074 A 
ATOM     29  C   UNL A   1      41.631  30.280  35.658  1.00  0.00     0.029 A 
ATOM     30  N   UNL A   1      41.400  29.603  33.553  1.00  0.00    -0.354 N 
ATOM     31  N   UNL A   1      42.141  28.085  31.152  1.00  0.00    -0.248 NA
ATOM     32  C   UNL A   1      43.655  26.734  29.993  1.00  0.00     0.031 C 
ATOM     33  C   UNL A   1      42.681  29.404  35.356  1.00  0.00     0.029 A 
ATOM     34  C   UNL A   1      42.534  28.979  34.047  1.00  0.00     0.049 A 
ATOM     35  H   UNL A   1      41.046  29.491  32.641  1.00  0.00     0.167 HD
ATOM     36  C   UNL A   1      43.170  27.717  32.009  1.00  0.00     0.074 A 
ATOM     37  C   UNL A   1      44.053  26.851  31.254  1.00  0.00     0.031 C 
ATOM     38  C   UNL A   1      43.377  28.083  33.298  1.00  0.00     0.034 A 
BRANCH  25  39
ATOM     39  C   UNL A   1      39.219  32.077  35.511  1.00  0.00     0.023 A 
ATOM     40  C   UNL A   1      38.366  31.535  36.494  1.00  0.00     0.012 A 
ATOM     41  C   UNL A   1      39.713  33.387  35.673  1.00  0.00     0.148 A 
ATOM     42  C   UNL A   1      37.994  32.290  37.607  1.00  0.00     0.002 A 
ATOM     43  C   UNL A   1      39.367  34.120  36.803  1.00  0.00     0.091 A 
ATOM     44  F   UNL A   1      40.506  33.893  34.717  1.00  0.00    -0.205 F 
ATOM     45  C   UNL A   1      38.504  33.576  37.767  1.00  0.00     0.022 A 
BRANCH  43  46
ATOM     46  S   UNL A   1      40.029  35.758  37.134  1.00  0.00     0.127 S 
ATOM     47  O   UNL A   1      39.634  36.484  35.928  1.00  0.00    -0.237 OA
ATOM     48  O   UNL A   1      39.305  36.148  38.345  1.00  0.00    -0.237 OA
ATOM     49  O   UNL A   1      41.463  35.579  37.319  1.00  0.00    -0.744 OA
ENDBRANCH  43  46
ENDBRANCH  25  39
BRANCH  26  50
ATOM     50  C   UNL A   1      42.049  26.778  27.526  1.00  0.00     0.023 A 
ATOM     51  C   UNL A   1      42.790  27.431  26.524  1.00  0.00     0.012 A 
ATOM     52  C   UNL A   1      41.794  25.398  27.405  1.00  0.00     0.148 A 
ATOM     53  C   UNL A   1      43.256  26.726  25.413  1.00  0.00     0.002 A 
ATOM     54  C   UNL A   1      42.312  24.690  26.328  1.00  0.00     0.091 A 
ATOM     55  F   UNL A   1      41.071  24.798  28.362  1.00  0.00    -0.205 F 
ATOM     56  C   UNL A   1      43.030  25.354  25.323  1.00  0.00     0.022 A 
BRANCH  54  57
ATOM     57  S   UNL A   1      42.195  22.901  26.220  1.00  0.00     0.127 S 
ATOM     58  O   UNL A   1      43.003  22.478  27.359  1.00  0.00    -0.237 OA
ATOM     59  O   UNL A   1      40.756  22.678  26.367  1.00  0.00    -0.237 OA
ATOM     60  O   UNL A   1      42.718  22.559  24.903  1.00  0.00    -0.744 OA
ENDBRANCH  54  57
ENDBRANCH  26  50
BRANCH  38  61
ATOM     61  C   UNL A   1      44.604  27.540  33.981  1.00  0.00     0.023 A 
ATOM     62  C   UNL A   1      45.805  28.273  33.932  1.00  0.00     0.012 A 
ATOM     63  C   UNL A   1      44.550  26.343  34.720  1.00  0.00     0.148 A 
ATOM     64  C   UNL A   1      46.946  27.807  34.585  1.00  0.00     0.002 A 
ATOM     65  C   UNL A   1      45.680  25.907  35.405  1.00  0.00     0.091 A 
ATOM     66  F   UNL A   1      43.403  25.649  34.736  1.00  0.00    -0.205 F 
ATOM     67  C   UNL A   1      46.881  26.632  35.330  1.00  0.00     0.022 A 
BRANCH  65  68
ATOM     68  S   UNL A   1      45.656  24.453  36.459  1.00  0.00     0.127 S 
ATOM     69  O   UNL A   1      45.271  23.406  35.514  1.00  0.00    -0.237 OA
ATOM     70  O   UNL A   1      47.042  24.377  36.922  1.00  0.00    -0.237 OA
ATOM     71  O   UNL A   1      44.687  24.740  37.510  1.00  0.00    -0.744 OA
ENDBRANCH  65  68
ENDBRANCH  38  61
ENDBRANCH  12  13
ENDBRANCH   5   7
ENDBRANCH   2   3
ENDBRANCH   1   2
BRANCH   1  72
ATOM     72  C   UNL A   1      31.936  27.568  26.910  1.00  0.00     0.023 C 
BRANCH  72  73
ATOM     73  C   UNL A   1      31.901  26.270  26.108  1.00  0.00     0.116 C 
BRANCH  73  74
ATOM     74  N   UNL A   1      33.237  25.756  25.866  1.00  0.00    -0.354 N 
ATOM     75  C   UNL A   1      33.676  24.887  24.913  1.00  0.00     0.243 C 
ATOM     76  H   UNL A   1      33.929  26.085  26.483  1.00  0.00     0.163 HD
ATOM     77  O   UNL A   1      34.889  24.675  24.833  1.00  0.00    -0.273 OA
BRANCH  75  78
ATOM     78  C   UNL A   1      32.679  24.189  23.977  1.00  0.00     0.183 C 
ATOM     79  C   UNL A   1      32.880  22.684  24.078  1.00  0.00     0.046 C 
ATOM     80  N   UNL A   1      33.003  24.523  22.601  1.00  0.00    -0.266 N 
ATOM     81  C   UNL A   1      32.682  22.196  22.662  1.00  0.00     0.103 C 
ATOM     82  C   UNL A   1      33.141  23.362  21.825  1.00  0.00     0.230 C 
ATOM     83  O   UNL A   1      33.487  23.250  20.660  1.00  0.00    -0.274 OA
BRANCH  80  84
ATOM     84  C   UNL A   1      32.867  25.849  22.205  1.00  0.00     0.253 C 
ATOM     85  O   UNL A   1      33.813  26.508  21.769  1.00  0.00    -0.269 OA
BRANCH  84  86
ATOM     86  C   UNL A   1      31.540  26.495  22.277  1.00  0.00     0.072 C 
ATOM     87  C   UNL A   1      31.406  27.811  22.496  1.00  0.00     0.014 C 
BRANCH  87  88
ATOM     88  C   UNL A   1      30.135  28.558  22.521  1.00  0.00    -0.025 A 
ATOM     89  C   UNL A   1      29.026  27.957  23.135  1.00  0.00     0.008 A 
ATOM     90  C   UNL A   1      29.970  29.830  21.956  1.00  0.00     0.008 A 
ATOM     91  C   UNL A   1      27.791  28.610  23.191  1.00  0.00     0.001 A 
ATOM     92  C   UNL A   1      28.736  30.485  22.013  1.00  0.00     0.001 A 
ATOM     93  C   UNL A   1      27.647  29.876  22.631  1.00  0.00     0.000 A 
ENDBRANCH  87  88
ENDBRANCH  84  86
ENDBRANCH  80  84
ENDBRANCH  75  78
ENDBRANCH  73  74
ENDBRANCH  72  73
ENDBRANCH   1  72
TORSDOF 17
ENDMDL
MODEL 2
REMARK VINA RESULT:     -11.9      5.647      9.032
REMARK SMILES O=C(NCCCCNC(=O)[C@@H]1CCC(=O)N1C(=O)/C=C/c1ccccc1)c1ccc(-c2c3nc(c(-c4cccc(S(=O)(=O)[O-])c4F)c4ccc([nH]4)c(-c4cccc(S(=O)(=O)[O-])c4F)c4nc(c(-c5cccc(S(=O)(=O)[O-])c5F)c5ccc2[nH]5)C=C4)C=C3)cc1
REMARK SMILES IDX 5 1 4 2 3 3 1 4 2 5 27 7 28 8 89 9 29 10 88 11 30 12 31 13
REMARK SMILES IDX 32 14 82 15 33 16 87 17 81 18 83 19 34 20 86 21 80 22 79 23
REMARK SMILES IDX 35 25 67 26 47 27 66 28 48 29 51 30 65 31 84 32 49 33 50 34
REMARK SMILES IDX 64 36 85 37 52 38 36 39 37 40 45 41 38 42 40 43 46 44 39 45
REMARK SMILES IDX 41 46 42 47 43 48 44 49 68 50 69 51 77 52 70 53 72 54 78 55
REMARK SMILES IDX 71 56 73 57 74 58 75 59 76 60 53 61 54 62 62 63 55 64 57 65
REMARK SMILES IDX 63 66 56 67 58 68 59 69 60 70 61 71 6 72 7 73 8 74 9 75
REMARK SMILES IDX 10 77 11 78 12 79 16 80 13 81 14 82 15 83 17 84 18 85 19 86
REMARK SMILES IDX 20 87 21 88 22 89 26 90 23 91 25 92 24 93
REMARK H PARENT 3 6 83 24 51 35 8 76
REMARK Flexibility Score: inf
ROOT
ATOM      1  C   UNL A   1      37.525  19.818  24.982  1.00  0.00     0.023 C 
ENDROOT
BRANCH   1   2
ATOM      2  C   UNL A   1      38.734  20.369  25.727  1.00  0.00     0.116 C 
BRANCH   2   3
ATOM      3  N   UNL A   1      39.783  19.381  25.912  1.00  0.00    -0.352 N 
ATOM      4  O   UNL A   1      41.897  18.635  26.155  1.00  0.00    -0.269 OA
ATOM      5  C   UNL A   1      41.119  19.583  26.175  1.00  0.00     0.251 C 
ATOM      6  H   UNL A   1      39.502  18.441  25.838  1.00  0.00     0.163 HD
BRANCH   5   7
ATOM      7  C   UNL A   1      41.605  20.953  26.448  1.00  0.00     0.039 A 
ATOM      8  C   UNL A   1      41.620  21.453  27.752  1.00  0.00     0.014 A 
ATOM      9  C   UNL A   1      42.030  21.752  25.383  1.00  0.00     0.014 A 
ATOM     10  C   UNL A   1      41.921  22.792  27.974  1.00  0.00     0.010 A 
ATOM     11  C   UNL A   1      42.411  23.076  25.620  1.00  0.00     0.010 A 
ATOM     12  C   UNL A   1      42.327  23.617  26.913  1.00  0.00    -0.014 A 
BRANCH  12  13
ATOM     13  C   UNL A   1      42.729  25.018  27.194  1.00  0.00     0.031 A 
ATOM     14  C   UNL A   1      41.797  25.983  27.872  1.00  0.00     0.074 A 
ATOM     15  C   UNL A   1      43.962  25.417  26.825  1.00  0.00     0.049 A 
ATOM     16  N   UNL A   1      42.012  27.227  28.214  1.00  0.00    -0.248 NA
ATOM     17  C   UNL A   1      40.447  25.498  28.202  1.00  0.00     0.031 C 
ATOM     18  C   UNL A   1      44.935  24.584  26.111  1.00  0.00     0.029 A 
ATOM     19  N   UNL A   1      44.611  26.612  26.992  1.00  0.00    -0.354 N 
ATOM     20  C   UNL A   1      40.820  27.688  28.759  1.00  0.00     0.074 A 
ATOM     21  C   UNL A   1      39.880  26.591  28.701  1.00  0.00     0.031 C 
ATOM     22  C   UNL A   1      46.060  25.285  25.921  1.00  0.00     0.029 A 
ATOM     23  C   UNL A   1      45.877  26.629  26.457  1.00  0.00     0.049 A 
ATOM     24  H   UNL A   1      44.208  27.385  27.450  1.00  0.00     0.167 HD
ATOM     25  C   UNL A   1      40.543  28.910  29.277  1.00  0.00     0.034 A 
ATOM     26  C   UNL A   1      46.789  27.618  26.391  1.00  0.00     0.034 A 
ATOM     27  C   UNL A   1      41.497  29.984  29.373  1.00  0.00     0.049 A 
ATOM     28  C   UNL A   1      46.468  28.945  27.013  1.00  0.00     0.074 A 
ATOM     29  C   UNL A   1      41.332  31.231  29.950  1.00  0.00     0.029 A 
ATOM     30  N   UNL A   1      42.790  29.944  28.874  1.00  0.00    -0.354 N 
ATOM     31  N   UNL A   1      45.384  29.313  27.651  1.00  0.00    -0.248 NA
ATOM     32  C   UNL A   1      47.505  29.982  26.935  1.00  0.00     0.031 C 
ATOM     33  C   UNL A   1      42.522  31.950  29.787  1.00  0.00     0.029 A 
ATOM     34  C   UNL A   1      43.431  31.146  29.122  1.00  0.00     0.049 A 
ATOM     35  H   UNL A   1      43.193  29.174  28.411  1.00  0.00     0.167 HD
ATOM     36  C   UNL A   1      45.613  30.619  28.067  1.00  0.00     0.074 A 
ATOM     37  C   UNL A   1      46.952  30.965  27.634  1.00  0.00     0.031 C 
ATOM     38  C   UNL A   1      44.781  31.461  28.725  1.00  0.00     0.034 A 
BRANCH  25  39
ATOM     39  C   UNL A   1      39.161  29.146  29.828  1.00  0.00     0.023 A 
ATOM     40  C   UNL A   1      38.842  28.686  31.121  1.00  0.00     0.012 A 
ATOM     41  C   UNL A   1      38.209  29.895  29.107  1.00  0.00     0.148 A 
ATOM     42  C   UNL A   1      37.590  28.947  31.679  1.00  0.00     0.002 A 
ATOM     43  C   UNL A   1      36.978  30.183  29.685  1.00  0.00     0.091 A 
ATOM     44  F   UNL A   1      38.523  30.307  27.870  1.00  0.00    -0.205 F 
ATOM     45  C   UNL A   1      36.664  29.704  30.967  1.00  0.00     0.022 A 
BRANCH  43  46
ATOM     46  S   UNL A   1      35.745  31.211  28.875  1.00  0.00     0.127 S 
ATOM     47  O   UNL A   1      34.891  31.587  30.001  1.00  0.00    -0.237 OA
ATOM     48  O   UNL A   1      36.557  32.302  28.333  1.00  0.00    -0.237 OA
ATOM     49  O   UNL A   1      35.119  30.365  27.868  1.00  0.00    -0.744 OA
ENDBRANCH  43  46
ENDBRANCH  25  39
BRANCH  26  50
ATOM     50  C   UNL A   1      48.107  27.354  25.752  1.00  0.00     0.023 A 
ATOM     51  C   UNL A   1      49.160  26.833  26.524  1.00  0.00     0.012 A 
ATOM     52  C   UNL A   1      48.298  27.548  24.369  1.00  0.00     0.148 A 
ATOM     53  C   UNL A   1      50.388  26.524  25.936  1.00  0.00     0.002 A 
ATOM     54  C   UNL A   1      49.501  27.183  23.779  1.00  0.00     0.091 A 
ATOM     55  F   UNL A   1      47.288  28.063  23.654  1.00  0.00    -0.205 F 
ATOM     56  C   UNL A   1      50.552  26.685  24.562  1.00  0.00     0.022 A 
BRANCH  54  57
ATOM     57  S   UNL A   1      49.737  27.216  21.998  1.00  0.00     0.127 S 
ATOM     58  O   UNL A   1      49.529  28.629  21.695  1.00  0.00    -0.237 OA
ATOM     59  O   UNL A   1      51.118  26.752  21.863  1.00  0.00    -0.237 OA
ATOM     60  O   UNL A   1      48.744  26.295  21.460  1.00  0.00    -0.744 OA
ENDBRANCH  54  57
ENDBRANCH  26  50
BRANCH  38  61
ATOM     61  C   UNL A   1      45.295  32.843  29.030  1.00  0.00     0.023 A 
ATOM     62  C   UNL A   1      45.998  33.072  30.228  1.00  0.00     0.012 A 
ATOM     63  C   UNL A   1      45.140  33.892  28.104  1.00  0.00     0.148 A 
ATOM     64  C   UNL A   1      46.512  34.335  30.517  1.00  0.00     0.002 A 
ATOM     65  C   UNL A   1      45.694  35.139  28.379  1.00  0.00     0.091 A 
ATOM     66  F   UNL A   1      44.448  33.660  26.979  1.00  0.00    -0.205 F 
ATOM     67  C   UNL A   1      46.371  35.364  29.588  1.00  0.00     0.022 A 
BRANCH  65  68
ATOM     68  S   UNL A   1      45.633  36.492  27.199  1.00  0.00     0.127 S 
ATOM     69  O   UNL A   1      46.367  37.539  27.909  1.00  0.00    -0.237 OA
ATOM     70  O   UNL A   1      46.334  35.933  26.043  1.00  0.00    -0.237 OA
ATOM     71  O   UNL A   1      44.218  36.758  26.973  1.00  0.00    -0.744 OA
ENDBRANCH  65  68
ENDBRANCH  38  61
ENDBRANCH  12  13
ENDBRANCH   5   7
ENDBRANCH   2   3
ENDBRANCH   1   2
BRANCH   1  72
ATOM     72  C   UNL A   1      36.297  20.730  24.970  1.00  0.00     0.023 C 
BRANCH  72  73
ATOM     73  C   UNL A   1      36.504  22.080  25.649  1.00  0.00     0.116 C 
BRANCH  73  74
ATOM     74  N   UNL A   1      35.586  22.267  26.758  1.00  0.00    -0.354 N 
ATOM     75  C   UNL A   1      34.386  22.910  26.798  1.00  0.00     0.243 C 
ATOM     76  H   UNL A   1      35.876  21.867  27.610  1.00  0.00     0.163 HD
ATOM     77  O   UNL A   1      33.726  22.847  27.838  1.00  0.00    -0.273 OA
BRANCH  75  78
ATOM     78  C   UNL A   1      33.884  23.697  25.578  1.00  0.00     0.183 C 
ATOM     79  C   UNL A   1      34.358  25.138  25.694  1.00  0.00     0.046 C 
ATOM     80  N   UNL A   1      32.434  23.770  25.623  1.00  0.00    -0.266 N 
ATOM     81  C   UNL A   1      33.195  25.945  25.165  1.00  0.00     0.103 C 
ATOM     82  C   UNL A   1      31.998  25.099  25.512  1.00  0.00     0.230 C 
ATOM     83  O   UNL A   1      30.866  25.548  25.593  1.00  0.00    -0.274 OA
BRANCH  80  84
ATOM     84  C   UNL A   1      31.720  22.584  25.496  1.00  0.00     0.253 C 
ATOM     85  O   UNL A   1      30.630  22.408  26.044  1.00  0.00    -0.269 OA
BRANCH  84  86
ATOM     86  C   UNL A   1      32.260  21.498  24.652  1.00  0.00     0.072 C 
ATOM     87  C   UNL A   1      32.380  20.242  25.107  1.00  0.00     0.014 C 
BRANCH  87  88
ATOM     88  C   UNL A   1      32.845  19.081  24.327  1.00  0.00    -0.025 A 
ATOM     89  C   UNL A   1      33.800  18.233  24.908  1.00  0.00     0.008 A 
ATOM     90  C   UNL A   1      32.395  18.782  23.034  1.00  0.00     0.008 A 
ATOM     91  C   UNL A   1      34.285  17.116  24.222  1.00  0.00     0.001 A 
ATOM     92  C   UNL A   1      32.878  17.664  22.347  1.00  0.00     0.001 A 
ATOM     93  C   UNL A   1      33.821  16.830  22.941  1.00  0.00     0.000 A 
ENDBRANCH  87  88
ENDBRANCH  84  86
ENDBRANCH  80  84
ENDBRANCH  75  78
ENDBRANCH  73  74
ENDBRANCH  72  73
ENDBRANCH   1  72
TORSDOF 17
ENDMDL
MODEL 3
REMARK VINA RESULT:     -11.9      4.949     10.293
REMARK SMILES O=C(NCCCCNC(=O)[C@@H]1CCC(=O)N1C(=O)/C=C/c1ccccc1)c1ccc(-c2c3nc(c(-c4cccc(S(=O)(=O)[O-])c4F)c4ccc([nH]4)c(-c4cccc(S(=O)(=O)[O-])c4F)c4nc(c(-c5cccc(S(=O)(=O)[O-])c5F)c5ccc2[nH]5)C=C4)C=C3)cc1
REMARK SMILES IDX 5 1 4 2 3 3 1 4 2 5 27 7 28 8 89 9 29 10 88 11 30 12 31 13
REMARK SMILES IDX 32 14 82 15 33 16 87 17 81 18 83 19 34 20 86 21 80 22 79 23
REMARK SMILES IDX 35 25 67 26 47 27 66 28 48 29 51 30 65 31 84 32 49 33 50 34
REMARK SMILES IDX 64 36 85 37 52 38 36 39 37 40 45 41 38 42 40 43 46 44 39 45
REMARK SMILES IDX 41 46 42 47 43 48 44 49 68 50 69 51 77 52 70 53 72 54 78 55
REMARK SMILES IDX 71 56 73 57 74 58 75 59 76 60 53 61 54 62 62 63 55 64 57 65
REMARK SMILES IDX 63 66 56 67 58 68 59 69 60 70 61 71 6 72 7 73 8 74 9 75
REMARK SMILES IDX 10 77 11 78 12 79 16 80 13 81 14 82 15 83 17 84 18 85 19 86
REMARK SMILES IDX 20 87 21 88 22 89 26 90 23 91 25 92 24 93
REMARK H PARENT 3 6 83 24 51 35 8 76
REMARK Flexibility Score: inf
ROOT
ATOM      1  C   UNL A   1      36.050  21.771  24.241  1.00  0.00     0.023 C 
ENDROOT
BRANCH   1   2
ATOM      2  C   UNL A   1      36.682  21.630  25.621  1.00  0.00     0.116 C 
BRANCH   2   3
ATOM      3  N   UNL A   1      37.662  20.560  25.687  1.00  0.00    -0.352 N 
ATOM      4  O   UNL A   1      39.719  19.651  25.851  1.00  0.00    -0.269 OA
ATOM      5  C   UNL A   1      39.004  20.638  25.985  1.00  0.00     0.251 C 
ATOM      6  H   UNL A   1      37.322  19.656  25.495  1.00  0.00     0.163 HD
BRANCH   5   7
ATOM      7  C   UNL A   1      39.573  21.929  26.431  1.00  0.00     0.039 A 
ATOM      8  C   UNL A   1      39.128  23.130  25.874  1.00  0.00     0.014 A 
ATOM      9  C   UNL A   1      40.578  21.932  27.402  1.00  0.00     0.014 A 
ATOM     10  C   UNL A   1      39.784  24.316  26.181  1.00  0.00     0.010 A 
ATOM     11  C   UNL A   1      41.181  23.138  27.769  1.00  0.00     0.010 A 
ATOM     12  C   UNL A   1      40.812  24.336  27.137  1.00  0.00    -0.014 A 
BRANCH  12  13
ATOM     13  C   UNL A   1      41.433  25.632  27.510  1.00  0.00     0.031 A 
ATOM     14  C   UNL A   1      42.844  25.970  27.117  1.00  0.00     0.074 A 
ATOM     15  C   UNL A   1      40.699  26.514  28.217  1.00  0.00     0.049 A 
ATOM     16  N   UNL A   1      43.516  27.071  27.341  1.00  0.00    -0.248 NA
ATOM     17  C   UNL A   1      43.608  24.943  26.390  1.00  0.00     0.031 C 
ATOM     18  C   UNL A   1      39.337  26.273  28.701  1.00  0.00     0.029 A 
ATOM     19  N   UNL A   1      40.987  27.780  28.655  1.00  0.00    -0.354 N 
ATOM     20  C   UNL A   1      44.788  26.858  26.822  1.00  0.00     0.074 A 
ATOM     21  C   UNL A   1      44.798  25.519  26.274  1.00  0.00     0.031 C 
ATOM     22  C   UNL A   1      38.901  27.361  29.348  1.00  0.00     0.029 A 
ATOM     23  C   UNL A   1      39.964  28.360  29.366  1.00  0.00     0.049 A 
ATOM     24  H   UNL A   1      41.845  28.231  28.478  1.00  0.00     0.167 HD
ATOM     25  C   UNL A   1      45.842  27.708  26.792  1.00  0.00     0.034 A 
ATOM     26  C   UNL A   1      39.889  29.557  29.978  1.00  0.00     0.034 A 
ATOM     27  C   UNL A   1      45.810  29.055  27.299  1.00  0.00     0.049 A 
ATOM     28  C   UNL A   1      41.057  30.494  29.887  1.00  0.00     0.074 A 
ATOM     29  C   UNL A   1      46.804  30.018  27.244  1.00  0.00     0.029 A 
ATOM     30  N   UNL A   1      44.735  29.630  27.960  1.00  0.00    -0.354 N 
ATOM     31  N   UNL A   1      42.200  30.325  29.268  1.00  0.00    -0.248 NA
ATOM     32  C   UNL A   1      40.917  31.796  30.551  1.00  0.00     0.031 C 
ATOM     33  C   UNL A   1      46.333  31.170  27.885  1.00  0.00     0.029 A 
ATOM     34  C   UNL A   1      45.043  30.930  28.326  1.00  0.00     0.049 A 
ATOM     35  H   UNL A   1      43.879  29.180  28.143  1.00  0.00     0.167 HD
ATOM     36  C   UNL A   1      42.910  31.505  29.451  1.00  0.00     0.074 A 
ATOM     37  C   UNL A   1      42.053  32.392  30.214  1.00  0.00     0.031 C 
ATOM     38  C   UNL A   1      44.164  31.817  29.045  1.00  0.00     0.034 A 
BRANCH  25  39
ATOM     39  C   UNL A   1      47.116  27.231  26.146  1.00  0.00     0.023 A 
ATOM     40  C   UNL A   1      47.393  27.586  24.811  1.00  0.00     0.012 A 
ATOM     41  C   UNL A   1      48.077  26.506  26.881  1.00  0.00     0.148 A 
ATOM     42  C   UNL A   1      48.594  27.211  24.210  1.00  0.00     0.002 A 
ATOM     43  C   UNL A   1      49.287  26.167  26.286  1.00  0.00     0.091 A 
ATOM     44  F   UNL A   1      47.787  26.158  28.143  1.00  0.00    -0.205 F 
ATOM     45  C   UNL A   1      49.545  26.512  24.950  1.00  0.00     0.022 A 
BRANCH  43  46
ATOM     46  S   UNL A   1      50.603  25.329  27.180  1.00  0.00     0.127 S 
ATOM     47  O   UNL A   1      51.531  25.004  26.098  1.00  0.00    -0.237 OA
ATOM     48  O   UNL A   1      51.072  26.373  28.093  1.00  0.00    -0.237 OA
ATOM     49  O   UNL A   1      49.977  24.189  27.835  1.00  0.00    -0.744 OA
ENDBRANCH  43  46
ENDBRANCH  25  39
BRANCH  26  50
ATOM     50  C   UNL A   1      38.634  29.941  30.681  1.00  0.00     0.023 A 
ATOM     51  C   UNL A   1      38.464  29.594  32.034  1.00  0.00     0.012 A 
ATOM     52  C   UNL A   1      37.645  30.710  30.038  1.00  0.00     0.148 A 
ATOM     53  C   UNL A   1      37.322  29.992  32.730  1.00  0.00     0.002 A 
ATOM     54  C   UNL A   1      36.540  31.155  30.752  1.00  0.00     0.091 A 
ATOM     55  F   UNL A   1      37.818  31.015  28.743  1.00  0.00    -0.205 F 
ATOM     56  C   UNL A   1      36.368  30.784  32.094  1.00  0.00     0.022 A 
BRANCH  54  57
ATOM     57  S   UNL A   1      35.349  32.301  30.049  1.00  0.00     0.127 S 
ATOM     58  O   UNL A   1      34.431  32.502  31.166  1.00  0.00    -0.237 OA
ATOM     59  O   UNL A   1      36.189  33.456  29.726  1.00  0.00    -0.237 OA
ATOM     60  O   UNL A   1      34.799  31.620  28.884  1.00  0.00    -0.744 OA
ENDBRANCH  54  57
ENDBRANCH  26  50
BRANCH  38  61
ATOM     61  C   UNL A   1      44.690  33.180  29.410  1.00  0.00     0.023 A 
ATOM     62  C   UNL A   1      45.374  33.355  30.628  1.00  0.00     0.012 A 
ATOM     63  C   UNL A   1      44.561  34.265  28.522  1.00  0.00     0.148 A 
ATOM     64  C   UNL A   1      45.899  34.600  30.972  1.00  0.00     0.002 A 
ATOM     65  C   UNL A   1      45.125  35.493  28.853  1.00  0.00     0.091 A 
ATOM     66  F   UNL A   1      43.886  34.083  27.378  1.00  0.00    -0.205 F 
ATOM     67  C   UNL A   1      45.784  35.665  30.081  1.00  0.00     0.022 A 
BRANCH  65  68
ATOM     68  S   UNL A   1      45.100  36.891  27.724  1.00  0.00     0.127 S 
ATOM     69  O   UNL A   1      45.821  36.355  26.570  1.00  0.00    -0.237 OA
ATOM     70  O   UNL A   1      43.668  37.095  27.509  1.00  0.00    -0.237 OA
ATOM     71  O   UNL A   1      45.763  37.981  28.429  1.00  0.00    -0.744 OA
ENDBRANCH  65  68
ENDBRANCH  38  61
ENDBRANCH  12  13
ENDBRANCH   5   7
ENDBRANCH   2   3
ENDBRANCH   1   2
BRANCH   1  72
ATOM     72  C   UNL A   1      36.179  23.156  23.605  1.00  0.00     0.023 C 
BRANCH  72  73
ATOM     73  C   UNL A   1      34.864  23.919  23.476  1.00  0.00     0.116 C 
BRANCH  73  74
ATOM     74  N   UNL A   1      34.722  24.919  24.519  1.00  0.00    -0.354 N 
ATOM     75  C   UNL A   1      33.613  25.308  25.207  1.00  0.00     0.243 C 
ATOM     76  H   UNL A   1      35.553  25.384  24.766  1.00  0.00     0.163 HD
ATOM     77  O   UNL A   1      33.755  26.111  26.134  1.00  0.00    -0.273 OA
BRANCH  75  78
ATOM     78  C   UNL A   1      32.229  24.765  24.824  1.00  0.00     0.183 C 
ATOM     79  C   UNL A   1      31.258  25.932  24.707  1.00  0.00     0.046 C 
ATOM     80  N   UNL A   1      31.717  23.954  25.915  1.00  0.00    -0.266 N 
ATOM     81  C   UNL A   1      29.968  25.387  25.275  1.00  0.00     0.103 C 
ATOM     82  C   UNL A   1      30.434  24.379  26.294  1.00  0.00     0.230 C 
ATOM     83  O   UNL A   1      29.735  23.993  27.217  1.00  0.00    -0.274 OA
BRANCH  80  84
ATOM     84  C   UNL A   1      32.394  22.780  26.225  1.00  0.00     0.253 C 
ATOM     85  O   UNL A   1      32.860  22.563  27.345  1.00  0.00    -0.269 OA
BRANCH  84  86
ATOM     86  C   UNL A   1      32.543  21.734  25.192  1.00  0.00     0.072 C 
ATOM     87  C   UNL A   1      33.030  20.519  25.482  1.00  0.00     0.014 C 
BRANCH  87  88
ATOM     88  C   UNL A   1      33.157  19.391  24.541  1.00  0.00    -0.025 A 
ATOM     89  C   UNL A   1      34.217  18.491  24.726  1.00  0.00     0.008 A 
ATOM     90  C   UNL A   1      32.285  19.174  23.466  1.00  0.00     0.008 A 
ATOM     91  C   UNL A   1      34.397  17.402  23.869  1.00  0.00     0.001 A 
ATOM     92  C   UNL A   1      32.462  18.084  22.608  1.00  0.00     0.001 A 
ATOM     93  C   UNL A   1      33.516  17.197  22.810  1.00  0.00     0.000 A 
ENDBRANCH  87  88
ENDBRANCH  84  86
ENDBRANCH  80  84
ENDBRANCH  75  78
ENDBRANCH  73  74
ENDBRANCH  72  73
ENDBRANCH   1  72
TORSDOF 17
ENDMDL
