MODEL 1
REMARK VINA RESULT:     -12.0      0.000      0.000
REMARK SMILES CC[C@@](C)([NH2+]CC(=O)N[C@]1(C)CCS(=O)(=O)C1)C(=O)NCCCCNC(=O)c1ccc(-c2c3nc(c(-c4cccc(S(=O)(=O)[O-])c4F)c4ccc([nH]4)c(-c4cccc(S(=O)(=O)[O-])c4F)c4nc(c(-c5cccc(S(=O)(=O)[O-])c5F)c5ccc2[nH]5)C=C4)C=C3)cc1
REMARK SMILES IDX 22 1 21 2 20 3 18 4 19 5 3 7 4 8 2 9 1 10 5 11 6 14 7 15
REMARK SMILES IDX 8 16 9 17 10 19 12 20 17 21 11 22 13 23 14 24 15 25 16 26
REMARK SMILES IDX 23 27 24 28 25 29 26 30 27 32 28 33 29 34 90 35 30 36 89 37
REMARK SMILES IDX 31 38 32 39 33 40 83 41 34 42 88 43 82 44 84 45 35 46 87 47
REMARK SMILES IDX 81 48 80 49 36 51 68 52 48 53 67 54 49 55 52 56 66 57 85 58
REMARK SMILES IDX 50 59 51 60 65 62 86 63 53 64 37 65 38 66 46 67 39 68 41 69
REMARK SMILES IDX 47 70 40 71 42 72 43 73 44 74 45 75 69 76 70 77 78 78 71 79
REMARK SMILES IDX 73 80 79 81 72 82 74 83 75 84 76 85 77 86 54 87 55 88 63 89
REMARK SMILES IDX 56 90 58 91 64 92 57 93 59 94 60 95 61 96 62 97
REMARK H PARENT 20 6 5 12 5 13 9 18 25 31 84 50 52 61
REMARK Flexibility Score: inf
ROOT
ATOM      1  C   UNL A   1      31.933  30.263  26.606  1.00  0.00     0.023 C 
ENDROOT
BRANCH   1   2
ATOM      2  C   UNL A   1      33.304  29.774  26.121  1.00  0.00     0.116 C 
BRANCH   2   3
ATOM      3  N   UNL A   1      33.461  29.594  24.650  1.00  0.00    -0.351 N 
ATOM      4  C   UNL A   1      32.901  29.100  23.500  1.00  0.00     0.281 C 
ATOM      5  O   UNL A   1      33.736  29.180  22.573  1.00  0.00    -0.268 OA
ATOM      6  H   UNL A   1      34.325  29.997  24.402  1.00  0.00     0.163 HD
BRANCH   4   7
ATOM      7  C   UNL A   1      31.436  28.345  23.102  1.00  0.00     0.172 C 
ATOM      8  C   UNL A   1      30.443  27.303  23.768  1.00  0.00     0.090 C 
BRANCH   7   9
ATOM      9  C   UNL A   1      30.449  29.553  22.768  1.00  0.00     0.075 C 
ATOM     10  C   UNL A   1      28.965  29.300  23.120  1.00  0.00     0.011 C 
ENDBRANCH   7   9
BRANCH   7  11
ATOM     11  N   UNL A   1      31.814  27.621  21.905  1.00  0.00    -0.326 N 
ATOM     12  H   UNL A   1      32.797  27.799  21.704  1.00  0.00     0.347 HD
ATOM     13  H   UNL A   1      31.229  27.941  21.133  1.00  0.00     0.347 HD
BRANCH  11  14
ATOM     14  C   UNL A   1      31.612  26.174  22.080  1.00  0.00     0.362 C 
BRANCH  14  15
ATOM     15  C   UNL A   1      32.792  25.091  22.194  1.00  0.00     0.275 C 
ATOM     16  O   UNL A   1      33.504  25.061  21.160  1.00  0.00    -0.268 OA
ATOM     17  N   UNL A   1      33.282  24.178  23.075  1.00  0.00    -0.345 N 
ATOM     18  H   UNL A   1      33.931  23.728  22.487  1.00  0.00     0.164 HD
BRANCH  17  19
ATOM     19  C   UNL A   1      33.526  23.331  24.419  1.00  0.00     0.052 C 
ATOM     20  C   UNL A   1      33.291  21.794  24.593  1.00  0.00     0.045 C 
ATOM     21  C   UNL A   1      32.970  24.008  25.694  1.00  0.00     0.165 C 
ATOM     22  C   UNL A   1      35.087  23.474  24.541  1.00  0.00     0.036 C 
ATOM     23  C   UNL A   1      32.244  21.436  25.636  1.00  0.00     0.139 C 
ATOM     24  S   UNL A   1      31.928  22.875  26.586  1.00  0.00     0.152 S 
ATOM     25  O   UNL A   1      32.512  22.662  27.898  1.00  0.00    -0.229 OA
ATOM     26  O   UNL A   1      30.553  23.281  26.413  1.00  0.00    -0.229 OA
ENDBRANCH  17  19
ENDBRANCH  14  15
ENDBRANCH  11  14
ENDBRANCH   7  11
ENDBRANCH   4   7
ENDBRANCH   2   3
ENDBRANCH   1   2
BRANCH   1  27
ATOM     27  C   UNL A   1      31.746  31.776  26.713  1.00  0.00     0.023 C 
BRANCH  27  28
ATOM     28  C   UNL A   1      32.815  32.556  27.482  1.00  0.00     0.116 C 
BRANCH  28  29
ATOM     29  N   UNL A   1      32.491  33.957  27.721  1.00  0.00    -0.352 N 
ATOM     30  C   UNL A   1      33.047  34.835  28.624  1.00  0.00     0.251 C 
ATOM     31  H   UNL A   1      31.774  34.328  27.157  1.00  0.00     0.163 HD
ATOM     32  O   UNL A   1      32.579  35.960  28.772  1.00  0.00    -0.269 OA
BRANCH  30  33
ATOM     33  C   UNL A   1      34.203  34.398  29.430  1.00  0.00     0.039 A 
ATOM     34  C   UNL A   1      33.981  33.802  30.673  1.00  0.00     0.014 A 
ATOM     35  C   UNL A   1      35.498  34.526  28.923  1.00  0.00     0.014 A 
ATOM     36  C   UNL A   1      35.060  33.262  31.375  1.00  0.00     0.010 A 
ATOM     37  C   UNL A   1      36.554  33.907  29.579  1.00  0.00     0.010 A 
ATOM     38  C   UNL A   1      36.349  33.274  30.815  1.00  0.00    -0.014 A 
BRANCH  38  39
ATOM     39  C   UNL A   1      37.496  32.632  31.505  1.00  0.00     0.031 A 
ATOM     40  C   UNL A   1      38.204  31.471  30.861  1.00  0.00     0.074 A 
ATOM     41  C   UNL A   1      37.844  33.038  32.743  1.00  0.00     0.049 A 
ATOM     42  N   UNL A   1      39.187  30.744  31.324  1.00  0.00    -0.248 NA
ATOM     43  C   UNL A   1      37.724  31.049  29.534  1.00  0.00     0.031 C 
ATOM     44  C   UNL A   1      37.174  34.092  33.508  1.00  0.00     0.029 A 
ATOM     45  N   UNL A   1      38.831  32.594  33.587  1.00  0.00    -0.354 N 
ATOM     46  C   UNL A   1      39.417  29.763  30.367  1.00  0.00     0.074 A 
ATOM     47  C   UNL A   1      38.442  29.957  29.319  1.00  0.00     0.031 C 
ATOM     48  C   UNL A   1      37.774  34.220  34.703  1.00  0.00     0.029 A 
ATOM     49  C   UNL A   1      38.848  33.237  34.804  1.00  0.00     0.049 A 
ATOM     50  H   UNL A   1      39.467  31.883  33.345  1.00  0.00     0.167 HD
ATOM     51  C   UNL A   1      40.377  28.809  30.344  1.00  0.00     0.034 A 
ATOM     52  C   UNL A   1      39.634  33.049  35.881  1.00  0.00     0.034 A 
ATOM     53  C   UNL A   1      41.369  28.648  31.372  1.00  0.00     0.049 A 
ATOM     54  C   UNL A   1      40.720  32.009  35.815  1.00  0.00     0.074 A 
ATOM     55  C   UNL A   1      42.436  27.769  31.408  1.00  0.00     0.029 A 
ATOM     56  N   UNL A   1      41.411  29.378  32.551  1.00  0.00    -0.354 N 
ATOM     57  N   UNL A   1      41.023  31.194  34.832  1.00  0.00    -0.248 NA
ATOM     58  C   UNL A   1      41.598  31.886  36.987  1.00  0.00     0.031 C 
ATOM     59  C   UNL A   1      43.107  27.948  32.622  1.00  0.00     0.029 A 
ATOM     60  C   UNL A   1      42.479  28.964  33.325  1.00  0.00     0.049 A 
ATOM     61  H   UNL A   1      40.773  30.085  32.799  1.00  0.00     0.167 HD
ATOM     62  C   UNL A   1      42.145  30.490  35.252  1.00  0.00     0.074 A 
ATOM     63  C   UNL A   1      42.482  30.990  36.569  1.00  0.00     0.031 C 
ATOM     64  C   UNL A   1      42.828  29.509  34.612  1.00  0.00     0.034 A 
BRANCH  51  65
ATOM     65  C   UNL A   1      40.431  27.901  29.143  1.00  0.00     0.023 A 
ATOM     66  C   UNL A   1      39.520  26.828  29.040  1.00  0.00     0.012 A 
ATOM     67  C   UNL A   1      41.346  28.131  28.097  1.00  0.00     0.148 A 
ATOM     68  C   UNL A   1      39.546  25.975  27.937  1.00  0.00     0.002 A 
ATOM     69  C   UNL A   1      41.332  27.307  26.978  1.00  0.00     0.091 A 
ATOM     70  F   UNL A   1      42.217  29.141  28.221  1.00  0.00    -0.205 F 
ATOM     71  C   UNL A   1      40.444  26.221  26.902  1.00  0.00     0.022 A 
BRANCH  69  72
ATOM     72  S   UNL A   1      42.392  27.585  25.555  1.00  0.00     0.127 S 
ATOM     73  O   UNL A   1      43.708  27.699  26.185  1.00  0.00    -0.237 OA
ATOM     74  O   UNL A   1      42.192  26.360  24.780  1.00  0.00    -0.237 OA
ATOM     75  O   UNL A   1      41.901  28.797  24.916  1.00  0.00    -0.744 OA
ENDBRANCH  69  72
ENDBRANCH  51  65
BRANCH  52  76
ATOM     76  C   UNL A   1      39.463  33.902  37.092  1.00  0.00     0.023 A 
ATOM     77  C   UNL A   1      39.947  35.225  37.086  1.00  0.00     0.012 A 
ATOM     78  C   UNL A   1      38.804  33.418  38.238  1.00  0.00     0.148 A 
ATOM     79  C   UNL A   1      39.810  36.038  38.211  1.00  0.00     0.002 A 
ATOM     80  C   UNL A   1      38.622  34.251  39.337  1.00  0.00     0.091 A 
ATOM     81  F   UNL A   1      38.358  32.154  38.229  1.00  0.00    -0.205 F 
ATOM     82  C   UNL A   1      39.141  35.555  39.333  1.00  0.00     0.022 A 
BRANCH  80  83
ATOM     83  S   UNL A   1      37.662  33.760  40.773  1.00  0.00     0.127 S 
ATOM     84  O   UNL A   1      38.565  32.818  41.428  1.00  0.00    -0.237 OA
ATOM     85  O   UNL A   1      37.490  35.035  41.469  1.00  0.00    -0.237 OA
ATOM     86  O   UNL A   1      36.428  33.192  40.245  1.00  0.00    -0.744 OA
ENDBRANCH  80  83
ENDBRANCH  52  76
BRANCH  64  87
ATOM     87  C   UNL A   1      44.037  28.935  35.304  1.00  0.00     0.023 A 
ATOM     88  C   UNL A   1      45.301  29.528  35.124  1.00  0.00     0.012 A 
ATOM     89  C   UNL A   1      43.901  27.851  36.195  1.00  0.00     0.148 A 
ATOM     90  C   UNL A   1      46.419  29.031  35.792  1.00  0.00     0.002 A 
ATOM     91  C   UNL A   1      45.009  27.395  36.898  1.00  0.00     0.091 A 
ATOM     92  F   UNL A   1      42.692  27.290  36.340  1.00  0.00    -0.205 F 
ATOM     93  C   UNL A   1      46.270  27.974  36.687  1.00  0.00     0.022 A 
BRANCH  91  94
ATOM     94  S   UNL A   1      44.894  26.109  38.147  1.00  0.00     0.127 S 
ATOM     95  O   UNL A   1      43.999  26.725  39.125  1.00  0.00    -0.237 OA
ATOM     96  O   UNL A   1      44.307  24.999  37.396  1.00  0.00    -0.237 OA
ATOM     97  O   UNL A   1      46.255  25.874  38.610  1.00  0.00    -0.744 OA
ENDBRANCH  91  94
ENDBRANCH  64  87
ENDBRANCH  38  39
ENDBRANCH  30  33
ENDBRANCH  28  29
ENDBRANCH  27  28
ENDBRANCH   1  27
TORSDOF 19
ENDMDL
MODEL 2
REMARK VINA RESULT:     -11.9      2.729      8.487
REMARK SMILES CC[C@@](C)([NH2+]CC(=O)N[C@]1(C)CCS(=O)(=O)C1)C(=O)NCCCCNC(=O)c1ccc(-c2c3nc(c(-c4cccc(S(=O)(=O)[O-])c4F)c4ccc([nH]4)c(-c4cccc(S(=O)(=O)[O-])c4F)c4nc(c(-c5cccc(S(=O)(=O)[O-])c5F)c5ccc2[nH]5)C=C4)C=C3)cc1
REMARK SMILES IDX 22 1 21 2 20 3 18 4 19 5 3 7 4 8 2 9 1 10 5 11 6 14 7 15
REMARK SMILES IDX 8 16 9 17 10 19 12 20 17 21 11 22 13 23 14 24 15 25 16 26
REMARK SMILES IDX 23 27 24 28 25 29 26 30 27 32 28 33 29 34 90 35 30 36 89 37
REMARK SMILES IDX 31 38 32 39 33 40 83 41 34 42 88 43 82 44 84 45 35 46 87 47
REMARK SMILES IDX 81 48 80 49 36 51 68 52 48 53 67 54 49 55 52 56 66 57 85 58
REMARK SMILES IDX 50 59 51 60 65 62 86 63 53 64 37 65 38 66 46 67 39 68 41 69
REMARK SMILES IDX 47 70 40 71 42 72 43 73 44 74 45 75 69 76 70 77 78 78 71 79
REMARK SMILES IDX 73 80 79 81 72 82 74 83 75 84 76 85 77 86 54 87 55 88 63 89
REMARK SMILES IDX 56 90 58 91 64 92 57 93 59 94 60 95 61 96 62 97
REMARK H PARENT 20 6 5 12 5 13 9 18 25 31 84 50 52 61
REMARK Flexibility Score: inf
ROOT
ATOM      1  C   UNL A   1      31.237  27.618  25.538  1.00  0.00     0.023 C 
ENDROOT
BRANCH   1   2
ATOM      2  C   UNL A   1      30.667  26.320  26.124  1.00  0.00     0.116 C 
BRANCH   2   3
ATOM      3  N   UNL A   1      30.929  25.074  25.352  1.00  0.00    -0.351 N 
ATOM      4  C   UNL A   1      31.875  24.306  24.721  1.00  0.00     0.281 C 
ATOM      5  O   UNL A   1      31.304  23.380  24.105  1.00  0.00    -0.268 OA
ATOM      6  H   UNL A   1      30.067  24.609  25.253  1.00  0.00     0.163 HD
BRANCH   4   7
ATOM      7  C   UNL A   1      33.556  24.394  24.516  1.00  0.00     0.172 C 
ATOM      8  C   UNL A   1      34.667  23.651  23.660  1.00  0.00     0.090 C 
BRANCH   7   9
ATOM      9  C   UNL A   1      33.827  25.918  24.132  1.00  0.00     0.075 C 
ATOM     10  C   UNL A   1      33.715  26.242  22.624  1.00  0.00     0.011 C 
ENDBRANCH   7   9
BRANCH   7  11
ATOM     11  N   UNL A   1      34.015  24.094  25.858  1.00  0.00    -0.326 N 
ATOM     12  H   UNL A   1      33.208  24.011  26.475  1.00  0.00     0.347 HD
ATOM     13  H   UNL A   1      34.626  24.848  26.169  1.00  0.00     0.347 HD
BRANCH  11  14
ATOM     14  C   UNL A   1      34.773  22.833  25.884  1.00  0.00     0.362 C 
BRANCH  14  15
ATOM     15  C   UNL A   1      34.219  21.442  26.467  1.00  0.00     0.275 C 
ATOM     16  O   UNL A   1      34.155  21.450  27.721  1.00  0.00    -0.268 OA
ATOM     17  N   UNL A   1      33.781  20.232  26.026  1.00  0.00    -0.345 N 
ATOM     18  H   UNL A   1      33.724  19.763  26.890  1.00  0.00     0.164 HD
BRANCH  17  19
ATOM     19  C   UNL A   1      33.294  19.045  25.059  1.00  0.00     0.052 C 
ATOM     20  C   UNL A   1      32.296  17.902  25.437  1.00  0.00     0.045 C 
ATOM     21  C   UNL A   1      34.439  18.382  24.256  1.00  0.00     0.165 C 
ATOM     22  C   UNL A   1      32.495  19.883  23.995  1.00  0.00     0.036 C 
ATOM     23  C   UNL A   1      32.888  16.503  25.355  1.00  0.00     0.139 C 
ATOM     24  S   UNL A   1      34.398  16.617  24.473  1.00  0.00     0.152 S 
ATOM     25  O   UNL A   1      34.185  16.007  23.173  1.00  0.00    -0.229 OA
ATOM     26  O   UNL A   1      35.494  16.234  25.332  1.00  0.00    -0.229 OA
ENDBRANCH  17  19
ENDBRANCH  14  15
ENDBRANCH  11  14
ENDBRANCH   7  11
ENDBRANCH   4   7
ENDBRANCH   2   3
ENDBRANCH   1   2
BRANCH   1  27
ATOM     27  C   UNL A   1      31.958  28.550  26.513  1.00  0.00     0.023 C 
BRANCH  27  28
ATOM     28  C   UNL A   1      32.858  29.628  25.906  1.00  0.00     0.116 C 
BRANCH  28  29
ATOM     29  N   UNL A   1      32.576  30.983  26.365  1.00  0.00    -0.352 N 
ATOM     30  C   UNL A   1      33.293  31.770  27.237  1.00  0.00     0.251 C 
ATOM     31  H   UNL A   1      31.758  31.392  26.001  1.00  0.00     0.163 HD
ATOM     32  O   UNL A   1      32.855  32.856  27.605  1.00  0.00    -0.269 OA
BRANCH  30  33
ATOM     33  C   UNL A   1      34.590  31.282  27.744  1.00  0.00     0.039 A 
ATOM     34  C   UNL A   1      35.647  32.183  27.891  1.00  0.00     0.014 A 
ATOM     35  C   UNL A   1      34.734  29.947  28.129  1.00  0.00     0.014 A 
ATOM     36  C   UNL A   1      36.829  31.758  28.500  1.00  0.00     0.010 A 
ATOM     37  C   UNL A   1      35.874  29.552  28.817  1.00  0.00     0.010 A 
ATOM     38  C   UNL A   1      36.937  30.450  29.004  1.00  0.00    -0.014 A 
BRANCH  38  39
ATOM     39  C   UNL A   1      38.152  30.001  29.728  1.00  0.00     0.031 A 
ATOM     40  C   UNL A   1      38.432  30.517  31.114  1.00  0.00     0.074 A 
ATOM     41  C   UNL A   1      39.042  29.199  29.110  1.00  0.00     0.049 A 
ATOM     42  N   UNL A   1      39.461  30.288  31.888  1.00  0.00    -0.248 NA
ATOM     43  C   UNL A   1      37.441  31.438  31.697  1.00  0.00     0.031 C 
ATOM     44  C   UNL A   1      38.927  28.706  27.735  1.00  0.00     0.029 A 
ATOM     45  N   UNL A   1      40.234  28.678  29.547  1.00  0.00    -0.354 N 
ATOM     46  C   UNL A   1      39.259  31.059  33.026  1.00  0.00     0.074 A 
ATOM     47  C   UNL A   1      38.034  31.800  32.824  1.00  0.00     0.031 C 
ATOM     48  C   UNL A   1      39.997  27.949  27.445  1.00  0.00     0.029 A 
ATOM     49  C   UNL A   1      40.891  27.927  28.599  1.00  0.00     0.049 A 
ATOM     50  H   UNL A   1      40.586  28.826  30.454  1.00  0.00     0.167 HD
ATOM     51  C   UNL A   1      40.005  31.120  34.154  1.00  0.00     0.034 A 
ATOM     52  C   UNL A   1      42.082  27.301  28.651  1.00  0.00     0.034 A 
ATOM     53  C   UNL A   1      41.201  30.350  34.363  1.00  0.00     0.049 A 
ATOM     54  C   UNL A   1      42.874  27.350  29.930  1.00  0.00     0.074 A 
ATOM     55  C   UNL A   1      41.987  30.272  35.498  1.00  0.00     0.029 A 
ATOM     56  N   UNL A   1      41.789  29.530  33.411  1.00  0.00    -0.354 N 
ATOM     57  N   UNL A   1      42.586  27.960  31.054  1.00  0.00    -0.248 NA
ATOM     58  C   UNL A   1      44.134  26.594  29.963  1.00  0.00     0.031 C 
ATOM     59  C   UNL A   1      43.066  29.428  35.223  1.00  0.00     0.029 A 
ATOM     60  C   UNL A   1      42.932  28.949  33.929  1.00  0.00     0.049 A 
ATOM     61  H   UNL A   1      41.444  29.384  32.501  1.00  0.00     0.167 HD
ATOM     62  C   UNL A   1      43.607  27.634  31.938  1.00  0.00     0.074 A 
ATOM     63  C   UNL A   1      44.510  26.753  31.224  1.00  0.00     0.031 C 
ATOM     64  C   UNL A   1      43.791  28.036  33.220  1.00  0.00     0.034 A 
BRANCH  51  65
ATOM     65  C   UNL A   1      39.519  32.011  35.267  1.00  0.00     0.023 A 
ATOM     66  C   UNL A   1      39.790  33.395  35.221  1.00  0.00     0.012 A 
ATOM     67  C   UNL A   1      38.756  31.493  36.332  1.00  0.00     0.148 A 
ATOM     68  C   UNL A   1      39.348  34.241  36.237  1.00  0.00     0.002 A 
ATOM     69  C   UNL A   1      38.276  32.352  37.314  1.00  0.00     0.091 A 
ATOM     70  F   UNL A   1      38.524  30.174  36.370  1.00  0.00    -0.205 F 
ATOM     71  C   UNL A   1      38.582  33.722  37.276  1.00  0.00     0.022 A 
BRANCH  69  72
ATOM     72  S   UNL A   1      37.213  31.797  38.652  1.00  0.00     0.127 S 
ATOM     73  O   UNL A   1      36.953  30.410  38.267  1.00  0.00    -0.237 OA
ATOM     74  O   UNL A   1      38.084  31.953  39.818  1.00  0.00    -0.237 OA
ATOM     75  O   UNL A   1      36.052  32.676  38.637  1.00  0.00    -0.744 OA
ENDBRANCH  69  72
ENDBRANCH  51  65
BRANCH  52  76
ATOM     76  C   UNL A   1      42.572  26.525  27.475  1.00  0.00     0.023 A 
ATOM     77  C   UNL A   1      43.420  27.144  26.536  1.00  0.00     0.012 A 
ATOM     78  C   UNL A   1      42.220  25.173  27.294  1.00  0.00     0.148 A 
ATOM     79  C   UNL A   1      43.880  26.443  25.421  1.00  0.00     0.002 A 
ATOM     80  C   UNL A   1      42.726  24.464  26.211  1.00  0.00     0.091 A 
ATOM     81  F   UNL A   1      41.404  24.604  28.192  1.00  0.00    -0.205 F 
ATOM     82  C   UNL A   1      43.542  25.102  25.263  1.00  0.00     0.022 A 
BRANCH  80  83
ATOM     83  S   UNL A   1      42.450  22.703  25.994  1.00  0.00     0.127 S 
ATOM     84  O   UNL A   1      42.983  22.479  24.654  1.00  0.00    -0.237 OA
ATOM     85  O   UNL A   1      43.252  22.138  27.080  1.00  0.00    -0.237 OA
ATOM     86  O   UNL A   1      41.013  22.510  26.145  1.00  0.00    -0.744 OA
ENDBRANCH  80  83
ENDBRANCH  52  76
BRANCH  64  87
ATOM     87  C   UNL A   1      44.990  27.497  33.956  1.00  0.00     0.023 A 
ATOM     88  C   UNL A   1      46.207  28.203  33.935  1.00  0.00     0.012 A 
ATOM     89  C   UNL A   1      44.881  26.325  34.733  1.00  0.00     0.148 A 
ATOM     90  C   UNL A   1      47.310  27.735  34.647  1.00  0.00     0.002 A 
ATOM     91  C   UNL A   1      45.968  25.894  35.483  1.00  0.00     0.091 A 
ATOM     92  F   UNL A   1      43.718  25.659  34.727  1.00  0.00    -0.205 F 
ATOM     93  C   UNL A   1      47.187  26.589  35.430  1.00  0.00     0.022 A 
BRANCH  91  94
ATOM     94  S   UNL A   1      45.871  24.490  36.599  1.00  0.00     0.127 S 
ATOM     95  O   UNL A   1      45.573  23.397  35.675  1.00  0.00    -0.237 OA
ATOM     96  O   UNL A   1      47.217  24.456  37.172  1.00  0.00    -0.237 OA
ATOM     97  O   UNL A   1      44.815  24.804  37.552  1.00  0.00    -0.744 OA
ENDBRANCH  91  94
ENDBRANCH  64  87
ENDBRANCH  38  39
ENDBRANCH  30  33
ENDBRANCH  28  29
ENDBRANCH  27  28
ENDBRANCH   1  27
TORSDOF 19
ENDMDL
MODEL 3
REMARK VINA RESULT:     -11.7      3.537      8.813
REMARK SMILES CC[C@@](C)([NH2+]CC(=O)N[C@]1(C)CCS(=O)(=O)C1)C(=O)NCCCCNC(=O)c1ccc(-c2c3nc(c(-c4cccc(S(=O)(=O)[O-])c4F)c4ccc([nH]4)c(-c4cccc(S(=O)(=O)[O-])c4F)c4nc(c(-c5cccc(S(=O)(=O)[O-])c5F)c5ccc2[nH]5)C=C4)C=C3)cc1
REMARK SMILES IDX 22 1 21 2 20 3 18 4 19 5 3 7 4 8 2 9 1 10 5 11 6 14 7 15
REMARK SMILES IDX 8 16 9 17 10 19 12 20 17 21 11 22 13 23 14 24 15 25 16 26
REMARK SMILES IDX 23 27 24 28 25 29 26 30 27 32 28 33 29 34 90 35 30 36 89 37
REMARK SMILES IDX 31 38 32 39 33 40 83 41 34 42 88 43 82 44 84 45 35 46 87 47
REMARK SMILES IDX 81 48 80 49 36 51 68 52 48 53 67 54 49 55 52 56 66 57 85 58
REMARK SMILES IDX 50 59 51 60 65 62 86 63 53 64 37 65 38 66 46 67 39 68 41 69
REMARK SMILES IDX 47 70 40 71 42 72 43 73 44 74 45 75 69 76 70 77 78 78 71 79
REMARK SMILES IDX 73 80 79 81 72 82 74 83 75 84 76 85 77 86 54 87 55 88 63 89
REMARK SMILES IDX 56 90 58 91 64 92 57 93 59 94 60 95 61 96 62 97
REMARK H PARENT 20 6 5 12 5 13 9 18 25 31 84 50 52 61
REMARK Flexibility Score: inf
ROOT
ATOM      1  C   UNL A   1      33.361  29.014  24.245  1.00  0.00     0.023 C 
ENDROOT
BRANCH   1   2
ATOM      2  C   UNL A   1      33.691  28.326  22.914  1.00  0.00     0.116 C 
BRANCH   2   3
ATOM      3  N   UNL A   1      32.875  27.128  22.567  1.00  0.00    -0.351 N 
ATOM      4  C   UNL A   1      31.826  26.324  22.932  1.00  0.00     0.281 C 
ATOM      5  O   UNL A   1      31.797  25.325  22.182  1.00  0.00    -0.268 OA
ATOM      6  H   UNL A   1      33.242  26.763  21.730  1.00  0.00     0.163 HD
BRANCH   4   7
ATOM      7  C   UNL A   1      30.679  26.333  24.182  1.00  0.00     0.172 C 
ATOM      8  C   UNL A   1      30.621  26.766  25.708  1.00  0.00     0.090 C 
BRANCH   7   9
ATOM      9  C   UNL A   1      29.444  27.141  23.578  1.00  0.00     0.075 C 
ATOM     10  C   UNL A   1      29.647  28.670  23.480  1.00  0.00     0.011 C 
ENDBRANCH   7   9
BRANCH   7  11
ATOM     11  N   UNL A   1      30.385  24.919  24.299  1.00  0.00    -0.326 N 
ATOM     12  H   UNL A   1      31.062  24.391  23.748  1.00  0.00     0.347 HD
ATOM     13  H   UNL A   1      29.439  24.754  23.955  1.00  0.00     0.347 HD
BRANCH  11  14
ATOM     14  C   UNL A   1      30.460  24.480  25.701  1.00  0.00     0.362 C 
BRANCH  14  15
ATOM     15  C   UNL A   1      30.943  23.026  26.183  1.00  0.00     0.275 C 
ATOM     16  O   UNL A   1      30.436  22.704  27.286  1.00  0.00    -0.268 OA
ATOM     17  N   UNL A   1      31.739  22.005  25.766  1.00  0.00    -0.345 N 
ATOM     18  H   UNL A   1      31.729  21.457  26.583  1.00  0.00     0.164 HD
BRANCH  17  19
ATOM     19  C   UNL A   1      32.685  21.083  24.851  1.00  0.00     0.052 C 
ATOM     20  C   UNL A   1      32.341  20.541  23.425  1.00  0.00     0.045 C 
ATOM     21  C   UNL A   1      33.350  19.915  25.618  1.00  0.00     0.165 C 
ATOM     22  C   UNL A   1      33.857  22.097  24.579  1.00  0.00     0.036 C 
ATOM     23  C   UNL A   1      32.301  19.025  23.326  1.00  0.00     0.139 C 
ATOM     24  S   UNL A   1      33.051  18.378  24.773  1.00  0.00     0.152 S 
ATOM     25  O   UNL A   1      34.332  17.820  24.381  1.00  0.00    -0.229 OA
ATOM     26  O   UNL A   1      32.080  17.620  25.528  1.00  0.00    -0.229 OA
ENDBRANCH  17  19
ENDBRANCH  14  15
ENDBRANCH  11  14
ENDBRANCH   7  11
ENDBRANCH   4   7
ENDBRANCH   2   3
ENDBRANCH   1   2
BRANCH   1  27
ATOM     27  C   UNL A   1      34.099  28.501  25.481  1.00  0.00     0.023 C 
BRANCH  27  28
ATOM     28  C   UNL A   1      33.501  28.856  26.844  1.00  0.00     0.116 C 
BRANCH  28  29
ATOM     29  N   UNL A   1      33.554  30.274  27.180  1.00  0.00    -0.352 N 
ATOM     30  C   UNL A   1      34.540  30.973  27.839  1.00  0.00     0.251 C 
ATOM     31  H   UNL A   1      32.777  30.806  26.895  1.00  0.00     0.163 HD
ATOM     32  O   UNL A   1      34.378  32.151  28.139  1.00  0.00    -0.269 OA
BRANCH  30  33
ATOM     33  C   UNL A   1      35.791  30.279  28.202  1.00  0.00     0.039 A 
ATOM     34  C   UNL A   1      36.877  30.329  27.324  1.00  0.00     0.014 A 
ATOM     35  C   UNL A   1      35.903  29.636  29.437  1.00  0.00     0.014 A 
ATOM     36  C   UNL A   1      38.104  29.797  27.724  1.00  0.00     0.010 A 
ATOM     37  C   UNL A   1      37.146  29.191  29.866  1.00  0.00     0.010 A 
ATOM     38  C   UNL A   1      38.259  29.259  29.013  1.00  0.00    -0.014 A 
BRANCH  38  39
ATOM     39  C   UNL A   1      39.575  28.763  29.488  1.00  0.00     0.031 A 
ATOM     40  C   UNL A   1      40.295  29.490  30.592  1.00  0.00     0.074 A 
ATOM     41  C   UNL A   1      40.157  27.714  28.873  1.00  0.00     0.049 A 
ATOM     42  N   UNL A   1      41.472  29.247  31.108  1.00  0.00    -0.248 NA
ATOM     43  C   UNL A   1      39.620  30.664  31.171  1.00  0.00     0.031 C 
ATOM     44  C   UNL A   1      39.598  26.985  27.732  1.00  0.00     0.029 A 
ATOM     45  N   UNL A   1      41.360  27.095  29.102  1.00  0.00    -0.354 N 
ATOM     46  C   UNL A   1      41.691  30.253  32.041  1.00  0.00     0.074 A 
ATOM     47  C   UNL A   1      40.548  31.136  31.989  1.00  0.00     0.031 C 
ATOM     48  C   UNL A   1      40.450  26.014  27.368  1.00  0.00     0.029 A 
ATOM     49  C   UNL A   1      41.630  26.070  28.225  1.00  0.00     0.049 A 
ATOM     50  H   UNL A   1      41.972  27.359  29.827  1.00  0.00     0.167 HD
ATOM     51  C   UNL A   1      42.732  30.409  32.893  1.00  0.00     0.034 A 
ATOM     52  C   UNL A   1      42.710  25.273  28.118  1.00  0.00     0.034 A 
ATOM     53  C   UNL A   1      43.847  29.504  32.967  1.00  0.00     0.049 A 
ATOM     54  C   UNL A   1      43.837  25.440  29.102  1.00  0.00     0.074 A 
ATOM     55  C   UNL A   1      44.912  29.522  33.848  1.00  0.00     0.029 A 
ATOM     56  N   UNL A   1      44.043  28.423  32.121  1.00  0.00    -0.354 N 
ATOM     57  N   UNL A   1      43.952  26.302  30.084  1.00  0.00    -0.248 NA
ATOM     58  C   UNL A   1      44.963  24.502  28.992  1.00  0.00     0.031 C 
ATOM     59  C   UNL A   1      45.768  28.467  33.516  1.00  0.00     0.029 A 
ATOM     60  C   UNL A   1      45.217  27.771  32.452  1.00  0.00     0.049 A 
ATOM     61  H   UNL A   1      43.437  28.160  31.392  1.00  0.00     0.167 HD
ATOM     62  C   UNL A   1      45.143  25.989  30.728  1.00  0.00     0.074 A 
ATOM     63  C   UNL A   1      45.701  24.843  30.040  1.00  0.00     0.031 C 
ATOM     64  C   UNL A   1      45.730  26.601  31.786  1.00  0.00     0.034 A 
BRANCH  51  65
ATOM     65  C   UNL A   1      42.686  31.574  33.847  1.00  0.00     0.023 A 
ATOM     66  C   UNL A   1      43.103  32.850  33.411  1.00  0.00     0.012 A 
ATOM     67  C   UNL A   1      42.190  31.422  35.157  1.00  0.00     0.148 A 
ATOM     68  C   UNL A   1      43.067  33.944  34.273  1.00  0.00     0.002 A 
ATOM     69  C   UNL A   1      42.110  32.529  35.994  1.00  0.00     0.091 A 
ATOM     70  F   UNL A   1      41.817  30.200  35.561  1.00  0.00    -0.205 F 
ATOM     71  C   UNL A   1      42.560  33.786  35.560  1.00  0.00     0.022 A 
BRANCH  69  72
ATOM     72  S   UNL A   1      41.399  32.449  37.642  1.00  0.00     0.127 S 
ATOM     73  O   UNL A   1      42.210  31.401  38.262  1.00  0.00    -0.237 OA
ATOM     74  O   UNL A   1      41.654  33.797  38.150  1.00  0.00    -0.237 OA
ATOM     75  O   UNL A   1      39.992  32.122  37.460  1.00  0.00    -0.744 OA
ENDBRANCH  69  72
ENDBRANCH  51  65
BRANCH  52  76
ATOM     76  C   UNL A   1      42.754  24.205  27.077  1.00  0.00     0.023 A 
ATOM     77  C   UNL A   1      43.455  24.433  25.877  1.00  0.00     0.012 A 
ATOM     78  C   UNL A   1      42.124  22.963  27.279  1.00  0.00     0.148 A 
ATOM     79  C   UNL A   1      43.499  23.456  24.882  1.00  0.00     0.002 A 
ATOM     80  C   UNL A   1      42.218  21.973  26.307  1.00  0.00     0.091 A 
ATOM     81  F   UNL A   1      41.453  22.768  28.423  1.00  0.00    -0.205 F 
ATOM     82  C   UNL A   1      42.889  22.223  25.100  1.00  0.00     0.022 A 
BRANCH  80  83
ATOM     83  S   UNL A   1      41.574  20.314  26.553  1.00  0.00     0.127 S 
ATOM     84  O   UNL A   1      40.133  20.544  26.512  1.00  0.00    -0.237 OA
ATOM     85  O   UNL A   1      42.119  19.606  25.394  1.00  0.00    -0.237 OA
ATOM     86  O   UNL A   1      42.108  19.871  27.834  1.00  0.00    -0.744 OA
ENDBRANCH  80  83
ENDBRANCH  52  76
BRANCH  64  87
ATOM     87  C   UNL A   1      47.024  26.023  32.298  1.00  0.00     0.023 A 
ATOM     88  C   UNL A   1      48.254  26.502  31.808  1.00  0.00     0.012 A 
ATOM     89  C   UNL A   1      47.016  25.057  33.325  1.00  0.00     0.148 A 
ATOM     90  C   UNL A   1      49.457  26.004  32.305  1.00  0.00     0.002 A 
ATOM     91  C   UNL A   1      48.218  24.604  33.853  1.00  0.00     0.091 A 
ATOM     92  F   UNL A   1      45.834  24.602  33.766  1.00  0.00    -0.205 F 
ATOM     93  C   UNL A   1      49.439  25.065  33.335  1.00  0.00     0.022 A 
BRANCH  91  94
ATOM     94  S   UNL A   1      48.292  23.476  35.248  1.00  0.00     0.127 S 
ATOM     95  O   UNL A   1      49.735  23.304  35.414  1.00  0.00    -0.237 OA
ATOM     96  O   UNL A   1      47.643  24.249  36.307  1.00  0.00    -0.237 OA
ATOM     97  O   UNL A   1      47.567  22.280  34.840  1.00  0.00    -0.744 OA
ENDBRANCH  91  94
ENDBRANCH  64  87
ENDBRANCH  38  39
ENDBRANCH  30  33
ENDBRANCH  28  29
ENDBRANCH  27  28
ENDBRANCH   1  27
TORSDOF 19
ENDMDL
