MODEL 1
REMARK VINA RESULT:     -11.8      0.000      0.000
REMARK SMILES CCc1nn(-c2ccncn2)c(Cl)c1C(=O)NCCCCNC(=O)c1ccc(-c2c3nc(c(-c4cccc(S(=O)(=O)[O-])c4F)c4ccc([nH]4)c(-c4cccc(S(=O)(=O)[O-])c4F)c4nc(c(-c5cccc(S(=O)(=O)[O-])c5F)c5ccc2[nH]5)C=C4)C=C3)cc1
REMARK SMILES IDX 20 1 19 2 18 3 17 4 15 5 16 6 14 8 3 9 4 10 5 11 12 12 13 13
REMARK SMILES IDX 2 14 1 15 6 16 7 17 11 18 8 19 10 20 9 21 21 22 22 23 23 24
REMARK SMILES IDX 24 26 25 27 26 28 87 29 27 30 86 31 28 32 29 33 30 34 80 35
REMARK SMILES IDX 31 36 85 37 79 38 81 39 32 40 84 41 78 42 77 43 33 45 65 46
REMARK SMILES IDX 45 47 64 48 46 49 49 50 63 51 82 52 47 53 48 54 62 56 83 57
REMARK SMILES IDX 50 58 34 59 35 60 43 61 36 62 38 63 44 64 37 65 39 66 40 67
REMARK SMILES IDX 41 68 42 69 66 70 67 71 75 72 68 73 70 74 76 75 69 76 71 77
REMARK SMILES IDX 72 78 73 79 74 80 51 81 52 82 60 83 53 84 55 85 61 86 54 87
REMARK SMILES IDX 56 88 57 89 58 90 59 91
REMARK H PARENT 17 7 22 25 81 44 49 55
REMARK Flexibility Score: inf
ROOT
ATOM      1  C   UNL A   1      31.443  32.038  26.497  1.00  0.00     0.023 C 
ENDROOT
BRANCH   1   2
ATOM      2  C   UNL A   1      31.451  30.509  26.367  1.00  0.00     0.023 C 
BRANCH   2   3
ATOM      3  C   UNL A   1      32.845  29.893  26.208  1.00  0.00     0.116 C 
BRANCH   3   4
ATOM      4  N   UNL A   1      33.212  29.823  24.820  1.00  0.00    -0.352 N 
ATOM      5  C   UNL A   1      32.970  28.952  23.798  1.00  0.00     0.256 C 
ATOM      6  O   UNL A   1      33.659  29.181  22.799  1.00  0.00    -0.269 OA
ATOM      7  H   UNL A   1      33.770  30.584  24.540  1.00  0.00     0.163 HD
BRANCH   5   8
ATOM      8  C   UNL A   1      32.014  27.838  23.800  1.00  0.00     0.100 A 
ATOM      9  C   UNL A   1      30.622  27.612  23.509  1.00  0.00     0.077 A 
ATOM     10  N   UNL A   1      30.258  26.328  23.683  1.00  0.00    -0.169 NA
ATOM     11  N   UNL A   1      31.350  25.717  24.193  1.00  0.00    -0.203 N 
ATOM     12  C   UNL A   1      32.420  26.573  24.208  1.00  0.00     0.147 A 
ATOM     13  Cl  UNL A   1      33.990  25.958  24.560  1.00  0.00    -0.061 Cl
BRANCH   9  14
ATOM     14  C   UNL A   1      29.504  28.526  23.119  1.00  0.00     0.056 C 
ATOM     15  C   UNL A   1      29.885  29.542  22.048  1.00  0.00     0.011 C 
ENDBRANCH   9  14
BRANCH  11  16
ATOM     16  C   UNL A   1      31.256  24.390  24.712  1.00  0.00     0.158 A 
ATOM     17  C   UNL A   1      30.714  24.201  25.973  1.00  0.00     0.069 A 
ATOM     18  N   UNL A   1      31.701  23.364  23.949  1.00  0.00    -0.217 NA
ATOM     19  C   UNL A   1      30.712  22.908  26.440  1.00  0.00     0.117 A 
ATOM     20  C   UNL A   1      31.692  22.158  24.529  1.00  0.00     0.224 A 
ATOM     21  N   UNL A   1      31.208  21.868  25.749  1.00  0.00    -0.245 NA
ENDBRANCH  11  16
ENDBRANCH   5   8
ENDBRANCH   3   4
ENDBRANCH   2   3
ENDBRANCH   1   2
BRANCH   1  22
ATOM     22  C   UNL A   1      32.648  32.606  27.241  1.00  0.00     0.116 C 
BRANCH  22  23
ATOM     23  N   UNL A   1      32.431  33.985  27.670  1.00  0.00    -0.352 N 
ATOM     24  C   UNL A   1      33.059  34.655  28.699  1.00  0.00     0.251 C 
ATOM     25  H   UNL A   1      31.758  34.496  27.166  1.00  0.00     0.163 HD
ATOM     26  O   UNL A   1      32.528  35.618  29.233  1.00  0.00    -0.269 OA
BRANCH  24  27
ATOM     27  C   UNL A   1      34.393  34.201  29.135  1.00  0.00     0.039 A 
ATOM     28  C   UNL A   1      34.550  33.547  30.360  1.00  0.00     0.014 A 
ATOM     29  C   UNL A   1      35.484  34.429  28.295  1.00  0.00     0.014 A 
ATOM     30  C   UNL A   1      35.803  33.046  30.699  1.00  0.00     0.010 A 
ATOM     31  C   UNL A   1      36.705  33.865  28.594  1.00  0.00     0.010 A 
ATOM     32  C   UNL A   1      36.874  33.185  29.801  1.00  0.00    -0.014 A 
BRANCH  32  33
ATOM     33  C   UNL A   1      38.097  32.400  30.000  1.00  0.00     0.031 A 
ATOM     34  C   UNL A   1      37.979  31.004  29.475  1.00  0.00     0.074 A 
ATOM     35  C   UNL A   1      39.271  32.959  30.377  1.00  0.00     0.049 A 
ATOM     36  N   UNL A   1      38.081  29.893  30.127  1.00  0.00    -0.248 NA
ATOM     37  C   UNL A   1      37.510  30.827  28.086  1.00  0.00     0.031 C 
ATOM     38  C   UNL A   1      39.520  34.387  30.609  1.00  0.00     0.029 A 
ATOM     39  N   UNL A   1      40.525  32.420  30.471  1.00  0.00    -0.354 N 
ATOM     40  C   UNL A   1      37.962  28.887  29.165  1.00  0.00     0.074 A 
ATOM     41  C   UNL A   1      37.371  29.503  28.013  1.00  0.00     0.031 C 
ATOM     42  C   UNL A   1      40.847  34.631  30.546  1.00  0.00     0.029 A 
ATOM     43  C   UNL A   1      41.551  33.371  30.413  1.00  0.00     0.049 A 
ATOM     44  H   UNL A   1      40.691  31.455  30.570  1.00  0.00     0.167 HD
ATOM     45  C   UNL A   1      38.669  27.728  29.283  1.00  0.00     0.034 A 
ATOM     46  C   UNL A   1      42.876  33.154  30.205  1.00  0.00     0.034 A 
ATOM     47  C   UNL A   1      39.126  27.554  30.640  1.00  0.00     0.049 A 
ATOM     48  C   UNL A   1      43.133  31.729  30.482  1.00  0.00     0.074 A 
ATOM     49  C   UNL A   1      38.537  27.443  31.882  1.00  0.00     0.029 A 
ATOM     50  N   UNL A   1      40.440  27.878  30.856  1.00  0.00    -0.354 N 
ATOM     51  N   UNL A   1      43.061  31.199  31.669  1.00  0.00    -0.248 NA
ATOM     52  C   UNL A   1      43.103  30.794  29.372  1.00  0.00     0.031 C 
ATOM     53  C   UNL A   1      39.437  28.088  32.782  1.00  0.00     0.029 A 
ATOM     54  C   UNL A   1      40.568  28.488  32.067  1.00  0.00     0.049 A 
ATOM     55  H   UNL A   1      41.178  27.696  30.231  1.00  0.00     0.167 HD
ATOM     56  C   UNL A   1      42.483  29.961  31.443  1.00  0.00     0.074 A 
ATOM     57  C   UNL A   1      42.682  29.706  30.018  1.00  0.00     0.031 C 
ATOM     58  C   UNL A   1      41.631  29.423  32.365  1.00  0.00     0.034 A 
BRANCH  45  59
ATOM     59  C   UNL A   1      39.378  27.016  28.129  1.00  0.00     0.023 A 
ATOM     60  C   UNL A   1      39.226  25.609  28.063  1.00  0.00     0.012 A 
ATOM     61  C   UNL A   1      40.400  27.571  27.322  1.00  0.00     0.148 A 
ATOM     62  C   UNL A   1      40.099  24.799  27.327  1.00  0.00     0.002 A 
ATOM     63  C   UNL A   1      41.223  26.768  26.536  1.00  0.00     0.091 A 
ATOM     64  F   UNL A   1      40.676  28.872  27.376  1.00  0.00    -0.205 F 
ATOM     65  C   UNL A   1      41.103  25.379  26.564  1.00  0.00     0.022 A 
BRANCH  63  66
ATOM     66  S   UNL A   1      42.515  27.469  25.496  1.00  0.00     0.127 S 
ATOM     67  O   UNL A   1      43.533  27.808  26.485  1.00  0.00    -0.237 OA
ATOM     68  O   UNL A   1      42.842  26.335  24.631  1.00  0.00    -0.237 OA
ATOM     69  O   UNL A   1      41.903  28.595  24.802  1.00  0.00    -0.744 OA
ENDBRANCH  63  66
ENDBRANCH  45  59
BRANCH  46  70
ATOM     70  C   UNL A   1      43.928  33.999  29.582  1.00  0.00     0.023 A 
ATOM     71  C   UNL A   1      44.843  34.693  30.404  1.00  0.00     0.012 A 
ATOM     72  C   UNL A   1      44.229  33.888  28.208  1.00  0.00     0.148 A 
ATOM     73  C   UNL A   1      46.036  35.216  29.887  1.00  0.00     0.002 A 
ATOM     74  C   UNL A   1      45.413  34.414  27.697  1.00  0.00     0.091 A 
ATOM     75  F   UNL A   1      43.405  33.181  27.424  1.00  0.00    -0.205 F 
ATOM     76  C   UNL A   1      46.326  35.066  28.535  1.00  0.00     0.022 A 
BRANCH  74  77
ATOM     77  S   UNL A   1      45.872  34.230  25.967  1.00  0.00     0.127 S 
ATOM     78  O   UNL A   1      44.719  34.817  25.284  1.00  0.00    -0.237 OA
ATOM     79  O   UNL A   1      47.097  35.021  25.896  1.00  0.00    -0.237 OA
ATOM     80  O   UNL A   1      46.031  32.797  25.752  1.00  0.00    -0.744 OA
ENDBRANCH  74  77
ENDBRANCH  46  70
BRANCH  58  81
ATOM     81  C   UNL A   1      41.667  29.982  33.763  1.00  0.00     0.023 A 
ATOM     82  C   UNL A   1      42.620  29.604  34.731  1.00  0.00     0.012 A 
ATOM     83  C   UNL A   1      40.769  31.019  34.062  1.00  0.00     0.148 A 
ATOM     84  C   UNL A   1      42.653  30.230  35.980  1.00  0.00     0.002 A 
ATOM     85  C   UNL A   1      40.840  31.674  35.282  1.00  0.00     0.091 A 
ATOM     86  F   UNL A   1      39.862  31.360  33.133  1.00  0.00    -0.205 F 
ATOM     87  C   UNL A   1      41.771  31.276  36.251  1.00  0.00     0.022 A 
BRANCH  85  88
ATOM     88  S   UNL A   1      39.808  33.100  35.621  1.00  0.00     0.127 S 
ATOM     89  O   UNL A   1      40.143  33.990  34.513  1.00  0.00    -0.237 OA
ATOM     90  O   UNL A   1      38.459  32.534  35.567  1.00  0.00    -0.237 OA
ATOM     91  O   UNL A   1      40.199  33.567  36.946  1.00  0.00    -0.744 OA
ENDBRANCH  85  88
ENDBRANCH  58  81
ENDBRANCH  32  33
ENDBRANCH  24  27
ENDBRANCH  22  23
ENDBRANCH   1  22
TORSDOF 16
ENDMDL
MODEL 2
REMARK VINA RESULT:     -11.7      4.133      9.377
REMARK SMILES CCc1nn(-c2ccncn2)c(Cl)c1C(=O)NCCCCNC(=O)c1ccc(-c2c3nc(c(-c4cccc(S(=O)(=O)[O-])c4F)c4ccc([nH]4)c(-c4cccc(S(=O)(=O)[O-])c4F)c4nc(c(-c5cccc(S(=O)(=O)[O-])c5F)c5ccc2[nH]5)C=C4)C=C3)cc1
REMARK SMILES IDX 20 1 19 2 18 3 17 4 15 5 16 6 14 8 3 9 4 10 5 11 12 12 13 13
REMARK SMILES IDX 2 14 1 15 6 16 7 17 11 18 8 19 10 20 9 21 21 22 22 23 23 24
REMARK SMILES IDX 24 26 25 27 26 28 87 29 27 30 86 31 28 32 29 33 30 34 80 35
REMARK SMILES IDX 31 36 85 37 79 38 81 39 32 40 84 41 78 42 77 43 33 45 65 46
REMARK SMILES IDX 45 47 64 48 46 49 49 50 63 51 82 52 47 53 48 54 62 56 83 57
REMARK SMILES IDX 50 58 34 59 35 60 43 61 36 62 38 63 44 64 37 65 39 66 40 67
REMARK SMILES IDX 41 68 42 69 66 70 67 71 75 72 68 73 70 74 76 75 69 76 71 77
REMARK SMILES IDX 72 78 73 79 74 80 51 81 52 82 60 83 53 84 55 85 61 86 54 87
REMARK SMILES IDX 56 88 57 89 58 90 59 91
REMARK H PARENT 17 7 22 25 81 44 49 55
REMARK Flexibility Score: inf
ROOT
ATOM      1  C   UNL A   1      37.049  20.547  25.041  1.00  0.00     0.023 C 
ENDROOT
BRANCH   1   2
ATOM      2  C   UNL A   1      36.178  21.758  24.682  1.00  0.00     0.023 C 
BRANCH   2   3
ATOM      3  C   UNL A   1      36.269  22.922  25.675  1.00  0.00     0.116 C 
BRANCH   3   4
ATOM      4  N   UNL A   1      35.398  22.698  26.796  1.00  0.00    -0.352 N 
ATOM      5  C   UNL A   1      34.061  22.843  27.028  1.00  0.00     0.256 C 
ATOM      6  O   UNL A   1      33.764  22.722  28.221  1.00  0.00    -0.269 OA
ATOM      7  H   UNL A   1      35.881  22.362  27.586  1.00  0.00     0.163 HD
BRANCH   5   8
ATOM      8  C   UNL A   1      33.021  23.113  26.028  1.00  0.00     0.100 A 
ATOM      9  C   UNL A   1      32.102  22.373  25.201  1.00  0.00     0.077 A 
ATOM     10  N   UNL A   1      31.332  23.172  24.439  1.00  0.00    -0.169 NA
ATOM     11  N   UNL A   1      31.797  24.422  24.656  1.00  0.00    -0.203 N 
ATOM     12  C   UNL A   1      32.748  24.420  25.642  1.00  0.00     0.147 A 
ATOM     13  Cl  UNL A   1      33.300  25.918  26.288  1.00  0.00    -0.061 Cl
BRANCH   9  14
ATOM     14  C   UNL A   1      31.886  20.910  24.981  1.00  0.00     0.056 C 
ATOM     15  C   UNL A   1      33.112  20.055  25.281  1.00  0.00     0.011 C 
ENDBRANCH   9  14
BRANCH  11  16
ATOM     16  C   UNL A   1      31.358  25.506  23.836  1.00  0.00     0.158 A 
ATOM     17  C   UNL A   1      30.252  26.239  24.232  1.00  0.00     0.069 A 
ATOM     18  N   UNL A   1      32.042  25.776  22.700  1.00  0.00    -0.217 NA
ATOM     19  C   UNL A   1      29.842  27.226  23.367  1.00  0.00     0.117 A 
ATOM     20  C   UNL A   1      31.521  26.727  21.916  1.00  0.00     0.224 A 
ATOM     21  N   UNL A   1      30.447  27.483  22.194  1.00  0.00    -0.245 NA
ENDBRANCH  11  16
ENDBRANCH   5   8
ENDBRANCH   3   4
ENDBRANCH   2   3
ENDBRANCH   1   2
BRANCH   1  22
ATOM     22  C   UNL A   1      38.522  20.882  25.259  1.00  0.00     0.116 C 
BRANCH  22  23
ATOM     23  N   UNL A   1      39.320  19.694  25.549  1.00  0.00    -0.352 N 
ATOM     24  C   UNL A   1      40.648  19.641  25.919  1.00  0.00     0.251 C 
ATOM     25  H   UNL A   1      38.856  18.830  25.471  1.00  0.00     0.163 HD
ATOM     26  O   UNL A   1      41.310  18.632  25.725  1.00  0.00    -0.269 OA
BRANCH  24  27
ATOM     27  C   UNL A   1      41.254  20.819  26.567  1.00  0.00     0.039 A 
ATOM     28  C   UNL A   1      41.929  21.775  25.805  1.00  0.00     0.014 A 
ATOM     29  C   UNL A   1      41.125  20.960  27.950  1.00  0.00     0.014 A 
ATOM     30  C   UNL A   1      42.405  22.922  26.433  1.00  0.00     0.010 A 
ATOM     31  C   UNL A   1      41.527  22.130  28.557  1.00  0.00     0.010 A 
ATOM     32  C   UNL A   1      42.180  23.108  27.806  1.00  0.00    -0.014 A 
BRANCH  32  33
ATOM     33  C   UNL A   1      42.392  24.430  28.406  1.00  0.00     0.031 A 
ATOM     34  C   UNL A   1      41.278  25.384  28.110  1.00  0.00     0.074 A 
ATOM     35  C   UNL A   1      43.352  24.668  29.330  1.00  0.00     0.049 A 
ATOM     36  N   UNL A   1      41.338  26.512  27.482  1.00  0.00    -0.248 NA
ATOM     37  C   UNL A   1      39.898  24.941  28.388  1.00  0.00     0.031 C 
ATOM     38  C   UNL A   1      44.284  23.681  29.891  1.00  0.00     0.029 A 
ATOM     39  N   UNL A   1      43.602  25.777  30.091  1.00  0.00    -0.354 N 
ATOM     40  C   UNL A   1      40.044  27.036  27.539  1.00  0.00     0.074 A 
ATOM     41  C   UNL A   1      39.182  25.938  27.868  1.00  0.00     0.031 C 
ATOM     42  C   UNL A   1      44.789  24.145  31.054  1.00  0.00     0.029 A 
ATOM     43  C   UNL A   1      44.335  25.507  31.253  1.00  0.00     0.049 A 
ATOM     44  H   UNL A   1      43.294  26.679  29.845  1.00  0.00     0.167 HD
ATOM     45  C   UNL A   1      39.844  28.380  27.646  1.00  0.00     0.034 A 
ATOM     46  C   UNL A   1      44.508  26.313  32.333  1.00  0.00     0.034 A 
ATOM     47  C   UNL A   1      41.033  29.097  27.255  1.00  0.00     0.049 A 
ATOM     48  C   UNL A   1      44.166  27.685  31.913  1.00  0.00     0.074 A 
ATOM     49  C   UNL A   1      41.806  29.197  26.117  1.00  0.00     0.029 A 
ATOM     50  N   UNL A   1      41.799  29.559  28.293  1.00  0.00    -0.354 N 
ATOM     51  N   UNL A   1      44.874  28.380  31.071  1.00  0.00    -0.248 NA
ATOM     52  C   UNL A   1      42.813  28.158  32.141  1.00  0.00     0.031 C 
ATOM     53  C   UNL A   1      43.144  29.355  26.587  1.00  0.00     0.029 A 
ATOM     54  C   UNL A   1      43.119  29.427  27.981  1.00  0.00     0.049 A 
ATOM     55  H   UNL A   1      41.449  29.930  29.134  1.00  0.00     0.167 HD
ATOM     56  C   UNL A   1      43.925  29.044  30.311  1.00  0.00     0.074 A 
ATOM     57  C   UNL A   1      42.703  28.998  31.111  1.00  0.00     0.031 C 
ATOM     58  C   UNL A   1      44.150  29.279  28.986  1.00  0.00     0.034 A 
BRANCH  45  59
ATOM     59  C   UNL A   1      38.805  29.039  28.555  1.00  0.00     0.023 A 
ATOM     60  C   UNL A   1      38.046  30.093  27.990  1.00  0.00     0.012 A 
ATOM     61  C   UNL A   1      38.744  28.912  29.964  1.00  0.00     0.148 A 
ATOM     62  C   UNL A   1      37.359  31.022  28.781  1.00  0.00     0.002 A 
ATOM     63  C   UNL A   1      38.003  29.797  30.743  1.00  0.00     0.091 A 
ATOM     64  F   UNL A   1      39.487  28.006  30.597  1.00  0.00    -0.205 F 
ATOM     65  C   UNL A   1      37.339  30.877  30.161  1.00  0.00     0.022 A 
BRANCH  63  66
ATOM     66  S   UNL A   1      37.910  29.633  32.534  1.00  0.00     0.127 S 
ATOM     67  O   UNL A   1      39.278  29.954  32.927  1.00  0.00    -0.237 OA
ATOM     68  O   UNL A   1      36.911  30.648  32.869  1.00  0.00    -0.237 OA
ATOM     69  O   UNL A   1      37.480  28.263  32.787  1.00  0.00    -0.744 OA
ENDBRANCH  63  66
ENDBRANCH  45  59
BRANCH  46  70
ATOM     70  C   UNL A   1      44.736  26.003  33.769  1.00  0.00     0.023 A 
ATOM     71  C   UNL A   1      46.054  25.984  34.277  1.00  0.00     0.012 A 
ATOM     72  C   UNL A   1      43.673  26.028  34.695  1.00  0.00     0.148 A 
ATOM     73  C   UNL A   1      46.305  26.036  35.655  1.00  0.00     0.002 A 
ATOM     74  C   UNL A   1      43.926  26.073  36.064  1.00  0.00     0.091 A 
ATOM     75  F   UNL A   1      42.418  26.108  34.233  1.00  0.00    -0.205 F 
ATOM     76  C   UNL A   1      45.240  26.092  36.548  1.00  0.00     0.022 A 
BRANCH  74  77
ATOM     77  S   UNL A   1      42.602  26.182  37.277  1.00  0.00     0.127 S 
ATOM     78  O   UNL A   1      41.881  24.929  37.051  1.00  0.00    -0.237 OA
ATOM     79  O   UNL A   1      43.348  26.244  38.531  1.00  0.00    -0.237 OA
ATOM     80  O   UNL A   1      41.847  27.380  36.931  1.00  0.00    -0.744 OA
ENDBRANCH  74  77
ENDBRANCH  46  70
BRANCH  58  81
ATOM     81  C   UNL A   1      45.569  29.189  28.488  1.00  0.00     0.023 A 
ATOM     82  C   UNL A   1      46.504  30.238  28.603  1.00  0.00     0.012 A 
ATOM     83  C   UNL A   1      45.997  27.947  27.994  1.00  0.00     0.148 A 
ATOM     84  C   UNL A   1      47.832  30.054  28.203  1.00  0.00     0.002 A 
ATOM     85  C   UNL A   1      47.326  27.752  27.650  1.00  0.00     0.091 A 
ATOM     86  F   UNL A   1      45.092  26.963  27.882  1.00  0.00    -0.205 F 
ATOM     87  C   UNL A   1      48.246  28.806  27.739  1.00  0.00     0.022 A 
BRANCH  85  88
ATOM     88  S   UNL A   1      47.924  26.133  27.166  1.00  0.00     0.127 S 
ATOM     89  O   UNL A   1      47.560  25.316  28.320  1.00  0.00    -0.237 OA
ATOM     90  O   UNL A   1      47.151  25.861  25.952  1.00  0.00    -0.237 OA
ATOM     91  O   UNL A   1      49.354  26.291  26.931  1.00  0.00    -0.744 OA
ENDBRANCH  85  88
ENDBRANCH  58  81
ENDBRANCH  32  33
ENDBRANCH  24  27
ENDBRANCH  22  23
ENDBRANCH   1  22
TORSDOF 16
ENDMDL
MODEL 3
REMARK VINA RESULT:     -11.3      4.619      9.465
REMARK SMILES CCc1nn(-c2ccncn2)c(Cl)c1C(=O)NCCCCNC(=O)c1ccc(-c2c3nc(c(-c4cccc(S(=O)(=O)[O-])c4F)c4ccc([nH]4)c(-c4cccc(S(=O)(=O)[O-])c4F)c4nc(c(-c5cccc(S(=O)(=O)[O-])c5F)c5ccc2[nH]5)C=C4)C=C3)cc1
REMARK SMILES IDX 20 1 19 2 18 3 17 4 15 5 16 6 14 8 3 9 4 10 5 11 12 12 13 13
REMARK SMILES IDX 2 14 1 15 6 16 7 17 11 18 8 19 10 20 9 21 21 22 22 23 23 24
REMARK SMILES IDX 24 26 25 27 26 28 87 29 27 30 86 31 28 32 29 33 30 34 80 35
REMARK SMILES IDX 31 36 85 37 79 38 81 39 32 40 84 41 78 42 77 43 33 45 65 46
REMARK SMILES IDX 45 47 64 48 46 49 49 50 63 51 82 52 47 53 48 54 62 56 83 57
REMARK SMILES IDX 50 58 34 59 35 60 43 61 36 62 38 63 44 64 37 65 39 66 40 67
REMARK SMILES IDX 41 68 42 69 66 70 67 71 75 72 68 73 70 74 76 75 69 76 71 77
REMARK SMILES IDX 72 78 73 79 74 80 51 81 52 82 60 83 53 84 55 85 61 86 54 87
REMARK SMILES IDX 56 88 57 89 58 90 59 91
REMARK H PARENT 17 7 22 25 81 44 49 55
REMARK Flexibility Score: inf
ROOT
ATOM      1  C   UNL A   1      36.690  20.692  25.121  1.00  0.00     0.023 C 
ENDROOT
BRANCH   1   2
ATOM      2  C   UNL A   1      35.833  21.930  24.826  1.00  0.00     0.023 C 
BRANCH   2   3
ATOM      3  C   UNL A   1      35.808  22.968  25.953  1.00  0.00     0.116 C 
BRANCH   3   4
ATOM      4  N   UNL A   1      34.753  22.678  26.885  1.00  0.00    -0.352 N 
ATOM      5  C   UNL A   1      33.397  22.828  26.888  1.00  0.00     0.256 C 
ATOM      6  O   UNL A   1      32.894  22.625  27.998  1.00  0.00    -0.269 OA
ATOM      7  H   UNL A   1      35.088  22.276  27.719  1.00  0.00     0.163 HD
BRANCH   5   8
ATOM      8  C   UNL A   1      32.550  23.187  25.745  1.00  0.00     0.100 A 
ATOM      9  C   UNL A   1      32.002  22.561  24.569  1.00  0.00     0.077 A 
ATOM     10  N   UNL A   1      31.250  23.402  23.836  1.00  0.00    -0.169 NA
ATOM     11  N   UNL A   1      31.378  24.606  24.437  1.00  0.00    -0.203 N 
ATOM     12  C   UNL A   1      32.085  24.490  25.605  1.00  0.00     0.147 A 
ATOM     13  Cl  UNL A   1      32.155  25.828  26.688  1.00  0.00    -0.061 Cl
BRANCH   9  14
ATOM     14  C   UNL A   1      32.158  21.195  23.980  1.00  0.00     0.056 C 
ATOM     15  C   UNL A   1      32.133  21.175  22.456  1.00  0.00     0.011 C 
ENDBRANCH   9  14
BRANCH  11  16
ATOM     16  C   UNL A   1      30.892  25.786  23.796  1.00  0.00     0.158 A 
ATOM     17  C   UNL A   1      29.632  26.257  24.127  1.00  0.00     0.069 A 
ATOM     18  N   UNL A   1      31.684  26.402  22.888  1.00  0.00    -0.217 NA
ATOM     19  C   UNL A   1      29.198  27.358  23.429  1.00  0.00     0.117 A 
ATOM     20  C   UNL A   1      31.135  27.435  22.239  1.00  0.00     0.224 A 
ATOM     21  N   UNL A   1      29.919  27.960  22.468  1.00  0.00    -0.245 NA
ENDBRANCH  11  16
ENDBRANCH   5   8
ENDBRANCH   3   4
ENDBRANCH   2   3
ENDBRANCH   1   2
BRANCH   1  22
ATOM     22  C   UNL A   1      38.168  20.998  25.348  1.00  0.00     0.116 C 
BRANCH  22  23
ATOM     23  N   UNL A   1      38.957  19.786  25.551  1.00  0.00    -0.352 N 
ATOM     24  C   UNL A   1      40.303  19.695  25.835  1.00  0.00     0.251 C 
ATOM     25  H   UNL A   1      38.470  18.933  25.476  1.00  0.00     0.163 HD
ATOM     26  O   UNL A   1      40.930  18.679  25.570  1.00  0.00    -0.269 OA
BRANCH  24  27
ATOM     27  C   UNL A   1      40.974  20.839  26.480  1.00  0.00     0.039 A 
ATOM     28  C   UNL A   1      41.520  21.865  25.704  1.00  0.00     0.014 A 
ATOM     29  C   UNL A   1      41.037  20.877  27.874  1.00  0.00     0.014 A 
ATOM     30  C   UNL A   1      42.060  22.977  26.344  1.00  0.00     0.010 A 
ATOM     31  C   UNL A   1      41.500  22.012  28.505  1.00  0.00     0.010 A 
ATOM     32  C   UNL A   1      42.025  23.058  27.746  1.00  0.00    -0.014 A 
BRANCH  32  33
ATOM     33  C   UNL A   1      42.297  24.339  28.407  1.00  0.00     0.031 A 
ATOM     34  C   UNL A   1      41.232  25.358  28.152  1.00  0.00     0.074 A 
ATOM     35  C   UNL A   1      43.262  24.488  29.345  1.00  0.00     0.049 A 
ATOM     36  N   UNL A   1      41.349  26.510  27.577  1.00  0.00    -0.248 NA
ATOM     37  C   UNL A   1      39.830  24.969  28.404  1.00  0.00     0.031 C 
ATOM     38  C   UNL A   1      44.143  23.432  29.862  1.00  0.00     0.029 A 
ATOM     39  N   UNL A   1      43.560  25.547  30.157  1.00  0.00    -0.354 N 
ATOM     40  C   UNL A   1      40.081  27.092  27.654  1.00  0.00     0.074 A 
ATOM     41  C   UNL A   1      39.166  26.023  27.928  1.00  0.00     0.031 C 
ATOM     42  C   UNL A   1      44.662  23.817  31.048  1.00  0.00     0.029 A 
ATOM     43  C   UNL A   1      44.273  25.189  31.308  1.00  0.00     0.049 A 
ATOM     44  H   UNL A   1      43.298  26.473  29.953  1.00  0.00     0.167 HD
ATOM     45  C   UNL A   1      39.945  28.437  27.822  1.00  0.00     0.034 A 
ATOM     46  C   UNL A   1      44.478  25.935  32.425  1.00  0.00     0.034 A 
ATOM     47  C   UNL A   1      41.169  29.114  27.469  1.00  0.00     0.049 A 
ATOM     48  C   UNL A   1      44.204  27.339  32.068  1.00  0.00     0.074 A 
ATOM     49  C   UNL A   1      41.953  29.230  26.340  1.00  0.00     0.029 A 
ATOM     50  N   UNL A   1      41.951  29.490  28.530  1.00  0.00    -0.354 N 
ATOM     51  N   UNL A   1      44.950  28.037  31.262  1.00  0.00    -0.248 NA
ATOM     52  C   UNL A   1      42.874  27.866  32.313  1.00  0.00     0.031 C 
ATOM     53  C   UNL A   1      43.294  29.301  26.822  1.00  0.00     0.029 A 
ATOM     54  C   UNL A   1      43.265  29.309  28.218  1.00  0.00     0.049 A 
ATOM     55  H   UNL A   1      41.614  29.839  29.387  1.00  0.00     0.167 HD
ATOM     56  C   UNL A   1      44.037  28.781  30.530  1.00  0.00     0.074 A 
ATOM     57  C   UNL A   1      42.810  28.757  31.323  1.00  0.00     0.031 C 
ATOM     58  C   UNL A   1      44.282  29.066  29.218  1.00  0.00     0.034 A 
BRANCH  45  59
ATOM     59  C   UNL A   1      38.934  29.103  28.757  1.00  0.00     0.023 A 
ATOM     60  C   UNL A   1      38.214  30.205  28.233  1.00  0.00     0.012 A 
ATOM     61  C   UNL A   1      38.871  28.929  30.162  1.00  0.00     0.148 A 
ATOM     62  C   UNL A   1      37.564  31.130  29.057  1.00  0.00     0.002 A 
ATOM     63  C   UNL A   1      38.166  29.813  30.973  1.00  0.00     0.091 A 
ATOM     64  F   UNL A   1      39.579  27.974  30.760  1.00  0.00    -0.205 F 
ATOM     65  C   UNL A   1      37.542  30.938  30.431  1.00  0.00     0.022 A 
BRANCH  63  66
ATOM     66  S   UNL A   1      38.069  29.590  32.757  1.00  0.00     0.127 S 
ATOM     67  O   UNL A   1      39.476  29.669  33.137  1.00  0.00    -0.237 OA
ATOM     68  O   UNL A   1      37.252  30.738  33.153  1.00  0.00    -0.237 OA
ATOM     69  O   UNL A   1      37.427  28.298  32.964  1.00  0.00    -0.744 OA
ENDBRANCH  63  66
ENDBRANCH  45  59
BRANCH  46  70
ATOM     70  C   UNL A   1      44.683  25.548  33.846  1.00  0.00     0.023 A 
ATOM     71  C   UNL A   1      43.564  25.372  34.689  1.00  0.00     0.012 A 
ATOM     72  C   UNL A   1      45.928  25.059  34.292  1.00  0.00     0.148 A 
ATOM     73  C   UNL A   1      43.671  24.693  35.910  1.00  0.00     0.002 A 
ATOM     74  C   UNL A   1      46.032  24.389  35.509  1.00  0.00     0.091 A 
ATOM     75  F   UNL A   1      46.989  25.162  33.480  1.00  0.00    -0.205 F 
ATOM     76  C   UNL A   1      44.904  24.191  36.315  1.00  0.00     0.022 A 
BRANCH  74  77
ATOM     77  S   UNL A   1      47.585  23.684  36.082  1.00  0.00     0.127 S 
ATOM     78  O   UNL A   1      48.437  24.869  36.180  1.00  0.00    -0.237 OA
ATOM     79  O   UNL A   1      47.194  23.100  37.363  1.00  0.00    -0.237 OA
ATOM     80  O   UNL A   1      47.991  22.736  35.052  1.00  0.00    -0.744 OA
ENDBRANCH  74  77
ENDBRANCH  46  70
BRANCH  58  81
ATOM     81  C   UNL A   1      45.698  28.931  28.722  1.00  0.00     0.023 A 
ATOM     82  C   UNL A   1      46.691  29.912  28.920  1.00  0.00     0.012 A 
ATOM     83  C   UNL A   1      46.058  27.707  28.137  1.00  0.00     0.148 A 
ATOM     84  C   UNL A   1      48.009  29.682  28.514  1.00  0.00     0.002 A 
ATOM     85  C   UNL A   1      47.376  27.461  27.786  1.00  0.00     0.091 A 
ATOM     86  F   UNL A   1      45.098  26.788  27.948  1.00  0.00    -0.205 F 
ATOM     87  C   UNL A   1      48.355  28.450  27.959  1.00  0.00     0.022 A 
BRANCH  85  88
ATOM     88  S   UNL A   1      47.884  25.851  27.184  1.00  0.00     0.127 S 
ATOM     89  O   UNL A   1      47.402  24.965  28.240  1.00  0.00    -0.237 OA
ATOM     90  O   UNL A   1      47.160  25.745  25.915  1.00  0.00    -0.237 OA
ATOM     91  O   UNL A   1      49.332  25.922  27.032  1.00  0.00    -0.744 OA
ENDBRANCH  85  88
ENDBRANCH  58  81
ENDBRANCH  32  33
ENDBRANCH  24  27
ENDBRANCH  22  23
ENDBRANCH   1  22
TORSDOF 16
ENDMDL
