MODEL 1
REMARK VINA RESULT:     -11.9      0.000      0.000
REMARK SMILES Cc1ccc(C(=O)NCCCCNC(=O)c2ccc(-c3c4nc(c(-c5cccc(S(=O)(=O)[O-])c5F)c5ccc([nH]5)c(-c5cccc(S(=O)(=O)[O-])c5F)c5nc(c(-c6cccc(S(=O)(=O)[O-])c6F)c6ccc3[nH]6)C=C5)C=C4)cc2)cc1S(=O)(=O)N(C)[C@H]1CCSC1
REMARK SMILES IDX 10 1 9 2 8 3 6 4 7 5 5 7 1 8 2 9 3 10 80 11 4 12 79 13 81 14
REMARK SMILES IDX 82 15 83 16 84 17 85 18 86 19 87 20 90 21 88 22 89 23 11 24
REMARK SMILES IDX 12 25 13 26 14 27 15 29 16 30 17 31 78 32 18 33 77 34 19 35
REMARK SMILES IDX 20 36 21 37 71 38 22 39 76 40 70 41 72 42 23 43 75 44 69 45
REMARK SMILES IDX 68 46 24 48 56 49 36 50 55 51 37 52 40 53 54 54 73 55 38 56
REMARK SMILES IDX 39 57 53 59 74 60 41 61 25 62 26 63 34 64 27 65 29 66 35 67
REMARK SMILES IDX 28 68 30 69 31 70 32 71 33 72 57 73 58 74 66 75 59 76 61 77
REMARK SMILES IDX 67 78 60 79 62 80 63 81 64 82 65 83 42 84 43 85 51 86 44 87
REMARK SMILES IDX 46 88 52 89 45 90 47 91 48 92 49 93 50 94
REMARK H PARENT 8 6 13 28 72 47 40 58
REMARK Flexibility Score: inf
ROOT
ATOM      1  C   UNL A   1      36.361  20.665  25.000  1.00  0.00     0.023 C 
ENDROOT
BRANCH   1   2
ATOM      2  C   UNL A   1      35.429  21.247  26.080  1.00  0.00     0.116 C 
BRANCH   2   3
ATOM      3  N   UNL A   1      34.068  20.763  25.931  1.00  0.00    -0.352 N 
ATOM      4  C   UNL A   1      32.980  21.200  25.221  1.00  0.00     0.251 C 
ATOM      5  O   UNL A   1      31.940  20.546  25.333  1.00  0.00    -0.269 OA
ATOM      6  H   UNL A   1      33.889  19.946  26.450  1.00  0.00     0.163 HD
BRANCH   4   7
ATOM      7  C   UNL A   1      32.969  22.390  24.318  1.00  0.00     0.041 A 
ATOM      8  C   UNL A   1      32.799  25.544  21.332  1.00  0.00     0.046 C 
ATOM      9  C   UNL A   1      32.936  24.552  22.442  1.00  0.00    -0.031 A 
ATOM     10  C   UNL A   1      32.802  23.209  22.036  1.00  0.00     0.005 A 
ATOM     11  C   UNL A   1      33.093  24.798  23.813  1.00  0.00     0.086 A 
ATOM     12  C   UNL A   1      32.832  22.152  22.949  1.00  0.00     0.014 A 
ATOM     13  C   UNL A   1      33.067  23.717  24.723  1.00  0.00     0.035 A 
BRANCH  11  14
ATOM     14  S   UNL A   1      33.347  26.365  24.648  1.00  0.00     0.243 S 
ATOM     15  O   UNL A   1      34.054  26.060  25.863  1.00  0.00    -0.207 OA
ATOM     16  O   UNL A   1      33.918  27.259  23.649  1.00  0.00    -0.207 OA
BRANCH  14  17
ATOM     17  N   UNL A   1      31.839  27.000  25.034  1.00  0.00    -0.197 NA
ATOM     18  C   UNL A   1      31.395  26.854  26.422  1.00  0.00     0.125 C 
BRANCH  17  19
ATOM     19  C   UNL A   1      31.145  27.853  24.046  1.00  0.00     0.083 C 
ATOM     20  C   UNL A   1      29.743  27.376  23.675  1.00  0.00     0.032 C 
ATOM     21  C   UNL A   1      30.978  29.305  24.493  1.00  0.00     0.089 C 
ATOM     22  C   UNL A   1      29.249  28.380  22.647  1.00  0.00     0.071 C 
ATOM     23  S   UNL A   1      29.715  29.984  23.356  1.00  0.00    -0.160 SA
ENDBRANCH  17  19
ENDBRANCH  14  17
ENDBRANCH  11  14
ENDBRANCH   4   7
ENDBRANCH   2   3
ENDBRANCH   1   2
BRANCH   1  24
ATOM     24  C   UNL A   1      37.740  21.335  24.873  1.00  0.00     0.023 C 
BRANCH  24  25
ATOM     25  C   UNL A   1      37.882  22.571  25.738  1.00  0.00     0.116 C 
BRANCH  25  26
ATOM     26  N   UNL A   1      38.939  22.454  26.720  1.00  0.00    -0.352 N 
ATOM     27  C   UNL A   1      39.884  23.365  27.135  1.00  0.00     0.251 C 
ATOM     28  H   UNL A   1      38.991  21.576  27.165  1.00  0.00     0.163 HD
ATOM     29  O   UNL A   1      40.942  22.902  27.559  1.00  0.00    -0.269 OA
BRANCH  27  30
ATOM     30  C   UNL A   1      39.593  24.818  27.268  1.00  0.00     0.039 A 
ATOM     31  C   UNL A   1      40.232  25.695  26.375  1.00  0.00     0.014 A 
ATOM     32  C   UNL A   1      38.993  25.341  28.403  1.00  0.00     0.014 A 
ATOM     33  C   UNL A   1      40.508  27.002  26.763  1.00  0.00     0.010 A 
ATOM     34  C   UNL A   1      39.347  26.582  28.837  1.00  0.00     0.010 A 
ATOM     35  C   UNL A   1      40.188  27.366  28.055  1.00  0.00    -0.014 A 
BRANCH  35  36
ATOM     36  C   UNL A   1      40.582  28.572  28.739  1.00  0.00     0.031 A 
ATOM     37  C   UNL A   1      39.626  29.681  28.727  1.00  0.00     0.074 A 
ATOM     38  C   UNL A   1      41.484  28.350  29.721  1.00  0.00     0.049 A 
ATOM     39  N   UNL A   1      39.784  30.765  29.389  1.00  0.00    -0.248 NA
ATOM     40  C   UNL A   1      38.376  29.640  27.963  1.00  0.00     0.031 C 
ATOM     41  C   UNL A   1      41.610  28.972  31.032  1.00  0.00     0.029 A 
ATOM     42  N   UNL A   1      42.577  27.489  29.662  1.00  0.00    -0.354 N 
ATOM     43  C   UNL A   1      38.548  31.368  29.442  1.00  0.00     0.074 A 
ATOM     44  C   UNL A   1      37.767  30.742  28.410  1.00  0.00     0.031 C 
ATOM     45  C   UNL A   1      42.830  28.692  31.532  1.00  0.00     0.029 A 
ATOM     46  C   UNL A   1      43.583  28.048  30.465  1.00  0.00     0.049 A 
ATOM     47  H   UNL A   1      42.633  26.648  29.154  1.00  0.00     0.167 HD
ATOM     48  C   UNL A   1      38.294  32.190  30.494  1.00  0.00     0.034 A 
ATOM     49  C   UNL A   1      44.666  28.607  29.830  1.00  0.00     0.034 A 
ATOM     50  C   UNL A   1      39.537  32.445  31.240  1.00  0.00     0.049 A 
ATOM     51  C   UNL A   1      44.694  30.121  29.967  1.00  0.00     0.074 A 
ATOM     52  C   UNL A   1      40.036  31.964  32.438  1.00  0.00     0.029 A 
ATOM     53  N   UNL A   1      40.619  33.019  30.569  1.00  0.00    -0.354 N 
ATOM     54  N   UNL A   1      43.670  30.843  30.338  1.00  0.00    -0.248 NA
ATOM     55  C   UNL A   1      45.890  30.932  29.766  1.00  0.00     0.031 C 
ATOM     56  C   UNL A   1      41.456  32.113  32.403  1.00  0.00     0.029 A 
ATOM     57  C   UNL A   1      41.812  32.730  31.214  1.00  0.00     0.049 A 
ATOM     58  H   UNL A   1      40.543  33.557  29.748  1.00  0.00     0.167 HD
ATOM     59  C   UNL A   1      44.005  32.165  30.370  1.00  0.00     0.074 A 
ATOM     60  C   UNL A   1      45.425  32.162  30.049  1.00  0.00     0.031 C 
ATOM     61  C   UNL A   1      43.088  33.152  30.632  1.00  0.00     0.034 A 
BRANCH  48  62
ATOM     62  C   UNL A   1      36.923  32.614  30.987  1.00  0.00     0.023 A 
ATOM     63  C   UNL A   1      36.522  32.105  32.241  1.00  0.00     0.012 A 
ATOM     64  C   UNL A   1      35.956  33.389  30.292  1.00  0.00     0.148 A 
ATOM     65  C   UNL A   1      35.251  32.344  32.778  1.00  0.00     0.002 A 
ATOM     66  C   UNL A   1      34.712  33.686  30.860  1.00  0.00     0.091 A 
ATOM     67  F   UNL A   1      36.176  33.773  29.033  1.00  0.00    -0.205 F 
ATOM     68  C   UNL A   1      34.351  33.151  32.097  1.00  0.00     0.022 A 
BRANCH  66  69
ATOM     69  S   UNL A   1      33.512  34.776  30.065  1.00  0.00     0.127 S 
ATOM     70  O   UNL A   1      32.580  35.058  31.157  1.00  0.00    -0.237 OA
ATOM     71  O   UNL A   1      34.340  35.915  29.665  1.00  0.00    -0.237 OA
ATOM     72  O   UNL A   1      32.951  34.023  28.951  1.00  0.00    -0.744 OA
ENDBRANCH  66  69
ENDBRANCH  48  62
BRANCH  49  73
ATOM     73  C   UNL A   1      45.035  27.806  28.604  1.00  0.00     0.023 A 
ATOM     74  C   UNL A   1      44.834  28.464  27.360  1.00  0.00     0.012 A 
ATOM     75  C   UNL A   1      45.987  26.770  28.665  1.00  0.00     0.148 A 
ATOM     76  C   UNL A   1      45.726  28.280  26.302  1.00  0.00     0.002 A 
ATOM     77  C   UNL A   1      46.843  26.555  27.579  1.00  0.00     0.091 A 
ATOM     78  F   UNL A   1      46.093  26.058  29.794  1.00  0.00    -0.205 F 
ATOM     79  C   UNL A   1      46.763  27.362  26.432  1.00  0.00     0.022 A 
BRANCH  77  80
ATOM     80  S   UNL A   1      48.128  25.297  27.637  1.00  0.00     0.127 S 
ATOM     81  O   UNL A   1      47.344  24.069  27.542  1.00  0.00    -0.237 OA
ATOM     82  O   UNL A   1      48.940  25.589  26.454  1.00  0.00    -0.237 OA
ATOM     83  O   UNL A   1      48.820  25.522  28.899  1.00  0.00    -0.744 OA
ENDBRANCH  77  80
ENDBRANCH  49  73
BRANCH  61  84
ATOM     84  C   UNL A   1      43.327  34.628  30.371  1.00  0.00     0.023 A 
ATOM     85  C   UNL A   1      43.867  35.481  31.354  1.00  0.00     0.012 A 
ATOM     86  C   UNL A   1      43.159  35.181  29.075  1.00  0.00     0.148 A 
ATOM     87  C   UNL A   1      44.132  36.830  31.103  1.00  0.00     0.002 A 
ATOM     88  C   UNL A   1      43.548  36.488  28.796  1.00  0.00     0.091 A 
ATOM     89  F   UNL A   1      42.604  34.450  28.099  1.00  0.00    -0.205 F 
ATOM     90  C   UNL A   1      43.992  37.329  29.817  1.00  0.00     0.022 A 
BRANCH  88  91
ATOM     91  S   UNL A   1      43.645  37.098  27.108  1.00  0.00     0.127 S 
ATOM     92  O   UNL A   1      42.282  37.571  26.880  1.00  0.00    -0.237 OA
ATOM     93  O   UNL A   1      44.648  38.161  27.220  1.00  0.00    -0.237 OA
ATOM     94  O   UNL A   1      44.070  35.961  26.303  1.00  0.00    -0.744 OA
ENDBRANCH  88  91
ENDBRANCH  61  84
ENDBRANCH  35  36
ENDBRANCH  27  30
ENDBRANCH  25  26
ENDBRANCH  24  25
ENDBRANCH   1  24
TORSDOF 17
ENDMDL
MODEL 2
REMARK VINA RESULT:     -11.5      4.146      9.872
REMARK SMILES Cc1ccc(C(=O)NCCCCNC(=O)c2ccc(-c3c4nc(c(-c5cccc(S(=O)(=O)[O-])c5F)c5ccc([nH]5)c(-c5cccc(S(=O)(=O)[O-])c5F)c5nc(c(-c6cccc(S(=O)(=O)[O-])c6F)c6ccc3[nH]6)C=C5)C=C4)cc2)cc1S(=O)(=O)N(C)[C@H]1CCSC1
REMARK SMILES IDX 10 1 9 2 8 3 6 4 7 5 5 7 1 8 2 9 3 10 80 11 4 12 79 13 81 14
REMARK SMILES IDX 82 15 83 16 84 17 85 18 86 19 87 20 90 21 88 22 89 23 11 24
REMARK SMILES IDX 12 25 13 26 14 27 15 29 16 30 17 31 78 32 18 33 77 34 19 35
REMARK SMILES IDX 20 36 21 37 71 38 22 39 76 40 70 41 72 42 23 43 75 44 69 45
REMARK SMILES IDX 68 46 24 48 56 49 36 50 55 51 37 52 40 53 54 54 73 55 38 56
REMARK SMILES IDX 39 57 53 59 74 60 41 61 25 62 26 63 34 64 27 65 29 66 35 67
REMARK SMILES IDX 28 68 30 69 31 70 32 71 33 72 57 73 58 74 66 75 59 76 61 77
REMARK SMILES IDX 67 78 60 79 62 80 63 81 64 82 65 83 42 84 43 85 51 86 44 87
REMARK SMILES IDX 46 88 52 89 45 90 47 91 48 92 49 93 50 94
REMARK H PARENT 8 6 13 28 72 47 40 58
REMARK Flexibility Score: inf
ROOT
ATOM      1  C   UNL A   1      35.426  29.425  27.558  1.00  0.00     0.023 C 
ENDROOT
BRANCH   1   2
ATOM      2  C   UNL A   1      34.288  28.742  26.775  1.00  0.00     0.116 C 
BRANCH   2   3
ATOM      3  N   UNL A   1      33.052  28.719  27.538  1.00  0.00    -0.352 N 
ATOM      4  C   UNL A   1      31.893  27.995  27.440  1.00  0.00     0.251 C 
ATOM      5  O   UNL A   1      31.008  28.243  28.262  1.00  0.00    -0.269 OA
ATOM      6  H   UNL A   1      33.046  29.361  28.284  1.00  0.00     0.163 HD
BRANCH   4   7
ATOM      7  C   UNL A   1      31.635  26.926  26.429  1.00  0.00     0.041 A 
ATOM      8  C   UNL A   1      30.856  24.177  23.152  1.00  0.00     0.046 C 
ATOM      9  C   UNL A   1      31.090  25.012  24.370  1.00  0.00    -0.031 A 
ATOM     10  C   UNL A   1      30.971  26.400  24.150  1.00  0.00     0.005 A 
ATOM     11  C   UNL A   1      31.483  24.594  25.648  1.00  0.00     0.086 A 
ATOM     12  C   UNL A   1      31.224  27.334  25.158  1.00  0.00     0.014 A 
ATOM     13  C   UNL A   1      31.785  25.558  26.637  1.00  0.00     0.035 A 
BRANCH  11  14
ATOM     14  S   UNL A   1      31.669  22.922  26.272  1.00  0.00     0.243 S 
ATOM     15  O   UNL A   1      32.112  23.051  27.635  1.00  0.00    -0.207 OA
ATOM     16  O   UNL A   1      30.425  22.237  25.947  1.00  0.00    -0.207 OA
BRANCH  14  17
ATOM     17  N   UNL A   1      32.869  22.161  25.374  1.00  0.00    -0.197 NA
ATOM     18  C   UNL A   1      32.430  21.351  24.235  1.00  0.00     0.125 C 
BRANCH  17  19
ATOM     19  C   UNL A   1      34.283  22.512  25.623  1.00  0.00     0.083 C 
ATOM     20  C   UNL A   1      35.266  21.363  25.407  1.00  0.00     0.032 C 
ATOM     21  C   UNL A   1      34.798  23.658  24.754  1.00  0.00     0.089 C 
ATOM     22  C   UNL A   1      36.628  21.947  25.740  1.00  0.00     0.071 C 
ATOM     23  S   UNL A   1      36.619  23.559  24.908  1.00  0.00    -0.160 SA
ENDBRANCH  17  19
ENDBRANCH  14  17
ENDBRANCH  11  14
ENDBRANCH   4   7
ENDBRANCH   2   3
ENDBRANCH   1   2
BRANCH   1  24
ATOM     24  C   UNL A   1      35.014  30.622  28.433  1.00  0.00     0.023 C 
BRANCH  24  25
ATOM     25  C   UNL A   1      35.256  31.959  27.764  1.00  0.00     0.116 C 
BRANCH  25  26
ATOM     26  N   UNL A   1      34.674  33.068  28.491  1.00  0.00    -0.352 N 
ATOM     27  C   UNL A   1      34.836  33.467  29.798  1.00  0.00     0.251 C 
ATOM     28  H   UNL A   1      34.061  33.629  27.962  1.00  0.00     0.163 HD
ATOM     29  O   UNL A   1      33.892  34.073  30.306  1.00  0.00    -0.269 OA
BRANCH  27  30
ATOM     30  C   UNL A   1      36.137  33.369  30.512  1.00  0.00     0.039 A 
ATOM     31  C   UNL A   1      37.305  33.653  29.784  1.00  0.00     0.014 A 
ATOM     32  C   UNL A   1      36.252  32.718  31.731  1.00  0.00     0.014 A 
ATOM     33  C   UNL A   1      38.505  33.043  30.130  1.00  0.00     0.010 A 
ATOM     34  C   UNL A   1      37.394  32.034  32.020  1.00  0.00     0.010 A 
ATOM     35  C   UNL A   1      38.482  32.123  31.158  1.00  0.00    -0.014 A 
BRANCH  35  36
ATOM     36  C   UNL A   1      39.536  31.214  31.533  1.00  0.00     0.031 A 
ATOM     37  C   UNL A   1      39.548  29.908  30.871  1.00  0.00     0.074 A 
ATOM     38  C   UNL A   1      40.636  31.847  31.999  1.00  0.00     0.049 A 
ATOM     39  N   UNL A   1      40.486  29.047  31.012  1.00  0.00    -0.248 NA
ATOM     40  C   UNL A   1      38.487  29.471  29.961  1.00  0.00     0.031 C 
ATOM     41  C   UNL A   1      42.045  31.535  31.806  1.00  0.00     0.029 A 
ATOM     42  N   UNL A   1      40.659  32.942  32.859  1.00  0.00    -0.354 N 
ATOM     43  C   UNL A   1      40.351  28.157  29.972  1.00  0.00     0.074 A 
ATOM     44  C   UNL A   1      39.018  28.349  29.467  1.00  0.00     0.031 C 
ATOM     45  C   UNL A   1      42.771  32.218  32.714  1.00  0.00     0.029 A 
ATOM     46  C   UNL A   1      41.824  32.830  33.634  1.00  0.00     0.049 A 
ATOM     47  H   UNL A   1      39.987  33.659  32.913  1.00  0.00     0.167 HD
ATOM     48  C   UNL A   1      41.467  27.506  29.553  1.00  0.00     0.034 A 
ATOM     49  C   UNL A   1      41.678  32.474  34.953  1.00  0.00     0.034 A 
ATOM     50  C   UNL A   1      42.566  27.735  30.506  1.00  0.00     0.049 A 
ATOM     51  C   UNL A   1      42.204  31.075  35.230  1.00  0.00     0.074 A 
ATOM     52  C   UNL A   1      43.688  28.544  30.477  1.00  0.00     0.029 A 
ATOM     53  N   UNL A   1      42.391  27.357  31.839  1.00  0.00    -0.354 N 
ATOM     54  N   UNL A   1      42.453  30.186  34.305  1.00  0.00    -0.248 NA
ATOM     55  C   UNL A   1      42.557  30.590  36.561  1.00  0.00     0.031 C 
ATOM     56  C   UNL A   1      44.085  28.776  31.830  1.00  0.00     0.029 A 
ATOM     57  C   UNL A   1      43.241  28.068  32.671  1.00  0.00     0.049 A 
ATOM     58  H   UNL A   1      41.749  26.676  32.144  1.00  0.00     0.167 HD
ATOM     59  C   UNL A   1      42.917  29.031  34.863  1.00  0.00     0.074 A 
ATOM     60  C   UNL A   1      43.010  29.354  36.280  1.00  0.00     0.031 C 
ATOM     61  C   UNL A   1      43.162  27.902  34.124  1.00  0.00     0.034 A 
BRANCH  48  62
ATOM     62  C   UNL A   1      41.657  26.829  28.208  1.00  0.00     0.023 A 
ATOM     63  C   UNL A   1      41.476  27.640  27.067  1.00  0.00     0.012 A 
ATOM     64  C   UNL A   1      41.902  25.452  27.960  1.00  0.00     0.148 A 
ATOM     65  C   UNL A   1      41.535  27.130  25.765  1.00  0.00     0.002 A 
ATOM     66  C   UNL A   1      42.032  24.956  26.658  1.00  0.00     0.091 A 
ATOM     67  F   UNL A   1      41.922  24.577  28.967  1.00  0.00    -0.205 F 
ATOM     68  C   UNL A   1      41.832  25.791  25.557  1.00  0.00     0.022 A 
BRANCH  66  69
ATOM     69  S   UNL A   1      42.476  23.242  26.306  1.00  0.00     0.127 S 
ATOM     70  O   UNL A   1      43.499  22.974  27.316  1.00  0.00    -0.237 OA
ATOM     71  O   UNL A   1      41.210  22.540  26.526  1.00  0.00    -0.237 OA
ATOM     72  O   UNL A   1      42.944  23.215  24.926  1.00  0.00    -0.744 OA
ENDBRANCH  66  69
ENDBRANCH  48  62
BRANCH  49  73
ATOM     73  C   UNL A   1      40.437  33.104  35.540  1.00  0.00     0.023 A 
ATOM     74  C   UNL A   1      39.306  32.248  35.638  1.00  0.00     0.012 A 
ATOM     75  C   UNL A   1      40.517  34.207  36.411  1.00  0.00     0.148 A 
ATOM     76  C   UNL A   1      38.436  32.337  36.726  1.00  0.00     0.002 A 
ATOM     77  C   UNL A   1      39.608  34.318  37.468  1.00  0.00     0.091 A 
ATOM     78  F   UNL A   1      41.510  35.090  36.242  1.00  0.00    -0.205 F 
ATOM     79  C   UNL A   1      38.619  33.341  37.671  1.00  0.00     0.022 A 
BRANCH  77  80
ATOM     80  S   UNL A   1      39.717  35.666  38.656  1.00  0.00     0.127 S 
ATOM     81  O   UNL A   1      38.664  35.310  39.603  1.00  0.00    -0.237 OA
ATOM     82  O   UNL A   1      41.075  35.541  39.186  1.00  0.00    -0.237 OA
ATOM     83  O   UNL A   1      39.494  36.876  37.875  1.00  0.00    -0.744 OA
ENDBRANCH  77  80
ENDBRANCH  49  73
BRANCH  61  84
ATOM     84  C   UNL A   1      43.368  26.522  34.721  1.00  0.00     0.023 A 
ATOM     85  C   UNL A   1      42.285  25.696  35.082  1.00  0.00     0.012 A 
ATOM     86  C   UNL A   1      44.661  25.940  34.796  1.00  0.00     0.148 A 
ATOM     87  C   UNL A   1      42.470  24.406  35.587  1.00  0.00     0.002 A 
ATOM     88  C   UNL A   1      44.829  24.611  35.175  1.00  0.00     0.091 A 
ATOM     89  F   UNL A   1      45.746  26.675  34.519  1.00  0.00    -0.205 F 
ATOM     90  C   UNL A   1      43.742  23.855  35.614  1.00  0.00     0.022 A 
BRANCH  88  91
ATOM     91  S   UNL A   1      46.404  23.769  34.970  1.00  0.00     0.127 S 
ATOM     92  O   UNL A   1      46.841  24.261  33.665  1.00  0.00    -0.237 OA
ATOM     93  O   UNL A   1      47.178  24.282  36.103  1.00  0.00    -0.237 OA
ATOM     94  O   UNL A   1      46.103  22.346  35.049  1.00  0.00    -0.744 OA
ENDBRANCH  88  91
ENDBRANCH  61  84
ENDBRANCH  35  36
ENDBRANCH  27  30
ENDBRANCH  25  26
ENDBRANCH  24  25
ENDBRANCH   1  24
TORSDOF 17
ENDMDL
MODEL 3
REMARK VINA RESULT:     -11.3      2.712      3.960
REMARK SMILES Cc1ccc(C(=O)NCCCCNC(=O)c2ccc(-c3c4nc(c(-c5cccc(S(=O)(=O)[O-])c5F)c5ccc([nH]5)c(-c5cccc(S(=O)(=O)[O-])c5F)c5nc(c(-c6cccc(S(=O)(=O)[O-])c6F)c6ccc3[nH]6)C=C5)C=C4)cc2)cc1S(=O)(=O)N(C)[C@H]1CCSC1
REMARK SMILES IDX 10 1 9 2 8 3 6 4 7 5 5 7 1 8 2 9 3 10 80 11 4 12 79 13 81 14
REMARK SMILES IDX 82 15 83 16 84 17 85 18 86 19 87 20 90 21 88 22 89 23 11 24
REMARK SMILES IDX 12 25 13 26 14 27 15 29 16 30 17 31 78 32 18 33 77 34 19 35
REMARK SMILES IDX 20 36 21 37 71 38 22 39 76 40 70 41 72 42 23 43 75 44 69 45
REMARK SMILES IDX 68 46 24 48 56 49 36 50 55 51 37 52 40 53 54 54 73 55 38 56
REMARK SMILES IDX 39 57 53 59 74 60 41 61 25 62 26 63 34 64 27 65 29 66 35 67
REMARK SMILES IDX 28 68 30 69 31 70 32 71 33 72 57 73 58 74 66 75 59 76 61 77
REMARK SMILES IDX 67 78 60 79 62 80 63 81 64 82 65 83 42 84 43 85 51 86 44 87
REMARK SMILES IDX 46 88 52 89 45 90 47 91 48 92 49 93 50 94
REMARK H PARENT 8 6 13 28 72 47 40 58
REMARK Flexibility Score: inf
ROOT
ATOM      1  C   UNL A   1      39.060  23.833  27.031  1.00  0.00     0.023 C 
ENDROOT
BRANCH   1   2
ATOM      2  C   UNL A   1      37.759  23.731  26.212  1.00  0.00     0.116 C 
BRANCH   2   3
ATOM      3  N   UNL A   1      37.379  22.349  25.978  1.00  0.00    -0.352 N 
ATOM      4  C   UNL A   1      36.276  21.751  25.427  1.00  0.00     0.251 C 
ATOM      5  O   UNL A   1      36.266  20.518  25.395  1.00  0.00    -0.269 OA
ATOM      6  H   UNL A   1      38.059  21.705  26.279  1.00  0.00     0.163 HD
BRANCH   4   7
ATOM      7  C   UNL A   1      35.105  22.479  24.853  1.00  0.00     0.041 A 
ATOM      8  C   UNL A   1      31.904  24.527  22.742  1.00  0.00     0.046 C 
ATOM      9  C   UNL A   1      32.953  23.885  23.591  1.00  0.00    -0.031 A 
ATOM     10  C   UNL A   1      34.117  23.515  22.888  1.00  0.00     0.005 A 
ATOM     11  C   UNL A   1      32.884  23.543  24.948  1.00  0.00     0.086 A 
ATOM     12  C   UNL A   1      35.173  22.840  23.506  1.00  0.00     0.014 A 
ATOM     13  C   UNL A   1      33.942  22.815  25.539  1.00  0.00     0.035 A 
BRANCH  11  14
ATOM     14  S   UNL A   1      31.589  23.913  26.132  1.00  0.00     0.243 S 
ATOM     15  O   UNL A   1      30.453  23.120  25.743  1.00  0.00    -0.207 OA
ATOM     16  O   UNL A   1      32.198  23.760  27.447  1.00  0.00    -0.207 OA
BRANCH  14  17
ATOM     17  N   UNL A   1      31.199  25.541  25.987  1.00  0.00    -0.197 NA
ATOM     18  C   UNL A   1      29.839  25.859  25.545  1.00  0.00     0.125 C 
BRANCH  17  19
ATOM     19  C   UNL A   1      32.138  26.554  26.512  1.00  0.00     0.083 C 
ATOM     20  C   UNL A   1      33.125  27.096  25.480  1.00  0.00     0.032 C 
ATOM     21  C   UNL A   1      31.452  27.784  27.106  1.00  0.00     0.089 C 
ATOM     22  C   UNL A   1      33.986  28.085  26.246  1.00  0.00     0.071 C 
ATOM     23  S   UNL A   1      32.786  29.031  27.224  1.00  0.00    -0.160 SA
ENDBRANCH  17  19
ENDBRANCH  14  17
ENDBRANCH  11  14
ENDBRANCH   4   7
ENDBRANCH   2   3
ENDBRANCH   1   2
BRANCH   1  24
ATOM     24  C   UNL A   1      39.896  22.544  27.122  1.00  0.00     0.023 C 
BRANCH  24  25
ATOM     25  C   UNL A   1      40.729  22.288  25.883  1.00  0.00     0.116 C 
BRANCH  25  26
ATOM     26  N   UNL A   1      41.709  21.238  26.069  1.00  0.00    -0.352 N 
ATOM     27  C   UNL A   1      43.084  21.288  26.088  1.00  0.00     0.251 C 
ATOM     28  H   UNL A   1      41.327  20.340  26.205  1.00  0.00     0.163 HD
ATOM     29  O   UNL A   1      43.674  20.262  25.747  1.00  0.00    -0.269 OA
BRANCH  27  30
ATOM     30  C   UNL A   1      43.838  22.426  26.677  1.00  0.00     0.039 A 
ATOM     31  C   UNL A   1      43.651  22.696  28.044  1.00  0.00     0.014 A 
ATOM     32  C   UNL A   1      44.442  23.389  25.884  1.00  0.00     0.014 A 
ATOM     33  C   UNL A   1      43.796  23.993  28.522  1.00  0.00     0.010 A 
ATOM     34  C   UNL A   1      44.489  24.681  26.314  1.00  0.00     0.010 A 
ATOM     35  C   UNL A   1      44.067  24.987  27.604  1.00  0.00    -0.014 A 
BRANCH  35  36
ATOM     36  C   UNL A   1      44.033  26.410  27.830  1.00  0.00     0.031 A 
ATOM     37  C   UNL A   1      42.722  27.059  27.761  1.00  0.00     0.074 A 
ATOM     38  C   UNL A   1      45.066  26.849  28.585  1.00  0.00     0.049 A 
ATOM     39  N   UNL A   1      42.520  28.289  28.057  1.00  0.00    -0.248 NA
ATOM     40  C   UNL A   1      41.506  26.346  27.365  1.00  0.00     0.031 C 
ATOM     41  C   UNL A   1      45.099  27.877  29.614  1.00  0.00     0.029 A 
ATOM     42  N   UNL A   1      46.393  26.439  28.489  1.00  0.00    -0.354 N 
ATOM     43  C   UNL A   1      41.164  28.420  28.250  1.00  0.00     0.074 A 
ATOM     44  C   UNL A   1      40.572  27.260  27.642  1.00  0.00     0.031 C 
ATOM     45  C   UNL A   1      46.383  28.210  29.856  1.00  0.00     0.029 A 
ATOM     46  C   UNL A   1      47.188  27.540  28.846  1.00  0.00     0.049 A 
ATOM     47  H   UNL A   1      46.714  25.548  28.222  1.00  0.00     0.167 HD
ATOM     48  C   UNL A   1      40.740  29.411  29.078  1.00  0.00     0.034 A 
ATOM     49  C   UNL A   1      47.871  28.182  27.842  1.00  0.00     0.034 A 
ATOM     50  C   UNL A   1      41.864  30.304  29.404  1.00  0.00     0.049 A 
ATOM     51  C   UNL A   1      47.313  29.570  27.566  1.00  0.00     0.074 A 
ATOM     52  C   UNL A   1      42.659  30.451  30.526  1.00  0.00     0.029 A 
ATOM     53  N   UNL A   1      42.535  30.949  28.362  1.00  0.00    -0.354 N 
ATOM     54  N   UNL A   1      46.143  29.985  27.972  1.00  0.00    -0.248 NA
ATOM     55  C   UNL A   1      48.054  30.619  26.873  1.00  0.00     0.031 C 
ATOM     56  C   UNL A   1      43.887  31.049  30.108  1.00  0.00     0.029 A 
ATOM     57  C   UNL A   1      43.816  31.312  28.749  1.00  0.00     0.049 A 
ATOM     58  H   UNL A   1      42.149  31.121  27.473  1.00  0.00     0.167 HD
ATOM     59  C   UNL A   1      45.927  31.272  27.574  1.00  0.00     0.074 A 
ATOM     60  C   UNL A   1      47.179  31.640  26.928  1.00  0.00     0.031 C 
ATOM     61  C   UNL A   1      44.736  31.918  27.783  1.00  0.00     0.034 A 
BRANCH  48  62
ATOM     62  C   UNL A   1      39.388  29.488  29.762  1.00  0.00     0.023 A 
ATOM     63  C   UNL A   1      39.022  28.380  30.556  1.00  0.00     0.012 A 
ATOM     64  C   UNL A   1      38.404  30.503  29.620  1.00  0.00     0.148 A 
ATOM     65  C   UNL A   1      37.771  28.278  31.174  1.00  0.00     0.002 A 
ATOM     66  C   UNL A   1      37.181  30.434  30.296  1.00  0.00     0.091 A 
ATOM     67  F   UNL A   1      38.588  31.507  28.760  1.00  0.00    -0.205 F 
ATOM     68  C   UNL A   1      36.855  29.314  31.061  1.00  0.00     0.022 A 
BRANCH  66  69
ATOM     69  S   UNL A   1      35.963  31.766  30.247  1.00  0.00     0.127 S 
ATOM     70  O   UNL A   1      36.796  32.938  29.982  1.00  0.00    -0.237 OA
ATOM     71  O   UNL A   1      35.106  31.366  29.130  1.00  0.00    -0.237 OA
ATOM     72  O   UNL A   1      35.297  31.759  31.544  1.00  0.00    -0.744 OA
ENDBRANCH  66  69
ENDBRANCH  48  62
BRANCH  49  73
ATOM     73  C   UNL A   1      48.369  27.191  26.818  1.00  0.00     0.023 A 
ATOM     74  C   UNL A   1      47.639  27.153  25.598  1.00  0.00     0.012 A 
ATOM     75  C   UNL A   1      49.710  26.759  26.807  1.00  0.00     0.148 A 
ATOM     76  C   UNL A   1      48.293  26.949  24.381  1.00  0.00     0.002 A 
ATOM     77  C   UNL A   1      50.342  26.504  25.586  1.00  0.00     0.091 A 
ATOM     78  F   UNL A   1      50.365  26.668  27.971  1.00  0.00    -0.205 F 
ATOM     79  C   UNL A   1      49.657  26.677  24.372  1.00  0.00     0.022 A 
BRANCH  77  80
ATOM     80  S   UNL A   1      52.076  26.027  25.514  1.00  0.00     0.127 S 
ATOM     81  O   UNL A   1      52.323  26.031  24.075  1.00  0.00    -0.237 OA
ATOM     82  O   UNL A   1      52.752  27.098  26.247  1.00  0.00    -0.237 OA
ATOM     83  O   UNL A   1      52.138  24.728  26.172  1.00  0.00    -0.744 OA
ENDBRANCH  77  80
ENDBRANCH  49  73
BRANCH  61  84
ATOM     84  C   UNL A   1      44.334  33.210  27.094  1.00  0.00     0.023 A 
ATOM     85  C   UNL A   1      44.215  33.302  25.693  1.00  0.00     0.012 A 
ATOM     86  C   UNL A   1      43.911  34.340  27.841  1.00  0.00     0.148 A 
ATOM     87  C   UNL A   1      43.800  34.476  25.057  1.00  0.00     0.002 A 
ATOM     88  C   UNL A   1      43.374  35.458  27.210  1.00  0.00     0.091 A 
ATOM     89  F   UNL A   1      44.041  34.351  29.175  1.00  0.00    -0.205 F 
ATOM     90  C   UNL A   1      43.359  35.548  25.818  1.00  0.00     0.022 A 
BRANCH  88  91
ATOM     91  S   UNL A   1      42.544  36.753  28.140  1.00  0.00     0.127 S 
ATOM     92  O   UNL A   1      41.490  36.006  28.821  1.00  0.00    -0.237 OA
ATOM     93  O   UNL A   1      43.613  37.236  29.019  1.00  0.00    -0.237 OA
ATOM     94  O   UNL A   1      42.102  37.726  27.150  1.00  0.00    -0.744 OA
ENDBRANCH  88  91
ENDBRANCH  61  84
ENDBRANCH  35  36
ENDBRANCH  27  30
ENDBRANCH  25  26
ENDBRANCH  24  25
ENDBRANCH   1  24
TORSDOF 17
ENDMDL
