MODEL 1
REMARK VINA RESULT:     -14.1      0.000      0.000
REMARK SMILES Cc1ccc(C(=O)NC2(CC(=O)NCCCCNC(=O)c3ccc(-c4c5nc(c(-c6cccc(S(=O)(=O)[O-])c6F)c6ccc([nH]6)c(-c6cccc(S(=O)(=O)[O-])c6F)c6nc(c(-c7cccc(S(=O)(=O)[O-])c7F)c7ccc4[nH]7)C=C6)C=C5)cc3)CCC2)cc1
REMARK SMILES IDX 15 1 14 2 13 3 11 4 12 5 10 7 9 8 84 9 86 10 85 11 8 12 6 13
REMARK SMILES IDX 7 14 5 16 1 17 2 18 3 19 88 20 4 21 87 22 16 23 17 24 18 25
REMARK SMILES IDX 19 26 20 28 21 29 22 30 83 31 23 32 82 33 24 34 25 35 26 36
REMARK SMILES IDX 76 37 27 38 81 39 75 40 77 41 28 42 80 43 74 44 73 45 29 47
REMARK SMILES IDX 61 48 41 49 60 50 42 51 45 52 59 53 78 54 43 55 44 56 58 58
REMARK SMILES IDX 79 59 46 60 30 61 31 62 39 63 32 64 34 65 40 66 33 67 35 68
REMARK SMILES IDX 36 69 37 70 38 71 62 72 63 73 71 74 64 75 66 76 72 77 65 78
REMARK SMILES IDX 67 79 68 80 69 81 70 82 47 83 48 84 56 85 49 86 51 87 57 88
REMARK SMILES IDX 50 89 52 90 53 91 54 92 55 93
REMARK H PARENT 13 6 8 15 18 27 77 46 45 57
REMARK Flexibility Score: inf
ROOT
ATOM      1  C   UNL A   1      35.446  22.018  25.360  1.00  0.00     0.023 C 
ENDROOT
BRANCH   1   2
ATOM      2  C   UNL A   1      34.296  21.062  25.698  1.00  0.00     0.116 C 
BRANCH   2   3
ATOM      3  N   UNL A   1      33.109  21.688  26.732  1.00  0.00    -0.356 N 
ATOM      4  C   UNL A   1      31.695  23.051  26.719  1.00  0.00     0.222 C 
ATOM      5  O   UNL A   1      30.675  23.211  27.460  1.00  0.00    -0.275 OA
ATOM      6  H   UNL A   1      33.137  21.230  27.603  1.00  0.00     0.163 HD
BRANCH   4   7
ATOM      7  C   UNL A   1      31.664  24.527  25.524  1.00  0.00     0.128 C 
BRANCH   7   8
ATOM      8  C   UNL A   1      31.435  24.421  23.862  1.00  0.00     0.049 C 
ATOM      9  C   UNL A   1      31.979  23.142  23.129  1.00  0.00     0.029 C 
ATOM     10  C   UNL A   1      32.093  25.164  22.489  1.00  0.00     0.029 C 
ATOM     11  C   UNL A   1      33.065  24.009  22.419  1.00  0.00     0.005 C 
BRANCH   8  12
ATOM     12  N   UNL A   1      30.043  24.798  23.676  1.00  0.00    -0.346 N 
ATOM     13  C   UNL A   1      29.760  26.085  24.032  1.00  0.00     0.251 C 
ATOM     14  O   UNL A   1      28.683  26.618  23.820  1.00  0.00    -0.269 OA
ATOM     15  H   UNL A   1      29.363  24.179  23.324  1.00  0.00     0.164 HD
BRANCH  13  16
ATOM     16  C   UNL A   1      30.833  26.701  24.891  1.00  0.00     0.039 A 
ATOM     17  C   UNL A   1      33.871  30.182  26.953  1.00  0.00     0.044 C 
ATOM     18  C   UNL A   1      32.681  29.421  26.436  1.00  0.00    -0.051 A 
ATOM     19  C   UNL A   1      32.536  29.322  24.641  1.00  0.00     0.004 A 
ATOM     20  C   UNL A   1      31.881  28.231  27.520  1.00  0.00     0.004 A 
ATOM     21  C   UNL A   1      31.623  27.983  23.880  1.00  0.00     0.014 A 
ATOM     22  C   UNL A   1      30.970  26.823  26.779  1.00  0.00     0.014 A 
ENDBRANCH  13  16
ENDBRANCH   8  12
ENDBRANCH   7   8
ENDBRANCH   4   7
ENDBRANCH   2   3
ENDBRANCH   1   2
BRANCH   1  23
ATOM     23  C   UNL A   1      36.852  21.468  25.583  1.00  0.00     0.023 C 
BRANCH  23  24
ATOM     24  C   UNL A   1      37.921  22.529  25.509  1.00  0.00     0.116 C 
BRANCH  24  25
ATOM     25  N   UNL A   1      38.856  22.419  26.622  1.00  0.00    -0.352 N 
ATOM     26  C   UNL A   1      39.989  23.191  26.769  1.00  0.00     0.251 C 
ATOM     27  H   UNL A   1      38.665  21.748  27.317  1.00  0.00     0.163 HD
ATOM     28  O   UNL A   1      41.072  22.642  26.913  1.00  0.00    -0.269 OA
BRANCH  26  29
ATOM     29  C   UNL A   1      39.773  24.640  26.957  1.00  0.00     0.039 A 
ATOM     30  C   UNL A   1      40.417  25.575  26.147  1.00  0.00     0.014 A 
ATOM     31  C   UNL A   1      39.193  25.054  28.149  1.00  0.00     0.014 A 
ATOM     32  C   UNL A   1      40.750  26.804  26.704  1.00  0.00     0.010 A 
ATOM     33  C   UNL A   1      39.355  26.303  28.605  1.00  0.00     0.010 A 
ATOM     34  C   UNL A   1      40.327  27.061  27.995  1.00  0.00    -0.014 A 
BRANCH  34  35
ATOM     35  C   UNL A   1      40.616  28.185  28.835  1.00  0.00     0.031 A 
ATOM     36  C   UNL A   1      39.598  29.228  28.725  1.00  0.00     0.074 A 
ATOM     37  C   UNL A   1      41.438  27.911  29.883  1.00  0.00     0.049 A 
ATOM     38  N   UNL A   1      39.733  30.393  29.216  1.00  0.00    -0.248 NA
ATOM     39  C   UNL A   1      38.332  29.052  27.999  1.00  0.00     0.031 C 
ATOM     40  C   UNL A   1      41.435  28.443  31.241  1.00  0.00     0.029 A 
ATOM     41  N   UNL A   1      42.515  27.016  29.904  1.00  0.00    -0.354 N 
ATOM     42  C   UNL A   1      38.488  30.981  29.181  1.00  0.00     0.074 A 
ATOM     43  C   UNL A   1      37.703  30.198  28.270  1.00  0.00     0.031 C 
ATOM     44  C   UNL A   1      42.591  28.111  31.851  1.00  0.00     0.029 A 
ATOM     45  C   UNL A   1      43.436  27.448  30.871  1.00  0.00     0.049 A 
ATOM     46  H   UNL A   1      42.608  26.218  29.337  1.00  0.00     0.167 HD
ATOM     47  C   UNL A   1      38.236  31.945  30.101  1.00  0.00     0.034 A 
ATOM     48  C   UNL A   1      44.649  27.927  30.447  1.00  0.00     0.034 A 
ATOM     49  C   UNL A   1      39.420  32.077  30.972  1.00  0.00     0.049 A 
ATOM     50  C   UNL A   1      44.680  29.449  30.464  1.00  0.00     0.074 A 
ATOM     51  C   UNL A   1      39.762  31.501  32.187  1.00  0.00     0.029 A 
ATOM     52  N   UNL A   1      40.611  32.496  30.394  1.00  0.00    -0.354 N 
ATOM     53  N   UNL A   1      43.636  30.204  30.684  1.00  0.00    -0.248 NA
ATOM     54  C   UNL A   1      45.898  30.235  30.315  1.00  0.00     0.031 C 
ATOM     55  C   UNL A   1      41.185  31.547  32.305  1.00  0.00     0.029 A 
ATOM     56  C   UNL A   1      41.704  32.154  31.172  1.00  0.00     0.049 A 
ATOM     57  H   UNL A   1      40.670  32.977  29.537  1.00  0.00     0.167 HD
ATOM     58  C   UNL A   1      43.977  31.527  30.642  1.00  0.00     0.074 A 
ATOM     59  C   UNL A   1      45.424  31.484  30.474  1.00  0.00     0.031 C 
ATOM     60  C   UNL A   1      43.047  32.535  30.730  1.00  0.00     0.034 A 
BRANCH  47  61
ATOM     61  C   UNL A   1      36.899  32.575  30.412  1.00  0.00     0.023 A 
ATOM     62  C   UNL A   1      36.478  32.484  31.758  1.00  0.00     0.012 A 
ATOM     63  C   UNL A   1      36.032  33.267  29.531  1.00  0.00     0.148 A 
ATOM     64  C   UNL A   1      35.268  33.014  32.208  1.00  0.00     0.002 A 
ATOM     65  C   UNL A   1      34.804  33.776  29.975  1.00  0.00     0.091 A 
ATOM     66  F   UNL A   1      36.400  33.491  28.266  1.00  0.00    -0.205 F 
ATOM     67  C   UNL A   1      34.426  33.652  31.315  1.00  0.00     0.022 A 
BRANCH  65  68
ATOM     68  S   UNL A   1      33.619  34.599  28.893  1.00  0.00     0.127 S 
ATOM     69  O   UNL A   1      32.564  34.987  29.832  1.00  0.00    -0.237 OA
ATOM     70  O   UNL A   1      34.397  35.719  28.366  1.00  0.00    -0.237 OA
ATOM     71  O   UNL A   1      33.203  33.610  27.907  1.00  0.00    -0.744 OA
ENDBRANCH  65  68
ENDBRANCH  47  61
BRANCH  48  72
ATOM     72  C   UNL A   1      45.240  27.021  29.401  1.00  0.00     0.023 A 
ATOM     73  C   UNL A   1      45.273  25.641  29.744  1.00  0.00     0.012 A 
ATOM     74  C   UNL A   1      45.165  27.379  28.047  1.00  0.00     0.148 A 
ATOM     75  C   UNL A   1      44.952  24.667  28.796  1.00  0.00     0.002 A 
ATOM     76  C   UNL A   1      44.843  26.401  27.108  1.00  0.00     0.091 A 
ATOM     77  F   UNL A   1      45.314  28.666  27.713  1.00  0.00    -0.205 F 
ATOM     78  C   UNL A   1      44.672  25.058  27.492  1.00  0.00     0.022 A 
BRANCH  76  79
ATOM     79  S   UNL A   1      44.430  26.842  25.417  1.00  0.00     0.127 S 
ATOM     80  O   UNL A   1      45.750  26.960  24.806  1.00  0.00    -0.237 OA
ATOM     81  O   UNL A   1      43.666  25.679  24.976  1.00  0.00    -0.237 OA
ATOM     82  O   UNL A   1      43.661  28.074  25.519  1.00  0.00    -0.744 OA
ENDBRANCH  76  79
ENDBRANCH  48  72
BRANCH  60  83
ATOM     83  C   UNL A   1      43.300  34.006  30.411  1.00  0.00     0.023 A 
ATOM     84  C   UNL A   1      43.560  34.959  31.408  1.00  0.00     0.012 A 
ATOM     85  C   UNL A   1      43.407  34.471  29.067  1.00  0.00     0.148 A 
ATOM     86  C   UNL A   1      43.809  36.303  31.111  1.00  0.00     0.002 A 
ATOM     87  C   UNL A   1      43.817  35.766  28.776  1.00  0.00     0.091 A 
ATOM     88  F   UNL A   1      43.072  33.680  28.040  1.00  0.00    -0.205 F 
ATOM     89  C   UNL A   1      43.965  36.702  29.795  1.00  0.00     0.022 A 
BRANCH  87  90
ATOM     90  S   UNL A   1      44.300  36.259  27.115  1.00  0.00     0.127 S 
ATOM     91  O   UNL A   1      43.001  36.364  26.451  1.00  0.00    -0.237 OA
ATOM     92  O   UNL A   1      44.966  37.538  27.362  1.00  0.00    -0.237 OA
ATOM     93  O   UNL A   1      45.180  35.206  26.630  1.00  0.00    -0.744 OA
ENDBRANCH  87  90
ENDBRANCH  60  83
ENDBRANCH  34  35
ENDBRANCH  26  29
ENDBRANCH  24  25
ENDBRANCH  23  24
ENDBRANCH   1  23
TORSDOF 17
ENDMDL
MODEL 2
REMARK VINA RESULT:     -14.0      1.558      2.075
REMARK SMILES Cc1ccc(C(=O)NC2(CC(=O)NCCCCNC(=O)c3ccc(-c4c5nc(c(-c6cccc(S(=O)(=O)[O-])c6F)c6ccc([nH]6)c(-c6cccc(S(=O)(=O)[O-])c6F)c6nc(c(-c7cccc(S(=O)(=O)[O-])c7F)c7ccc4[nH]7)C=C6)C=C5)cc3)CCC2)cc1
REMARK SMILES IDX 15 1 14 2 13 3 11 4 12 5 10 7 9 8 84 9 86 10 85 11 8 12 6 13
REMARK SMILES IDX 7 14 5 16 1 17 2 18 3 19 88 20 4 21 87 22 16 23 17 24 18 25
REMARK SMILES IDX 19 26 20 28 21 29 22 30 83 31 23 32 82 33 24 34 25 35 26 36
REMARK SMILES IDX 76 37 27 38 81 39 75 40 77 41 28 42 80 43 74 44 73 45 29 47
REMARK SMILES IDX 61 48 41 49 60 50 42 51 45 52 59 53 78 54 43 55 44 56 58 58
REMARK SMILES IDX 79 59 46 60 30 61 31 62 39 63 32 64 34 65 40 66 33 67 35 68
REMARK SMILES IDX 36 69 37 70 38 71 62 72 63 73 71 74 64 75 66 76 72 77 65 78
REMARK SMILES IDX 67 79 68 80 69 81 70 82 47 83 48 84 56 85 49 86 51 87 57 88
REMARK SMILES IDX 50 89 52 90 53 91 54 92 55 93
REMARK H PARENT 13 6 8 15 18 27 77 46 45 57
REMARK Flexibility Score: inf
ROOT
ATOM      1  C   UNL A   1      36.419  23.825  25.301  1.00  0.00     0.023 C 
ENDROOT
BRANCH   1   2
ATOM      2  C   UNL A   1      36.578  23.529  23.806  1.00  0.00     0.116 C 
BRANCH   2   3
ATOM      3  N   UNL A   1      35.279  22.716  23.082  1.00  0.00    -0.356 N 
ATOM      4  C   UNL A   1      33.408  23.049  22.585  1.00  0.00     0.222 C 
ATOM      5  O   UNL A   1      32.635  22.450  21.772  1.00  0.00    -0.275 OA
ATOM      6  H   UNL A   1      35.541  21.799  22.838  1.00  0.00     0.163 HD
BRANCH   4   7
ATOM      7  C   UNL A   1      32.334  24.406  23.367  1.00  0.00     0.128 C 
BRANCH   7   8
ATOM      8  C   UNL A   1      31.346  24.202  24.712  1.00  0.00     0.049 C 
ATOM      9  C   UNL A   1      31.909  24.649  26.109  1.00  0.00     0.029 C 
ATOM     10  C   UNL A   1      30.806  22.894  25.645  1.00  0.00     0.029 C 
ATOM     11  C   UNL A   1      31.981  23.157  26.560  1.00  0.00     0.005 C 
BRANCH   8  12
ATOM     12  N   UNL A   1      30.056  24.714  24.278  1.00  0.00    -0.346 N 
ATOM     13  C   UNL A   1      29.950  26.074  24.323  1.00  0.00     0.251 C 
ATOM     14  O   UNL A   1      28.997  26.688  23.872  1.00  0.00    -0.269 OA
ATOM     15  H   UNL A   1      29.322  24.131  23.976  1.00  0.00     0.164 HD
BRANCH  13  16
ATOM     16  C   UNL A   1      31.022  26.713  25.167  1.00  0.00     0.039 A 
ATOM     17  C   UNL A   1      34.319  30.147  26.883  1.00  0.00     0.044 C 
ATOM     18  C   UNL A   1      33.084  29.445  26.387  1.00  0.00    -0.051 A 
ATOM     19  C   UNL A   1      33.074  29.023  24.633  1.00  0.00     0.004 A 
ATOM     20  C   UNL A   1      32.045  28.584  27.576  1.00  0.00     0.004 A 
ATOM     21  C   UNL A   1      32.057  27.679  24.033  1.00  0.00     0.014 A 
ATOM     22  C   UNL A   1      31.019  27.176  27.006  1.00  0.00     0.014 A 
ENDBRANCH  13  16
ENDBRANCH   8  12
ENDBRANCH   7   8
ENDBRANCH   4   7
ENDBRANCH   2   3
ENDBRANCH   1   2
BRANCH   1  23
ATOM     23  C   UNL A   1      36.982  22.769  26.248  1.00  0.00     0.023 C 
BRANCH  23  24
ATOM     24  C   UNL A   1      38.231  22.106  25.721  1.00  0.00     0.116 C 
BRANCH  24  25
ATOM     25  N   UNL A   1      39.287  22.090  26.724  1.00  0.00    -0.352 N 
ATOM     26  C   UNL A   1      40.358  22.958  26.746  1.00  0.00     0.251 C 
ATOM     27  H   UNL A   1      39.232  21.412  27.437  1.00  0.00     0.163 HD
ATOM     28  O   UNL A   1      41.493  22.507  26.771  1.00  0.00    -0.269 OA
BRANCH  26  29
ATOM     29  C   UNL A   1      40.037  24.385  26.955  1.00  0.00     0.039 A 
ATOM     30  C   UNL A   1      40.536  25.367  26.100  1.00  0.00     0.014 A 
ATOM     31  C   UNL A   1      39.521  24.754  28.190  1.00  0.00     0.014 A 
ATOM     32  C   UNL A   1      40.809  26.622  26.633  1.00  0.00     0.010 A 
ATOM     33  C   UNL A   1      39.614  26.013  28.636  1.00  0.00     0.010 A 
ATOM     34  C   UNL A   1      40.468  26.847  27.954  1.00  0.00    -0.014 A 
BRANCH  34  35
ATOM     35  C   UNL A   1      40.728  27.994  28.772  1.00  0.00     0.031 A 
ATOM     36  C   UNL A   1      39.679  29.004  28.651  1.00  0.00     0.074 A 
ATOM     37  C   UNL A   1      41.564  27.764  29.820  1.00  0.00     0.049 A 
ATOM     38  N   UNL A   1      39.781  30.181  29.120  1.00  0.00    -0.248 NA
ATOM     39  C   UNL A   1      38.415  28.777  27.935  1.00  0.00     0.031 C 
ATOM     40  C   UNL A   1      41.553  28.319  31.168  1.00  0.00     0.029 A 
ATOM     41  N   UNL A   1      42.668  26.902  29.850  1.00  0.00    -0.354 N 
ATOM     42  C   UNL A   1      38.519  30.731  29.083  1.00  0.00     0.074 A 
ATOM     43  C   UNL A   1      37.753  29.908  28.190  1.00  0.00     0.031 C 
ATOM     44  C   UNL A   1      42.722  28.033  31.777  1.00  0.00     0.029 A 
ATOM     45  C   UNL A   1      43.581  27.378  30.804  1.00  0.00     0.049 A 
ATOM     46  H   UNL A   1      42.782  26.097  29.297  1.00  0.00     0.167 HD
ATOM     47  C   UNL A   1      38.243  31.703  29.987  1.00  0.00     0.034 A 
ATOM     48  C   UNL A   1      44.776  27.886  30.363  1.00  0.00     0.034 A 
ATOM     49  C   UNL A   1      39.428  31.885  30.849  1.00  0.00     0.049 A 
ATOM     50  C   UNL A   1      44.762  29.408  30.353  1.00  0.00     0.074 A 
ATOM     51  C   UNL A   1      39.794  31.341  32.071  1.00  0.00     0.029 A 
ATOM     52  N   UNL A   1      40.602  32.330  30.256  1.00  0.00    -0.354 N 
ATOM     53  N   UNL A   1      43.697  30.136  30.567  1.00  0.00    -0.248 NA
ATOM     54  C   UNL A   1      45.955  30.228  30.184  1.00  0.00     0.031 C 
ATOM     55  C   UNL A   1      41.216  31.433  32.179  1.00  0.00     0.029 A 
ATOM     56  C   UNL A   1      41.710  32.035  31.033  1.00  0.00     0.049 A 
ATOM     57  H   UNL A   1      40.642  32.797  29.390  1.00  0.00     0.167 HD
ATOM     58  C   UNL A   1      43.998  31.467  30.500  1.00  0.00     0.074 A 
ATOM     59  C   UNL A   1      45.444  31.464  30.323  1.00  0.00     0.031 C 
ATOM     60  C   UNL A   1      43.038  32.448  30.576  1.00  0.00     0.034 A 
BRANCH  47  61
ATOM     61  C   UNL A   1      36.890  32.298  30.296  1.00  0.00     0.023 A 
ATOM     62  C   UNL A   1      36.401  32.063  31.600  1.00  0.00     0.012 A 
ATOM     63  C   UNL A   1      36.066  33.082  29.450  1.00  0.00     0.148 A 
ATOM     64  C   UNL A   1      35.168  32.543  32.042  1.00  0.00     0.002 A 
ATOM     65  C   UNL A   1      34.816  33.542  29.884  1.00  0.00     0.091 A 
ATOM     66  F   UNL A   1      36.497  33.440  28.238  1.00  0.00    -0.205 F 
ATOM     67  C   UNL A   1      34.370  33.275  31.181  1.00  0.00     0.022 A 
BRANCH  65  68
ATOM     68  S   UNL A   1      33.684  34.479  28.837  1.00  0.00     0.127 S 
ATOM     69  O   UNL A   1      33.258  33.469  27.865  1.00  0.00    -0.237 OA
ATOM     70  O   UNL A   1      32.643  34.884  29.780  1.00  0.00    -0.237 OA
ATOM     71  O   UNL A   1      34.461  35.569  28.261  1.00  0.00    -0.744 OA
ENDBRANCH  65  68
ENDBRANCH  47  61
BRANCH  48  72
ATOM     72  C   UNL A   1      45.389  26.979  29.330  1.00  0.00     0.023 A 
ATOM     73  C   UNL A   1      45.469  25.608  29.698  1.00  0.00     0.012 A 
ATOM     74  C   UNL A   1      45.291  27.309  27.970  1.00  0.00     0.148 A 
ATOM     75  C   UNL A   1      45.173  24.606  28.772  1.00  0.00     0.002 A 
ATOM     76  C   UNL A   1      44.994  26.303  27.052  1.00  0.00     0.091 A 
ATOM     77  F   UNL A   1      45.396  28.594  27.611  1.00  0.00    -0.205 F 
ATOM     78  C   UNL A   1      44.871  24.963  27.463  1.00  0.00     0.022 A 
BRANCH  76  79
ATOM     79  S   UNL A   1      44.553  26.697  25.358  1.00  0.00     0.127 S 
ATOM     80  O   UNL A   1      43.784  25.521  24.965  1.00  0.00    -0.237 OA
ATOM     81  O   UNL A   1      43.756  27.909  25.523  1.00  0.00    -0.237 OA
ATOM     82  O   UNL A   1      45.821  26.891  24.667  1.00  0.00    -0.744 OA
ENDBRANCH  76  79
ENDBRANCH  48  72
BRANCH  60  83
ATOM     83  C   UNL A   1      43.245  33.920  30.229  1.00  0.00     0.023 A 
ATOM     84  C   UNL A   1      42.812  34.476  29.015  1.00  0.00     0.012 A 
ATOM     85  C   UNL A   1      43.785  34.841  31.174  1.00  0.00     0.148 A 
ATOM     86  C   UNL A   1      42.987  35.829  28.707  1.00  0.00     0.002 A 
ATOM     87  C   UNL A   1      43.805  36.208  30.927  1.00  0.00     0.091 A 
ATOM     88  F   UNL A   1      44.332  34.408  32.316  1.00  0.00    -0.205 F 
ATOM     89  C   UNL A   1      43.458  36.701  29.673  1.00  0.00     0.022 A 
BRANCH  87  90
ATOM     90  S   UNL A   1      44.142  37.403  32.228  1.00  0.00     0.127 S 
ATOM     91  O   UNL A   1      45.527  37.081  32.571  1.00  0.00    -0.237 OA
ATOM     92  O   UNL A   1      43.966  38.673  31.524  1.00  0.00    -0.237 OA
ATOM     93  O   UNL A   1      43.153  37.148  33.266  1.00  0.00    -0.744 OA
ENDBRANCH  87  90
ENDBRANCH  60  83
ENDBRANCH  34  35
ENDBRANCH  26  29
ENDBRANCH  24  25
ENDBRANCH  23  24
ENDBRANCH   1  23
TORSDOF 17
ENDMDL
MODEL 3
REMARK VINA RESULT:     -13.9      1.155      1.992
REMARK SMILES Cc1ccc(C(=O)NC2(CC(=O)NCCCCNC(=O)c3ccc(-c4c5nc(c(-c6cccc(S(=O)(=O)[O-])c6F)c6ccc([nH]6)c(-c6cccc(S(=O)(=O)[O-])c6F)c6nc(c(-c7cccc(S(=O)(=O)[O-])c7F)c7ccc4[nH]7)C=C6)C=C5)cc3)CCC2)cc1
REMARK SMILES IDX 15 1 14 2 13 3 11 4 12 5 10 7 9 8 84 9 86 10 85 11 8 12 6 13
REMARK SMILES IDX 7 14 5 16 1 17 2 18 3 19 88 20 4 21 87 22 16 23 17 24 18 25
REMARK SMILES IDX 19 26 20 28 21 29 22 30 83 31 23 32 82 33 24 34 25 35 26 36
REMARK SMILES IDX 76 37 27 38 81 39 75 40 77 41 28 42 80 43 74 44 73 45 29 47
REMARK SMILES IDX 61 48 41 49 60 50 42 51 45 52 59 53 78 54 43 55 44 56 58 58
REMARK SMILES IDX 79 59 46 60 30 61 31 62 39 63 32 64 34 65 40 66 33 67 35 68
REMARK SMILES IDX 36 69 37 70 38 71 62 72 63 73 71 74 64 75 66 76 72 77 65 78
REMARK SMILES IDX 67 79 68 80 69 81 70 82 47 83 48 84 56 85 49 86 51 87 57 88
REMARK SMILES IDX 50 89 52 90 53 91 54 92 55 93
REMARK H PARENT 13 6 8 15 18 27 77 46 45 57
REMARK Flexibility Score: inf
ROOT
ATOM      1  C   UNL A   1      35.647  22.172  25.021  1.00  0.00     0.023 C 
ENDROOT
BRANCH   1   2
ATOM      2  C   UNL A   1      34.427  23.023  24.655  1.00  0.00     0.116 C 
BRANCH   2   3
ATOM      3  N   UNL A   1      33.261  23.187  25.874  1.00  0.00    -0.356 N 
ATOM      4  C   UNL A   1      31.908  24.479  26.472  1.00  0.00     0.222 C 
ATOM      5  O   UNL A   1      30.891  24.343  27.223  1.00  0.00    -0.275 OA
ATOM      6  H   UNL A   1      33.265  22.397  26.460  1.00  0.00     0.163 HD
BRANCH   4   7
ATOM      7  C   UNL A   1      31.947  26.326  26.035  1.00  0.00     0.128 C 
BRANCH   7   8
ATOM      8  C   UNL A   1      33.297  27.161  25.483  1.00  0.00     0.049 C 
ATOM      9  C   UNL A   1      34.374  27.593  26.543  1.00  0.00     0.029 C 
ATOM     10  C   UNL A   1      33.618  28.724  24.912  1.00  0.00     0.029 C 
ATOM     11  C   UNL A   1      33.984  29.089  26.332  1.00  0.00     0.005 C 
BRANCH   8  12
ATOM     12  N   UNL A   1      33.723  26.404  24.318  1.00  0.00    -0.346 N 
ATOM     13  C   UNL A   1      32.930  26.573  23.220  1.00  0.00     0.251 C 
ATOM     14  O   UNL A   1      33.207  26.128  22.118  1.00  0.00    -0.269 OA
ATOM     15  H   UNL A   1      34.516  25.820  24.319  1.00  0.00     0.164 HD
BRANCH  13  16
ATOM     16  C   UNL A   1      31.593  27.179  23.556  1.00  0.00     0.039 A 
ATOM     17  C   UNL A   1      27.265  29.751  23.047  1.00  0.00     0.044 C 
ATOM     18  C   UNL A   1      28.430  28.821  22.845  1.00  0.00    -0.051 A 
ATOM     19  C   UNL A   1      29.989  29.609  22.391  1.00  0.00     0.004 A 
ATOM     20  C   UNL A   1      28.376  27.191  23.602  1.00  0.00     0.004 A 
ATOM     21  C   UNL A   1      31.546  28.798  22.740  1.00  0.00     0.014 A 
ATOM     22  C   UNL A   1      29.951  26.346  24.011  1.00  0.00     0.014 A 
ENDBRANCH  13  16
ENDBRANCH   8  12
ENDBRANCH   7   8
ENDBRANCH   4   7
ENDBRANCH   2   3
ENDBRANCH   1   2
BRANCH   1  23
ATOM     23  C   UNL A   1      36.784  22.910  25.721  1.00  0.00     0.023 C 
BRANCH  23  24
ATOM     24  C   UNL A   1      38.147  22.360  25.380  1.00  0.00     0.116 C 
BRANCH  24  25
ATOM     25  N   UNL A   1      38.986  22.248  26.565  1.00  0.00    -0.352 N 
ATOM     26  C   UNL A   1      40.091  23.033  26.817  1.00  0.00     0.251 C 
ATOM     27  H   UNL A   1      38.747  21.565  27.234  1.00  0.00     0.163 HD
ATOM     28  O   UNL A   1      41.166  22.497  27.045  1.00  0.00    -0.269 OA
BRANCH  26  29
ATOM     29  C   UNL A   1      39.838  24.476  27.005  1.00  0.00     0.039 A 
ATOM     30  C   UNL A   1      40.415  25.423  26.159  1.00  0.00     0.014 A 
ATOM     31  C   UNL A   1      39.300  24.882  28.218  1.00  0.00     0.014 A 
ATOM     32  C   UNL A   1      40.734  26.668  26.691  1.00  0.00     0.010 A 
ATOM     33  C   UNL A   1      39.443  26.140  28.657  1.00  0.00     0.010 A 
ATOM     34  C   UNL A   1      40.362  26.922  27.998  1.00  0.00    -0.014 A 
BRANCH  34  35
ATOM     35  C   UNL A   1      40.653  28.062  28.816  1.00  0.00     0.031 A 
ATOM     36  C   UNL A   1      39.624  29.095  28.704  1.00  0.00     0.074 A 
ATOM     37  C   UNL A   1      41.492  27.812  29.856  1.00  0.00     0.049 A 
ATOM     38  N   UNL A   1      39.756  30.269  29.174  1.00  0.00    -0.248 NA
ATOM     39  C   UNL A   1      38.350  28.896  27.998  1.00  0.00     0.031 C 
ATOM     40  C   UNL A   1      41.503  28.365  31.206  1.00  0.00     0.029 A 
ATOM     41  N   UNL A   1      42.576  26.926  29.877  1.00  0.00    -0.354 N 
ATOM     42  C   UNL A   1      38.506  30.846  29.148  1.00  0.00     0.074 A 
ATOM     43  C   UNL A   1      37.716  30.041  28.260  1.00  0.00     0.031 C 
ATOM     44  C   UNL A   1      42.671  28.053  31.805  1.00  0.00     0.029 A 
ATOM     45  C   UNL A   1      43.507  27.381  30.824  1.00  0.00     0.049 A 
ATOM     46  H   UNL A   1      42.669  26.120  29.321  1.00  0.00     0.167 HD
ATOM     47  C   UNL A   1      38.258  31.822  30.056  1.00  0.00     0.034 A 
ATOM     48  C   UNL A   1      44.710  27.864  30.375  1.00  0.00     0.034 A 
ATOM     49  C   UNL A   1      39.454  31.977  30.908  1.00  0.00     0.049 A 
ATOM     50  C   UNL A   1      44.729  29.386  30.367  1.00  0.00     0.074 A 
ATOM     51  C   UNL A   1      39.817  31.424  32.126  1.00  0.00     0.029 A 
ATOM     52  N   UNL A   1      40.633  32.397  30.306  1.00  0.00    -0.354 N 
ATOM     53  N   UNL A   1      43.681  30.136  30.590  1.00  0.00    -0.248 NA
ATOM     54  C   UNL A   1      45.938  30.180  30.189  1.00  0.00     0.031 C 
ATOM     55  C   UNL A   1      41.242  31.484  32.223  1.00  0.00     0.029 A 
ATOM     56  C   UNL A   1      41.740  32.077  31.074  1.00  0.00     0.049 A 
ATOM     57  H   UNL A   1      40.676  32.865  29.440  1.00  0.00     0.167 HD
ATOM     58  C   UNL A   1      44.010  31.461  30.522  1.00  0.00     0.074 A 
ATOM     59  C   UNL A   1      45.455  31.427  30.334  1.00  0.00     0.031 C 
ATOM     60  C   UNL A   1      43.073  32.462  30.607  1.00  0.00     0.034 A 
BRANCH  47  61
ATOM     61  C   UNL A   1      36.920  32.446  30.375  1.00  0.00     0.023 A 
ATOM     62  C   UNL A   1      36.492  32.320  31.716  1.00  0.00     0.012 A 
ATOM     63  C   UNL A   1      36.059  33.161  29.507  1.00  0.00     0.148 A 
ATOM     64  C   UNL A   1      35.281  32.841  32.172  1.00  0.00     0.002 A 
ATOM     65  C   UNL A   1      34.830  33.660  29.957  1.00  0.00     0.091 A 
ATOM     66  F   UNL A   1      36.435  33.417  28.251  1.00  0.00    -0.205 F 
ATOM     67  C   UNL A   1      34.444  33.503  31.292  1.00  0.00     0.022 A 
BRANCH  65  68
ATOM     68  S   UNL A   1      33.652  34.513  28.890  1.00  0.00     0.127 S 
ATOM     69  O   UNL A   1      32.612  34.915  29.841  1.00  0.00    -0.237 OA
ATOM     70  O   UNL A   1      34.447  35.621  28.364  1.00  0.00    -0.237 OA
ATOM     71  O   UNL A   1      33.209  33.538  27.902  1.00  0.00    -0.744 OA
ENDBRANCH  65  68
ENDBRANCH  47  61
BRANCH  48  72
ATOM     72  C   UNL A   1      45.294  26.946  29.336  1.00  0.00     0.023 A 
ATOM     73  C   UNL A   1      45.345  25.573  29.700  1.00  0.00     0.012 A 
ATOM     74  C   UNL A   1      45.196  27.281  27.976  1.00  0.00     0.148 A 
ATOM     75  C   UNL A   1      45.020  24.580  28.773  1.00  0.00     0.002 A 
ATOM     76  C   UNL A   1      44.870  26.285  27.058  1.00  0.00     0.091 A 
ATOM     77  F   UNL A   1      45.329  28.564  27.620  1.00  0.00    -0.205 F 
ATOM     78  C   UNL A   1      44.717  24.947  27.467  1.00  0.00     0.022 A 
BRANCH  76  79
ATOM     79  S   UNL A   1      44.428  26.694  25.368  1.00  0.00     0.127 S 
ATOM     80  O   UNL A   1      45.737  26.791  24.729  1.00  0.00    -0.237 OA
ATOM     81  O   UNL A   1      43.648  25.528  24.965  1.00  0.00    -0.237 OA
ATOM     82  O   UNL A   1      43.669  27.933  25.459  1.00  0.00    -0.744 OA
ENDBRANCH  76  79
ENDBRANCH  48  72
BRANCH  60  83
ATOM     83  C   UNL A   1      43.309  33.930  30.260  1.00  0.00     0.023 A 
ATOM     84  C   UNL A   1      43.522  34.910  31.242  1.00  0.00     0.012 A 
ATOM     85  C   UNL A   1      43.447  34.366  28.909  1.00  0.00     0.148 A 
ATOM     86  C   UNL A   1      43.755  36.252  30.921  1.00  0.00     0.002 A 
ATOM     87  C   UNL A   1      43.841  35.661  28.600  1.00  0.00     0.091 A 
ATOM     88  F   UNL A   1      43.156  33.546  27.893  1.00  0.00    -0.205 F 
ATOM     89  C   UNL A   1      43.943  36.623  29.601  1.00  0.00     0.022 A 
BRANCH  87  90
ATOM     90  S   UNL A   1      44.364  36.125  26.943  1.00  0.00     0.127 S 
ATOM     91  O   UNL A   1      45.511  35.241  26.739  1.00  0.00    -0.237 OA
ATOM     92  O   UNL A   1      43.182  35.786  26.149  1.00  0.00    -0.237 OA
ATOM     93  O   UNL A   1      44.659  37.549  27.005  1.00  0.00    -0.744 OA
ENDBRANCH  87  90
ENDBRANCH  60  83
ENDBRANCH  34  35
ENDBRANCH  26  29
ENDBRANCH  24  25
ENDBRANCH  23  24
ENDBRANCH   1  23
TORSDOF 17
ENDMDL
