MODEL 1
REMARK VINA RESULT:     -12.5      0.000      0.000
REMARK SMILES C#Cc1cc(Cl)c2c(c1)C=C(C(=O)NCCCCNC(=O)c1ccc(-c3c4nc(c(-c5cccc(S(=O)(=O)[O-])c5F)c5ccc([nH]5)c(-c5cccc(S(=O)(=O)[O-])c5F)c5nc(c(-c6cccc(S(=O)(=O)[O-])c6F)c6ccc3[nH]6)C=C5)C=C4)cc1)[C@@H](C(F)(F)F)O2
REMARK SMILES IDX 17 1 16 2 15 3 14 4 12 5 13 6 11 8 3 9 4 10 9 11 5 12 8 13
REMARK SMILES IDX 6 14 7 15 10 16 90 17 85 18 2 19 1 20 86 21 87 22 88 23
REMARK SMILES IDX 89 24 18 25 19 26 20 27 21 29 22 30 23 31 84 32 24 33 83 34
REMARK SMILES IDX 25 35 26 36 27 37 77 38 28 39 82 40 76 41 78 42 29 43 81 44
REMARK SMILES IDX 75 45 74 46 30 48 62 49 42 50 61 51 43 52 46 53 60 54 79 55
REMARK SMILES IDX 44 56 45 57 59 59 80 60 47 61 31 62 32 63 40 64 33 65 35 66
REMARK SMILES IDX 41 67 34 68 36 69 37 70 38 71 39 72 63 73 64 74 72 75 65 76
REMARK SMILES IDX 67 77 73 78 66 79 68 80 69 81 70 82 71 83 48 84 49 85 57 86
REMARK SMILES IDX 50 87 52 88 58 89 51 90 53 91 54 92 55 93 56 94
REMARK H PARENT 14 7 19 28 78 47 46 58
REMARK Flexibility Score: inf
ROOT
ATOM      1  C   UNL A   1      32.958  29.414  24.615  1.00  0.00     0.023 C 
ENDROOT
BRANCH   1   2
ATOM      2  C   UNL A   1      34.097  28.476  24.232  1.00  0.00     0.023 C 
BRANCH   2   3
ATOM      3  C   UNL A   1      33.949  27.082  24.827  1.00  0.00     0.116 C 
BRANCH   3   4
ATOM      4  N   UNL A   1      33.582  26.093  23.828  1.00  0.00    -0.352 N 
ATOM      5  C   UNL A   1      32.480  25.783  23.103  1.00  0.00     0.251 C 
ATOM      6  O   UNL A   1      32.608  24.864  22.289  1.00  0.00    -0.270 OA
ATOM      7  H   UNL A   1      34.332  25.488  23.624  1.00  0.00     0.163 HD
BRANCH   5   8
ATOM      8  C   UNL A   1      31.158  26.468  23.235  1.00  0.00     0.067 C 
ATOM      9  C   UNL A   1      28.325  30.237  22.145  1.00  0.00     0.027 A 
ATOM     10  C   UNL A   1      27.234  29.602  22.741  1.00  0.00     0.041 A 
ATOM     11  C   UNL A   1      29.573  29.607  22.101  1.00  0.00     0.029 A 
ATOM     12  C   UNL A   1      27.394  28.336  23.292  1.00  0.00     0.084 A 
ATOM     13  C   UNL A   1      29.736  28.332  22.656  1.00  0.00     0.020 A 
ATOM     14  Cl  UNL A   1      26.022  27.571  24.015  1.00  0.00    -0.080 Cl
ATOM     15  C   UNL A   1      28.640  27.704  23.257  1.00  0.00     0.146 A 
ATOM     16  C   UNL A   1      31.012  27.629  22.571  1.00  0.00     0.025 C 
ATOM     17  O   UNL A   1      28.723  26.447  23.779  1.00  0.00    -0.474 OA
ATOM     18  C   UNL A   1      30.041  25.932  24.075  1.00  0.00     0.314 C 
BRANCH   9  19
ATOM     19  C   UNL A   1      28.144  31.531  21.567  1.00  0.00    -0.070 C 
ATOM     20  C   UNL A   1      28.008  32.606  21.048  1.00  0.00     0.010 C 
ENDBRANCH   9  19
BRANCH  18  21
ATOM     21  C   UNL A   1      30.315  26.085  25.584  1.00  0.00     0.429 C 
ATOM     22  F   UNL A   1      31.320  25.259  25.970  1.00  0.00    -0.167 F 
ATOM     23  F   UNL A   1      30.696  27.337  25.929  1.00  0.00    -0.167 F 
ATOM     24  F   UNL A   1      29.231  25.785  26.337  1.00  0.00    -0.167 F 
ENDBRANCH  18  21
ENDBRANCH   5   8
ENDBRANCH   3   4
ENDBRANCH   2   3
ENDBRANCH   1   2
BRANCH   1  25
ATOM     25  C   UNL A   1      32.813  29.653  26.113  1.00  0.00     0.116 C 
BRANCH  25  26
ATOM     26  N   UNL A   1      32.535  31.044  26.454  1.00  0.00    -0.352 N 
ATOM     27  C   UNL A   1      33.290  31.885  27.236  1.00  0.00     0.251 C 
ATOM     28  H   UNL A   1      31.709  31.425  26.078  1.00  0.00     0.163 HD
ATOM     29  O   UNL A   1      32.879  32.996  27.551  1.00  0.00    -0.269 OA
BRANCH  27  30
ATOM     30  C   UNL A   1      34.594  31.394  27.717  1.00  0.00     0.039 A 
ATOM     31  C   UNL A   1      35.620  32.309  27.943  1.00  0.00     0.014 A 
ATOM     32  C   UNL A   1      34.741  30.046  28.058  1.00  0.00     0.014 A 
ATOM     33  C   UNL A   1      36.783  31.878  28.579  1.00  0.00     0.010 A 
ATOM     34  C   UNL A   1      35.855  29.645  28.779  1.00  0.00     0.010 A 
ATOM     35  C   UNL A   1      36.893  30.553  29.035  1.00  0.00    -0.014 A 
BRANCH  35  36
ATOM     36  C   UNL A   1      38.100  30.094  29.762  1.00  0.00     0.031 A 
ATOM     37  C   UNL A   1      38.367  30.594  31.154  1.00  0.00     0.074 A 
ATOM     38  C   UNL A   1      38.976  29.266  29.156  1.00  0.00     0.049 A 
ATOM     39  N   UNL A   1      39.367  30.319  31.948  1.00  0.00    -0.248 NA
ATOM     40  C   UNL A   1      37.395  31.546  31.722  1.00  0.00     0.031 C 
ATOM     41  C   UNL A   1      38.853  28.762  27.786  1.00  0.00     0.029 A 
ATOM     42  N   UNL A   1      40.145  28.710  29.611  1.00  0.00    -0.354 N 
ATOM     43  C   UNL A   1      39.155  31.072  33.096  1.00  0.00     0.074 A 
ATOM     44  C   UNL A   1      37.965  31.860  32.876  1.00  0.00     0.031 C 
ATOM     45  C   UNL A   1      39.889  27.950  27.524  1.00  0.00     0.029 A 
ATOM     46  C   UNL A   1      40.770  27.905  28.687  1.00  0.00     0.049 A 
ATOM     47  H   UNL A   1      40.502  28.872  30.514  1.00  0.00     0.167 HD
ATOM     48  C   UNL A   1      39.864  31.077  34.247  1.00  0.00     0.034 A 
ATOM     49  C   UNL A   1      41.923  27.210  28.769  1.00  0.00     0.034 A 
ATOM     50  C   UNL A   1      41.030  30.268  34.470  1.00  0.00     0.049 A 
ATOM     51  C   UNL A   1      42.700  27.240  30.058  1.00  0.00     0.074 A 
ATOM     52  C   UNL A   1      41.786  30.156  35.622  1.00  0.00     0.029 A 
ATOM     53  N   UNL A   1      41.616  29.442  33.523  1.00  0.00    -0.354 N 
ATOM     54  N   UNL A   1      42.412  27.852  31.181  1.00  0.00    -0.248 NA
ATOM     55  C   UNL A   1      43.946  26.460  30.104  1.00  0.00     0.031 C 
ATOM     56  C   UNL A   1      42.855  29.297  35.359  1.00  0.00     0.029 A 
ATOM     57  C   UNL A   1      42.737  28.832  34.058  1.00  0.00     0.049 A 
ATOM     58  H   UNL A   1      41.284  29.308  32.606  1.00  0.00     0.167 HD
ATOM     59  C   UNL A   1      43.419  27.508  32.075  1.00  0.00     0.074 A 
ATOM     60  C   UNL A   1      44.313  26.613  31.370  1.00  0.00     0.031 C 
ATOM     61  C   UNL A   1      43.596  27.909  33.359  1.00  0.00     0.034 A 
BRANCH  48  62
ATOM     62  C   UNL A   1      39.370  31.943  35.376  1.00  0.00     0.023 A 
ATOM     63  C   UNL A   1      38.510  31.395  36.351  1.00  0.00     0.012 A 
ATOM     64  C   UNL A   1      39.818  33.271  35.520  1.00  0.00     0.148 A 
ATOM     65  C   UNL A   1      38.082  32.161  37.433  1.00  0.00     0.002 A 
ATOM     66  C   UNL A   1      39.432  34.010  36.630  1.00  0.00     0.091 A 
ATOM     67  F   UNL A   1      40.617  33.781  34.571  1.00  0.00    -0.205 F 
ATOM     68  C   UNL A   1      38.553  33.463  37.581  1.00  0.00     0.022 A 
BRANCH  66  69
ATOM     69  S   UNL A   1      40.056  35.660  36.964  1.00  0.00     0.127 S 
ATOM     70  O   UNL A   1      39.385  35.980  38.224  1.00  0.00    -0.237 OA
ATOM     71  O   UNL A   1      41.494  35.423  37.083  1.00  0.00    -0.237 OA
ATOM     72  O   UNL A   1      39.661  36.480  35.828  1.00  0.00    -0.744 OA
ENDBRANCH  66  69
ENDBRANCH  48  62
BRANCH  49  73
ATOM     73  C   UNL A   1      42.366  26.373  27.617  1.00  0.00     0.023 A 
ATOM     74  C   UNL A   1      43.247  26.918  26.663  1.00  0.00     0.012 A 
ATOM     75  C   UNL A   1      41.964  25.029  27.489  1.00  0.00     0.148 A 
ATOM     76  C   UNL A   1      43.704  26.148  25.592  1.00  0.00     0.002 A 
ATOM     77  C   UNL A   1      42.470  24.249  26.456  1.00  0.00     0.091 A 
ATOM     78  F   UNL A   1      41.118  24.531  28.402  1.00  0.00    -0.205 F 
ATOM     79  C   UNL A   1      43.326  24.811  25.496  1.00  0.00     0.022 A 
BRANCH  77  80
ATOM     80  S   UNL A   1      42.153  22.486  26.329  1.00  0.00     0.127 S 
ATOM     81  O   UNL A   1      40.701  22.454  26.161  1.00  0.00    -0.237 OA
ATOM     82  O   UNL A   1      42.920  22.132  25.134  1.00  0.00    -0.237 OA
ATOM     83  O   UNL A   1      42.654  21.902  27.564  1.00  0.00    -0.744 OA
ENDBRANCH  77  80
ENDBRANCH  49  73
BRANCH  61  84
ATOM     84  C   UNL A   1      44.790  27.378  34.112  1.00  0.00     0.023 A 
ATOM     85  C   UNL A   1      45.989  28.115  34.134  1.00  0.00     0.012 A 
ATOM     86  C   UNL A   1      44.680  26.212  34.898  1.00  0.00     0.148 A 
ATOM     87  C   UNL A   1      47.070  27.689  34.905  1.00  0.00     0.002 A 
ATOM     88  C   UNL A   1      45.740  25.825  35.709  1.00  0.00     0.091 A 
ATOM     89  F   UNL A   1      43.534  25.517  34.855  1.00  0.00    -0.205 F 
ATOM     90  C   UNL A   1      46.940  26.554  35.704  1.00  0.00     0.022 A 
BRANCH  88  91
ATOM     91  S   UNL A   1      45.629  24.447  36.857  1.00  0.00     0.127 S 
ATOM     92  O   UNL A   1      45.199  23.362  35.976  1.00  0.00    -0.237 OA
ATOM     93  O   UNL A   1      47.007  24.334  37.334  1.00  0.00    -0.237 OA
ATOM     94  O   UNL A   1      44.663  24.842  37.872  1.00  0.00    -0.744 OA
ENDBRANCH  88  91
ENDBRANCH  61  84
ENDBRANCH  35  36
ENDBRANCH  27  30
ENDBRANCH  25  26
ENDBRANCH   1  25
TORSDOF 16
ENDMDL
MODEL 2
REMARK VINA RESULT:     -12.4      2.060      3.799
REMARK SMILES C#Cc1cc(Cl)c2c(c1)C=C(C(=O)NCCCCNC(=O)c1ccc(-c3c4nc(c(-c5cccc(S(=O)(=O)[O-])c5F)c5ccc([nH]5)c(-c5cccc(S(=O)(=O)[O-])c5F)c5nc(c(-c6cccc(S(=O)(=O)[O-])c6F)c6ccc3[nH]6)C=C5)C=C4)cc1)[C@@H](C(F)(F)F)O2
REMARK SMILES IDX 17 1 16 2 15 3 14 4 12 5 13 6 11 8 3 9 4 10 9 11 5 12 8 13
REMARK SMILES IDX 6 14 7 15 10 16 90 17 85 18 2 19 1 20 86 21 87 22 88 23
REMARK SMILES IDX 89 24 18 25 19 26 20 27 21 29 22 30 23 31 84 32 24 33 83 34
REMARK SMILES IDX 25 35 26 36 27 37 77 38 28 39 82 40 76 41 78 42 29 43 81 44
REMARK SMILES IDX 75 45 74 46 30 48 62 49 42 50 61 51 43 52 46 53 60 54 79 55
REMARK SMILES IDX 44 56 45 57 59 59 80 60 47 61 31 62 32 63 40 64 33 65 35 66
REMARK SMILES IDX 41 67 34 68 36 69 37 70 38 71 39 72 63 73 64 74 72 75 65 76
REMARK SMILES IDX 67 77 73 78 66 79 68 80 69 81 70 82 71 83 48 84 49 85 57 86
REMARK SMILES IDX 50 87 52 88 58 89 51 90 53 91 54 92 55 93 56 94
REMARK H PARENT 14 7 19 28 78 47 46 58
REMARK Flexibility Score: inf
ROOT
ATOM      1  C   UNL A   1      31.726  29.286  25.011  1.00  0.00     0.023 C 
ENDROOT
BRANCH   1   2
ATOM      2  C   UNL A   1      32.351  28.691  23.755  1.00  0.00     0.023 C 
BRANCH   2   3
ATOM      3  C   UNL A   1      31.428  27.722  23.028  1.00  0.00     0.116 C 
BRANCH   3   4
ATOM      4  N   UNL A   1      32.114  26.987  21.980  1.00  0.00    -0.352 N 
ATOM      5  C   UNL A   1      32.794  25.820  21.874  1.00  0.00     0.251 C 
ATOM      6  O   UNL A   1      33.188  25.523  20.742  1.00  0.00    -0.270 OA
ATOM      7  H   UNL A   1      32.074  27.463  21.118  1.00  0.00     0.163 HD
BRANCH   5   8
ATOM      8  C   UNL A   1      33.090  24.904  23.018  1.00  0.00     0.067 C 
ATOM      9  C   UNL A   1      35.985  21.580  25.013  1.00  0.00     0.027 A 
ATOM     10  C   UNL A   1      35.252  21.640  26.200  1.00  0.00     0.041 A 
ATOM     11  C   UNL A   1      35.642  22.393  23.928  1.00  0.00     0.029 A 
ATOM     12  C   UNL A   1      34.176  22.514  26.299  1.00  0.00     0.084 A 
ATOM     13  C   UNL A   1      34.559  23.275  24.026  1.00  0.00     0.020 A 
ATOM     14  Cl  UNL A   1      33.294  22.572  27.785  1.00  0.00    -0.080 Cl
ATOM     15  C   UNL A   1      33.825  23.325  25.216  1.00  0.00     0.146 A 
ATOM     16  C   UNL A   1      34.217  24.175  22.930  1.00  0.00     0.025 C 
ATOM     17  O   UNL A   1      32.785  24.189  25.389  1.00  0.00    -0.474 OA
ATOM     18  C   UNL A   1      32.187  24.761  24.204  1.00  0.00     0.314 C 
BRANCH   9  19
ATOM     19  C   UNL A   1      37.100  20.689  24.930  1.00  0.00    -0.070 C 
ATOM     20  C   UNL A   1      38.018  19.917  24.884  1.00  0.00     0.010 C 
ENDBRANCH   9  19
BRANCH  18  21
ATOM     21  C   UNL A   1      30.895  23.990  23.869  1.00  0.00     0.429 C 
ATOM     22  F   UNL A   1      29.906  24.850  23.519  1.00  0.00    -0.167 F 
ATOM     23  F   UNL A   1      31.044  23.135  22.830  1.00  0.00    -0.167 F 
ATOM     24  F   UNL A   1      30.446  23.259  24.915  1.00  0.00    -0.167 F 
ENDBRANCH  18  21
ENDBRANCH   5   8
ENDBRANCH   3   4
ENDBRANCH   2   3
ENDBRANCH   1   2
BRANCH   1  25
ATOM     25  C   UNL A   1      32.730  29.849  26.009  1.00  0.00     0.116 C 
BRANCH  25  26
ATOM     26  N   UNL A   1      32.442  31.223  26.408  1.00  0.00    -0.352 N 
ATOM     27  C   UNL A   1      33.186  32.032  27.234  1.00  0.00     0.251 C 
ATOM     28  H   UNL A   1      31.618  31.617  26.043  1.00  0.00     0.163 HD
ATOM     29  O   UNL A   1      32.767  33.126  27.593  1.00  0.00    -0.269 OA
BRANCH  27  30
ATOM     30  C   UNL A   1      34.488  31.526  27.704  1.00  0.00     0.039 A 
ATOM     31  C   UNL A   1      35.524  32.431  27.932  1.00  0.00     0.014 A 
ATOM     32  C   UNL A   1      34.625  30.175  28.035  1.00  0.00     0.014 A 
ATOM     33  C   UNL A   1      36.686  31.985  28.559  1.00  0.00     0.010 A 
ATOM     34  C   UNL A   1      35.739  29.759  28.748  1.00  0.00     0.010 A 
ATOM     35  C   UNL A   1      36.786  30.656  29.005  1.00  0.00    -0.014 A 
BRANCH  35  36
ATOM     36  C   UNL A   1      37.993  30.181  29.722  1.00  0.00     0.031 A 
ATOM     37  C   UNL A   1      38.263  30.658  31.122  1.00  0.00     0.074 A 
ATOM     38  C   UNL A   1      38.866  29.362  29.101  1.00  0.00     0.049 A 
ATOM     39  N   UNL A   1      39.263  30.366  31.910  1.00  0.00    -0.248 NA
ATOM     40  C   UNL A   1      37.294  31.602  31.708  1.00  0.00     0.031 C 
ATOM     41  C   UNL A   1      38.740  28.882  27.723  1.00  0.00     0.029 A 
ATOM     42  N   UNL A   1      40.034  28.795  29.545  1.00  0.00    -0.354 N 
ATOM     43  C   UNL A   1      39.055  31.100  33.071  1.00  0.00     0.074 A 
ATOM     44  C   UNL A   1      37.866  31.895  32.866  1.00  0.00     0.031 C 
ATOM     45  C   UNL A   1      39.774  28.071  27.446  1.00  0.00     0.029 A 
ATOM     46  C   UNL A   1      40.656  28.004  28.607  1.00  0.00     0.049 A 
ATOM     47  H   UNL A   1      40.393  28.940  30.450  1.00  0.00     0.167 HD
ATOM     48  C   UNL A   1      39.765  31.083  34.221  1.00  0.00     0.034 A 
ATOM     49  C   UNL A   1      41.807  27.305  28.675  1.00  0.00     0.034 A 
ATOM     50  C   UNL A   1      40.929  30.267  34.429  1.00  0.00     0.049 A 
ATOM     51  C   UNL A   1      42.586  27.310  29.964  1.00  0.00     0.074 A 
ATOM     52  C   UNL A   1      41.686  30.134  35.577  1.00  0.00     0.029 A 
ATOM     53  N   UNL A   1      41.512  29.456  33.467  1.00  0.00    -0.354 N 
ATOM     54  N   UNL A   1      42.301  27.904  31.097  1.00  0.00    -0.248 NA
ATOM     55  C   UNL A   1      43.830  26.527  29.994  1.00  0.00     0.031 C 
ATOM     56  C   UNL A   1      42.753  29.277  35.298  1.00  0.00     0.029 A 
ATOM     57  C   UNL A   1      42.632  28.835  33.990  1.00  0.00     0.049 A 
ATOM     58  H   UNL A   1      41.178  29.339  32.548  1.00  0.00     0.167 HD
ATOM     59  C   UNL A   1      43.308  27.543  31.984  1.00  0.00     0.074 A 
ATOM     60  C   UNL A   1      44.199  26.657  31.262  1.00  0.00     0.031 C 
ATOM     61  C   UNL A   1      43.487  27.921  33.274  1.00  0.00     0.034 A 
BRANCH  48  62
ATOM     62  C   UNL A   1      39.275  31.931  35.365  1.00  0.00     0.023 A 
ATOM     63  C   UNL A   1      38.404  31.372  36.324  1.00  0.00     0.012 A 
ATOM     64  C   UNL A   1      39.737  33.251  35.539  1.00  0.00     0.148 A 
ATOM     65  C   UNL A   1      37.979  32.121  37.420  1.00  0.00     0.002 A 
ATOM     66  C   UNL A   1      39.353  33.971  36.662  1.00  0.00     0.091 A 
ATOM     67  F   UNL A   1      40.546  33.772  34.605  1.00  0.00    -0.205 F 
ATOM     68  C   UNL A   1      38.464  33.414  37.597  1.00  0.00     0.022 A 
BRANCH  66  69
ATOM     69  S   UNL A   1      39.993  35.607  37.033  1.00  0.00     0.127 S 
ATOM     70  O   UNL A   1      39.295  35.921  38.279  1.00  0.00    -0.237 OA
ATOM     71  O   UNL A   1      41.424  35.346  37.187  1.00  0.00    -0.237 OA
ATOM     72  O   UNL A   1      39.641  36.447  35.898  1.00  0.00    -0.744 OA
ENDBRANCH  66  69
ENDBRANCH  48  62
BRANCH  49  73
ATOM     73  C   UNL A   1      42.246  26.487  27.508  1.00  0.00     0.023 A 
ATOM     74  C   UNL A   1      43.066  27.070  26.522  1.00  0.00     0.012 A 
ATOM     75  C   UNL A   1      41.903  25.125  27.397  1.00  0.00     0.148 A 
ATOM     76  C   UNL A   1      43.519  26.319  25.436  1.00  0.00     0.002 A 
ATOM     77  C   UNL A   1      42.407  24.367  26.346  1.00  0.00     0.091 A 
ATOM     78  F   UNL A   1      41.115  24.590  28.339  1.00  0.00    -0.205 F 
ATOM     79  C   UNL A   1      43.200  24.965  25.355  1.00  0.00     0.022 A 
BRANCH  77  80
ATOM     80  S   UNL A   1      42.167  22.591  26.232  1.00  0.00     0.127 S 
ATOM     81  O   UNL A   1      42.812  22.121  27.456  1.00  0.00    -0.237 OA
ATOM     82  O   UNL A   1      40.708  22.488  26.225  1.00  0.00    -0.237 OA
ATOM     83  O   UNL A   1      42.808  22.182  24.990  1.00  0.00    -0.744 OA
ENDBRANCH  77  80
ENDBRANCH  49  73
BRANCH  61  84
ATOM     84  C   UNL A   1      44.681  27.374  34.017  1.00  0.00     0.023 A 
ATOM     85  C   UNL A   1      45.899  28.080  34.002  1.00  0.00     0.012 A 
ATOM     86  C   UNL A   1      44.556  26.227  34.829  1.00  0.00     0.148 A 
ATOM     87  C   UNL A   1      46.982  27.641  34.763  1.00  0.00     0.002 A 
ATOM     88  C   UNL A   1      45.619  25.829  35.628  1.00  0.00     0.091 A 
ATOM     89  F   UNL A   1      43.391  25.562  34.820  1.00  0.00    -0.205 F 
ATOM     90  C   UNL A   1      46.838  26.526  35.586  1.00  0.00     0.022 A 
BRANCH  88  91
ATOM     91  S   UNL A   1      45.495  24.478  36.805  1.00  0.00     0.127 S 
ATOM     92  O   UNL A   1      45.289  23.332  35.921  1.00  0.00    -0.237 OA
ATOM     93  O   UNL A   1      46.803  24.517  37.458  1.00  0.00    -0.237 OA
ATOM     94  O   UNL A   1      44.370  24.800  37.674  1.00  0.00    -0.744 OA
ENDBRANCH  88  91
ENDBRANCH  61  84
ENDBRANCH  35  36
ENDBRANCH  27  30
ENDBRANCH  25  26
ENDBRANCH   1  25
TORSDOF 16
ENDMDL
MODEL 3
REMARK VINA RESULT:     -12.2      5.333      7.294
REMARK SMILES C#Cc1cc(Cl)c2c(c1)C=C(C(=O)NCCCCNC(=O)c1ccc(-c3c4nc(c(-c5cccc(S(=O)(=O)[O-])c5F)c5ccc([nH]5)c(-c5cccc(S(=O)(=O)[O-])c5F)c5nc(c(-c6cccc(S(=O)(=O)[O-])c6F)c6ccc3[nH]6)C=C5)C=C4)cc1)[C@@H](C(F)(F)F)O2
REMARK SMILES IDX 17 1 16 2 15 3 14 4 12 5 13 6 11 8 3 9 4 10 9 11 5 12 8 13
REMARK SMILES IDX 6 14 7 15 10 16 90 17 85 18 2 19 1 20 86 21 87 22 88 23
REMARK SMILES IDX 89 24 18 25 19 26 20 27 21 29 22 30 23 31 84 32 24 33 83 34
REMARK SMILES IDX 25 35 26 36 27 37 77 38 28 39 82 40 76 41 78 42 29 43 81 44
REMARK SMILES IDX 75 45 74 46 30 48 62 49 42 50 61 51 43 52 46 53 60 54 79 55
REMARK SMILES IDX 44 56 45 57 59 59 80 60 47 61 31 62 32 63 40 64 33 65 35 66
REMARK SMILES IDX 41 67 34 68 36 69 37 70 38 71 39 72 63 73 64 74 72 75 65 76
REMARK SMILES IDX 67 77 73 78 66 79 68 80 69 81 70 82 71 83 48 84 49 85 57 86
REMARK SMILES IDX 50 87 52 88 58 89 51 90 53 91 54 92 55 93 56 94
REMARK H PARENT 14 7 19 28 78 47 46 58
REMARK Flexibility Score: inf
ROOT
ATOM      1  C   UNL A   1      34.908  22.297  24.460  1.00  0.00     0.023 C 
ENDROOT
BRANCH   1   2
ATOM      2  C   UNL A   1      33.532  21.674  24.666  1.00  0.00     0.023 C 
BRANCH   2   3
ATOM      3  C   UNL A   1      32.390  22.644  24.392  1.00  0.00     0.116 C 
BRANCH   3   4
ATOM      4  N   UNL A   1      31.507  22.793  25.536  1.00  0.00    -0.352 N 
ATOM      5  C   UNL A   1      30.891  23.812  26.182  1.00  0.00     0.251 C 
ATOM      6  O   UNL A   1      30.150  23.492  27.117  1.00  0.00    -0.270 OA
ATOM      7  H   UNL A   1      31.302  21.923  25.951  1.00  0.00     0.163 HD
BRANCH   5   8
ATOM      8  C   UNL A   1      31.058  25.257  25.840  1.00  0.00     0.067 C 
ATOM      9  C   UNL A   1      29.638  29.083  23.240  1.00  0.00     0.027 A 
ATOM     10  C   UNL A   1      30.481  29.913  23.982  1.00  0.00     0.041 A 
ATOM     11  C   UNL A   1      29.555  27.718  23.529  1.00  0.00     0.029 A 
ATOM     12  C   UNL A   1      31.240  29.374  25.014  1.00  0.00     0.084 A 
ATOM     13  C   UNL A   1      30.319  27.172  24.568  1.00  0.00     0.020 A 
ATOM     14  Cl  UNL A   1      32.267  30.428  25.921  1.00  0.00    -0.080 Cl
ATOM     15  C   UNL A   1      31.167  28.008  25.304  1.00  0.00     0.146 A 
ATOM     16  C   UNL A   1      30.207  25.763  24.928  1.00  0.00     0.025 C 
ATOM     17  O   UNL A   1      31.905  27.547  26.353  1.00  0.00    -0.474 OA
ATOM     18  C   UNL A   1      32.123  26.121  26.442  1.00  0.00     0.314 C 
BRANCH   9  19
ATOM     19  C   UNL A   1      28.850  29.653  22.193  1.00  0.00    -0.070 C 
ATOM     20  C   UNL A   1      28.157  30.111  21.325  1.00  0.00     0.010 C 
ENDBRANCH   9  19
BRANCH  18  21
ATOM     21  C   UNL A   1      33.526  25.789  25.897  1.00  0.00     0.429 C 
ATOM     22  F   UNL A   1      33.477  25.578  24.558  1.00  0.00    -0.167 F 
ATOM     23  F   UNL A   1      34.419  26.787  26.094  1.00  0.00    -0.167 F 
ATOM     24  F   UNL A   1      34.049  24.679  26.466  1.00  0.00    -0.167 F 
ENDBRANCH  18  21
ENDBRANCH   5   8
ENDBRANCH   3   4
ENDBRANCH   2   3
ENDBRANCH   1   2
BRANCH   1  25
ATOM     25  C   UNL A   1      35.877  22.082  25.616  1.00  0.00     0.116 C 
BRANCH  25  26
ATOM     26  N   UNL A   1      36.816  20.987  25.389  1.00  0.00    -0.352 N 
ATOM     27  C   UNL A   1      38.178  20.998  25.567  1.00  0.00     0.251 C 
ATOM     28  H   UNL A   1      36.426  20.141  25.070  1.00  0.00     0.163 HD
ATOM     29  O   UNL A   1      38.870  20.048  25.217  1.00  0.00    -0.269 OA
BRANCH  27  30
ATOM     30  C   UNL A   1      38.787  22.202  26.159  1.00  0.00     0.039 A 
ATOM     31  C   UNL A   1      39.938  22.068  26.933  1.00  0.00     0.014 A 
ATOM     32  C   UNL A   1      38.281  23.463  25.830  1.00  0.00     0.014 A 
ATOM     33  C   UNL A   1      40.624  23.215  27.329  1.00  0.00     0.010 A 
ATOM     34  C   UNL A   1      39.021  24.594  26.139  1.00  0.00     0.010 A 
ATOM     35  C   UNL A   1      40.192  24.483  26.903  1.00  0.00    -0.014 A 
BRANCH  35  36
ATOM     36  C   UNL A   1      40.942  25.708  27.270  1.00  0.00     0.031 A 
ATOM     37  C   UNL A   1      40.271  26.776  28.087  1.00  0.00     0.074 A 
ATOM     38  C   UNL A   1      42.206  25.878  26.830  1.00  0.00     0.049 A 
ATOM     39  N   UNL A   1      40.754  27.918  28.500  1.00  0.00    -0.248 NA
ATOM     40  C   UNL A   1      38.869  26.543  28.474  1.00  0.00     0.031 C 
ATOM     41  C   UNL A   1      42.940  24.938  25.980  1.00  0.00     0.029 A 
ATOM     42  N   UNL A   1      43.093  26.906  27.031  1.00  0.00    -0.354 N 
ATOM     43  C   UNL A   1      39.714  28.543  29.177  1.00  0.00     0.074 A 
ATOM     44  C   UNL A   1      38.558  27.683  29.072  1.00  0.00     0.031 C 
ATOM     45  C   UNL A   1      44.173  25.419  25.758  1.00  0.00     0.029 A 
ATOM     46  C   UNL A   1      44.307  26.716  26.412  1.00  0.00     0.049 A 
ATOM     47  H   UNL A   1      42.881  27.703  27.568  1.00  0.00     0.167 HD
ATOM     48  C   UNL A   1      39.731  29.709  29.861  1.00  0.00     0.034 A 
ATOM     49  C   UNL A   1      45.403  27.501  26.375  1.00  0.00     0.034 A 
ATOM     50  C   UNL A   1      40.892  30.544  29.987  1.00  0.00     0.049 A 
ATOM     51  C   UNL A   1      45.394  28.800  27.137  1.00  0.00     0.074 A 
ATOM     52  C   UNL A   1      41.029  31.716  30.707  1.00  0.00     0.029 A 
ATOM     53  N   UNL A   1      42.112  30.306  29.372  1.00  0.00    -0.354 N 
ATOM     54  N   UNL A   1      44.445  29.311  27.884  1.00  0.00    -0.248 NA
ATOM     55  C   UNL A   1      46.613  29.618  27.076  1.00  0.00     0.031 C 
ATOM     56  C   UNL A   1      42.317  32.211  30.492  1.00  0.00     0.029 A 
ATOM     57  C   UNL A   1      43.001  31.320  29.680  1.00  0.00     0.049 A 
ATOM     58  H   UNL A   1      42.315  29.529  28.802  1.00  0.00     0.167 HD
ATOM     59  C   UNL A   1      44.962  30.491  28.407  1.00  0.00     0.074 A 
ATOM     60  C   UNL A   1      46.317  30.606  27.910  1.00  0.00     0.031 C 
ATOM     61  C   UNL A   1      44.363  31.402  29.213  1.00  0.00     0.034 A 
BRANCH  48  62
ATOM     62  C   UNL A   1      38.470  30.126  30.573  1.00  0.00     0.023 A 
ATOM     63  C   UNL A   1      38.270  29.746  31.917  1.00  0.00     0.012 A 
ATOM     64  C   UNL A   1      37.525  30.961  29.944  1.00  0.00     0.148 A 
ATOM     65  C   UNL A   1      37.137  30.164  32.613  1.00  0.00     0.002 A 
ATOM     66  C   UNL A   1      36.428  31.418  30.661  1.00  0.00     0.091 A 
ATOM     67  F   UNL A   1      37.722  31.293  28.660  1.00  0.00    -0.205 F 
ATOM     68  C   UNL A   1      36.225  31.011  31.991  1.00  0.00     0.022 A 
BRANCH  66  69
ATOM     69  S   UNL A   1      35.244  32.587  29.986  1.00  0.00     0.127 S 
ATOM     70  O   UNL A   1      34.676  31.823  28.875  1.00  0.00    -0.237 OA
ATOM     71  O   UNL A   1      34.336  32.787  31.115  1.00  0.00    -0.237 OA
ATOM     72  O   UNL A   1      36.011  33.762  29.599  1.00  0.00    -0.744 OA
ENDBRANCH  66  69
ENDBRANCH  48  62
BRANCH  49  73
ATOM     73  C   UNL A   1      46.621  27.038  25.650  1.00  0.00     0.023 A 
ATOM     74  C   UNL A   1      47.405  26.005  26.200  1.00  0.00     0.012 A 
ATOM     75  C   UNL A   1      46.978  27.576  24.397  1.00  0.00     0.148 A 
ATOM     76  C   UNL A   1      48.532  25.530  25.528  1.00  0.00     0.002 A 
ATOM     77  C   UNL A   1      48.066  27.057  23.705  1.00  0.00     0.091 A 
ATOM     78  F   UNL A   1      46.226  28.565  23.895  1.00  0.00    -0.205 F 
ATOM     79  C   UNL A   1      48.855  26.047  24.275  1.00  0.00     0.022 A 
BRANCH  77  80
ATOM     80  S   UNL A   1      48.475  27.560  22.030  1.00  0.00     0.127 S 
ATOM     81  O   UNL A   1      49.538  28.536  22.261  1.00  0.00    -0.237 OA
ATOM     82  O   UNL A   1      48.916  26.295  21.440  1.00  0.00    -0.237 OA
ATOM     83  O   UNL A   1      47.246  28.095  21.463  1.00  0.00    -0.744 OA
ENDBRANCH  77  80
ENDBRANCH  49  73
BRANCH  61  84
ATOM     84  C   UNL A   1      45.162  32.609  29.638  1.00  0.00     0.023 A 
ATOM     85  C   UNL A   1      45.974  32.542  30.786  1.00  0.00     0.012 A 
ATOM     86  C   UNL A   1      45.203  33.764  28.829  1.00  0.00     0.148 A 
ATOM     87  C   UNL A   1      46.795  33.613  31.138  1.00  0.00     0.002 A 
ATOM     88  C   UNL A   1      46.066  34.803  29.153  1.00  0.00     0.091 A 
ATOM     89  F   UNL A   1      44.413  33.813  27.746  1.00  0.00    -0.205 F 
ATOM     90  C   UNL A   1      46.853  34.735  30.314  1.00  0.00     0.022 A 
BRANCH  88  91
ATOM     91  S   UNL A   1      46.295  36.237  28.096  1.00  0.00     0.127 S 
ATOM     92  O   UNL A   1      46.701  35.616  26.836  1.00  0.00    -0.237 OA
ATOM     93  O   UNL A   1      44.956  36.826  28.082  1.00  0.00    -0.237 OA
ATOM     94  O   UNL A   1      47.314  37.056  28.739  1.00  0.00    -0.744 OA
ENDBRANCH  88  91
ENDBRANCH  61  84
ENDBRANCH  35  36
ENDBRANCH  27  30
ENDBRANCH  25  26
ENDBRANCH   1  25
TORSDOF 16
ENDMDL
