MODEL 1
REMARK VINA RESULT:     -12.7      0.000      0.000
REMARK SMILES O=C(NCCCCNC(=O)[C@H]1CC[C@@H]2CCCC[C@H]2N1C(=O)N1CCSCC1)c1ccc(-c2c3nc(c(-c4cccc(S(=O)(=O)[O-])c4F)c4ccc([nH]4)c(-c4cccc(S(=O)(=O)[O-])c4F)c4nc(c(-c5cccc(S(=O)(=O)[O-])c5F)c5ccc2[nH]5)C=C4)C=C3)cc1
REMARK SMILES IDX 4 1 3 2 1 3 2 4 29 6 30 7 91 8 31 9 90 10 32 11 33 12 34 13
REMARK SMILES IDX 84 14 35 15 89 16 83 17 85 18 36 19 88 20 82 21 81 22 37 24
REMARK SMILES IDX 69 25 49 26 68 27 50 28 53 29 67 30 86 31 51 32 52 33 66 35
REMARK SMILES IDX 87 36 54 37 38 38 39 39 47 40 40 41 42 42 48 43 41 44 43 45
REMARK SMILES IDX 44 46 45 47 46 48 70 49 71 50 79 51 72 52 74 53 80 54 73 55
REMARK SMILES IDX 75 56 76 57 77 58 78 59 55 60 56 61 64 62 57 63 59 64 65 65
REMARK SMILES IDX 58 66 60 67 61 68 62 69 63 70 5 71 6 72 7 73 8 74 9 75 10 77
REMARK SMILES IDX 11 78 12 79 20 80 13 81 19 82 14 83 18 84 15 85 17 86 16 87
REMARK SMILES IDX 21 88 22 89 23 90 24 91 28 92 25 93 27 94 26 95
REMARK H PARENT 3 5 85 23 53 34 8 76
REMARK Flexibility Score: inf
ROOT
ATOM      1  C   UNL A   1      32.862  30.347  26.810  1.00  0.00     0.116 C 
ENDROOT
BRANCH   1   2
ATOM      2  N   UNL A   1      32.730  31.779  27.076  1.00  0.00    -0.352 N 
ATOM      3  O   UNL A   1      33.372  33.790  27.899  1.00  0.00    -0.269 OA
ATOM      4  C   UNL A   1      33.651  32.621  27.659  1.00  0.00     0.251 C 
ATOM      5  H   UNL A   1      31.878  32.191  26.806  1.00  0.00     0.163 HD
BRANCH   4   6
ATOM      6  C   UNL A   1      34.960  32.051  28.025  1.00  0.00     0.039 A 
ATOM      7  C   UNL A   1      35.011  30.743  28.505  1.00  0.00     0.014 A 
ATOM      8  C   UNL A   1      36.088  32.872  28.055  1.00  0.00     0.014 A 
ATOM      9  C   UNL A   1      36.117  30.340  29.230  1.00  0.00     0.010 A 
ATOM     10  C   UNL A   1      37.256  32.402  28.660  1.00  0.00     0.010 A 
ATOM     11  C   UNL A   1      37.263  31.153  29.300  1.00  0.00    -0.014 A 
BRANCH  11  12
ATOM     12  C   UNL A   1      38.463  30.622  29.993  1.00  0.00     0.031 A 
ATOM     13  C   UNL A   1      38.798  31.001  31.409  1.00  0.00     0.074 A 
ATOM     14  C   UNL A   1      39.232  29.743  29.321  1.00  0.00     0.049 A 
ATOM     15  N   UNL A   1      39.799  30.595  32.147  1.00  0.00    -0.248 NA
ATOM     16  C   UNL A   1      37.917  31.969  32.083  1.00  0.00     0.031 C 
ATOM     17  C   UNL A   1      39.016  29.335  27.928  1.00  0.00     0.029 A 
ATOM     18  N   UNL A   1      40.324  29.013  29.709  1.00  0.00    -0.354 N 
ATOM     19  C   UNL A   1      39.713  31.305  33.339  1.00  0.00     0.074 A 
ATOM     20  C   UNL A   1      38.548  32.157  33.236  1.00  0.00     0.031 C 
ATOM     21  C   UNL A   1      39.885  28.371  27.609  1.00  0.00     0.029 A 
ATOM     22  C   UNL A   1      40.782  28.157  28.735  1.00  0.00     0.049 A 
ATOM     23  H   UNL A   1      40.738  29.093  30.599  1.00  0.00     0.167 HD
ATOM     24  C   UNL A   1      40.529  31.243  34.419  1.00  0.00     0.034 A 
ATOM     25  C   UNL A   1      41.821  27.304  28.737  1.00  0.00     0.034 A 
ATOM     26  C   UNL A   1      41.644  30.338  34.532  1.00  0.00     0.049 A 
ATOM     27  C   UNL A   1      42.664  27.213  29.971  1.00  0.00     0.074 A 
ATOM     28  C   UNL A   1      42.493  30.149  35.608  1.00  0.00     0.029 A 
ATOM     29  N   UNL A   1      42.062  29.466  33.537  1.00  0.00    -0.354 N 
ATOM     30  N   UNL A   1      42.511  27.827  31.118  1.00  0.00    -0.248 NA
ATOM     31  C   UNL A   1      43.817  26.306  29.916  1.00  0.00     0.031 C 
ATOM     32  C   UNL A   1      43.430  29.169  35.259  1.00  0.00     0.029 A 
ATOM     33  C   UNL A   1      43.158  28.739  33.971  1.00  0.00     0.049 A 
ATOM     34  H   UNL A   1      41.639  29.376  32.652  1.00  0.00     0.167 HD
ATOM     35  C   UNL A   1      43.542  27.377  31.929  1.00  0.00     0.074 A 
ATOM     36  C   UNL A   1      44.290  26.409  31.151  1.00  0.00     0.031 C 
ATOM     37  C   UNL A   1      43.860  27.750  33.192  1.00  0.00     0.034 A 
BRANCH  24  38
ATOM     38  C   UNL A   1      40.237  32.156  35.582  1.00  0.00     0.023 A 
ATOM     39  C   UNL A   1      40.984  33.339  35.749  1.00  0.00     0.012 A 
ATOM     40  C   UNL A   1      39.176  31.880  36.469  1.00  0.00     0.148 A 
ATOM     41  C   UNL A   1      40.695  34.220  36.792  1.00  0.00     0.002 A 
ATOM     42  C   UNL A   1      38.871  32.782  37.483  1.00  0.00     0.091 A 
ATOM     43  F   UNL A   1      38.491  30.739  36.313  1.00  0.00    -0.205 F 
ATOM     44  C   UNL A   1      39.634  33.948  37.652  1.00  0.00     0.022 A 
BRANCH  42  45
ATOM     45  S   UNL A   1      37.475  32.545  38.590  1.00  0.00     0.127 S 
ATOM     46  O   UNL A   1      37.620  31.136  38.952  1.00  0.00    -0.237 OA
ATOM     47  O   UNL A   1      37.769  33.485  39.673  1.00  0.00    -0.237 OA
ATOM     48  O   UNL A   1      36.291  32.880  37.810  1.00  0.00    -0.744 OA
ENDBRANCH  42  45
ENDBRANCH  24  38
BRANCH  25  49
ATOM     49  C   UNL A   1      42.067  26.447  27.545  1.00  0.00     0.023 A 
ATOM     50  C   UNL A   1      42.846  26.946  26.484  1.00  0.00     0.012 A 
ATOM     51  C   UNL A   1      41.618  25.111  27.497  1.00  0.00     0.148 A 
ATOM     52  C   UNL A   1      43.167  26.135  25.396  1.00  0.00     0.002 A 
ATOM     53  C   UNL A   1      41.998  24.290  26.443  1.00  0.00     0.091 A 
ATOM     54  F   UNL A   1      40.857  24.659  28.505  1.00  0.00    -0.205 F 
ATOM     55  C   UNL A   1      42.760  24.803  25.384  1.00  0.00     0.022 A 
BRANCH  53  56
ATOM     56  S   UNL A   1      41.661  22.525  26.456  1.00  0.00     0.127 S 
ATOM     57  O   UNL A   1      40.204  22.498  26.372  1.00  0.00    -0.237 OA
ATOM     58  O   UNL A   1      42.357  22.067  25.252  1.00  0.00    -0.237 OA
ATOM     59  O   UNL A   1      42.243  22.033  27.699  1.00  0.00    -0.744 OA
ENDBRANCH  53  56
ENDBRANCH  25  49
BRANCH  37  60
ATOM     60  C   UNL A   1      45.064  27.099  33.809  1.00  0.00     0.023 A 
ATOM     61  C   UNL A   1      46.330  27.700  33.660  1.00  0.00     0.012 A 
ATOM     62  C   UNL A   1      44.940  25.919  34.566  1.00  0.00     0.148 A 
ATOM     63  C   UNL A   1      47.460  27.119  34.230  1.00  0.00     0.002 A 
ATOM     64  C   UNL A   1      46.066  25.369  35.167  1.00  0.00     0.091 A 
ATOM     65  F   UNL A   1      43.732  25.348  34.673  1.00  0.00    -0.205 F 
ATOM     66  C   UNL A   1      47.328  25.959  34.992  1.00  0.00     0.022 A 
BRANCH  64  67
ATOM     67  S   UNL A   1      45.960  23.926  36.232  1.00  0.00     0.127 S 
ATOM     68  O   UNL A   1      47.365  23.697  36.565  1.00  0.00    -0.237 OA
ATOM     69  O   UNL A   1      45.142  24.413  37.344  1.00  0.00    -0.237 OA
ATOM     70  O   UNL A   1      45.322  22.891  35.429  1.00  0.00    -0.744 OA
ENDBRANCH  64  67
ENDBRANCH  37  60
ENDBRANCH  11  12
ENDBRANCH   4   6
ENDBRANCH   1   2
BRANCH   1  71
ATOM     71  C   UNL A   1      31.568  29.581  26.953  1.00  0.00     0.023 C 
BRANCH  71  72
ATOM     72  C   UNL A   1      31.750  28.148  27.411  1.00  0.00     0.023 C 
BRANCH  72  73
ATOM     73  C   UNL A   1      31.626  27.067  26.326  1.00  0.00     0.116 C 
BRANCH  73  74
ATOM     74  N   UNL A   1      31.006  25.858  26.836  1.00  0.00    -0.354 N 
ATOM     75  C   UNL A   1      31.395  24.553  26.825  1.00  0.00     0.242 C 
ATOM     76  H   UNL A   1      30.139  26.010  27.275  1.00  0.00     0.163 HD
ATOM     77  O   UNL A   1      30.512  23.741  27.141  1.00  0.00    -0.273 OA
BRANCH  75  78
ATOM     78  C   UNL A   1      32.816  24.018  26.425  1.00  0.00     0.176 C 
ATOM     79  C   UNL A   1      33.064  22.723  27.217  1.00  0.00     0.036 C 
ATOM     80  N   UNL A   1      33.398  23.938  25.043  1.00  0.00    -0.309 N 
ATOM     81  C   UNL A   1      34.439  22.118  27.140  1.00  0.00     0.008 C 
ATOM     82  C   UNL A   1      34.809  23.370  25.029  1.00  0.00     0.091 C 
ATOM     83  C   UNL A   1      34.832  21.964  25.678  1.00  0.00     0.012 C 
ATOM     84  C   UNL A   1      35.603  23.361  23.706  1.00  0.00     0.025 C 
ATOM     85  C   UNL A   1      36.174  21.220  25.641  1.00  0.00     0.006 C 
ATOM     86  C   UNL A   1      36.988  22.734  23.852  1.00  0.00     0.002 C 
ATOM     87  C   UNL A   1      36.858  21.285  24.290  1.00  0.00     0.000 C 
BRANCH  80  88
ATOM     88  C   UNL A   1      32.840  24.402  23.860  1.00  0.00     0.321 C 
ATOM     89  O   UNL A   1      32.427  23.635  22.986  1.00  0.00    -0.248 OA
ATOM     90  N   UNL A   1      32.674  25.757  23.631  1.00  0.00    -0.323 N 
ATOM     91  C   UNL A   1      31.586  26.053  22.678  1.00  0.00     0.132 C 
ATOM     92  C   UNL A   1      33.856  26.611  23.436  1.00  0.00     0.132 C 
ATOM     93  C   UNL A   1      31.058  27.482  22.701  1.00  0.00     0.091 C 
ATOM     94  C   UNL A   1      33.558  28.110  23.592  1.00  0.00     0.091 C 
ATOM     95  S   UNL A   1      32.363  28.694  22.343  1.00  0.00    -0.158 SA
ENDBRANCH  80  88
ENDBRANCH  75  78
ENDBRANCH  73  74
ENDBRANCH  72  73
ENDBRANCH  71  72
ENDBRANCH   1  71
TORSDOF 15
ENDMDL
MODEL 2
REMARK VINA RESULT:     -12.7      4.870      9.882
REMARK SMILES O=C(NCCCCNC(=O)[C@H]1CC[C@@H]2CCCC[C@H]2N1C(=O)N1CCSCC1)c1ccc(-c2c3nc(c(-c4cccc(S(=O)(=O)[O-])c4F)c4ccc([nH]4)c(-c4cccc(S(=O)(=O)[O-])c4F)c4nc(c(-c5cccc(S(=O)(=O)[O-])c5F)c5ccc2[nH]5)C=C4)C=C3)cc1
REMARK SMILES IDX 4 1 3 2 1 3 2 4 29 6 30 7 91 8 31 9 90 10 32 11 33 12 34 13
REMARK SMILES IDX 84 14 35 15 89 16 83 17 85 18 36 19 88 20 82 21 81 22 37 24
REMARK SMILES IDX 69 25 49 26 68 27 50 28 53 29 67 30 86 31 51 32 52 33 66 35
REMARK SMILES IDX 87 36 54 37 38 38 39 39 47 40 40 41 42 42 48 43 41 44 43 45
REMARK SMILES IDX 44 46 45 47 46 48 70 49 71 50 79 51 72 52 74 53 80 54 73 55
REMARK SMILES IDX 75 56 76 57 77 58 78 59 55 60 56 61 64 62 57 63 59 64 65 65
REMARK SMILES IDX 58 66 60 67 61 68 62 69 63 70 5 71 6 72 7 73 8 74 9 75 10 77
REMARK SMILES IDX 11 78 12 79 20 80 13 81 19 82 14 83 18 84 15 85 17 86 16 87
REMARK SMILES IDX 21 88 22 89 23 90 24 91 28 92 25 93 27 94 26 95
REMARK H PARENT 3 5 85 23 53 34 8 76
REMARK Flexibility Score: inf
ROOT
ATOM      1  C   UNL A   1      36.424  22.053  25.475  1.00  0.00     0.116 C 
ENDROOT
BRANCH   1   2
ATOM      2  N   UNL A   1      37.387  20.956  25.388  1.00  0.00    -0.352 N 
ATOM      3  O   UNL A   1      39.421  19.977  25.590  1.00  0.00    -0.269 OA
ATOM      4  C   UNL A   1      38.700  20.945  25.804  1.00  0.00     0.251 C 
ATOM      5  H   UNL A   1      37.055  20.122  24.983  1.00  0.00     0.163 HD
BRANCH   4   6
ATOM      6  C   UNL A   1      39.215  22.157  26.467  1.00  0.00     0.039 A 
ATOM      7  C   UNL A   1      38.713  23.398  26.078  1.00  0.00     0.014 A 
ATOM      8  C   UNL A   1      40.306  22.062  27.331  1.00  0.00     0.014 A 
ATOM      9  C   UNL A   1      39.448  24.535  26.361  1.00  0.00     0.010 A 
ATOM     10  C   UNL A   1      40.957  23.229  27.737  1.00  0.00     0.010 A 
ATOM     11  C   UNL A   1      40.567  24.470  27.211  1.00  0.00    -0.014 A 
BRANCH  11  12
ATOM     12  C   UNL A   1      41.249  25.738  27.576  1.00  0.00     0.031 A 
ATOM     13  C   UNL A   1      42.632  26.066  27.085  1.00  0.00     0.074 A 
ATOM     14  C   UNL A   1      40.567  26.616  28.336  1.00  0.00     0.049 A 
ATOM     15  N   UNL A   1      43.339  27.145  27.303  1.00  0.00    -0.248 NA
ATOM     16  C   UNL A   1      43.321  25.060  26.261  1.00  0.00     0.031 C 
ATOM     17  C   UNL A   1      39.231  26.378  28.896  1.00  0.00     0.029 A 
ATOM     18  N   UNL A   1      40.872  27.886  28.748  1.00  0.00    -0.354 N 
ATOM     19  C   UNL A   1      44.576  26.923  26.709  1.00  0.00     0.074 A 
ATOM     20  C   UNL A   1      44.520  25.610  26.103  1.00  0.00     0.031 C 
ATOM     21  C   UNL A   1      38.800  27.490  29.500  1.00  0.00     0.029 A 
ATOM     22  C   UNL A   1      39.859  28.487  29.457  1.00  0.00     0.049 A 
ATOM     23  H   UNL A   1      41.732  28.324  28.554  1.00  0.00     0.167 HD
ATOM     24  C   UNL A   1      45.654  27.743  26.671  1.00  0.00     0.034 A 
ATOM     25  C   UNL A   1      39.792  29.703  30.027  1.00  0.00     0.034 A 
ATOM     26  C   UNL A   1      45.669  29.074  27.220  1.00  0.00     0.049 A 
ATOM     27  C   UNL A   1      40.977  30.610  29.910  1.00  0.00     0.074 A 
ATOM     28  C   UNL A   1      46.687  30.012  27.177  1.00  0.00     0.029 A 
ATOM     29  N   UNL A   1      44.616  29.662  27.907  1.00  0.00    -0.354 N 
ATOM     30  N   UNL A   1      42.102  30.413  29.268  1.00  0.00    -0.248 NA
ATOM     31  C   UNL A   1      40.882  31.909  30.587  1.00  0.00     0.031 C 
ATOM     32  C   UNL A   1      46.251  31.162  27.846  1.00  0.00     0.029 A 
ATOM     33  C   UNL A   1      44.959  30.946  28.295  1.00  0.00     0.049 A 
ATOM     34  H   UNL A   1      43.751  29.228  28.089  1.00  0.00     0.167 HD
ATOM     35  C   UNL A   1      42.851  31.566  29.454  1.00  0.00     0.074 A 
ATOM     36  C   UNL A   1      42.032  32.471  30.239  1.00  0.00     0.031 C 
ATOM     37  C   UNL A   1      44.111  31.842  29.039  1.00  0.00     0.034 A 
BRANCH  24  38
ATOM     38  C   UNL A   1      46.903  27.243  25.991  1.00  0.00     0.023 A 
ATOM     39  C   UNL A   1      47.092  27.476  24.615  1.00  0.00     0.012 A 
ATOM     40  C   UNL A   1      47.922  26.606  26.729  1.00  0.00     0.148 A 
ATOM     41  C   UNL A   1      48.264  27.063  23.979  1.00  0.00     0.002 A 
ATOM     42  C   UNL A   1      49.103  26.231  26.096  1.00  0.00     0.091 A 
ATOM     43  F   UNL A   1      47.717  26.369  28.032  1.00  0.00    -0.205 F 
ATOM     44  C   UNL A   1      49.272  26.451  24.719  1.00  0.00     0.022 A 
BRANCH  42  45
ATOM     45  S   UNL A   1      50.482  25.503  26.989  1.00  0.00     0.127 S 
ATOM     46  O   UNL A   1      50.825  26.572  27.926  1.00  0.00    -0.237 OA
ATOM     47  O   UNL A   1      49.869  24.326  27.608  1.00  0.00    -0.237 OA
ATOM     48  O   UNL A   1      51.488  25.197  25.981  1.00  0.00    -0.744 OA
ENDBRANCH  42  45
ENDBRANCH  24  38
BRANCH  25  49
ATOM     49  C   UNL A   1      38.535  30.126  30.704  1.00  0.00     0.023 A 
ATOM     50  C   UNL A   1      38.387  29.904  32.086  1.00  0.00     0.012 A 
ATOM     51  C   UNL A   1      37.530  30.831  30.010  1.00  0.00     0.148 A 
ATOM     52  C   UNL A   1      37.259  30.368  32.763  1.00  0.00     0.002 A 
ATOM     53  C   UNL A   1      36.443  31.349  30.703  1.00  0.00     0.091 A 
ATOM     54  F   UNL A   1      37.676  31.013  28.690  1.00  0.00    -0.205 F 
ATOM     55  C   UNL A   1      36.298  31.107  32.077  1.00  0.00     0.022 A 
BRANCH  53  56
ATOM     56  S   UNL A   1      35.267  32.457  29.919  1.00  0.00     0.127 S 
ATOM     57  O   UNL A   1      34.735  31.620  28.848  1.00  0.00    -0.237 OA
ATOM     58  O   UNL A   1      34.330  32.737  31.007  1.00  0.00    -0.237 OA
ATOM     59  O   UNL A   1      36.051  33.613  29.501  1.00  0.00    -0.744 OA
ENDBRANCH  53  56
ENDBRANCH  25  49
BRANCH  37  60
ATOM     60  C   UNL A   1      44.671  33.182  29.421  1.00  0.00     0.023 A 
ATOM     61  C   UNL A   1      45.399  33.313  30.621  1.00  0.00     0.012 A 
ATOM     62  C   UNL A   1      44.516  34.299  28.579  1.00  0.00     0.148 A 
ATOM     63  C   UNL A   1      45.936  34.543  30.993  1.00  0.00     0.002 A 
ATOM     64  C   UNL A   1      45.091  35.512  28.935  1.00  0.00     0.091 A 
ATOM     65  F   UNL A   1      43.797  34.161  27.455  1.00  0.00    -0.205 F 
ATOM     66  C   UNL A   1      45.791  35.641  30.146  1.00  0.00     0.022 A 
BRANCH  64  67
ATOM     67  S   UNL A   1      45.020  36.947  27.857  1.00  0.00     0.127 S 
ATOM     68  O   UNL A   1      45.696  37.961  28.662  1.00  0.00    -0.237 OA
ATOM     69  O   UNL A   1      45.772  36.498  26.684  1.00  0.00    -0.237 OA
ATOM     70  O   UNL A   1      43.603  37.178  27.604  1.00  0.00    -0.744 OA
ENDBRANCH  64  67
ENDBRANCH  37  60
ENDBRANCH  11  12
ENDBRANCH   4   6
ENDBRANCH   1   2
BRANCH   1  71
ATOM     71  C   UNL A   1      35.053  21.622  25.940  1.00  0.00     0.023 C 
BRANCH  71  72
ATOM     72  C   UNL A   1      34.312  20.751  24.945  1.00  0.00     0.023 C 
BRANCH  72  73
ATOM     73  C   UNL A   1      32.951  21.275  24.464  1.00  0.00     0.116 C 
BRANCH  73  74
ATOM     74  N   UNL A   1      33.085  22.152  23.316  1.00  0.00    -0.354 N 
ATOM     75  C   UNL A   1      33.003  23.505  23.181  1.00  0.00     0.242 C 
ATOM     76  H   UNL A   1      33.271  21.680  22.473  1.00  0.00     0.163 HD
ATOM     77  O   UNL A   1      32.933  23.911  22.011  1.00  0.00    -0.273 OA
BRANCH  75  78
ATOM     78  C   UNL A   1      32.960  24.547  24.354  1.00  0.00     0.176 C 
ATOM     79  C   UNL A   1      34.377  25.126  24.513  1.00  0.00     0.036 C 
ATOM     80  N   UNL A   1      31.908  25.590  24.602  1.00  0.00    -0.309 N 
ATOM     81  C   UNL A   1      34.631  26.018  25.697  1.00  0.00     0.008 C 
ATOM     82  C   UNL A   1      32.187  26.425  25.842  1.00  0.00     0.091 C 
ATOM     83  C   UNL A   1      33.572  27.110  25.733  1.00  0.00     0.012 C 
ATOM     84  C   UNL A   1      31.127  27.441  26.319  1.00  0.00     0.025 C 
ATOM     85  C   UNL A   1      33.947  28.073  26.867  1.00  0.00     0.006 C 
ATOM     86  C   UNL A   1      31.568  28.218  27.556  1.00  0.00     0.002 C 
ATOM     87  C   UNL A   1      32.823  29.016  27.247  1.00  0.00     0.000 C 
BRANCH  80  88
ATOM     88  C   UNL A   1      30.724  25.782  23.905  1.00  0.00     0.321 C 
ATOM     89  O   UNL A   1      29.957  24.850  23.648  1.00  0.00    -0.248 OA
ATOM     90  N   UNL A   1      30.325  27.047  23.509  1.00  0.00    -0.323 N 
ATOM     91  C   UNL A   1      28.863  27.166  23.342  1.00  0.00     0.132 C 
ATOM     92  C   UNL A   1      31.082  27.756  22.466  1.00  0.00     0.132 C 
ATOM     93  C   UNL A   1      28.311  28.585  23.338  1.00  0.00     0.091 C 
ATOM     94  C   UNL A   1      30.785  29.262  22.414  1.00  0.00     0.091 C 
ATOM     95  S   UNL A   1      29.037  29.592  22.012  1.00  0.00    -0.158 SA
ENDBRANCH  80  88
ENDBRANCH  75  78
ENDBRANCH  73  74
ENDBRANCH  72  73
ENDBRANCH  71  72
ENDBRANCH   1  71
TORSDOF 15
ENDMDL
MODEL 3
REMARK VINA RESULT:     -12.6      0.373      7.448
REMARK SMILES O=C(NCCCCNC(=O)[C@H]1CC[C@@H]2CCCC[C@H]2N1C(=O)N1CCSCC1)c1ccc(-c2c3nc(c(-c4cccc(S(=O)(=O)[O-])c4F)c4ccc([nH]4)c(-c4cccc(S(=O)(=O)[O-])c4F)c4nc(c(-c5cccc(S(=O)(=O)[O-])c5F)c5ccc2[nH]5)C=C4)C=C3)cc1
REMARK SMILES IDX 4 1 3 2 1 3 2 4 29 6 30 7 91 8 31 9 90 10 32 11 33 12 34 13
REMARK SMILES IDX 84 14 35 15 89 16 83 17 85 18 36 19 88 20 82 21 81 22 37 24
REMARK SMILES IDX 69 25 49 26 68 27 50 28 53 29 67 30 86 31 51 32 52 33 66 35
REMARK SMILES IDX 87 36 54 37 38 38 39 39 47 40 40 41 42 42 48 43 41 44 43 45
REMARK SMILES IDX 44 46 45 47 46 48 70 49 71 50 79 51 72 52 74 53 80 54 73 55
REMARK SMILES IDX 75 56 76 57 77 58 78 59 55 60 56 61 64 62 57 63 59 64 65 65
REMARK SMILES IDX 58 66 60 67 61 68 62 69 63 70 5 71 6 72 7 73 8 74 9 75 10 77
REMARK SMILES IDX 11 78 12 79 20 80 13 81 19 82 14 83 18 84 15 85 17 86 16 87
REMARK SMILES IDX 21 88 22 89 23 90 24 91 28 92 25 93 27 94 26 95
REMARK H PARENT 3 5 85 23 53 34 8 76
REMARK Flexibility Score: inf
ROOT
ATOM      1  C   UNL A   1      32.874  30.206  26.872  1.00  0.00     0.116 C 
ENDROOT
BRANCH   1   2
ATOM      2  N   UNL A   1      32.792  31.650  27.089  1.00  0.00    -0.352 N 
ATOM      3  O   UNL A   1      33.514  33.667  27.828  1.00  0.00    -0.269 OA
ATOM      4  C   UNL A   1      33.751  32.482  27.624  1.00  0.00     0.251 C 
ATOM      5  H   UNL A   1      31.948  32.079  26.822  1.00  0.00     0.163 HD
BRANCH   4   6
ATOM      6  C   UNL A   1      35.049  31.884  27.984  1.00  0.00     0.039 A 
ATOM      7  C   UNL A   1      35.089  30.539  28.349  1.00  0.00     0.014 A 
ATOM      8  C   UNL A   1      36.171  32.701  28.127  1.00  0.00     0.014 A 
ATOM      9  C   UNL A   1      36.170  30.075  29.075  1.00  0.00     0.010 A 
ATOM     10  C   UNL A   1      37.319  32.181  28.730  1.00  0.00     0.010 A 
ATOM     11  C   UNL A   1      37.309  30.880  29.257  1.00  0.00    -0.014 A 
BRANCH  11  12
ATOM     12  C   UNL A   1      38.487  30.292  29.943  1.00  0.00     0.031 A 
ATOM     13  C   UNL A   1      39.414  29.332  29.251  1.00  0.00     0.074 A 
ATOM     14  C   UNL A   1      38.728  30.681  31.210  1.00  0.00     0.049 A 
ATOM     15  N   UNL A   1      40.493  28.760  29.718  1.00  0.00    -0.248 NA
ATOM     16  C   UNL A   1      39.089  28.946  27.867  1.00  0.00     0.031 C 
ATOM     17  C   UNL A   1      37.869  31.582  31.987  1.00  0.00     0.029 A 
ATOM     18  N   UNL A   1      39.766  30.406  32.060  1.00  0.00    -0.354 N 
ATOM     19  C   UNL A   1      40.936  27.897  28.722  1.00  0.00     0.074 A 
ATOM     20  C   UNL A   1      40.018  28.033  27.612  1.00  0.00     0.031 C 
ATOM     21  C   UNL A   1      38.454  31.851  33.159  1.00  0.00     0.029 A 
ATOM     22  C   UNL A   1      39.680  31.072  33.260  1.00  0.00     0.049 A 
ATOM     23  H   UNL A   1      40.502  29.792  31.833  1.00  0.00     0.167 HD
ATOM     24  C   UNL A   1      42.013  27.075  28.735  1.00  0.00     0.034 A 
ATOM     25  C   UNL A   1      40.487  31.049  34.335  1.00  0.00     0.034 A 
ATOM     26  C   UNL A   1      42.956  27.004  29.821  1.00  0.00     0.049 A 
ATOM     27  C   UNL A   1      41.705  30.179  34.290  1.00  0.00     0.074 A 
ATOM     28  C   UNL A   1      44.117  26.254  29.907  1.00  0.00     0.029 A 
ATOM     29  N   UNL A   1      42.853  27.714  31.009  1.00  0.00    -0.354 N 
ATOM     30  N   UNL A   1      42.152  29.440  33.304  1.00  0.00    -0.248 NA
ATOM     31  C   UNL A   1      42.534  30.144  35.501  1.00  0.00     0.031 C 
ATOM     32  C   UNL A   1      44.708  26.504  31.150  1.00  0.00     0.029 A 
ATOM     33  C   UNL A   1      43.924  27.418  31.835  1.00  0.00     0.049 A 
ATOM     34  H   UNL A   1      42.124  28.338  31.231  1.00  0.00     0.167 HD
ATOM     35  C   UNL A   1      43.321  28.856  33.768  1.00  0.00     0.074 A 
ATOM     36  C   UNL A   1      43.531  29.359  35.113  1.00  0.00     0.031 C 
ATOM     37  C   UNL A   1      44.133  27.964  33.152  1.00  0.00     0.034 A 
BRANCH  24  38
ATOM     38  C   UNL A   1      42.254  26.202  27.531  1.00  0.00     0.023 A 
ATOM     39  C   UNL A   1      42.949  26.717  26.419  1.00  0.00     0.012 A 
ATOM     40  C   UNL A   1      41.855  24.849  27.528  1.00  0.00     0.148 A 
ATOM     41  C   UNL A   1      43.223  25.908  25.315  1.00  0.00     0.002 A 
ATOM     42  C   UNL A   1      42.165  24.039  26.439  1.00  0.00     0.091 A 
ATOM     43  F   UNL A   1      41.173  24.379  28.582  1.00  0.00    -0.205 F 
ATOM     44  C   UNL A   1      42.841  24.569  25.329  1.00  0.00     0.022 A 
BRANCH  42  45
ATOM     45  S   UNL A   1      41.775  22.285  26.406  1.00  0.00     0.127 S 
ATOM     46  O   UNL A   1      42.336  21.833  27.678  1.00  0.00    -0.237 OA
ATOM     47  O   UNL A   1      40.312  22.289  26.353  1.00  0.00    -0.237 OA
ATOM     48  O   UNL A   1      42.418  21.760  25.209  1.00  0.00    -0.744 OA
ENDBRANCH  42  45
ENDBRANCH  24  38
BRANCH  25  49
ATOM     49  C   UNL A   1      40.179  31.920  35.502  1.00  0.00     0.023 A 
ATOM     50  C   UNL A   1      40.856  33.145  35.647  1.00  0.00     0.012 A 
ATOM     51  C   UNL A   1      39.154  31.590  36.411  1.00  0.00     0.148 A 
ATOM     52  C   UNL A   1      40.525  34.021  36.680  1.00  0.00     0.002 A 
ATOM     53  C   UNL A   1      38.783  32.498  37.396  1.00  0.00     0.091 A 
ATOM     54  F   UNL A   1      38.534  30.409  36.272  1.00  0.00    -0.205 F 
ATOM     55  C   UNL A   1      39.477  33.707  37.542  1.00  0.00     0.022 A 
BRANCH  53  56
ATOM     56  S   UNL A   1      37.331  32.235  38.420  1.00  0.00     0.127 S 
ATOM     57  O   UNL A   1      37.752  32.818  39.691  1.00  0.00    -0.237 OA
ATOM     58  O   UNL A   1      36.304  32.994  37.704  1.00  0.00    -0.237 OA
ATOM     59  O   UNL A   1      37.114  30.794  38.415  1.00  0.00    -0.744 OA
ENDBRANCH  53  56
ENDBRANCH  25  49
BRANCH  37  60
ATOM     60  C   UNL A   1      45.327  27.485  33.928  1.00  0.00     0.023 A 
ATOM     61  C   UNL A   1      46.531  28.215  33.867  1.00  0.00     0.012 A 
ATOM     62  C   UNL A   1      45.248  26.343  34.745  1.00  0.00     0.148 A 
ATOM     63  C   UNL A   1      47.649  27.797  34.584  1.00  0.00     0.002 A 
ATOM     64  C   UNL A   1      46.355  25.955  35.491  1.00  0.00     0.091 A 
ATOM     65  F   UNL A   1      44.103  25.646  34.768  1.00  0.00    -0.205 F 
ATOM     66  C   UNL A   1      47.559  26.673  35.404  1.00  0.00     0.022 A 
BRANCH  64  67
ATOM     67  S   UNL A   1      46.290  24.570  36.632  1.00  0.00     0.127 S 
ATOM     68  O   UNL A   1      46.099  23.442  35.724  1.00  0.00    -0.237 OA
ATOM     69  O   UNL A   1      47.606  24.624  37.270  1.00  0.00    -0.237 OA
ATOM     70  O   UNL A   1      45.179  24.855  37.531  1.00  0.00    -0.744 OA
ENDBRANCH  64  67
ENDBRANCH  37  60
ENDBRANCH  11  12
ENDBRANCH   4   6
ENDBRANCH   1   2
BRANCH   1  71
ATOM     71  C   UNL A   1      31.600  29.469  27.207  1.00  0.00     0.023 C 
BRANCH  71  72
ATOM     72  C   UNL A   1      31.804  27.999  27.520  1.00  0.00     0.023 C 
BRANCH  72  73
ATOM     73  C   UNL A   1      31.526  27.015  26.374  1.00  0.00     0.116 C 
BRANCH  73  74
ATOM     74  N   UNL A   1      30.942  25.777  26.854  1.00  0.00    -0.354 N 
ATOM     75  C   UNL A   1      31.373  24.485  26.818  1.00  0.00     0.242 C 
ATOM     76  H   UNL A   1      30.068  25.892  27.291  1.00  0.00     0.163 HD
ATOM     77  O   UNL A   1      30.514  23.639  27.112  1.00  0.00    -0.273 OA
BRANCH  75  78
ATOM     78  C   UNL A   1      32.812  24.005  26.416  1.00  0.00     0.176 C 
ATOM     79  C   UNL A   1      33.105  22.712  27.197  1.00  0.00     0.036 C 
ATOM     80  N   UNL A   1      33.398  23.957  25.034  1.00  0.00    -0.309 N 
ATOM     81  C   UNL A   1      34.500  22.157  27.117  1.00  0.00     0.008 C 
ATOM     82  C   UNL A   1      34.828  23.440  25.018  1.00  0.00     0.091 C 
ATOM     83  C   UNL A   1      34.901  22.030  25.654  1.00  0.00     0.012 C 
ATOM     84  C   UNL A   1      35.624  23.470  23.696  1.00  0.00     0.025 C 
ATOM     85  C   UNL A   1      36.268  21.334  25.613  1.00  0.00     0.006 C 
ATOM     86  C   UNL A   1      37.030  22.892  23.839  1.00  0.00     0.002 C 
ATOM     87  C   UNL A   1      36.950  21.435  24.264  1.00  0.00     0.000 C 
BRANCH  80  88
ATOM     88  C   UNL A   1      32.826  24.411  23.854  1.00  0.00     0.321 C 
ATOM     89  O   UNL A   1      32.432  23.637  22.977  1.00  0.00    -0.248 OA
ATOM     90  N   UNL A   1      32.623  25.763  23.632  1.00  0.00    -0.323 N 
ATOM     91  C   UNL A   1      31.525  26.033  22.683  1.00  0.00     0.132 C 
ATOM     92  C   UNL A   1      33.780  26.650  23.440  1.00  0.00     0.132 C 
ATOM     93  C   UNL A   1      30.958  27.447  22.714  1.00  0.00     0.091 C 
ATOM     94  C   UNL A   1      33.442  28.139  23.603  1.00  0.00     0.091 C 
ATOM     95  S   UNL A   1      32.230  28.696  22.359  1.00  0.00    -0.158 SA
ENDBRANCH  80  88
ENDBRANCH  75  78
ENDBRANCH  73  74
ENDBRANCH  72  73
ENDBRANCH  71  72
ENDBRANCH   1  71
TORSDOF 15
ENDMDL
