MODEL 1
REMARK VINA RESULT:     -10.7      0.000      0.000
REMARK SMILES CCn1ccnc1[C@H](F)C(=O)NCCCCNC(=O)c1ccc(-c2c3nc(c(-c4cccc(S(=O)(=O)[O-])c4F)c4ccc([nH]4)c(-c4cccc(S(=O)(=O)[O-])c4F)c4nc(c(-c5cccc(S(=O)(=O)[O-])c5F)c5ccc2[nH]5)C=C4)C=C3)cc1
REMARK SMILES IDX 15 1 14 2 13 3 12 4 10 5 11 6 8 8 9 9 7 10 3 11 4 12 5 13
REMARK SMILES IDX 6 14 2 15 1 16 16 17 17 18 18 19 19 21 20 22 21 23 82 24
REMARK SMILES IDX 22 25 81 26 23 27 24 28 25 29 75 30 26 31 80 32 74 33 76 34
REMARK SMILES IDX 27 35 79 36 73 37 72 38 28 40 60 41 40 42 59 43 41 44 44 45
REMARK SMILES IDX 58 46 77 47 42 48 43 49 57 51 78 52 45 53 29 54 30 55 38 56
REMARK SMILES IDX 31 57 33 58 39 59 32 60 34 61 35 62 36 63 37 64 61 65 62 66
REMARK SMILES IDX 70 67 63 68 65 69 71 70 64 71 66 72 67 73 68 74 69 75 46 76
REMARK SMILES IDX 47 77 55 78 48 79 50 80 56 81 49 82 51 83 52 84 53 85 54 86
REMARK H PARENT 12 7 17 20 76 39 44 50
REMARK Flexibility Score: inf
ROOT
ATOM      1  C   UNL A   1      39.286  20.879  25.446  1.00  0.00     0.023 C 
ENDROOT
BRANCH   1   2
ATOM      2  C   UNL A   1      39.133  22.241  26.136  1.00  0.00     0.023 C 
BRANCH   2   3
ATOM      3  C   UNL A   1      37.812  22.982  25.904  1.00  0.00     0.116 C 
BRANCH   3   4
ATOM      4  N   UNL A   1      37.549  23.225  24.501  1.00  0.00    -0.353 N 
ATOM      5  C   UNL A   1      36.502  22.769  23.742  1.00  0.00     0.262 C 
ATOM      6  O   UNL A   1      36.496  23.086  22.547  1.00  0.00    -0.271 OA
ATOM      7  H   UNL A   1      38.204  23.790  24.031  1.00  0.00     0.163 HD
BRANCH   5   8
ATOM      8  C   UNL A   1      35.459  21.795  24.296  1.00  0.00     0.321 C 
ATOM      9  F   UNL A   1      36.050  20.749  24.963  1.00  0.00    -0.228 F 
BRANCH   8  10
ATOM     10  C   UNL A   1      34.427  22.442  25.174  1.00  0.00     0.153 A 
ATOM     11  N   UNL A   1      33.390  21.738  25.760  1.00  0.00    -0.332 N 
ATOM     12  C   UNL A   1      32.702  22.605  26.570  1.00  0.00     0.107 A 
ATOM     13  C   UNL A   1      33.309  23.822  26.396  1.00  0.00     0.131 A 
ATOM     14  N   UNL A   1      34.391  23.703  25.573  1.00  0.00    -0.238 NA
BRANCH  11  15
ATOM     15  C   UNL A   1      33.099  20.323  25.626  1.00  0.00     0.120 C 
ATOM     16  C   UNL A   1      32.415  19.955  24.318  1.00  0.00     0.027 C 
ENDBRANCH  11  15
ENDBRANCH   8  10
ENDBRANCH   5   8
ENDBRANCH   3   4
ENDBRANCH   2   3
ENDBRANCH   1   2
BRANCH   1  17
ATOM     17  C   UNL A   1      39.683  19.737  26.369  1.00  0.00     0.116 C 
BRANCH  17  18
ATOM     18  N   UNL A   1      40.910  19.054  25.950  1.00  0.00    -0.352 N 
ATOM     19  C   UNL A   1      42.164  19.611  25.741  1.00  0.00     0.251 C 
ATOM     20  H   UNL A   1      40.837  18.084  25.798  1.00  0.00     0.163 HD
ATOM     21  O   UNL A   1      42.998  19.048  25.054  1.00  0.00    -0.269 OA
BRANCH  19  22
ATOM     22  C   UNL A   1      42.465  20.906  26.383  1.00  0.00     0.039 A 
ATOM     23  C   UNL A   1      42.870  22.021  25.643  1.00  0.00     0.014 A 
ATOM     24  C   UNL A   1      42.279  20.992  27.758  1.00  0.00     0.014 A 
ATOM     25  C   UNL A   1      42.997  23.247  26.296  1.00  0.00     0.010 A 
ATOM     26  C   UNL A   1      42.222  22.222  28.354  1.00  0.00     0.010 A 
ATOM     27  C   UNL A   1      42.648  23.344  27.652  1.00  0.00    -0.014 A 
BRANCH  27  28
ATOM     28  C   UNL A   1      42.616  24.629  28.340  1.00  0.00     0.031 A 
ATOM     29  C   UNL A   1      41.387  25.434  28.104  1.00  0.00     0.074 A 
ATOM     30  C   UNL A   1      43.513  24.959  29.297  1.00  0.00     0.049 A 
ATOM     31  N   UNL A   1      41.298  26.558  27.473  1.00  0.00    -0.248 NA
ATOM     32  C   UNL A   1      40.086  24.862  28.481  1.00  0.00     0.031 C 
ATOM     33  C   UNL A   1      44.591  24.128  29.851  1.00  0.00     0.029 A 
ATOM     34  N   UNL A   1      43.545  26.056  30.102  1.00  0.00    -0.354 N 
ATOM     35  C   UNL A   1      39.969  26.956  27.597  1.00  0.00     0.074 A 
ATOM     36  C   UNL A   1      39.243  25.791  28.022  1.00  0.00     0.031 C 
ATOM     37  C   UNL A   1      44.965  24.616  31.052  1.00  0.00     0.029 A 
ATOM     38  C   UNL A   1      44.294  25.883  31.264  1.00  0.00     0.049 A 
ATOM     39  H   UNL A   1      43.081  26.897  29.883  1.00  0.00     0.167 HD
ATOM     40  C   UNL A   1      39.628  28.276  27.594  1.00  0.00     0.034 A 
ATOM     41  C   UNL A   1      44.324  26.700  32.344  1.00  0.00     0.034 A 
ATOM     42  C   UNL A   1      40.727  29.097  27.143  1.00  0.00     0.049 A 
ATOM     43  C   UNL A   1      43.844  28.027  31.892  1.00  0.00     0.074 A 
ATOM     44  C   UNL A   1      41.506  29.149  26.004  1.00  0.00     0.029 A 
ATOM     45  N   UNL A   1      41.425  29.783  28.109  1.00  0.00    -0.354 N 
ATOM     46  N   UNL A   1      44.497  28.774  31.047  1.00  0.00    -0.248 NA
ATOM     47  C   UNL A   1      42.428  28.324  32.030  1.00  0.00     0.031 C 
ATOM     48  C   UNL A   1      42.822  29.423  26.477  1.00  0.00     0.029 A 
ATOM     49  C   UNL A   1      42.757  29.602  27.861  1.00  0.00     0.049 A 
ATOM     50  H   UNL A   1      41.035  30.307  28.845  1.00  0.00     0.167 HD
ATOM     51  C   UNL A   1      43.511  29.283  30.212  1.00  0.00     0.074 A 
ATOM     52  C   UNL A   1      42.258  29.075  30.937  1.00  0.00     0.031 C 
ATOM     53  C   UNL A   1      43.767  29.543  28.896  1.00  0.00     0.034 A 
BRANCH  40  54
ATOM     54  C   UNL A   1      38.467  28.892  28.349  1.00  0.00     0.023 A 
ATOM     55  C   UNL A   1      37.548  29.660  27.594  1.00  0.00     0.012 A 
ATOM     56  C   UNL A   1      38.386  29.006  29.755  1.00  0.00     0.148 A 
ATOM     57  C   UNL A   1      36.656  30.550  28.200  1.00  0.00     0.002 A 
ATOM     58  C   UNL A   1      37.444  29.834  30.356  1.00  0.00     0.091 A 
ATOM     59  F   UNL A   1      39.301  28.423  30.531  1.00  0.00    -0.205 F 
ATOM     60  C   UNL A   1      36.601  30.636  29.584  1.00  0.00     0.022 A 
BRANCH  58  61
ATOM     61  S   UNL A   1      37.295  29.949  32.144  1.00  0.00     0.127 S 
ATOM     62  O   UNL A   1      37.125  28.547  32.513  1.00  0.00    -0.237 OA
ATOM     63  O   UNL A   1      38.584  30.536  32.513  1.00  0.00    -0.237 OA
ATOM     64  O   UNL A   1      36.152  30.821  32.386  1.00  0.00    -0.744 OA
ENDBRANCH  58  61
ENDBRANCH  40  54
BRANCH  41  65
ATOM     65  C   UNL A   1      44.535  26.380  33.774  1.00  0.00     0.023 A 
ATOM     66  C   UNL A   1      45.833  26.438  34.318  1.00  0.00     0.012 A 
ATOM     67  C   UNL A   1      43.443  26.288  34.668  1.00  0.00     0.148 A 
ATOM     68  C   UNL A   1      46.037  26.442  35.704  1.00  0.00     0.002 A 
ATOM     69  C   UNL A   1      43.651  26.283  36.044  1.00  0.00     0.091 A 
ATOM     70  F   UNL A   1      42.199  26.298  34.170  1.00  0.00    -0.205 F 
ATOM     71  C   UNL A   1      44.946  26.374  36.566  1.00  0.00     0.022 A 
BRANCH  69  72
ATOM     72  S   UNL A   1      42.292  26.223  37.222  1.00  0.00     0.127 S 
ATOM     73  O   UNL A   1      41.730  24.895  36.970  1.00  0.00    -0.237 OA
ATOM     74  O   UNL A   1      42.992  26.359  38.496  1.00  0.00    -0.237 OA
ATOM     75  O   UNL A   1      41.408  27.324  36.861  1.00  0.00    -0.744 OA
ENDBRANCH  69  72
ENDBRANCH  41  65
BRANCH  53  76
ATOM     76  C   UNL A   1      45.199  29.505  28.421  1.00  0.00     0.023 A 
ATOM     77  C   UNL A   1      46.090  30.583  28.609  1.00  0.00     0.012 A 
ATOM     78  C   UNL A   1      45.709  28.284  27.946  1.00  0.00     0.148 A 
ATOM     79  C   UNL A   1      47.450  30.453  28.310  1.00  0.00     0.002 A 
ATOM     80  C   UNL A   1      47.068  28.142  27.697  1.00  0.00     0.091 A 
ATOM     81  F   UNL A   1      44.852  27.264  27.777  1.00  0.00    -0.205 F 
ATOM     82  C   UNL A   1      47.941  29.228  27.868  1.00  0.00     0.022 A 
BRANCH  80  83
ATOM     83  S   UNL A   1      47.778  26.555  27.256  1.00  0.00     0.127 S 
ATOM     84  O   UNL A   1      47.387  25.720  28.390  1.00  0.00    -0.237 OA
ATOM     85  O   UNL A   1      47.093  26.241  26.001  1.00  0.00    -0.237 OA
ATOM     86  O   UNL A   1      49.210  26.784  27.109  1.00  0.00    -0.744 OA
ENDBRANCH  80  83
ENDBRANCH  53  76
ENDBRANCH  27  28
ENDBRANCH  19  22
ENDBRANCH  17  18
ENDBRANCH   1  17
TORSDOF 16
ENDMDL
MODEL 2
REMARK VINA RESULT:     -10.2      3.637      8.121
REMARK SMILES CCn1ccnc1[C@H](F)C(=O)NCCCCNC(=O)c1ccc(-c2c3nc(c(-c4cccc(S(=O)(=O)[O-])c4F)c4ccc([nH]4)c(-c4cccc(S(=O)(=O)[O-])c4F)c4nc(c(-c5cccc(S(=O)(=O)[O-])c5F)c5ccc2[nH]5)C=C4)C=C3)cc1
REMARK SMILES IDX 15 1 14 2 13 3 12 4 10 5 11 6 8 8 9 9 7 10 3 11 4 12 5 13
REMARK SMILES IDX 6 14 2 15 1 16 16 17 17 18 18 19 19 21 20 22 21 23 82 24
REMARK SMILES IDX 22 25 81 26 23 27 24 28 25 29 75 30 26 31 80 32 74 33 76 34
REMARK SMILES IDX 27 35 79 36 73 37 72 38 28 40 60 41 40 42 59 43 41 44 44 45
REMARK SMILES IDX 58 46 77 47 42 48 43 49 57 51 78 52 45 53 29 54 30 55 38 56
REMARK SMILES IDX 31 57 33 58 39 59 32 60 34 61 35 62 36 63 37 64 61 65 62 66
REMARK SMILES IDX 70 67 63 68 65 69 71 70 64 71 66 72 67 73 68 74 69 75 46 76
REMARK SMILES IDX 47 77 55 78 48 79 50 80 56 81 49 82 51 83 52 84 53 85 54 86
REMARK H PARENT 12 7 17 20 76 39 44 50
REMARK Flexibility Score: inf
ROOT
ATOM      1  C   UNL A   1      32.675  30.066  27.198  1.00  0.00     0.023 C 
ENDROOT
BRANCH   1   2
ATOM      2  C   UNL A   1      31.928  30.282  25.876  1.00  0.00     0.023 C 
BRANCH   2   3
ATOM      3  C   UNL A   1      32.290  29.342  24.721  1.00  0.00     0.116 C 
BRANCH   3   4
ATOM      4  N   UNL A   1      31.476  29.566  23.544  1.00  0.00    -0.353 N 
ATOM      5  C   UNL A   1      30.525  28.743  23.000  1.00  0.00     0.262 C 
ATOM      6  O   UNL A   1      29.969  29.135  21.968  1.00  0.00    -0.271 OA
ATOM      7  H   UNL A   1      31.624  30.419  23.075  1.00  0.00     0.163 HD
BRANCH   5   8
ATOM      8  C   UNL A   1      30.254  27.339  23.548  1.00  0.00     0.321 C 
ATOM      9  F   UNL A   1      28.957  26.949  23.318  1.00  0.00    -0.228 F 
BRANCH   8  10
ATOM     10  C   UNL A   1      31.200  26.292  23.034  1.00  0.00     0.153 A 
ATOM     11  N   UNL A   1      31.461  25.115  23.713  1.00  0.00    -0.332 N 
ATOM     12  C   UNL A   1      32.279  24.350  22.923  1.00  0.00     0.107 A 
ATOM     13  C   UNL A   1      32.538  25.119  21.818  1.00  0.00     0.131 A 
ATOM     14  N   UNL A   1      31.838  26.288  21.874  1.00  0.00    -0.238 NA
BRANCH  11  15
ATOM     15  C   UNL A   1      30.922  24.699  24.994  1.00  0.00     0.120 C 
ATOM     16  C   UNL A   1      31.759  25.138  26.187  1.00  0.00     0.027 C 
ENDBRANCH  11  15
ENDBRANCH   8  10
ENDBRANCH   5   8
ENDBRANCH   3   4
ENDBRANCH   2   3
ENDBRANCH   1   2
BRANCH   1  17
ATOM     17  C   UNL A   1      33.945  30.889  27.356  1.00  0.00     0.116 C 
BRANCH  17  18
ATOM     18  N   UNL A   1      33.917  31.776  28.523  1.00  0.00    -0.352 N 
ATOM     19  C   UNL A   1      34.809  31.811  29.585  1.00  0.00     0.251 C 
ATOM     20  H   UNL A   1      33.178  32.425  28.557  1.00  0.00     0.163 HD
ATOM     21  O   UNL A   1      34.499  32.309  30.654  1.00  0.00    -0.269 OA
BRANCH  19  22
ATOM     22  C   UNL A   1      36.151  31.233  29.385  1.00  0.00     0.039 A 
ATOM     23  C   UNL A   1      37.280  32.033  29.180  1.00  0.00     0.014 A 
ATOM     24  C   UNL A   1      36.265  29.849  29.458  1.00  0.00     0.014 A 
ATOM     25  C   UNL A   1      38.534  31.426  29.142  1.00  0.00     0.010 A 
ATOM     26  C   UNL A   1      37.500  29.281  29.607  1.00  0.00     0.010 A 
ATOM     27  C   UNL A   1      38.638  30.047  29.379  1.00  0.00    -0.014 A 
BRANCH  27  28
ATOM     28  C   UNL A   1      39.934  29.390  29.502  1.00  0.00     0.031 A 
ATOM     29  C   UNL A   1      40.403  29.190  30.900  1.00  0.00     0.074 A 
ATOM     30  C   UNL A   1      40.549  28.801  28.451  1.00  0.00     0.049 A 
ATOM     31  N   UNL A   1      41.415  29.752  31.474  1.00  0.00    -0.248 NA
ATOM     32  C   UNL A   1      39.576  28.387  31.813  1.00  0.00     0.031 C 
ATOM     33  C   UNL A   1      40.047  28.651  27.078  1.00  0.00     0.029 A 
ATOM     34  N   UNL A   1      41.689  28.057  28.430  1.00  0.00    -0.354 N 
ATOM     35  C   UNL A   1      41.498  29.178  32.741  1.00  0.00     0.074 A 
ATOM     36  C   UNL A   1      40.236  28.528  32.966  1.00  0.00     0.031 C 
ATOM     37  C   UNL A   1      40.712  27.653  26.461  1.00  0.00     0.029 A 
ATOM     38  C   UNL A   1      41.799  27.224  27.319  1.00  0.00     0.049 A 
ATOM     39  H   UNL A   1      42.373  28.104  29.136  1.00  0.00     0.167 HD
ATOM     40  C   UNL A   1      42.695  29.065  33.383  1.00  0.00     0.034 A 
ATOM     41  C   UNL A   1      42.691  26.221  27.137  1.00  0.00     0.034 A 
ATOM     42  C   UNL A   1      43.709  29.868  32.741  1.00  0.00     0.049 A 
ATOM     43  C   UNL A   1      43.823  26.481  28.057  1.00  0.00     0.074 A 
ATOM     44  C   UNL A   1      43.844  31.205  32.426  1.00  0.00     0.029 A 
ATOM     45  N   UNL A   1      44.622  29.202  31.957  1.00  0.00    -0.354 N 
ATOM     46  N   UNL A   1      44.626  27.500  27.933  1.00  0.00    -0.248 NA
ATOM     47  C   UNL A   1      43.789  25.864  29.373  1.00  0.00     0.031 C 
ATOM     48  C   UNL A   1      44.460  31.214  31.141  1.00  0.00     0.029 A 
ATOM     49  C   UNL A   1      44.739  29.893  30.783  1.00  0.00     0.049 A 
ATOM     50  H   UNL A   1      45.102  28.377  32.198  1.00  0.00     0.167 HD
ATOM     51  C   UNL A   1      44.814  27.945  29.235  1.00  0.00     0.074 A 
ATOM     52  C   UNL A   1      44.380  26.832  30.080  1.00  0.00     0.031 C 
ATOM     53  C   UNL A   1      45.010  29.269  29.506  1.00  0.00     0.034 A 
BRANCH  40  54
ATOM     54  C   UNL A   1      43.083  27.957  34.342  1.00  0.00     0.023 A 
ATOM     55  C   UNL A   1      43.428  28.343  35.659  1.00  0.00     0.012 A 
ATOM     56  C   UNL A   1      43.406  26.635  33.962  1.00  0.00     0.148 A 
ATOM     57  C   UNL A   1      44.126  27.490  36.521  1.00  0.00     0.002 A 
ATOM     58  C   UNL A   1      44.030  25.764  34.848  1.00  0.00     0.091 A 
ATOM     59  F   UNL A   1      43.238  26.238  32.699  1.00  0.00    -0.205 F 
ATOM     60  C   UNL A   1      44.425  26.196  36.116  1.00  0.00     0.022 A 
BRANCH  58  61
ATOM     61  S   UNL A   1      44.399  24.064  34.395  1.00  0.00     0.127 S 
ATOM     62  O   UNL A   1      45.142  23.605  35.566  1.00  0.00    -0.237 OA
ATOM     63  O   UNL A   1      43.058  23.496  34.249  1.00  0.00    -0.237 OA
ATOM     64  O   UNL A   1      45.151  24.145  33.150  1.00  0.00    -0.744 OA
ENDBRANCH  58  61
ENDBRANCH  40  54
BRANCH  41  65
ATOM     65  C   UNL A   1      42.556  24.950  26.388  1.00  0.00     0.023 A 
ATOM     66  C   UNL A   1      43.540  24.586  25.449  1.00  0.00     0.012 A 
ATOM     67  C   UNL A   1      41.619  23.968  26.785  1.00  0.00     0.148 A 
ATOM     68  C   UNL A   1      43.614  23.279  24.950  1.00  0.00     0.002 A 
ATOM     69  C   UNL A   1      41.690  22.674  26.280  1.00  0.00     0.091 A 
ATOM     70  F   UNL A   1      40.717  24.280  27.727  1.00  0.00    -0.205 F 
ATOM     71  C   UNL A   1      42.695  22.322  25.371  1.00  0.00     0.022 A 
BRANCH  69  72
ATOM     72  S   UNL A   1      40.556  21.376  26.795  1.00  0.00     0.127 S 
ATOM     73  O   UNL A   1      41.069  20.216  26.064  1.00  0.00    -0.237 OA
ATOM     74  O   UNL A   1      40.778  21.337  28.238  1.00  0.00    -0.237 OA
ATOM     75  O   UNL A   1      39.234  21.815  26.367  1.00  0.00    -0.744 OA
ENDBRANCH  69  72
ENDBRANCH  41  65
BRANCH  53  76
ATOM     76  C   UNL A   1      45.270  30.208  28.353  1.00  0.00     0.023 A 
ATOM     77  C   UNL A   1      44.229  30.842  27.642  1.00  0.00     0.012 A 
ATOM     78  C   UNL A   1      46.595  30.605  28.106  1.00  0.00     0.148 A 
ATOM     79  C   UNL A   1      44.504  31.831  26.693  1.00  0.00     0.002 A 
ATOM     80  C   UNL A   1      46.863  31.623  27.199  1.00  0.00     0.091 A 
ATOM     81  F   UNL A   1      47.576  29.998  28.792  1.00  0.00    -0.205 F 
ATOM     82  C   UNL A   1      45.821  32.232  26.482  1.00  0.00     0.022 A 
BRANCH  80  83
ATOM     83  S   UNL A   1      48.521  32.272  26.984  1.00  0.00     0.127 S 
ATOM     84  O   UNL A   1      49.259  31.087  26.553  1.00  0.00    -0.237 OA
ATOM     85  O   UNL A   1      48.331  33.286  25.945  1.00  0.00    -0.237 OA
ATOM     86  O   UNL A   1      48.909  32.816  28.280  1.00  0.00    -0.744 OA
ENDBRANCH  80  83
ENDBRANCH  53  76
ENDBRANCH  27  28
ENDBRANCH  19  22
ENDBRANCH  17  18
ENDBRANCH   1  17
TORSDOF 16
ENDMDL
MODEL 3
REMARK VINA RESULT:     -10.1      1.819      2.256
REMARK SMILES CCn1ccnc1[C@H](F)C(=O)NCCCCNC(=O)c1ccc(-c2c3nc(c(-c4cccc(S(=O)(=O)[O-])c4F)c4ccc([nH]4)c(-c4cccc(S(=O)(=O)[O-])c4F)c4nc(c(-c5cccc(S(=O)(=O)[O-])c5F)c5ccc2[nH]5)C=C4)C=C3)cc1
REMARK SMILES IDX 15 1 14 2 13 3 12 4 10 5 11 6 8 8 9 9 7 10 3 11 4 12 5 13
REMARK SMILES IDX 6 14 2 15 1 16 16 17 17 18 18 19 19 21 20 22 21 23 82 24
REMARK SMILES IDX 22 25 81 26 23 27 24 28 25 29 75 30 26 31 80 32 74 33 76 34
REMARK SMILES IDX 27 35 79 36 73 37 72 38 28 40 60 41 40 42 59 43 41 44 44 45
REMARK SMILES IDX 58 46 77 47 42 48 43 49 57 51 78 52 45 53 29 54 30 55 38 56
REMARK SMILES IDX 31 57 33 58 39 59 32 60 34 61 35 62 36 63 37 64 61 65 62 66
REMARK SMILES IDX 70 67 63 68 65 69 71 70 64 71 66 72 67 73 68 74 69 75 46 76
REMARK SMILES IDX 47 77 55 78 48 79 50 80 56 81 49 82 51 83 52 84 53 85 54 86
REMARK H PARENT 12 7 17 20 76 39 44 50
REMARK Flexibility Score: inf
ROOT
ATOM      1  C   UNL A   1      37.928  19.518  25.356  1.00  0.00     0.023 C 
ENDROOT
BRANCH   1   2
ATOM      2  C   UNL A   1      36.909  20.417  24.642  1.00  0.00     0.023 C 
BRANCH   2   3
ATOM      3  C   UNL A   1      35.664  20.812  25.443  1.00  0.00     0.116 C 
BRANCH   3   4
ATOM      4  N   UNL A   1      34.530  19.954  25.170  1.00  0.00    -0.353 N 
ATOM      5  C   UNL A   1      33.365  20.267  24.517  1.00  0.00     0.262 C 
ATOM      6  O   UNL A   1      32.519  19.371  24.422  1.00  0.00    -0.271 OA
ATOM      7  H   UNL A   1      34.605  19.027  25.492  1.00  0.00     0.163 HD
BRANCH   5   8
ATOM      8  C   UNL A   1      33.051  21.691  24.051  1.00  0.00     0.321 C 
ATOM      9  F   UNL A   1      32.201  21.692  22.971  1.00  0.00    -0.228 F 
BRANCH   8  10
ATOM     10  C   UNL A   1      32.505  22.579  25.132  1.00  0.00     0.153 A 
ATOM     11  N   UNL A   1      31.865  23.777  24.869  1.00  0.00    -0.332 N 
ATOM     12  C   UNL A   1      31.406  24.275  26.061  1.00  0.00     0.107 A 
ATOM     13  C   UNL A   1      31.840  23.391  27.015  1.00  0.00     0.131 A 
ATOM     14  N   UNL A   1      32.474  22.333  26.432  1.00  0.00    -0.238 NA
BRANCH  11  15
ATOM     15  C   UNL A   1      31.636  24.388  23.574  1.00  0.00     0.120 C 
ATOM     16  C   UNL A   1      30.505  25.408  23.564  1.00  0.00     0.027 C 
ENDBRANCH  11  15
ENDBRANCH   8  10
ENDBRANCH   5   8
ENDBRANCH   3   4
ENDBRANCH   2   3
ENDBRANCH   1   2
BRANCH   1  17
ATOM     17  C   UNL A   1      39.279  20.165  25.615  1.00  0.00     0.116 C 
BRANCH  17  18
ATOM     18  N   UNL A   1      40.371  19.196  25.740  1.00  0.00    -0.352 N 
ATOM     19  C   UNL A   1      41.715  19.453  25.968  1.00  0.00     0.251 C 
ATOM     20  H   UNL A   1      40.121  18.248  25.652  1.00  0.00     0.163 HD
ATOM     21  O   UNL A   1      42.571  18.632  25.689  1.00  0.00    -0.269 OA
BRANCH  19  22
ATOM     22  C   UNL A   1      42.082  20.751  26.567  1.00  0.00     0.039 A 
ATOM     23  C   UNL A   1      42.533  21.823  25.790  1.00  0.00     0.014 A 
ATOM     24  C   UNL A   1      41.913  20.889  27.940  1.00  0.00     0.014 A 
ATOM     25  C   UNL A   1      42.724  23.061  26.403  1.00  0.00     0.010 A 
ATOM     26  C   UNL A   1      41.919  22.138  28.498  1.00  0.00     0.010 A 
ATOM     27  C   UNL A   1      42.392  23.216  27.758  1.00  0.00    -0.014 A 
BRANCH  27  28
ATOM     28  C   UNL A   1      42.426  24.521  28.406  1.00  0.00     0.031 A 
ATOM     29  C   UNL A   1      41.225  25.368  28.172  1.00  0.00     0.074 A 
ATOM     30  C   UNL A   1      43.358  24.845  29.331  1.00  0.00     0.049 A 
ATOM     31  N   UNL A   1      41.165  26.475  27.509  1.00  0.00    -0.248 NA
ATOM     32  C   UNL A   1      39.911  24.860  28.596  1.00  0.00     0.031 C 
ATOM     33  C   UNL A   1      44.415  23.988  29.887  1.00  0.00     0.029 A 
ATOM     34  N   UNL A   1      43.452  25.964  30.101  1.00  0.00    -0.354 N 
ATOM     35  C   UNL A   1      39.856  26.930  27.650  1.00  0.00     0.074 A 
ATOM     36  C   UNL A   1      39.095  25.807  28.127  1.00  0.00     0.031 C 
ATOM     37  C   UNL A   1      44.836  24.497  31.064  1.00  0.00     0.029 A 
ATOM     38  C   UNL A   1      44.221  25.796  31.251  1.00  0.00     0.049 A 
ATOM     39  H   UNL A   1      43.016  26.815  29.866  1.00  0.00     0.167 HD
ATOM     40  C   UNL A   1      39.567  28.261  27.613  1.00  0.00     0.034 A 
ATOM     41  C   UNL A   1      44.308  26.644  32.304  1.00  0.00     0.034 A 
ATOM     42  C   UNL A   1      40.687  29.023  27.112  1.00  0.00     0.049 A 
ATOM     43  C   UNL A   1      43.871  27.974  31.821  1.00  0.00     0.074 A 
ATOM     44  C   UNL A   1      41.440  29.009  25.954  1.00  0.00     0.029 A 
ATOM     45  N   UNL A   1      41.434  29.710  28.040  1.00  0.00    -0.354 N 
ATOM     46  N   UNL A   1      44.532  28.668  30.939  1.00  0.00    -0.248 NA
ATOM     47  C   UNL A   1      42.471  28.332  31.981  1.00  0.00     0.031 C 
ATOM     48  C   UNL A   1      42.777  29.245  26.389  1.00  0.00     0.029 A 
ATOM     49  C   UNL A   1      42.752  29.468  27.768  1.00  0.00     0.049 A 
ATOM     50  H   UNL A   1      41.083  30.272  28.768  1.00  0.00     0.167 HD
ATOM     51  C   UNL A   1      43.548  29.191  30.111  1.00  0.00     0.074 A 
ATOM     52  C   UNL A   1      42.305  29.055  30.870  1.00  0.00     0.031 C 
ATOM     53  C   UNL A   1      43.783  29.400  28.781  1.00  0.00     0.034 A 
BRANCH  40  54
ATOM     54  C   UNL A   1      38.450  28.946  28.373  1.00  0.00     0.023 A 
ATOM     55  C   UNL A   1      37.584  29.780  27.626  1.00  0.00     0.012 A 
ATOM     56  C   UNL A   1      38.376  29.052  29.780  1.00  0.00     0.148 A 
ATOM     57  C   UNL A   1      36.753  30.722  28.240  1.00  0.00     0.002 A 
ATOM     58  C   UNL A   1      37.491  29.935  30.390  1.00  0.00     0.091 A 
ATOM     59  F   UNL A   1      39.250  28.402  30.551  1.00  0.00    -0.205 F 
ATOM     60  C   UNL A   1      36.703  30.798  29.625  1.00  0.00     0.022 A 
BRANCH  58  61
ATOM     61  S   UNL A   1      37.350  30.043  32.179  1.00  0.00     0.127 S 
ATOM     62  O   UNL A   1      37.131  28.645  32.539  1.00  0.00    -0.237 OA
ATOM     63  O   UNL A   1      38.658  30.583  32.549  1.00  0.00    -0.237 OA
ATOM     64  O   UNL A   1      36.238  30.952  32.429  1.00  0.00    -0.744 OA
ENDBRANCH  58  61
ENDBRANCH  40  54
BRANCH  41  65
ATOM     65  C   UNL A   1      44.541  26.359  33.738  1.00  0.00     0.023 A 
ATOM     66  C   UNL A   1      45.840  26.467  34.270  1.00  0.00     0.012 A 
ATOM     67  C   UNL A   1      43.459  26.252  34.643  1.00  0.00     0.148 A 
ATOM     68  C   UNL A   1      46.055  26.505  35.654  1.00  0.00     0.002 A 
ATOM     69  C   UNL A   1      43.677  26.282  36.017  1.00  0.00     0.091 A 
ATOM     70  F   UNL A   1      42.211  26.215  34.155  1.00  0.00    -0.205 F 
ATOM     71  C   UNL A   1      44.973  26.422  36.526  1.00  0.00     0.022 A 
BRANCH  69  72
ATOM     72  S   UNL A   1      42.330  26.204  37.207  1.00  0.00     0.127 S 
ATOM     73  O   UNL A   1      43.039  26.352  38.479  1.00  0.00    -0.237 OA
ATOM     74  O   UNL A   1      41.520  27.356  36.821  1.00  0.00    -0.237 OA
ATOM     75  O   UNL A   1      41.711  24.899  37.017  1.00  0.00    -0.744 OA
ENDBRANCH  69  72
ENDBRANCH  41  65
BRANCH  53  76
ATOM     76  C   UNL A   1      45.201  29.290  28.276  1.00  0.00     0.023 A 
ATOM     77  C   UNL A   1      45.733  28.088  27.766  1.00  0.00     0.012 A 
ATOM     78  C   UNL A   1      45.950  30.472  28.139  1.00  0.00     0.148 A 
ATOM     79  C   UNL A   1      46.990  28.060  27.152  1.00  0.00     0.002 A 
ATOM     80  C   UNL A   1      47.175  30.451  27.485  1.00  0.00     0.091 A 
ATOM     81  F   UNL A   1      45.430  31.611  28.624  1.00  0.00    -0.205 F 
ATOM     82  C   UNL A   1      47.704  29.245  27.000  1.00  0.00     0.022 A 
BRANCH  80  83
ATOM     83  S   UNL A   1      48.077  31.963  27.140  1.00  0.00     0.127 S 
ATOM     84  O   UNL A   1      48.299  32.499  28.481  1.00  0.00    -0.237 OA
ATOM     85  O   UNL A   1      49.282  31.466  26.473  1.00  0.00    -0.237 OA
ATOM     86  O   UNL A   1      47.210  32.759  26.281  1.00  0.00    -0.744 OA
ENDBRANCH  80  83
ENDBRANCH  53  76
ENDBRANCH  27  28
ENDBRANCH  19  22
ENDBRANCH  17  18
ENDBRANCH   1  17
TORSDOF 16
ENDMDL
