MODEL 1
REMARK VINA RESULT:     -10.8      0.000      0.000
REMARK SMILES CCNC(=O)c1ccc(N(CC(=O)NCCCCNC(=O)c2ccc(-c3c4nc(c(-c5cccc(S(=O)(=O)[O-])c5F)c5ccc([nH]5)c(-c5cccc(S(=O)(=O)[O-])c5F)c5nc(c(-c6cccc(S(=O)(=O)[O-])c6F)c6ccc3[nH]6)C=C5)C=C4)cc2)C(C)(C)C)nn1
REMARK SMILES IDX 16 1 15 2 14 3 12 4 13 5 11 7 10 8 9 9 6 10 7 11 90 12 8 13
REMARK SMILES IDX 89 14 4 15 3 16 5 18 2 19 1 20 85 21 86 22 87 23 88 24 17 25
REMARK SMILES IDX 18 26 19 27 20 28 21 30 22 31 23 32 84 33 24 34 83 35 25 36
REMARK SMILES IDX 26 37 27 38 77 39 28 40 82 41 76 42 78 43 29 44 81 45 75 46
REMARK SMILES IDX 74 47 30 49 62 50 42 51 61 52 43 53 46 54 60 55 79 56 44 57
REMARK SMILES IDX 45 58 59 60 80 61 47 62 31 63 32 64 40 65 33 66 35 67 41 68
REMARK SMILES IDX 34 69 36 70 37 71 38 72 39 73 63 74 64 75 72 76 65 77 67 78
REMARK SMILES IDX 73 79 66 80 68 81 69 82 70 83 71 84 48 85 49 86 57 87 50 88
REMARK SMILES IDX 52 89 58 90 51 91 53 92 54 93 55 94 56 95
REMARK H PARENT 14 6 3 17 19 29 78 48 46 59
REMARK Flexibility Score: inf
ROOT
ATOM      1  C   UNL A   1      36.947  21.723  24.687  1.00  0.00     0.023 C 
ENDROOT
BRANCH   1   2
ATOM      2  C   UNL A   1      37.035  22.818  25.745  1.00  0.00     0.116 C 
BRANCH   2   3
ATOM      3  N   UNL A   1      35.774  23.048  26.416  1.00  0.00    -0.355 N 
ATOM      4  C   UNL A   1      34.730  23.838  26.031  1.00  0.00     0.239 C 
ATOM      5  O   UNL A   1      33.673  23.731  26.661  1.00  0.00    -0.273 OA
ATOM      6  H   UNL A   1      35.654  22.570  27.268  1.00  0.00     0.163 HD
BRANCH   4   7
ATOM      7  C   UNL A   1      34.832  24.776  24.819  1.00  0.00     0.218 C 
BRANCH   7   8
ATOM      8  N   UNL A   1      33.532  25.099  24.157  1.00  0.00    -0.341 N 
BRANCH   8   9
ATOM      9  C   UNL A   1      33.053  26.386  24.425  1.00  0.00     0.152 A 
ATOM     10  C   UNL A   1      31.851  28.889  24.780  1.00  0.00     0.150 A 
ATOM     11  C   UNL A   1      33.140  28.823  24.298  1.00  0.00     0.040 A 
ATOM     12  N   UNL A   1      31.212  27.779  25.164  1.00  0.00    -0.143 NA
ATOM     13  C   UNL A   1      33.721  27.564  24.103  1.00  0.00     0.051 A 
ATOM     14  N   UNL A   1      31.836  26.545  24.997  1.00  0.00    -0.132 NA
BRANCH  10  15
ATOM     15  C   UNL A   1      31.102  30.166  24.878  1.00  0.00     0.271 C 
ATOM     16  N   UNL A   1      30.225  30.536  23.879  1.00  0.00    -0.351 N 
ATOM     17  H   UNL A   1      29.836  31.435  23.978  1.00  0.00     0.163 HD
ATOM     18  O   UNL A   1      31.260  30.910  25.842  1.00  0.00    -0.267 OA
BRANCH  16  19
ATOM     19  C   UNL A   1      29.787  29.801  22.703  1.00  0.00     0.113 C 
ATOM     20  C   UNL A   1      28.434  29.152  22.922  1.00  0.00     0.027 C 
ENDBRANCH  16  19
ENDBRANCH  10  15
ENDBRANCH   8   9
BRANCH   8  21
ATOM     21  C   UNL A   1      32.945  24.143  23.154  1.00  0.00     0.034 C 
ATOM     22  C   UNL A   1      31.838  23.282  23.796  1.00  0.00     0.034 C 
ATOM     23  C   UNL A   1      32.445  24.902  21.903  1.00  0.00     0.034 C 
ATOM     24  C   UNL A   1      33.965  23.118  22.594  1.00  0.00     0.034 C 
ENDBRANCH   8  21
ENDBRANCH   7   8
ENDBRANCH   4   7
ENDBRANCH   2   3
ENDBRANCH   1   2
BRANCH   1  25
ATOM     25  C   UNL A   1      37.786  20.479  24.991  1.00  0.00     0.023 C 
BRANCH  25  26
ATOM     26  C   UNL A   1      38.988  20.714  25.901  1.00  0.00     0.116 C 
BRANCH  26  27
ATOM     27  N   UNL A   1      39.890  19.570  25.952  1.00  0.00    -0.352 N 
ATOM     28  C   UNL A   1      41.252  19.550  26.133  1.00  0.00     0.251 C 
ATOM     29  H   UNL A   1      39.464  18.689  25.841  1.00  0.00     0.163 HD
ATOM     30  O   UNL A   1      41.877  18.502  25.992  1.00  0.00    -0.269 OA
BRANCH  28  31
ATOM     31  C   UNL A   1      41.961  20.804  26.463  1.00  0.00     0.039 A 
ATOM     32  C   UNL A   1      42.295  21.684  25.432  1.00  0.00     0.014 A 
ATOM     33  C   UNL A   1      42.255  21.125  27.791  1.00  0.00     0.014 A 
ATOM     34  C   UNL A   1      42.843  22.931  25.741  1.00  0.00     0.010 A 
ATOM     35  C   UNL A   1      42.741  22.390  28.101  1.00  0.00     0.010 A 
ATOM     36  C   UNL A   1      43.024  23.311  27.081  1.00  0.00    -0.014 A 
BRANCH  36  37
ATOM     37  C   UNL A   1      43.435  24.690  27.446  1.00  0.00     0.031 A 
ATOM     38  C   UNL A   1      42.439  25.666  28.001  1.00  0.00     0.074 A 
ATOM     39  C   UNL A   1      44.684  25.100  27.146  1.00  0.00     0.049 A 
ATOM     40  N   UNL A   1      42.597  26.932  28.287  1.00  0.00    -0.248 NA
ATOM     41  C   UNL A   1      41.077  25.160  28.239  1.00  0.00     0.031 C 
ATOM     42  C   UNL A   1      45.711  24.273  26.508  1.00  0.00     0.029 A 
ATOM     43  N   UNL A   1      45.285  26.325  27.291  1.00  0.00    -0.354 N 
ATOM     44  C   UNL A   1      41.353  27.384  28.706  1.00  0.00     0.074 A 
ATOM     45  C   UNL A   1      40.442  26.264  28.606  1.00  0.00     0.031 C 
ATOM     46  C   UNL A   1      46.808  25.019  26.300  1.00  0.00     0.029 A 
ATOM     47  C   UNL A   1      46.553  26.381  26.761  1.00  0.00     0.049 A 
ATOM     48  H   UNL A   1      44.851  27.091  27.731  1.00  0.00     0.167 HD
ATOM     49  C   UNL A   1      41.006  28.612  29.160  1.00  0.00     0.034 A 
ATOM     50  C   UNL A   1      47.410  27.413  26.636  1.00  0.00     0.034 A 
ATOM     51  C   UNL A   1      41.925  29.713  29.288  1.00  0.00     0.049 A 
ATOM     52  C   UNL A   1      47.019  28.758  27.179  1.00  0.00     0.074 A 
ATOM     53  C   UNL A   1      41.703  30.957  29.849  1.00  0.00     0.029 A 
ATOM     54  N   UNL A   1      43.234  29.709  28.829  1.00  0.00    -0.354 N 
ATOM     55  N   UNL A   1      45.898  29.116  27.758  1.00  0.00    -0.248 NA
ATOM     56  C   UNL A   1      48.017  29.832  27.083  1.00  0.00     0.031 C 
ATOM     57  C   UNL A   1      42.873  31.716  29.708  1.00  0.00     0.029 A 
ATOM     58  C   UNL A   1      43.827  30.937  29.072  1.00  0.00     0.049 A 
ATOM     59  H   UNL A   1      43.676  28.944  28.395  1.00  0.00     0.167 HD
ATOM     60  C   UNL A   1      46.059  30.452  28.106  1.00  0.00     0.074 A 
ATOM     61  C   UNL A   1      47.398  30.830  27.702  1.00  0.00     0.031 C 
ATOM     62  C   UNL A   1      45.170  31.294  28.691  1.00  0.00     0.034 A 
BRANCH  49  63
ATOM     63  C   UNL A   1      39.581  28.809  29.606  1.00  0.00     0.023 A 
ATOM     64  C   UNL A   1      39.204  28.419  30.908  1.00  0.00     0.012 A 
ATOM     65  C   UNL A   1      38.625  29.402  28.759  1.00  0.00     0.148 A 
ATOM     66  C   UNL A   1      37.890  28.576  31.345  1.00  0.00     0.002 A 
ATOM     67  C   UNL A   1      37.326  29.593  29.217  1.00  0.00     0.091 A 
ATOM     68  F   UNL A   1      38.992  29.743  27.516  1.00  0.00    -0.205 F 
ATOM     69  C   UNL A   1      36.953  29.169  30.504  1.00  0.00     0.022 A 
BRANCH  67  70
ATOM     70  S   UNL A   1      36.072  30.418  28.230  1.00  0.00     0.127 S 
ATOM     71  O   UNL A   1      35.916  29.489  27.112  1.00  0.00    -0.237 OA
ATOM     72  O   UNL A   1      34.932  30.464  29.148  1.00  0.00    -0.237 OA
ATOM     73  O   UNL A   1      36.628  31.722  27.896  1.00  0.00    -0.744 OA
ENDBRANCH  67  70
ENDBRANCH  49  63
BRANCH  50  74
ATOM     74  C   UNL A   1      48.741  27.181  26.009  1.00  0.00     0.023 A 
ATOM     75  C   UNL A   1      49.763  26.571  26.759  1.00  0.00     0.012 A 
ATOM     76  C   UNL A   1      48.969  27.485  24.652  1.00  0.00     0.148 A 
ATOM     77  C   UNL A   1      50.995  26.278  26.172  1.00  0.00     0.002 A 
ATOM     78  C   UNL A   1      50.177  27.139  24.059  1.00  0.00     0.091 A 
ATOM     79  F   UNL A   1      47.984  28.075  23.959  1.00  0.00    -0.205 F 
ATOM     80  C   UNL A   1      51.197  26.548  24.821  1.00  0.00     0.022 A 
BRANCH  78  81
ATOM     81  S   UNL A   1      50.471  27.310  22.294  1.00  0.00     0.127 S 
ATOM     82  O   UNL A   1      51.834  26.801  22.168  1.00  0.00    -0.237 OA
ATOM     83  O   UNL A   1      49.434  26.444  21.731  1.00  0.00    -0.237 OA
ATOM     84  O   UNL A   1      50.294  28.725  22.001  1.00  0.00    -0.744 OA
ENDBRANCH  78  81
ENDBRANCH  50  74
BRANCH  62  85
ATOM     85  C   UNL A   1      45.608  32.717  28.923  1.00  0.00     0.023 A 
ATOM     86  C   UNL A   1      46.330  33.036  30.090  1.00  0.00     0.012 A 
ATOM     87  C   UNL A   1      45.379  33.715  27.956  1.00  0.00     0.148 A 
ATOM     88  C   UNL A   1      46.796  34.332  30.304  1.00  0.00     0.002 A 
ATOM     89  C   UNL A   1      45.885  34.994  28.155  1.00  0.00     0.091 A 
ATOM     90  F   UNL A   1      44.675  33.395  26.861  1.00  0.00    -0.205 F 
ATOM     91  C   UNL A   1      46.585  35.308  29.332  1.00  0.00     0.022 A 
BRANCH  89  92
ATOM     92  S   UNL A   1      45.739  36.294  26.922  1.00  0.00     0.127 S 
ATOM     93  O   UNL A   1      44.288  36.449  26.824  1.00  0.00    -0.237 OA
ATOM     94  O   UNL A   1      46.429  37.412  27.566  1.00  0.00    -0.237 OA
ATOM     95  O   UNL A   1      46.395  35.788  25.725  1.00  0.00    -0.744 OA
ENDBRANCH  89  92
ENDBRANCH  62  85
ENDBRANCH  36  37
ENDBRANCH  28  31
ENDBRANCH  26  27
ENDBRANCH  25  26
ENDBRANCH   1  25
TORSDOF 19
ENDMDL
MODEL 2
REMARK VINA RESULT:     -10.7      6.288     11.116
REMARK SMILES CCNC(=O)c1ccc(N(CC(=O)NCCCCNC(=O)c2ccc(-c3c4nc(c(-c5cccc(S(=O)(=O)[O-])c5F)c5ccc([nH]5)c(-c5cccc(S(=O)(=O)[O-])c5F)c5nc(c(-c6cccc(S(=O)(=O)[O-])c6F)c6ccc3[nH]6)C=C5)C=C4)cc2)C(C)(C)C)nn1
REMARK SMILES IDX 16 1 15 2 14 3 12 4 13 5 11 7 10 8 9 9 6 10 7 11 90 12 8 13
REMARK SMILES IDX 89 14 4 15 3 16 5 18 2 19 1 20 85 21 86 22 87 23 88 24 17 25
REMARK SMILES IDX 18 26 19 27 20 28 21 30 22 31 23 32 84 33 24 34 83 35 25 36
REMARK SMILES IDX 26 37 27 38 77 39 28 40 82 41 76 42 78 43 29 44 81 45 75 46
REMARK SMILES IDX 74 47 30 49 62 50 42 51 61 52 43 53 46 54 60 55 79 56 44 57
REMARK SMILES IDX 45 58 59 60 80 61 47 62 31 63 32 64 40 65 33 66 35 67 41 68
REMARK SMILES IDX 34 69 36 70 37 71 38 72 39 73 63 74 64 75 72 76 65 77 67 78
REMARK SMILES IDX 73 79 66 80 68 81 69 82 70 83 71 84 48 85 49 86 57 87 50 88
REMARK SMILES IDX 52 89 58 90 51 91 53 92 54 93 55 94 56 95
REMARK H PARENT 14 6 3 17 19 29 78 48 46 59
REMARK Flexibility Score: inf
ROOT
ATOM      1  C   UNL A   1      32.425  29.178  27.199  1.00  0.00     0.023 C 
ENDROOT
BRANCH   1   2
ATOM      2  C   UNL A   1      31.420  28.194  26.607  1.00  0.00     0.116 C 
BRANCH   2   3
ATOM      3  N   UNL A   1      31.662  26.831  27.026  1.00  0.00    -0.355 N 
ATOM      4  C   UNL A   1      31.202  25.671  26.475  1.00  0.00     0.239 C 
ATOM      5  O   UNL A   1      31.694  24.612  26.880  1.00  0.00    -0.273 OA
ATOM      6  H   UNL A   1      32.235  26.726  27.820  1.00  0.00     0.163 HD
BRANCH   4   7
ATOM      7  C   UNL A   1      30.163  25.671  25.343  1.00  0.00     0.218 C 
BRANCH   7   8
ATOM      8  N   UNL A   1      30.695  26.040  23.996  1.00  0.00    -0.341 N 
BRANCH   8   9
ATOM      9  C   UNL A   1      30.197  27.247  23.492  1.00  0.00     0.152 A 
ATOM     10  C   UNL A   1      29.041  29.488  22.276  1.00  0.00     0.150 A 
ATOM     11  C   UNL A   1      30.413  29.405  22.369  1.00  0.00     0.040 A 
ATOM     12  N   UNL A   1      28.264  28.557  22.841  1.00  0.00    -0.143 NA
ATOM     13  C   UNL A   1      30.979  28.267  22.959  1.00  0.00     0.051 A 
ATOM     14  N   UNL A   1      28.860  27.460  23.458  1.00  0.00    -0.132 NA
BRANCH  10  15
ATOM     15  C   UNL A   1      28.359  30.578  21.538  1.00  0.00     0.271 C 
ATOM     16  N   UNL A   1      28.225  31.828  22.108  1.00  0.00    -0.351 N 
ATOM     17  H   UNL A   1      27.685  32.467  21.589  1.00  0.00     0.163 HD
ATOM     18  O   UNL A   1      27.898  30.380  20.416  1.00  0.00    -0.267 OA
BRANCH  16  19
ATOM     19  C   UNL A   1      28.761  32.345  23.357  1.00  0.00     0.113 C 
ATOM     20  C   UNL A   1      29.108  33.817  23.249  1.00  0.00     0.027 C 
ENDBRANCH  16  19
ENDBRANCH  10  15
ENDBRANCH   8   9
BRANCH   8  21
ATOM     21  C   UNL A   1      31.807  25.233  23.382  1.00  0.00     0.034 C 
ATOM     22  C   UNL A   1      33.176  25.664  23.946  1.00  0.00     0.034 C 
ATOM     23  C   UNL A   1      31.548  23.719  23.564  1.00  0.00     0.034 C 
ATOM     24  C   UNL A   1      31.939  25.414  21.847  1.00  0.00     0.034 C 
ENDBRANCH   8  21
ENDBRANCH   7   8
ENDBRANCH   4   7
ENDBRANCH   2   3
ENDBRANCH   1   2
BRANCH   1  25
ATOM     25  C   UNL A   1      32.111  30.650  26.919  1.00  0.00     0.023 C 
BRANCH  25  26
ATOM     26  C   UNL A   1      33.251  31.622  27.212  1.00  0.00     0.116 C 
BRANCH  26  27
ATOM     27  N   UNL A   1      32.788  32.985  27.437  1.00  0.00    -0.352 N 
ATOM     28  C   UNL A   1      33.218  33.903  28.364  1.00  0.00     0.251 C 
ATOM     29  H   UNL A   1      32.064  33.290  26.842  1.00  0.00     0.163 HD
ATOM     30  O   UNL A   1      32.606  34.957  28.518  1.00  0.00    -0.269 OA
BRANCH  28  31
ATOM     31  C   UNL A   1      34.400  33.598  29.196  1.00  0.00     0.039 A 
ATOM     32  C   UNL A   1      34.238  32.814  30.341  1.00  0.00     0.014 A 
ATOM     33  C   UNL A   1      35.668  34.049  28.821  1.00  0.00     0.014 A 
ATOM     34  C   UNL A   1      35.363  32.406  31.062  1.00  0.00     0.010 A 
ATOM     35  C   UNL A   1      36.790  33.590  29.502  1.00  0.00     0.010 A 
ATOM     36  C   UNL A   1      36.650  32.751  30.618  1.00  0.00    -0.014 A 
BRANCH  36  37
ATOM     37  C   UNL A   1      37.866  32.187  31.257  1.00  0.00     0.031 A 
ATOM     38  C   UNL A   1      38.594  31.034  30.632  1.00  0.00     0.074 A 
ATOM     39  C   UNL A   1      38.231  32.634  32.475  1.00  0.00     0.049 A 
ATOM     40  N   UNL A   1      39.614  30.357  31.093  1.00  0.00    -0.248 NA
ATOM     41  C   UNL A   1      38.095  30.559  29.331  1.00  0.00     0.031 C 
ATOM     42  C   UNL A   1      37.537  33.680  33.230  1.00  0.00     0.029 A 
ATOM     43  N   UNL A   1      39.241  32.232  33.312  1.00  0.00    -0.354 N 
ATOM     44  C   UNL A   1      39.859  29.357  30.159  1.00  0.00     0.074 A 
ATOM     45  C   UNL A   1      38.859  29.497  29.121  1.00  0.00     0.031 C 
ATOM     46  C   UNL A   1      38.131  33.824  34.425  1.00  0.00     0.029 A 
ATOM     47  C   UNL A   1      39.225  32.864  34.534  1.00  0.00     0.049 A 
ATOM     48  H   UNL A   1      39.912  31.557  33.063  1.00  0.00     0.167 HD
ATOM     49  C   UNL A   1      40.842  28.426  30.153  1.00  0.00     0.034 A 
ATOM     50  C   UNL A   1      39.987  32.680  35.629  1.00  0.00     0.034 A 
ATOM     51  C   UNL A   1      41.852  28.314  31.172  1.00  0.00     0.049 A 
ATOM     52  C   UNL A   1      41.096  31.666  35.587  1.00  0.00     0.074 A 
ATOM     53  C   UNL A   1      42.961  27.487  31.197  1.00  0.00     0.029 A 
ATOM     54  N   UNL A   1      41.865  29.035  32.356  1.00  0.00    -0.354 N 
ATOM     55  N   UNL A   1      41.438  30.863  34.609  1.00  0.00    -0.248 NA
ATOM     56  C   UNL A   1      41.944  31.555  36.782  1.00  0.00     0.031 C 
ATOM     57  C   UNL A   1      43.632  27.691  32.409  1.00  0.00     0.029 A 
ATOM     58  C   UNL A   1      42.949  28.657  33.132  1.00  0.00     0.049 A 
ATOM     59  H   UNL A   1      41.201  29.717  32.608  1.00  0.00     0.167 HD
ATOM     60  C   UNL A   1      42.547  30.158  35.064  1.00  0.00     0.074 A 
ATOM     61  C   UNL A   1      42.838  30.654  36.394  1.00  0.00     0.031 C 
ATOM     62  C   UNL A   1      43.247  29.177  34.442  1.00  0.00     0.034 A 
BRANCH  49  63
ATOM     63  C   UNL A   1      40.903  27.492  28.973  1.00  0.00     0.023 A 
ATOM     64  C   UNL A   1      40.022  26.392  28.915  1.00  0.00     0.012 A 
ATOM     65  C   UNL A   1      41.802  27.712  27.912  1.00  0.00     0.148 A 
ATOM     66  C   UNL A   1      40.063  25.502  27.843  1.00  0.00     0.002 A 
ATOM     67  C   UNL A   1      41.809  26.844  26.826  1.00  0.00     0.091 A 
ATOM     68  F   UNL A   1      42.651  28.746  27.994  1.00  0.00    -0.205 F 
ATOM     69  C   UNL A   1      40.950  25.732  26.795  1.00  0.00     0.022 A 
BRANCH  67  70
ATOM     70  S   UNL A   1      42.865  27.104  25.396  1.00  0.00     0.127 S 
ATOM     71  O   UNL A   1      44.170  27.305  26.023  1.00  0.00    -0.237 OA
ATOM     72  O   UNL A   1      42.727  25.839  24.671  1.00  0.00    -0.237 OA
ATOM     73  O   UNL A   1      42.311  28.258  24.701  1.00  0.00    -0.744 OA
ENDBRANCH  67  70
ENDBRANCH  49  63
BRANCH  50  74
ATOM     74  C   UNL A   1      39.744  33.519  36.835  1.00  0.00     0.023 A 
ATOM     75  C   UNL A   1      40.157  34.865  36.837  1.00  0.00     0.012 A 
ATOM     76  C   UNL A   1      39.031  33.016  37.941  1.00  0.00     0.148 A 
ATOM     77  C   UNL A   1      39.876  35.691  37.926  1.00  0.00     0.002 A 
ATOM     78  C   UNL A   1      38.705  33.859  38.996  1.00  0.00     0.091 A 
ATOM     79  F   UNL A   1      38.655  31.729  37.921  1.00  0.00    -0.205 F 
ATOM     80  C   UNL A   1      39.139  35.194  38.997  1.00  0.00     0.022 A 
BRANCH  78  81
ATOM     81  S   UNL A   1      37.632  33.349  40.345  1.00  0.00     0.127 S 
ATOM     82  O   UNL A   1      36.421  32.952  39.629  1.00  0.00    -0.237 OA
ATOM     83  O   UNL A   1      38.391  32.244  40.932  1.00  0.00    -0.237 OA
ATOM     84  O   UNL A   1      37.504  34.514  41.209  1.00  0.00    -0.744 OA
ENDBRANCH  78  81
ENDBRANCH  50  74
BRANCH  62  85
ATOM     85  C   UNL A   1      44.396  28.559  35.195  1.00  0.00     0.023 A 
ATOM     86  C   UNL A   1      45.709  29.000  34.935  1.00  0.00     0.012 A 
ATOM     87  C   UNL A   1      44.175  27.609  36.211  1.00  0.00     0.148 A 
ATOM     88  C   UNL A   1      46.787  28.485  35.655  1.00  0.00     0.002 A 
ATOM     89  C   UNL A   1      45.248  27.134  36.955  1.00  0.00     0.091 A 
ATOM     90  F   UNL A   1      42.920  27.190  36.431  1.00  0.00    -0.205 F 
ATOM     91  C   UNL A   1      46.555  27.563  36.673  1.00  0.00     0.022 A 
BRANCH  89  92
ATOM     92  S   UNL A   1      45.040  26.010  38.343  1.00  0.00     0.127 S 
ATOM     93  O   UNL A   1      44.859  24.728  37.663  1.00  0.00    -0.237 OA
ATOM     94  O   UNL A   1      46.313  26.151  39.050  1.00  0.00    -0.237 OA
ATOM     95  O   UNL A   1      43.882  26.494  39.081  1.00  0.00    -0.744 OA
ENDBRANCH  89  92
ENDBRANCH  62  85
ENDBRANCH  36  37
ENDBRANCH  28  31
ENDBRANCH  26  27
ENDBRANCH  25  26
ENDBRANCH   1  25
TORSDOF 19
ENDMDL
MODEL 3
REMARK VINA RESULT:     -10.6      5.617     10.863
REMARK SMILES CCNC(=O)c1ccc(N(CC(=O)NCCCCNC(=O)c2ccc(-c3c4nc(c(-c5cccc(S(=O)(=O)[O-])c5F)c5ccc([nH]5)c(-c5cccc(S(=O)(=O)[O-])c5F)c5nc(c(-c6cccc(S(=O)(=O)[O-])c6F)c6ccc3[nH]6)C=C5)C=C4)cc2)C(C)(C)C)nn1
REMARK SMILES IDX 16 1 15 2 14 3 12 4 13 5 11 7 10 8 9 9 6 10 7 11 90 12 8 13
REMARK SMILES IDX 89 14 4 15 3 16 5 18 2 19 1 20 85 21 86 22 87 23 88 24 17 25
REMARK SMILES IDX 18 26 19 27 20 28 21 30 22 31 23 32 84 33 24 34 83 35 25 36
REMARK SMILES IDX 26 37 27 38 77 39 28 40 82 41 76 42 78 43 29 44 81 45 75 46
REMARK SMILES IDX 74 47 30 49 62 50 42 51 61 52 43 53 46 54 60 55 79 56 44 57
REMARK SMILES IDX 45 58 59 60 80 61 47 62 31 63 32 64 40 65 33 66 35 67 41 68
REMARK SMILES IDX 34 69 36 70 37 71 38 72 39 73 63 74 64 75 72 76 65 77 67 78
REMARK SMILES IDX 73 79 66 80 68 81 69 82 70 83 71 84 48 85 49 86 57 87 50 88
REMARK SMILES IDX 52 89 58 90 51 91 53 92 54 93 55 94 56 95
REMARK H PARENT 14 6 3 17 19 29 78 48 46 59
REMARK Flexibility Score: inf
ROOT
ATOM      1  C   UNL A   1      32.248  27.535  26.967  1.00  0.00     0.023 C 
ENDROOT
BRANCH   1   2
ATOM      2  C   UNL A   1      31.280  26.607  26.239  1.00  0.00     0.116 C 
BRANCH   2   3
ATOM      3  N   UNL A   1      31.133  25.327  26.897  1.00  0.00    -0.355 N 
ATOM      4  C   UNL A   1      31.272  24.075  26.374  1.00  0.00     0.239 C 
ATOM      5  O   UNL A   1      31.293  23.126  27.166  1.00  0.00    -0.273 OA
ATOM      6  H   UNL A   1      30.898  25.366  27.852  1.00  0.00     0.163 HD
BRANCH   4   7
ATOM      7  C   UNL A   1      31.466  23.845  24.868  1.00  0.00     0.218 C 
BRANCH   7   8
ATOM      8  N   UNL A   1      32.827  23.374  24.469  1.00  0.00    -0.341 N 
BRANCH   8   9
ATOM      9  C   UNL A   1      32.876  22.035  24.063  1.00  0.00     0.152 A 
ATOM     10  C   UNL A   1      32.660  19.369  23.238  1.00  0.00     0.150 A 
ATOM     11  C   UNL A   1      33.337  19.661  24.402  1.00  0.00     0.040 A 
ATOM     12  N   UNL A   1      32.191  20.350  22.461  1.00  0.00    -0.143 NA
ATOM     13  C   UNL A   1      33.418  20.997  24.815  1.00  0.00     0.051 A 
ATOM     14  N   UNL A   1      32.326  21.672  22.880  1.00  0.00    -0.132 NA
BRANCH  10  15
ATOM     15  C   UNL A   1      32.395  17.977  22.801  1.00  0.00     0.271 C 
ATOM     16  N   UNL A   1      32.766  16.913  23.598  1.00  0.00    -0.351 N 
ATOM     17  H   UNL A   1      32.633  16.025  23.196  1.00  0.00     0.163 HD
ATOM     18  O   UNL A   1      31.850  17.754  21.722  1.00  0.00    -0.267 OA
BRANCH  16  19
ATOM     19  C   UNL A   1      33.322  16.905  24.942  1.00  0.00     0.113 C 
ATOM     20  C   UNL A   1      32.608  15.909  25.836  1.00  0.00     0.027 C 
ENDBRANCH  16  19
ENDBRANCH  10  15
ENDBRANCH   8   9
BRANCH   8  21
ATOM     21  C   UNL A   1      33.959  24.359  24.359  1.00  0.00     0.034 C 
ATOM     22  C   UNL A   1      35.152  23.745  23.597  1.00  0.00     0.034 C 
ATOM     23  C   UNL A   1      33.473  25.680  23.720  1.00  0.00     0.034 C 
ATOM     24  C   UNL A   1      34.548  24.793  25.727  1.00  0.00     0.034 C 
ENDBRANCH   8  21
ENDBRANCH   7   8
ENDBRANCH   4   7
ENDBRANCH   2   3
ENDBRANCH   1   2
BRANCH   1  25
ATOM     25  C   UNL A   1      31.807  29.000  27.017  1.00  0.00     0.023 C 
BRANCH  25  26
ATOM     26  C   UNL A   1      32.755  29.985  26.338  1.00  0.00     0.116 C 
BRANCH  26  27
ATOM     27  N   UNL A   1      32.522  31.365  26.745  1.00  0.00    -0.352 N 
ATOM     28  C   UNL A   1      33.312  32.186  27.512  1.00  0.00     0.251 C 
ATOM     29  H   UNL A   1      31.679  31.764  26.426  1.00  0.00     0.163 HD
ATOM     30  O   UNL A   1      32.887  33.275  27.890  1.00  0.00    -0.269 OA
BRANCH  28  31
ATOM     31  C   UNL A   1      34.663  31.735  27.906  1.00  0.00     0.039 A 
ATOM     32  C   UNL A   1      35.707  32.663  27.930  1.00  0.00     0.014 A 
ATOM     33  C   UNL A   1      34.886  30.410  28.292  1.00  0.00     0.014 A 
ATOM     34  C   UNL A   1      36.955  32.283  28.428  1.00  0.00     0.010 A 
ATOM     35  C   UNL A   1      36.109  30.052  28.846  1.00  0.00     0.010 A 
ATOM     36  C   UNL A   1      37.150  30.988  28.935  1.00  0.00    -0.014 A 
BRANCH  36  37
ATOM     37  C   UNL A   1      38.406  30.610  29.631  1.00  0.00     0.031 A 
ATOM     38  C   UNL A   1      39.330  29.585  29.043  1.00  0.00     0.074 A 
ATOM     39  C   UNL A   1      38.641  31.100  30.865  1.00  0.00     0.049 A 
ATOM     40  N   UNL A   1      40.418  29.068  29.553  1.00  0.00    -0.248 NA
ATOM     41  C   UNL A   1      38.970  29.049  27.720  1.00  0.00     0.031 C 
ATOM     42  C   UNL A   1      37.761  32.024  31.586  1.00  0.00     0.029 A 
ATOM     43  N   UNL A   1      39.660  30.851  31.750  1.00  0.00    -0.354 N 
ATOM     44  C   UNL A   1      40.855  28.123  28.633  1.00  0.00     0.074 A 
ATOM     45  C   UNL A   1      39.897  28.117  27.548  1.00  0.00     0.031 C 
ATOM     46  C   UNL A   1      38.269  32.249  32.808  1.00  0.00     0.029 A 
ATOM     47  C   UNL A   1      39.490  31.465  32.969  1.00  0.00     0.049 A 
ATOM     48  H   UNL A   1      40.436  30.287  31.534  1.00  0.00     0.167 HD
ATOM     49  C   UNL A   1      41.968  27.352  28.674  1.00  0.00     0.034 A 
ATOM     50  C   UNL A   1      40.219  31.392  34.100  1.00  0.00     0.034 A 
ATOM     51  C   UNL A   1      42.934  27.388  29.740  1.00  0.00     0.049 A 
ATOM     52  C   UNL A   1      41.470  30.559  34.111  1.00  0.00     0.074 A 
ATOM     53  C   UNL A   1      44.153  26.739  29.819  1.00  0.00     0.029 A 
ATOM     54  N   UNL A   1      42.781  28.095  30.923  1.00  0.00    -0.354 N 
ATOM     55  N   UNL A   1      41.975  29.823  33.152  1.00  0.00    -0.248 NA
ATOM     56  C   UNL A   1      42.267  30.570  35.345  1.00  0.00     0.031 C 
ATOM     57  C   UNL A   1      44.727  27.035  31.061  1.00  0.00     0.029 A 
ATOM     58  C   UNL A   1      43.872  27.882  31.750  1.00  0.00     0.049 A 
ATOM     59  H   UNL A   1      42.010  28.667  31.143  1.00  0.00     0.167 HD
ATOM     60  C   UNL A   1      43.156  29.292  33.659  1.00  0.00     0.074 A 
ATOM     61  C   UNL A   1      43.305  29.818  35.001  1.00  0.00     0.031 C 
ATOM     62  C   UNL A   1      44.026  28.432  33.072  1.00  0.00     0.034 A 
BRANCH  49  63
ATOM     63  C   UNL A   1      42.226  26.446  27.499  1.00  0.00     0.023 A 
ATOM     64  C   UNL A   1      42.866  26.964  26.353  1.00  0.00     0.012 A 
ATOM     65  C   UNL A   1      41.868  25.084  27.533  1.00  0.00     0.148 A 
ATOM     66  C   UNL A   1      43.106  26.153  25.245  1.00  0.00     0.002 A 
ATOM     67  C   UNL A   1      42.149  24.273  26.440  1.00  0.00     0.091 A 
ATOM     68  F   UNL A   1      41.238  24.613  28.618  1.00  0.00    -0.205 F 
ATOM     69  C   UNL A   1      42.756  24.807  25.291  1.00  0.00     0.022 A 
BRANCH  67  70
ATOM     70  S   UNL A   1      41.802  22.510  26.439  1.00  0.00     0.127 S 
ATOM     71  O   UNL A   1      40.348  22.494  26.287  1.00  0.00    -0.237 OA
ATOM     72  O   UNL A   1      42.541  22.046  25.264  1.00  0.00    -0.237 OA
ATOM     73  O   UNL A   1      42.312  22.007  27.707  1.00  0.00    -0.744 OA
ENDBRANCH  67  70
ENDBRANCH  49  63
BRANCH  50  74
ATOM     74  C   UNL A   1      39.794  32.177  35.291  1.00  0.00     0.023 A 
ATOM     75  C   UNL A   1      40.141  33.538  35.384  1.00  0.00     0.012 A 
ATOM     76  C   UNL A   1      38.978  31.604  36.287  1.00  0.00     0.148 A 
ATOM     77  C   UNL A   1      39.693  34.313  36.455  1.00  0.00     0.002 A 
ATOM     78  C   UNL A   1      38.489  32.395  37.320  1.00  0.00     0.091 A 
ATOM     79  F   UNL A   1      38.668  30.304  36.184  1.00  0.00    -0.205 F 
ATOM     80  C   UNL A   1      38.857  33.747  37.414  1.00  0.00     0.022 A 
BRANCH  78  81
ATOM     81  S   UNL A   1      37.287  31.792  38.513  1.00  0.00     0.127 S 
ATOM     82  O   UNL A   1      37.090  30.415  38.067  1.00  0.00    -0.237 OA
ATOM     83  O   UNL A   1      38.018  31.934  39.773  1.00  0.00    -0.237 OA
ATOM     84  O   UNL A   1      36.133  32.670  38.388  1.00  0.00    -0.744 OA
ENDBRANCH  78  81
ENDBRANCH  50  74
BRANCH  62  85
ATOM     85  C   UNL A   1      45.219  27.991  33.880  1.00  0.00     0.023 A 
ATOM     86  C   UNL A   1      46.395  28.767  33.854  1.00  0.00     0.012 A 
ATOM     87  C   UNL A   1      45.151  26.864  34.722  1.00  0.00     0.148 A 
ATOM     88  C   UNL A   1      47.495  28.413  34.634  1.00  0.00     0.002 A 
ATOM     89  C   UNL A   1      46.236  26.544  35.530  1.00  0.00     0.091 A 
ATOM     90  F   UNL A   1      44.030  26.130  34.719  1.00  0.00    -0.205 F 
ATOM     91  C   UNL A   1      47.412  27.310  35.481  1.00  0.00     0.022 A 
BRANCH  89  92
ATOM     92  S   UNL A   1      46.191  25.194  36.716  1.00  0.00     0.127 S 
ATOM     93  O   UNL A   1      47.589  24.762  36.728  1.00  0.00    -0.237 OA
ATOM     94  O   UNL A   1      45.751  25.868  37.938  1.00  0.00    -0.237 OA
ATOM     95  O   UNL A   1      45.243  24.224  36.185  1.00  0.00    -0.744 OA
ENDBRANCH  89  92
ENDBRANCH  62  85
ENDBRANCH  36  37
ENDBRANCH  28  31
ENDBRANCH  26  27
ENDBRANCH  25  26
ENDBRANCH   1  25
TORSDOF 19
ENDMDL
