MODEL 1
REMARK VINA RESULT:     -12.1      0.000      0.000
REMARK SMILES O=C(NCCCCNC(=O)c1cc(SCC(=O)N2CCOCC2)ccn1)c1ccc(-c2c3nc(c(-c4cccc(S(=O)(=O)[O-])c4F)c4ccc([nH]4)c(-c4cccc(S(=O)(=O)[O-])c4F)c4nc(c(-c5cccc(S(=O)(=O)[O-])c5F)c5ccc2[nH]5)C=C4)C=C3)cc1
REMARK SMILES IDX 5 1 4 2 3 3 1 4 2 5 27 7 28 8 89 9 29 10 88 11 30 12 31 13
REMARK SMILES IDX 32 14 82 15 33 16 87 17 81 18 83 19 34 20 86 21 80 22 79 23
REMARK SMILES IDX 35 25 67 26 47 27 66 28 48 29 51 30 65 31 84 32 49 33 50 34
REMARK SMILES IDX 64 36 85 37 52 38 36 39 37 40 45 41 38 42 40 43 46 44 39 45
REMARK SMILES IDX 41 46 42 47 43 48 44 49 68 50 69 51 77 52 70 53 72 54 78 55
REMARK SMILES IDX 71 56 73 57 74 58 75 59 76 60 53 61 54 62 62 63 55 64 57 65
REMARK SMILES IDX 63 66 56 67 58 68 59 69 60 70 61 71 6 72 7 73 8 74 9 75
REMARK SMILES IDX 10 77 11 78 12 79 26 80 13 81 25 82 24 83 14 84 15 85 16 86
REMARK SMILES IDX 17 87 18 88 19 89 23 90 20 91 22 92 21 93
REMARK H PARENT 3 6 83 24 51 35 8 76
REMARK Flexibility Score: inf
ROOT
ATOM      1  C   UNL A   1      31.500  29.220  25.031  1.00  0.00     0.023 C 
ENDROOT
BRANCH   1   2
ATOM      2  C   UNL A   1      32.596  29.835  25.893  1.00  0.00     0.116 C 
BRANCH   2   3
ATOM      3  N   UNL A   1      32.267  31.164  26.389  1.00  0.00    -0.352 N 
ATOM      4  O   UNL A   1      32.502  33.050  27.600  1.00  0.00    -0.269 OA
ATOM      5  C   UNL A   1      32.990  31.991  27.218  1.00  0.00     0.251 C 
ATOM      6  H   UNL A   1      31.402  31.522  26.087  1.00  0.00     0.163 HD
BRANCH   5   7
ATOM      7  C   UNL A   1      34.337  31.569  27.670  1.00  0.00     0.039 A 
ATOM      8  C   UNL A   1      34.585  30.233  27.992  1.00  0.00     0.014 A 
ATOM      9  C   UNL A   1      35.341  32.526  27.828  1.00  0.00     0.014 A 
ATOM     10  C   UNL A   1      35.763  29.893  28.648  1.00  0.00     0.010 A 
ATOM     11  C   UNL A   1      36.562  32.161  28.408  1.00  0.00     0.010 A 
ATOM     12  C   UNL A   1      36.761  30.854  28.879  1.00  0.00    -0.014 A 
BRANCH  12  13
ATOM     13  C   UNL A   1      37.994  30.456  29.611  1.00  0.00     0.031 A 
ATOM     14  C   UNL A   1      38.229  30.877  31.040  1.00  0.00     0.074 A 
ATOM     15  C   UNL A   1      38.891  29.662  28.993  1.00  0.00     0.049 A 
ATOM     16  N   UNL A   1      39.197  30.527  31.849  1.00  0.00    -0.248 NA
ATOM     17  C   UNL A   1      37.264  31.814  31.637  1.00  0.00     0.031 C 
ATOM     18  C   UNL A   1      38.805  29.225  27.598  1.00  0.00     0.029 A 
ATOM     19  N   UNL A   1      40.036  29.066  29.458  1.00  0.00    -0.354 N 
ATOM     20  C   UNL A   1      38.987  31.232  33.029  1.00  0.00     0.074 A 
ATOM     21  C   UNL A   1      37.800  32.035  32.831  1.00  0.00     0.031 C 
ATOM     22  C   UNL A   1      39.823  28.393  27.335  1.00  0.00     0.029 A 
ATOM     23  C   UNL A   1      40.654  28.263  28.528  1.00  0.00     0.049 A 
ATOM     24  H   UNL A   1      40.382  29.199  30.370  1.00  0.00     0.167 HD
ATOM     25  C   UNL A   1      39.701  31.196  34.180  1.00  0.00     0.034 A 
ATOM     26  C   UNL A   1      41.757  27.496  28.624  1.00  0.00     0.034 A 
ATOM     27  C   UNL A   1      40.841  30.347  34.403  1.00  0.00     0.049 A 
ATOM     28  C   UNL A   1      42.484  27.418  29.937  1.00  0.00     0.074 A 
ATOM     29  C   UNL A   1      41.583  30.190  35.561  1.00  0.00     0.029 A 
ATOM     30  N   UNL A   1      41.400  29.506  33.454  1.00  0.00    -0.354 N 
ATOM     31  N   UNL A   1      42.184  27.987  31.078  1.00  0.00    -0.248 NA
ATOM     32  C   UNL A   1      43.683  26.570  29.981  1.00  0.00     0.031 C 
ATOM     33  C   UNL A   1      42.593  29.254  35.310  1.00  0.00     0.029 A 
ATOM     34  C   UNL A   1      42.477  28.827  33.997  1.00  0.00     0.049 A 
ATOM     35  H   UNL A   1      41.078  29.406  32.528  1.00  0.00     0.167 HD
ATOM     36  C   UNL A   1      43.142  27.548  31.984  1.00  0.00     0.074 A 
ATOM     37  C   UNL A   1      44.016  26.643  31.263  1.00  0.00     0.031 C 
ATOM     38  C   UNL A   1      43.300  27.884  33.287  1.00  0.00     0.034 A 
BRANCH  25  39
ATOM     39  C   UNL A   1      39.237  32.062  35.321  1.00  0.00     0.023 A 
ATOM     40  C   UNL A   1      38.339  31.533  36.269  1.00  0.00     0.012 A 
ATOM     41  C   UNL A   1      39.743  33.365  35.501  1.00  0.00     0.148 A 
ATOM     42  C   UNL A   1      37.936  32.293  37.367  1.00  0.00     0.002 A 
ATOM     43  C   UNL A   1      39.362  34.105  36.616  1.00  0.00     0.091 A 
ATOM     44  F   UNL A   1      40.576  33.862  34.575  1.00  0.00    -0.205 F 
ATOM     45  C   UNL A   1      38.454  33.573  37.546  1.00  0.00     0.022 A 
BRANCH  43  46
ATOM     46  S   UNL A   1      40.036  35.736  36.957  1.00  0.00     0.127 S 
ATOM     47  O   UNL A   1      41.468  35.453  37.037  1.00  0.00    -0.237 OA
ATOM     48  O   UNL A   1      39.631  36.498  35.776  1.00  0.00    -0.237 OA
ATOM     49  O   UNL A   1      39.404  36.168  38.196  1.00  0.00    -0.744 OA
ENDBRANCH  43  46
ENDBRANCH  25  39
BRANCH  26  50
ATOM     50  C   UNL A   1      42.178  26.669  27.459  1.00  0.00     0.023 A 
ATOM     51  C   UNL A   1      42.995  27.244  26.467  1.00  0.00     0.012 A 
ATOM     52  C   UNL A   1      41.832  25.309  27.359  1.00  0.00     0.148 A 
ATOM     53  C   UNL A   1      43.447  26.483  25.388  1.00  0.00     0.002 A 
ATOM     54  C   UNL A   1      42.332  24.542  26.313  1.00  0.00     0.091 A 
ATOM     55  F   UNL A   1      41.033  24.782  28.299  1.00  0.00    -0.205 F 
ATOM     56  C   UNL A   1      43.128  25.130  25.319  1.00  0.00     0.022 A 
BRANCH  54  57
ATOM     57  S   UNL A   1      42.084  22.764  26.249  1.00  0.00     0.127 S 
ATOM     58  O   UNL A   1      42.719  22.417  24.980  1.00  0.00    -0.237 OA
ATOM     59  O   UNL A   1      42.799  22.305  27.440  1.00  0.00    -0.237 OA
ATOM     60  O   UNL A   1      40.640  22.581  26.317  1.00  0.00    -0.744 OA
ENDBRANCH  54  57
ENDBRANCH  26  50
BRANCH  38  61
ATOM     61  C   UNL A   1      44.453  27.264  34.028  1.00  0.00     0.023 A 
ATOM     62  C   UNL A   1      45.712  27.894  33.998  1.00  0.00     0.012 A 
ATOM     63  C   UNL A   1      44.280  26.101  34.803  1.00  0.00     0.148 A 
ATOM     64  C   UNL A   1      46.790  27.361  34.704  1.00  0.00     0.002 A 
ATOM     65  C   UNL A   1      45.350  25.596  35.535  1.00  0.00     0.091 A 
ATOM     66  F   UNL A   1      43.081  25.498  34.801  1.00  0.00    -0.205 F 
ATOM     67  C   UNL A   1      46.606  26.219  35.481  1.00  0.00     0.022 A 
BRANCH  65  68
ATOM     68  S   UNL A   1      45.159  24.177  36.621  1.00  0.00     0.127 S 
ATOM     69  O   UNL A   1      46.523  23.987  37.110  1.00  0.00    -0.237 OA
ATOM     70  O   UNL A   1      44.215  24.667  37.626  1.00  0.00    -0.237 OA
ATOM     71  O   UNL A   1      44.631  23.113  35.775  1.00  0.00    -0.744 OA
ENDBRANCH  65  68
ENDBRANCH  38  61
ENDBRANCH  12  13
ENDBRANCH   5   7
ENDBRANCH   2   3
ENDBRANCH   1   2
BRANCH   1  72
ATOM     72  C   UNL A   1      31.803  29.129  23.538  1.00  0.00     0.023 C 
BRANCH  72  73
ATOM     73  C   UNL A   1      33.257  28.846  23.189  1.00  0.00     0.116 C 
BRANCH  73  74
ATOM     74  N   UNL A   1      33.424  27.881  22.115  1.00  0.00    -0.351 N 
ATOM     75  C   UNL A   1      33.296  26.510  22.183  1.00  0.00     0.269 C 
ATOM     76  H   UNL A   1      33.657  28.251  21.234  1.00  0.00     0.163 HD
ATOM     77  O   UNL A   1      33.413  25.817  21.175  1.00  0.00    -0.268 OA
BRANCH  75  78
ATOM     78  C   UNL A   1      33.018  25.885  23.502  1.00  0.00     0.129 A 
ATOM     79  C   UNL A   1      34.058  25.297  24.214  1.00  0.00     0.049 A 
ATOM     80  N   UNL A   1      31.710  25.823  23.857  1.00  0.00    -0.251 NA
ATOM     81  C   UNL A   1      33.726  24.522  25.316  1.00  0.00     0.012 A 
ATOM     82  C   UNL A   1      31.427  25.134  24.973  1.00  0.00     0.113 A 
ATOM     83  C   UNL A   1      32.384  24.464  25.713  1.00  0.00     0.035 A 
BRANCH  81  84
ATOM     84  S   UNL A   1      34.860  23.558  26.289  1.00  0.00    -0.116 SA
BRANCH  84  85
ATOM     85  C   UNL A   1      35.976  22.732  25.124  1.00  0.00     0.175 C 
BRANCH  85  86
ATOM     86  C   UNL A   1      35.820  21.244  24.856  1.00  0.00     0.233 C 
ATOM     87  O   UNL A   1      36.784  20.506  25.089  1.00  0.00    -0.274 OA
ATOM     88  N   UNL A   1      34.587  20.706  24.551  1.00  0.00    -0.337 N 
ATOM     89  C   UNL A   1      33.499  21.347  23.816  1.00  0.00     0.148 C 
ATOM     90  C   UNL A   1      34.309  19.298  24.879  1.00  0.00     0.148 C 
ATOM     91  C   UNL A   1      32.164  21.159  24.536  1.00  0.00     0.181 C 
ATOM     92  C   UNL A   1      32.955  19.193  25.594  1.00  0.00     0.181 C 
ATOM     93  O   UNL A   1      31.905  19.774  24.799  1.00  0.00    -0.378 OA
ENDBRANCH  85  86
ENDBRANCH  84  85
ENDBRANCH  81  84
ENDBRANCH  75  78
ENDBRANCH  73  74
ENDBRANCH  72  73
ENDBRANCH   1  72
TORSDOF 17
ENDMDL
MODEL 2
REMARK VINA RESULT:     -12.0      1.294      1.723
REMARK SMILES O=C(NCCCCNC(=O)c1cc(SCC(=O)N2CCOCC2)ccn1)c1ccc(-c2c3nc(c(-c4cccc(S(=O)(=O)[O-])c4F)c4ccc([nH]4)c(-c4cccc(S(=O)(=O)[O-])c4F)c4nc(c(-c5cccc(S(=O)(=O)[O-])c5F)c5ccc2[nH]5)C=C4)C=C3)cc1
REMARK SMILES IDX 5 1 4 2 3 3 1 4 2 5 27 7 28 8 89 9 29 10 88 11 30 12 31 13
REMARK SMILES IDX 32 14 82 15 33 16 87 17 81 18 83 19 34 20 86 21 80 22 79 23
REMARK SMILES IDX 35 25 67 26 47 27 66 28 48 29 51 30 65 31 84 32 49 33 50 34
REMARK SMILES IDX 64 36 85 37 52 38 36 39 37 40 45 41 38 42 40 43 46 44 39 45
REMARK SMILES IDX 41 46 42 47 43 48 44 49 68 50 69 51 77 52 70 53 72 54 78 55
REMARK SMILES IDX 71 56 73 57 74 58 75 59 76 60 53 61 54 62 62 63 55 64 57 65
REMARK SMILES IDX 63 66 56 67 58 68 59 69 60 70 61 71 6 72 7 73 8 74 9 75
REMARK SMILES IDX 10 77 11 78 12 79 26 80 13 81 25 82 24 83 14 84 15 85 16 86
REMARK SMILES IDX 17 87 18 88 19 89 23 90 20 91 22 92 21 93
REMARK H PARENT 3 6 83 24 51 35 8 76
REMARK Flexibility Score: inf
ROOT
ATOM      1  C   UNL A   1      31.698  29.165  26.956  1.00  0.00     0.023 C 
ENDROOT
BRANCH   1   2
ATOM      2  C   UNL A   1      32.469  30.214  26.163  1.00  0.00     0.116 C 
BRANCH   2   3
ATOM      3  N   UNL A   1      32.218  31.578  26.608  1.00  0.00    -0.352 N 
ATOM      4  O   UNL A   1      32.575  33.501  27.728  1.00  0.00    -0.269 OA
ATOM      5  C   UNL A   1      33.001  32.404  27.381  1.00  0.00     0.251 C 
ATOM      6  H   UNL A   1      31.363  31.966  26.311  1.00  0.00     0.163 HD
BRANCH   5   7
ATOM      7  C   UNL A   1      34.337  31.936  27.819  1.00  0.00     0.039 A 
ATOM      8  C   UNL A   1      34.535  30.598  28.167  1.00  0.00     0.014 A 
ATOM      9  C   UNL A   1      35.383  32.853  27.938  1.00  0.00     0.014 A 
ATOM     10  C   UNL A   1      35.711  30.223  28.810  1.00  0.00     0.010 A 
ATOM     11  C   UNL A   1      36.598  32.450  28.504  1.00  0.00     0.010 A 
ATOM     12  C   UNL A   1      36.751  31.147  29.001  1.00  0.00    -0.014 A 
BRANCH  12  13
ATOM     13  C   UNL A   1      37.980  30.713  29.720  1.00  0.00     0.031 A 
ATOM     14  C   UNL A   1      38.239  31.122  31.148  1.00  0.00     0.074 A 
ATOM     15  C   UNL A   1      38.850  29.898  29.092  1.00  0.00     0.049 A 
ATOM     16  N   UNL A   1      39.205  30.744  31.948  1.00  0.00    -0.248 NA
ATOM     17  C   UNL A   1      37.305  32.082  31.759  1.00  0.00     0.031 C 
ATOM     18  C   UNL A   1      38.740  29.469  27.696  1.00  0.00     0.029 A 
ATOM     19  N   UNL A   1      39.983  29.270  29.544  1.00  0.00    -0.354 N 
ATOM     20  C   UNL A   1      39.024  31.449  33.132  1.00  0.00     0.074 A 
ATOM     21  C   UNL A   1      37.857  32.284  32.948  1.00  0.00     0.031 C 
ATOM     22  C   UNL A   1      39.733  28.612  27.420  1.00  0.00     0.029 A 
ATOM     23  C   UNL A   1      40.572  28.455  28.605  1.00  0.00     0.049 A 
ATOM     24  H   UNL A   1      40.341  29.392  30.453  1.00  0.00     0.167 HD
ATOM     25  C   UNL A   1      39.747  31.390  34.276  1.00  0.00     0.034 A 
ATOM     26  C   UNL A   1      41.655  27.659  28.688  1.00  0.00     0.034 A 
ATOM     27  C   UNL A   1      40.866  30.511  34.485  1.00  0.00     0.049 A 
ATOM     28  C   UNL A   1      42.391  27.558  29.993  1.00  0.00     0.074 A 
ATOM     29  C   UNL A   1      41.614  30.330  35.636  1.00  0.00     0.029 A 
ATOM     30  N   UNL A   1      41.394  29.659  33.529  1.00  0.00    -0.354 N 
ATOM     31  N   UNL A   1      42.117  28.129  31.140  1.00  0.00    -0.248 NA
ATOM     32  C   UNL A   1      43.568  26.678  30.024  1.00  0.00     0.031 C 
ATOM     33  C   UNL A   1      42.597  29.368  35.373  1.00  0.00     0.029 A 
ATOM     34  C   UNL A   1      42.458  28.950  34.060  1.00  0.00     0.049 A 
ATOM     35  H   UNL A   1      41.062  29.571  32.606  1.00  0.00     0.167 HD
ATOM     36  C   UNL A   1      43.071  27.662  32.035  1.00  0.00     0.074 A 
ATOM     37  C   UNL A   1      43.914  26.737  31.303  1.00  0.00     0.031 C 
ATOM     38  C   UNL A   1      43.250  27.988  33.338  1.00  0.00     0.034 A 
BRANCH  25  39
ATOM     39  C   UNL A   1      39.317  32.264  35.425  1.00  0.00     0.023 A 
ATOM     40  C   UNL A   1      38.448  31.740  36.403  1.00  0.00     0.012 A 
ATOM     41  C   UNL A   1      39.827  33.568  35.581  1.00  0.00     0.148 A 
ATOM     42  C   UNL A   1      38.076  32.507  37.507  1.00  0.00     0.002 A 
ATOM     43  C   UNL A   1      39.478  34.315  36.702  1.00  0.00     0.091 A 
ATOM     44  F   UNL A   1      40.632  34.059  34.628  1.00  0.00    -0.205 F 
ATOM     45  C   UNL A   1      38.598  33.789  37.662  1.00  0.00     0.022 A 
BRANCH  43  46
ATOM     46  S   UNL A   1      40.161  35.948  37.012  1.00  0.00     0.127 S 
ATOM     47  O   UNL A   1      39.732  36.680  35.821  1.00  0.00    -0.237 OA
ATOM     48  O   UNL A   1      39.483  36.345  38.247  1.00  0.00    -0.237 OA
ATOM     49  O   UNL A   1      41.597  35.751  37.154  1.00  0.00    -0.744 OA
ENDBRANCH  43  46
ENDBRANCH  25  39
BRANCH  26  50
ATOM     50  C   UNL A   1      42.043  26.827  27.516  1.00  0.00     0.023 A 
ATOM     51  C   UNL A   1      42.817  27.402  26.490  1.00  0.00     0.012 A 
ATOM     52  C   UNL A   1      41.710  25.462  27.441  1.00  0.00     0.148 A 
ATOM     53  C   UNL A   1      43.239  26.636  25.403  1.00  0.00     0.002 A 
ATOM     54  C   UNL A   1      42.181  24.691  26.384  1.00  0.00     0.091 A 
ATOM     55  F   UNL A   1      40.952  24.935  28.414  1.00  0.00    -0.205 F 
ATOM     56  C   UNL A   1      42.934  25.278  25.357  1.00  0.00     0.022 A 
BRANCH  54  57
ATOM     57  S   UNL A   1      41.953  22.909  26.345  1.00  0.00     0.127 S 
ATOM     58  O   UNL A   1      42.657  22.489  27.553  1.00  0.00    -0.237 OA
ATOM     59  O   UNL A   1      40.496  22.779  26.404  1.00  0.00    -0.237 OA
ATOM     60  O   UNL A   1      42.534  22.481  25.079  1.00  0.00    -0.744 OA
ENDBRANCH  54  57
ENDBRANCH  26  50
BRANCH  38  61
ATOM     61  C   UNL A   1      44.393  27.335  34.066  1.00  0.00     0.023 A 
ATOM     62  C   UNL A   1      45.670  27.926  34.018  1.00  0.00     0.012 A 
ATOM     63  C   UNL A   1      44.194  26.180  34.846  1.00  0.00     0.148 A 
ATOM     64  C   UNL A   1      46.740  27.363  34.712  1.00  0.00     0.002 A 
ATOM     65  C   UNL A   1      45.257  25.644  35.567  1.00  0.00     0.091 A 
ATOM     66  F   UNL A   1      42.978  25.614  34.862  1.00  0.00    -0.205 F 
ATOM     67  C   UNL A   1      46.531  26.229  35.495  1.00  0.00     0.022 A 
BRANCH  65  68
ATOM     68  S   UNL A   1      45.037  24.235  36.660  1.00  0.00     0.127 S 
ATOM     69  O   UNL A   1      44.089  24.759  37.640  1.00  0.00    -0.237 OA
ATOM     70  O   UNL A   1      44.486  23.217  35.764  1.00  0.00    -0.237 OA
ATOM     71  O   UNL A   1      46.370  23.926  37.164  1.00  0.00    -0.744 OA
ENDBRANCH  65  68
ENDBRANCH  38  61
ENDBRANCH  12  13
ENDBRANCH   5   7
ENDBRANCH   2   3
ENDBRANCH   1   2
BRANCH   1  72
ATOM     72  C   UNL A   1      32.205  27.732  26.826  1.00  0.00     0.023 C 
BRANCH  72  73
ATOM     73  C   UNL A   1      31.358  26.823  25.946  1.00  0.00     0.116 C 
BRANCH  73  74
ATOM     74  N   UNL A   1      30.719  25.738  26.671  1.00  0.00    -0.351 N 
ATOM     75  C   UNL A   1      30.893  24.382  26.491  1.00  0.00     0.269 C 
ATOM     76  H   UNL A   1      30.084  26.003  27.374  1.00  0.00     0.163 HD
ATOM     77  O   UNL A   1      30.323  23.572  27.218  1.00  0.00    -0.268 OA
BRANCH  75  78
ATOM     78  C   UNL A   1      31.783  23.918  25.395  1.00  0.00     0.129 A 
ATOM     79  C   UNL A   1      33.069  23.481  25.695  1.00  0.00     0.049 A 
ATOM     80  N   UNL A   1      31.300  24.084  24.138  1.00  0.00    -0.251 NA
ATOM     81  C   UNL A   1      33.945  23.284  24.638  1.00  0.00     0.012 A 
ATOM     82  C   UNL A   1      32.146  23.809  23.133  1.00  0.00     0.113 A 
ATOM     83  C   UNL A   1      33.461  23.427  23.332  1.00  0.00     0.035 A 
BRANCH  81  84
ATOM     84  S   UNL A   1      35.670  22.872  24.780  1.00  0.00    -0.116 SA
BRANCH  84  85
ATOM     85  C   UNL A   1      35.761  21.323  25.716  1.00  0.00     0.175 C 
BRANCH  85  86
ATOM     86  C   UNL A   1      35.793  19.995  24.976  1.00  0.00     0.233 C 
ATOM     87  O   UNL A   1      36.887  19.437  24.828  1.00  0.00    -0.274 OA
ATOM     88  N   UNL A   1      34.626  19.336  24.652  1.00  0.00    -0.337 N 
ATOM     89  C   UNL A   1      33.336  19.936  24.313  1.00  0.00     0.148 C 
ATOM     90  C   UNL A   1      34.634  17.872  24.510  1.00  0.00     0.148 C 
ATOM     91  C   UNL A   1      32.199  19.259  25.077  1.00  0.00     0.181 C 
ATOM     92  C   UNL A   1      33.464  17.269  25.299  1.00  0.00     0.181 C 
ATOM     93  O   UNL A   1      32.210  17.840  24.879  1.00  0.00    -0.378 OA
ENDBRANCH  85  86
ENDBRANCH  84  85
ENDBRANCH  81  84
ENDBRANCH  75  78
ENDBRANCH  73  74
ENDBRANCH  72  73
ENDBRANCH   1  72
TORSDOF 17
ENDMDL
MODEL 3
REMARK VINA RESULT:     -12.0      1.171      2.048
REMARK SMILES O=C(NCCCCNC(=O)c1cc(SCC(=O)N2CCOCC2)ccn1)c1ccc(-c2c3nc(c(-c4cccc(S(=O)(=O)[O-])c4F)c4ccc([nH]4)c(-c4cccc(S(=O)(=O)[O-])c4F)c4nc(c(-c5cccc(S(=O)(=O)[O-])c5F)c5ccc2[nH]5)C=C4)C=C3)cc1
REMARK SMILES IDX 5 1 4 2 3 3 1 4 2 5 27 7 28 8 89 9 29 10 88 11 30 12 31 13
REMARK SMILES IDX 32 14 82 15 33 16 87 17 81 18 83 19 34 20 86 21 80 22 79 23
REMARK SMILES IDX 35 25 67 26 47 27 66 28 48 29 51 30 65 31 84 32 49 33 50 34
REMARK SMILES IDX 64 36 85 37 52 38 36 39 37 40 45 41 38 42 40 43 46 44 39 45
REMARK SMILES IDX 41 46 42 47 43 48 44 49 68 50 69 51 77 52 70 53 72 54 78 55
REMARK SMILES IDX 71 56 73 57 74 58 75 59 76 60 53 61 54 62 62 63 55 64 57 65
REMARK SMILES IDX 63 66 56 67 58 68 59 69 60 70 61 71 6 72 7 73 8 74 9 75
REMARK SMILES IDX 10 77 11 78 12 79 26 80 13 81 25 82 24 83 14 84 15 85 16 86
REMARK SMILES IDX 17 87 18 88 19 89 23 90 20 91 22 92 21 93
REMARK H PARENT 3 6 83 24 51 35 8 76
REMARK Flexibility Score: inf
ROOT
ATOM      1  C   UNL A   1      31.780  28.551  26.319  1.00  0.00     0.023 C 
ENDROOT
BRANCH   1   2
ATOM      2  C   UNL A   1      32.711  29.663  25.850  1.00  0.00     0.116 C 
BRANCH   2   3
ATOM      3  N   UNL A   1      32.352  30.977  26.366  1.00  0.00    -0.352 N 
ATOM      4  O   UNL A   1      32.540  32.845  27.612  1.00  0.00    -0.269 OA
ATOM      5  C   UNL A   1      33.052  31.803  27.216  1.00  0.00     0.251 C 
ATOM      6  H   UNL A   1      31.483  31.324  26.063  1.00  0.00     0.163 HD
BRANCH   5   7
ATOM      7  C   UNL A   1      34.403  31.399  27.672  1.00  0.00     0.039 A 
ATOM      8  C   UNL A   1      34.679  30.060  27.957  1.00  0.00     0.014 A 
ATOM      9  C   UNL A   1      35.382  32.375  27.871  1.00  0.00     0.014 A 
ATOM     10  C   UNL A   1      35.857  29.729  28.618  1.00  0.00     0.010 A 
ATOM     11  C   UNL A   1      36.604  32.021  28.455  1.00  0.00     0.010 A 
ATOM     12  C   UNL A   1      36.829  30.705  28.889  1.00  0.00    -0.014 A 
BRANCH  12  13
ATOM     13  C   UNL A   1      38.062  30.315  29.625  1.00  0.00     0.031 A 
ATOM     14  C   UNL A   1      38.298  30.750  31.049  1.00  0.00     0.074 A 
ATOM     15  C   UNL A   1      38.958  29.514  29.015  1.00  0.00     0.049 A 
ATOM     16  N   UNL A   1      39.266  30.408  31.862  1.00  0.00    -0.248 NA
ATOM     17  C   UNL A   1      37.334  31.694  31.637  1.00  0.00     0.031 C 
ATOM     18  C   UNL A   1      38.872  29.062  27.625  1.00  0.00     0.029 A 
ATOM     19  N   UNL A   1      40.103  28.922  29.485  1.00  0.00    -0.354 N 
ATOM     20  C   UNL A   1      39.057  31.126  33.034  1.00  0.00     0.074 A 
ATOM     21  C   UNL A   1      37.870  31.927  32.829  1.00  0.00     0.031 C 
ATOM     22  C   UNL A   1      39.889  28.227  27.369  1.00  0.00     0.029 A 
ATOM     23  C   UNL A   1      40.721  28.109  28.563  1.00  0.00     0.049 A 
ATOM     24  H   UNL A   1      40.450  29.065  30.396  1.00  0.00     0.167 HD
ATOM     25  C   UNL A   1      39.772  31.102  34.185  1.00  0.00     0.034 A 
ATOM     26  C   UNL A   1      41.824  27.343  28.667  1.00  0.00     0.034 A 
ATOM     27  C   UNL A   1      40.911  30.255  34.416  1.00  0.00     0.049 A 
ATOM     28  C   UNL A   1      42.551  27.279  29.979  1.00  0.00     0.074 A 
ATOM     29  C   UNL A   1      41.654  30.110  35.575  1.00  0.00     0.029 A 
ATOM     30  N   UNL A   1      41.470  29.403  33.476  1.00  0.00    -0.354 N 
ATOM     31  N   UNL A   1      42.252  27.860  31.115  1.00  0.00    -0.248 NA
ATOM     32  C   UNL A   1      43.750  26.431  30.032  1.00  0.00     0.031 C 
ATOM     33  C   UNL A   1      42.664  29.170  35.334  1.00  0.00     0.029 A 
ATOM     34  C   UNL A   1      42.547  28.730  34.025  1.00  0.00     0.049 A 
ATOM     35  H   UNL A   1      41.147  29.294  32.551  1.00  0.00     0.167 HD
ATOM     36  C   UNL A   1      43.211  27.430  32.025  1.00  0.00     0.074 A 
ATOM     37  C   UNL A   1      44.084  26.518  31.313  1.00  0.00     0.031 C 
ATOM     38  C   UNL A   1      43.370  27.779  33.324  1.00  0.00     0.034 A 
BRANCH  25  39
ATOM     39  C   UNL A   1      39.309  31.980  35.317  1.00  0.00     0.023 A 
ATOM     40  C   UNL A   1      38.359  31.484  36.232  1.00  0.00     0.012 A 
ATOM     41  C   UNL A   1      39.864  33.259  35.523  1.00  0.00     0.148 A 
ATOM     42  C   UNL A   1      37.953  32.254  37.322  1.00  0.00     0.002 A 
ATOM     43  C   UNL A   1      39.479  34.007  36.631  1.00  0.00     0.091 A 
ATOM     44  F   UNL A   1      40.747  33.725  34.628  1.00  0.00    -0.205 F 
ATOM     45  C   UNL A   1      38.519  33.509  37.528  1.00  0.00     0.022 A 
BRANCH  43  46
ATOM     46  S   UNL A   1      40.211  35.605  37.006  1.00  0.00     0.127 S 
ATOM     47  O   UNL A   1      39.628  36.450  35.965  1.00  0.00    -0.237 OA
ATOM     48  O   UNL A   1      39.713  35.871  38.356  1.00  0.00    -0.237 OA
ATOM     49  O   UNL A   1      41.651  35.403  36.927  1.00  0.00    -0.744 OA
ENDBRANCH  43  46
ENDBRANCH  25  39
BRANCH  26  50
ATOM     50  C   UNL A   1      42.243  26.505  27.510  1.00  0.00     0.023 A 
ATOM     51  C   UNL A   1      43.100  27.054  26.536  1.00  0.00     0.012 A 
ATOM     52  C   UNL A   1      41.857  25.156  27.401  1.00  0.00     0.148 A 
ATOM     53  C   UNL A   1      43.551  26.280  25.467  1.00  0.00     0.002 A 
ATOM     54  C   UNL A   1      42.356  24.374  26.365  1.00  0.00     0.091 A 
ATOM     55  F   UNL A   1      41.023  24.654  28.323  1.00  0.00    -0.205 F 
ATOM     56  C   UNL A   1      43.191  24.938  25.389  1.00  0.00     0.022 A 
BRANCH  54  57
ATOM     57  S   UNL A   1      42.054  22.605  26.293  1.00  0.00     0.127 S 
ATOM     58  O   UNL A   1      40.596  22.550  26.228  1.00  0.00    -0.237 OA
ATOM     59  O   UNL A   1      42.740  22.220  25.059  1.00  0.00    -0.237 OA
ATOM     60  O   UNL A   1      42.666  22.068  27.502  1.00  0.00    -0.744 OA
ENDBRANCH  54  57
ENDBRANCH  26  50
BRANCH  38  61
ATOM     61  C   UNL A   1      44.523  27.166  34.071  1.00  0.00     0.023 A 
ATOM     62  C   UNL A   1      45.796  27.763  33.986  1.00  0.00     0.012 A 
ATOM     63  C   UNL A   1      44.338  26.046  34.903  1.00  0.00     0.148 A 
ATOM     64  C   UNL A   1      46.875  27.238  34.696  1.00  0.00     0.002 A 
ATOM     65  C   UNL A   1      45.411  25.550  35.638  1.00  0.00     0.091 A 
ATOM     66  F   UNL A   1      43.126  25.474  34.954  1.00  0.00    -0.205 F 
ATOM     67  C   UNL A   1      46.680  26.139  35.530  1.00  0.00     0.022 A 
BRANCH  65  68
ATOM     68  S   UNL A   1      45.209  24.189  36.794  1.00  0.00     0.127 S 
ATOM     69  O   UNL A   1      44.776  23.107  35.912  1.00  0.00    -0.237 OA
ATOM     70  O   UNL A   1      46.558  24.027  37.338  1.00  0.00    -0.237 OA
ATOM     71  O   UNL A   1      44.225  24.651  37.765  1.00  0.00    -0.744 OA
ENDBRANCH  65  68
ENDBRANCH  38  61
ENDBRANCH  12  13
ENDBRANCH   5   7
ENDBRANCH   2   3
ENDBRANCH   1   2
BRANCH   1  72
ATOM     72  C   UNL A   1      32.423  27.177  26.491  1.00  0.00     0.023 C 
BRANCH  72  73
ATOM     73  C   UNL A   1      31.454  26.004  26.491  1.00  0.00     0.116 C 
BRANCH  73  74
ATOM     74  N   UNL A   1      30.184  26.296  25.846  1.00  0.00    -0.351 N 
ATOM     75  C   UNL A   1      29.827  26.059  24.535  1.00  0.00     0.269 C 
ATOM     76  H   UNL A   1      29.497  26.713  26.413  1.00  0.00     0.163 HD
ATOM     77  O   UNL A   1      28.691  26.310  24.137  1.00  0.00    -0.268 OA
BRANCH  75  78
ATOM     78  C   UNL A   1      30.846  25.500  23.610  1.00  0.00     0.129 A 
ATOM     79  C   UNL A   1      30.973  24.120  23.485  1.00  0.00     0.049 A 
ATOM     80  N   UNL A   1      31.681  26.405  23.040  1.00  0.00    -0.251 NA
ATOM     81  C   UNL A   1      32.080  23.635  22.804  1.00  0.00     0.012 A 
ATOM     82  C   UNL A   1      32.697  25.907  22.319  1.00  0.00     0.113 A 
ATOM     83  C   UNL A   1      32.942  24.552  22.189  1.00  0.00     0.035 A 
BRANCH  81  84
ATOM     84  S   UNL A   1      32.533  21.923  22.642  1.00  0.00    -0.116 SA
BRANCH  84  85
ATOM     85  C   UNL A   1      32.409  21.191  24.295  1.00  0.00     0.175 C 
BRANCH  85  86
ATOM     86  C   UNL A   1      33.673  20.878  25.078  1.00  0.00     0.233 C 
ATOM     87  O   UNL A   1      34.043  19.699  25.140  1.00  0.00    -0.274 OA
ATOM     88  N   UNL A   1      34.490  21.889  25.539  1.00  0.00    -0.337 N 
ATOM     89  C   UNL A   1      34.084  23.223  25.978  1.00  0.00     0.148 C 
ATOM     90  C   UNL A   1      35.925  21.631  25.735  1.00  0.00     0.148 C 
ATOM     91  C   UNL A   1      34.972  24.300  25.354  1.00  0.00     0.181 C 
ATOM     92  C   UNL A   1      36.746  22.754  25.086  1.00  0.00     0.181 C 
ATOM     93  O   UNL A   1      36.359  24.041  25.604  1.00  0.00    -0.378 OA
ENDBRANCH  85  86
ENDBRANCH  84  85
ENDBRANCH  81  84
ENDBRANCH  75  78
ENDBRANCH  73  74
ENDBRANCH  72  73
ENDBRANCH   1  72
TORSDOF 17
ENDMDL
