MODEL 1
REMARK VINA RESULT:     -12.0      0.000      0.000
REMARK SMILES C[C@H]1[C@H](C(=O)NCCCCNC(=O)c2ccc(-c3c4nc(c(-c5cccc(S(=O)(=O)[O-])c5F)c5ccc([nH]5)c(-c5cccc(S(=O)(=O)[O-])c5F)c5nc(c(-c6cccc(S(=O)(=O)[O-])c6F)c6ccc3[nH]6)C=C5)C=C4)cc2)CCN1C(=O)[C@H]1CC[C@@H](C[NH3+])CC1
REMARK SMILES IDX 8 1 7 2 6 3 4 4 5 5 3 7 1 8 2 9 79 10 77 11 78 12 80 13
REMARK SMILES IDX 81 14 82 15 89 16 83 17 88 18 84 19 85 20 86 21 87 22 9 26
REMARK SMILES IDX 10 27 11 28 12 29 13 31 14 32 15 33 76 34 16 35 75 36 17 37
REMARK SMILES IDX 18 38 19 39 69 40 20 41 74 42 68 43 70 44 21 45 73 46 67 47
REMARK SMILES IDX 66 48 22 50 54 51 34 52 53 53 35 54 38 55 52 56 71 57 36 58
REMARK SMILES IDX 37 59 51 61 72 62 39 63 23 64 24 65 32 66 25 67 27 68 33 69
REMARK SMILES IDX 26 70 28 71 29 72 30 73 31 74 55 75 56 76 64 77 57 78 59 79
REMARK SMILES IDX 65 80 58 81 60 82 61 83 62 84 63 85 40 86 41 87 49 88 42 89
REMARK SMILES IDX 44 90 50 91 43 92 45 93 46 94 47 95 48 96
REMARK H PARENT 6 6 87 23 87 24 87 25 11 30 70 49 38 60
REMARK Flexibility Score: inf
ROOT
ATOM      1  C   UNL A   1      35.317  22.996  26.508  1.00  0.00     0.023 C 
ENDROOT
BRANCH   1   2
ATOM      2  C   UNL A   1      33.809  23.226  26.527  1.00  0.00     0.116 C 
BRANCH   2   3
ATOM      3  N   UNL A   1      33.086  22.029  26.154  1.00  0.00    -0.356 N 
ATOM      4  C   UNL A   1      32.399  21.718  25.028  1.00  0.00     0.225 C 
ATOM      5  O   UNL A   1      31.821  20.627  25.002  1.00  0.00    -0.275 OA
ATOM      6  H   UNL A   1      33.095  21.319  26.835  1.00  0.00     0.163 HD
BRANCH   4   7
ATOM      7  C   UNL A   1      32.298  22.643  23.825  1.00  0.00     0.102 C 
ATOM      8  C   UNL A   1      30.418  24.202  23.371  1.00  0.00     0.032 C 
ATOM      9  C   UNL A   1      31.734  24.046  24.148  1.00  0.00     0.094 C 
ATOM     10  N   UNL A   1      32.763  24.989  23.678  1.00  0.00    -0.339 N 
ATOM     11  C   UNL A   1      33.587  22.858  23.036  1.00  0.00     0.037 C 
ATOM     12  C   UNL A   1      33.588  24.335  22.674  1.00  0.00     0.120 C 
BRANCH  10  13
ATOM     13  C   UNL A   1      33.034  26.310  23.991  1.00  0.00     0.225 C 
ATOM     14  O   UNL A   1      33.374  27.091  23.090  1.00  0.00    -0.275 OA
BRANCH  13  15
ATOM     15  C   UNL A   1      32.998  26.874  25.426  1.00  0.00     0.078 C 
ATOM     16  C   UNL A   1      33.997  27.997  25.695  1.00  0.00     0.014 C 
ATOM     17  C   UNL A   1      31.580  27.185  25.895  1.00  0.00     0.014 C 
ATOM     18  C   UNL A   1      33.867  28.596  27.096  1.00  0.00     0.010 C 
ATOM     19  C   UNL A   1      31.507  27.830  27.277  1.00  0.00     0.010 C 
ATOM     20  C   UNL A   1      32.429  29.051  27.403  1.00  0.00     0.044 C 
BRANCH  20  21
ATOM     21  C   UNL A   1      32.021  30.248  26.513  1.00  0.00     0.262 C 
BRANCH  21  22
ATOM     22  N   UNL A   1      32.392  31.531  27.089  1.00  0.00    -0.357 N 
ATOM     23  H   UNL A   1      31.801  32.264  26.697  1.00  0.00     0.344 HD
ATOM     24  H   UNL A   1      33.369  31.731  26.873  1.00  0.00     0.344 HD
ATOM     25  H   UNL A   1      32.267  31.499  28.101  1.00  0.00     0.344 HD
ENDBRANCH  21  22
ENDBRANCH  20  21
ENDBRANCH  13  15
ENDBRANCH  10  13
ENDBRANCH   4   7
ENDBRANCH   2   3
ENDBRANCH   1   2
BRANCH   1  26
ATOM     26  C   UNL A   1      35.793  21.720  25.835  1.00  0.00     0.023 C 
BRANCH  26  27
ATOM     27  C   UNL A   1      37.094  21.846  25.061  1.00  0.00     0.116 C 
BRANCH  27  28
ATOM     28  N   UNL A   1      38.073  20.819  25.395  1.00  0.00    -0.352 N 
ATOM     29  C   UNL A   1      39.278  20.949  26.051  1.00  0.00     0.251 C 
ATOM     30  H   UNL A   1      37.840  19.904  25.112  1.00  0.00     0.163 HD
ATOM     31  O   UNL A   1      40.027  19.990  26.163  1.00  0.00    -0.269 OA
BRANCH  29  32
ATOM     32  C   UNL A   1      39.667  22.274  26.580  1.00  0.00     0.039 A 
ATOM     33  C   UNL A   1      40.684  22.351  27.535  1.00  0.00     0.014 A 
ATOM     34  C   UNL A   1      39.078  23.436  26.079  1.00  0.00     0.014 A 
ATOM     35  C   UNL A   1      41.171  23.602  27.919  1.00  0.00     0.010 A 
ATOM     36  C   UNL A   1      39.632  24.672  26.386  1.00  0.00     0.010 A 
ATOM     37  C   UNL A   1      40.680  24.770  27.312  1.00  0.00    -0.014 A 
BRANCH  37  38
ATOM     38  C   UNL A   1      41.250  26.107  27.618  1.00  0.00     0.031 A 
ATOM     39  C   UNL A   1      42.663  26.431  27.213  1.00  0.00     0.074 A 
ATOM     40  C   UNL A   1      40.539  26.986  28.353  1.00  0.00     0.049 A 
ATOM     41  N   UNL A   1      43.366  27.503  27.464  1.00  0.00    -0.248 NA
ATOM     42  C   UNL A   1      43.396  25.397  26.462  1.00  0.00     0.031 C 
ATOM     43  C   UNL A   1      39.196  26.753  28.889  1.00  0.00     0.029 A 
ATOM     44  N   UNL A   1      40.860  28.243  28.802  1.00  0.00    -0.354 N 
ATOM     45  C   UNL A   1      44.631  27.257  26.944  1.00  0.00     0.074 A 
ATOM     46  C   UNL A   1      44.613  25.918  26.400  1.00  0.00     0.031 C 
ATOM     47  C   UNL A   1      38.806  27.832  29.586  1.00  0.00     0.029 A 
ATOM     48  C   UNL A   1      39.877  28.823  29.570  1.00  0.00     0.049 A 
ATOM     49  H   UNL A   1      41.714  28.687  28.594  1.00  0.00     0.167 HD
ATOM     50  C   UNL A   1      45.702  28.083  26.889  1.00  0.00     0.034 A 
ATOM     51  C   UNL A   1      39.843  30.019  30.190  1.00  0.00     0.034 A 
ATOM     52  C   UNL A   1      45.696  29.438  27.368  1.00  0.00     0.049 A 
ATOM     53  C   UNL A   1      41.019  30.947  30.051  1.00  0.00     0.074 A 
ATOM     54  C   UNL A   1      46.692  30.391  27.262  1.00  0.00     0.029 A 
ATOM     55  N   UNL A   1      44.640  30.032  28.041  1.00  0.00    -0.354 N 
ATOM     56  N   UNL A   1      42.145  30.760  29.404  1.00  0.00    -0.248 NA
ATOM     57  C   UNL A   1      40.907  32.266  30.690  1.00  0.00     0.031 C 
ATOM     58  C   UNL A   1      46.241  31.562  27.882  1.00  0.00     0.029 A 
ATOM     59  C   UNL A   1      44.959  31.339  28.360  1.00  0.00     0.049 A 
ATOM     60  H   UNL A   1      43.788  29.589  28.260  1.00  0.00     0.167 HD
ATOM     61  C   UNL A   1      42.860  31.945  29.531  1.00  0.00     0.074 A 
ATOM     62  C   UNL A   1      42.030  32.853  30.296  1.00  0.00     0.031 C 
ATOM     63  C   UNL A   1      44.098  32.250  29.070  1.00  0.00     0.034 A 
BRANCH  50  64
ATOM     64  C   UNL A   1      46.949  27.565  26.221  1.00  0.00     0.023 A 
ATOM     65  C   UNL A   1      47.849  26.769  26.959  1.00  0.00     0.012 A 
ATOM     66  C   UNL A   1      47.208  27.822  24.861  1.00  0.00     0.148 A 
ATOM     67  C   UNL A   1      49.005  26.266  26.366  1.00  0.00     0.002 A 
ATOM     68  C   UNL A   1      48.341  27.280  24.264  1.00  0.00     0.091 A 
ATOM     69  F   UNL A   1      46.353  28.601  24.182  1.00  0.00    -0.205 F 
ATOM     70  C   UNL A   1      49.245  26.513  25.017  1.00  0.00     0.022 A 
BRANCH  68  71
ATOM     71  S   UNL A   1      48.699  27.476  22.515  1.00  0.00     0.127 S 
ATOM     72  O   UNL A   1      49.997  28.146  22.553  1.00  0.00    -0.237 OA
ATOM     73  O   UNL A   1      48.743  26.088  22.052  1.00  0.00    -0.237 OA
ATOM     74  O   UNL A   1      47.602  28.262  21.968  1.00  0.00    -0.744 OA
ENDBRANCH  68  71
ENDBRANCH  50  64
BRANCH  51  75
ATOM     75  C   UNL A   1      38.619  30.440  30.930  1.00  0.00     0.023 A 
ATOM     76  C   UNL A   1      38.521  30.163  32.308  1.00  0.00     0.012 A 
ATOM     77  C   UNL A   1      37.574  31.135  30.293  1.00  0.00     0.148 A 
ATOM     78  C   UNL A   1      37.391  30.544  33.032  1.00  0.00     0.002 A 
ATOM     79  C   UNL A   1      36.474  31.560  31.032  1.00  0.00     0.091 A 
ATOM     80  F   UNL A   1      37.679  31.378  28.979  1.00  0.00    -0.205 F 
ATOM     81  C   UNL A   1      36.373  31.251  32.397  1.00  0.00     0.022 A 
BRANCH  79  82
ATOM     82  S   UNL A   1      35.181  32.588  30.324  1.00  0.00     0.127 S 
ATOM     83  O   UNL A   1      34.700  31.750  29.229  1.00  0.00    -0.237 OA
ATOM     84  O   UNL A   1      34.254  32.726  31.448  1.00  0.00    -0.237 OA
ATOM     85  O   UNL A   1      35.840  33.827  29.936  1.00  0.00    -0.744 OA
ENDBRANCH  79  82
ENDBRANCH  51  75
BRANCH  63  86
ATOM     86  C   UNL A   1      44.628  33.629  29.352  1.00  0.00     0.023 A 
ATOM     87  C   UNL A   1      45.274  33.892  30.576  1.00  0.00     0.012 A 
ATOM     88  C   UNL A   1      44.563  34.641  28.373  1.00  0.00     0.148 A 
ATOM     89  C   UNL A   1      45.822  35.147  30.834  1.00  0.00     0.002 A 
ATOM     90  C   UNL A   1      45.152  35.874  28.618  1.00  0.00     0.091 A 
ATOM     91  F   UNL A   1      43.927  34.377  27.222  1.00  0.00    -0.205 F 
ATOM     92  C   UNL A   1      45.771  36.134  29.852  1.00  0.00     0.022 A 
BRANCH  90  93
ATOM     93  S   UNL A   1      45.218  37.169  27.375  1.00  0.00     0.127 S 
ATOM     94  O   UNL A   1      46.024  36.539  26.330  1.00  0.00    -0.237 OA
ATOM     95  O   UNL A   1      43.806  37.346  27.031  1.00  0.00    -0.237 OA
ATOM     96  O   UNL A   1      45.827  38.320  28.029  1.00  0.00    -0.744 OA
ENDBRANCH  90  93
ENDBRANCH  63  86
ENDBRANCH  37  38
ENDBRANCH  29  32
ENDBRANCH  27  28
ENDBRANCH  26  27
ENDBRANCH   1  26
TORSDOF 18
ENDMDL
MODEL 2
REMARK VINA RESULT:     -11.7      1.072      7.642
REMARK SMILES C[C@H]1[C@H](C(=O)NCCCCNC(=O)c2ccc(-c3c4nc(c(-c5cccc(S(=O)(=O)[O-])c5F)c5ccc([nH]5)c(-c5cccc(S(=O)(=O)[O-])c5F)c5nc(c(-c6cccc(S(=O)(=O)[O-])c6F)c6ccc3[nH]6)C=C5)C=C4)cc2)CCN1C(=O)[C@H]1CC[C@@H](C[NH3+])CC1
REMARK SMILES IDX 8 1 7 2 6 3 4 4 5 5 3 7 1 8 2 9 79 10 77 11 78 12 80 13
REMARK SMILES IDX 81 14 82 15 89 16 83 17 88 18 84 19 85 20 86 21 87 22 9 26
REMARK SMILES IDX 10 27 11 28 12 29 13 31 14 32 15 33 76 34 16 35 75 36 17 37
REMARK SMILES IDX 18 38 19 39 69 40 20 41 74 42 68 43 70 44 21 45 73 46 67 47
REMARK SMILES IDX 66 48 22 50 54 51 34 52 53 53 35 54 38 55 52 56 71 57 36 58
REMARK SMILES IDX 37 59 51 61 72 62 39 63 23 64 24 65 32 66 25 67 27 68 33 69
REMARK SMILES IDX 26 70 28 71 29 72 30 73 31 74 55 75 56 76 64 77 57 78 59 79
REMARK SMILES IDX 65 80 58 81 60 82 61 83 62 84 63 85 40 86 41 87 49 88 42 89
REMARK SMILES IDX 44 90 50 91 43 92 45 93 46 94 47 95 48 96
REMARK H PARENT 6 6 87 23 87 24 87 25 11 30 70 49 38 60
REMARK Flexibility Score: inf
ROOT
ATOM      1  C   UNL A   1      35.489  21.986  26.473  1.00  0.00     0.023 C 
ENDROOT
BRANCH   1   2
ATOM      2  C   UNL A   1      34.180  21.553  27.125  1.00  0.00     0.116 C 
BRANCH   2   3
ATOM      3  N   UNL A   1      33.642  20.365  26.496  1.00  0.00    -0.356 N 
ATOM      4  C   UNL A   1      32.653  20.212  25.582  1.00  0.00     0.225 C 
ATOM      5  O   UNL A   1      32.358  19.057  25.258  1.00  0.00    -0.275 OA
ATOM      6  H   UNL A   1      34.067  19.525  26.781  1.00  0.00     0.163 HD
BRANCH   4   7
ATOM      7  C   UNL A   1      31.896  21.376  24.963  1.00  0.00     0.102 C 
ATOM      8  C   UNL A   1      30.394  22.925  26.195  1.00  0.00     0.032 C 
ATOM      9  C   UNL A   1      31.863  22.649  25.839  1.00  0.00     0.094 C 
ATOM     10  N   UNL A   1      32.428  23.712  24.990  1.00  0.00    -0.339 N 
ATOM     11  C   UNL A   1      32.355  21.809  23.573  1.00  0.00     0.037 C 
ATOM     12  C   UNL A   1      32.295  23.329  23.593  1.00  0.00     0.120 C 
BRANCH  10  13
ATOM     13  C   UNL A   1      32.996  24.940  25.282  1.00  0.00     0.225 C 
ATOM     14  O   UNL A   1      33.841  25.020  26.186  1.00  0.00    -0.275 OA
BRANCH  13  15
ATOM     15  C   UNL A   1      32.597  26.256  24.584  1.00  0.00     0.078 C 
ATOM     16  C   UNL A   1      31.329  26.908  25.129  1.00  0.00     0.014 C 
ATOM     17  C   UNL A   1      33.772  27.218  24.438  1.00  0.00     0.014 C 
ATOM     18  C   UNL A   1      31.018  28.257  24.480  1.00  0.00     0.010 C 
ATOM     19  C   UNL A   1      33.400  28.570  23.833  1.00  0.00     0.010 C 
ATOM     20  C   UNL A   1      32.211  29.226  24.551  1.00  0.00     0.044 C 
BRANCH  20  21
ATOM     21  C   UNL A   1      32.505  29.643  26.010  1.00  0.00     0.262 C 
BRANCH  21  22
ATOM     22  N   UNL A   1      33.861  30.138  26.194  1.00  0.00    -0.357 N 
ATOM     23  H   UNL A   1      34.251  29.752  27.053  1.00  0.00     0.344 HD
ATOM     24  H   UNL A   1      33.845  31.156  26.254  1.00  0.00     0.344 HD
ATOM     25  H   UNL A   1      34.436  29.854  25.401  1.00  0.00     0.344 HD
ENDBRANCH  21  22
ENDBRANCH  20  21
ENDBRANCH  13  15
ENDBRANCH  10  13
ENDBRANCH   4   7
ENDBRANCH   2   3
ENDBRANCH   1   2
BRANCH   1  26
ATOM     26  C   UNL A   1      36.018  21.087  25.369  1.00  0.00     0.023 C 
BRANCH  26  27
ATOM     27  C   UNL A   1      37.465  21.331  24.976  1.00  0.00     0.116 C 
BRANCH  27  28
ATOM     28  N   UNL A   1      38.368  20.262  25.383  1.00  0.00    -0.352 N 
ATOM     29  C   UNL A   1      39.546  20.344  26.095  1.00  0.00     0.251 C 
ATOM     30  H   UNL A   1      38.099  19.354  25.112  1.00  0.00     0.163 HD
ATOM     31  O   UNL A   1      40.234  19.350  26.268  1.00  0.00    -0.269 OA
BRANCH  29  32
ATOM     32  C   UNL A   1      39.982  21.660  26.610  1.00  0.00     0.039 A 
ATOM     33  C   UNL A   1      40.979  21.709  27.586  1.00  0.00     0.014 A 
ATOM     34  C   UNL A   1      39.457  22.837  26.074  1.00  0.00     0.014 A 
ATOM     35  C   UNL A   1      41.514  22.945  27.960  1.00  0.00     0.010 A 
ATOM     36  C   UNL A   1      40.059  24.054  26.372  1.00  0.00     0.010 A 
ATOM     37  C   UNL A   1      41.090  24.122  27.320  1.00  0.00    -0.014 A 
BRANCH  37  38
ATOM     38  C   UNL A   1      41.712  25.438  27.616  1.00  0.00     0.031 A 
ATOM     39  C   UNL A   1      40.930  26.489  28.355  1.00  0.00     0.074 A 
ATOM     40  C   UNL A   1      42.935  25.725  27.125  1.00  0.00     0.049 A 
ATOM     41  N   UNL A   1      41.264  27.722  28.631  1.00  0.00    -0.248 NA
ATOM     42  C   UNL A   1      39.578  26.119  28.809  1.00  0.00     0.031 C 
ATOM     43  C   UNL A   1      43.755  24.825  26.309  1.00  0.00     0.029 A 
ATOM     44  N   UNL A   1      43.690  26.868  27.215  1.00  0.00    -0.354 N 
ATOM     45  C   UNL A   1      40.154  28.286  29.248  1.00  0.00     0.074 A 
ATOM     46  C   UNL A   1      39.121  27.275  29.269  1.00  0.00     0.031 C 
ATOM     47  C   UNL A   1      44.899  25.447  25.982  1.00  0.00     0.029 A 
ATOM     48  C   UNL A   1      44.886  26.795  26.540  1.00  0.00     0.049 A 
ATOM     49  H   UNL A   1      43.402  27.665  27.716  1.00  0.00     0.167 HD
ATOM     50  C   UNL A   1      40.016  29.521  29.783  1.00  0.00     0.034 A 
ATOM     51  C   UNL A   1      45.862  27.712  26.388  1.00  0.00     0.034 A 
ATOM     52  C   UNL A   1      41.067  30.501  29.822  1.00  0.00     0.049 A 
ATOM     53  C   UNL A   1      45.714  29.052  27.056  1.00  0.00     0.074 A 
ATOM     54  C   UNL A   1      41.065  31.740  30.435  1.00  0.00     0.029 A 
ATOM     55  N   UNL A   1      42.309  30.349  29.225  1.00  0.00    -0.354 N 
ATOM     56  N   UNL A   1      44.723  29.505  27.785  1.00  0.00    -0.248 NA
ATOM     57  C   UNL A   1      46.835  29.994  26.916  1.00  0.00     0.031 C 
ATOM     58  C   UNL A   1      42.305  32.344  30.201  1.00  0.00     0.029 A 
ATOM     59  C   UNL A   1      43.083  31.473  29.453  1.00  0.00     0.049 A 
ATOM     60  H   UNL A   1      42.598  29.559  28.714  1.00  0.00     0.167 HD
ATOM     61  C   UNL A   1      45.112  30.768  28.216  1.00  0.00     0.074 A 
ATOM     62  C   UNL A   1      46.441  30.999  27.687  1.00  0.00     0.031 C 
ATOM     63  C   UNL A   1      44.426  31.663  28.969  1.00  0.00     0.034 A 
BRANCH  50  64
ATOM     64  C   UNL A   1      38.701  29.856  30.436  1.00  0.00     0.023 A 
ATOM     65  C   UNL A   1      38.424  29.358  31.726  1.00  0.00     0.012 A 
ATOM     66  C   UNL A   1      37.765  30.696  29.804  1.00  0.00     0.148 A 
ATOM     67  C   UNL A   1      37.221  29.660  32.362  1.00  0.00     0.002 A 
ATOM     68  C   UNL A   1      36.586  31.028  30.462  1.00  0.00     0.091 A 
ATOM     69  F   UNL A   1      38.035  31.140  28.568  1.00  0.00    -0.205 F 
ATOM     70  C   UNL A   1      36.308  30.503  31.734  1.00  0.00     0.022 A 
BRANCH  68  71
ATOM     71  S   UNL A   1      35.381  32.168  29.771  1.00  0.00     0.127 S 
ATOM     72  O   UNL A   1      34.844  31.389  28.658  1.00  0.00    -0.237 OA
ATOM     73  O   UNL A   1      34.455  32.352  30.889  1.00  0.00    -0.237 OA
ATOM     74  O   UNL A   1      36.128  33.362  29.400  1.00  0.00    -0.744 OA
ENDBRANCH  68  71
ENDBRANCH  50  64
BRANCH  51  75
ATOM     75  C   UNL A   1      47.103  27.362  25.639  1.00  0.00     0.023 A 
ATOM     76  C   UNL A   1      48.130  26.662  26.302  1.00  0.00     0.012 A 
ATOM     77  C   UNL A   1      47.259  27.685  24.278  1.00  0.00     0.148 A 
ATOM     78  C   UNL A   1      49.304  26.317  25.632  1.00  0.00     0.002 A 
ATOM     79  C   UNL A   1      48.410  27.290  23.601  1.00  0.00     0.091 A 
ATOM     80  F   UNL A   1      46.277  28.362  23.667  1.00  0.00    -0.205 F 
ATOM     81  C   UNL A   1      49.439  26.621  24.280  1.00  0.00     0.022 A 
BRANCH  79  82
ATOM     82  S   UNL A   1      48.610  27.525  21.831  1.00  0.00     0.127 S 
ATOM     83  O   UNL A   1      49.746  28.442  21.778  1.00  0.00    -0.237 OA
ATOM     84  O   UNL A   1      48.893  26.164  21.374  1.00  0.00    -0.237 OA
ATOM     85  O   UNL A   1      47.337  28.060  21.364  1.00  0.00    -0.744 OA
ENDBRANCH  79  82
ENDBRANCH  51  75
BRANCH  63  86
ATOM     86  C   UNL A   1      45.103  32.967  29.294  1.00  0.00     0.023 A 
ATOM     87  C   UNL A   1      45.895  33.071  30.454  1.00  0.00     0.012 A 
ATOM     88  C   UNL A   1      45.023  34.060  28.409  1.00  0.00     0.148 A 
ATOM     89  C   UNL A   1      46.575  34.253  30.743  1.00  0.00     0.002 A 
ATOM     90  C   UNL A   1      45.740  35.218  28.680  1.00  0.00     0.091 A 
ATOM     91  F   UNL A   1      44.248  33.947  27.321  1.00  0.00    -0.205 F 
ATOM     92  C   UNL A   1      46.508  35.322  29.852  1.00  0.00     0.022 A 
BRANCH  90  93
ATOM     93  S   UNL A   1      45.788  36.606  27.539  1.00  0.00     0.127 S 
ATOM     94  O   UNL A   1      44.388  37.029  27.526  1.00  0.00    -0.237 OA
ATOM     95  O   UNL A   1      46.698  37.534  28.213  1.00  0.00    -0.237 OA
ATOM     96  O   UNL A   1      46.295  36.072  26.283  1.00  0.00    -0.744 OA
ENDBRANCH  90  93
ENDBRANCH  63  86
ENDBRANCH  37  38
ENDBRANCH  29  32
ENDBRANCH  27  28
ENDBRANCH  26  27
ENDBRANCH   1  26
TORSDOF 18
ENDMDL
MODEL 3
REMARK VINA RESULT:     -11.7      4.975      9.856
REMARK SMILES C[C@H]1[C@H](C(=O)NCCCCNC(=O)c2ccc(-c3c4nc(c(-c5cccc(S(=O)(=O)[O-])c5F)c5ccc([nH]5)c(-c5cccc(S(=O)(=O)[O-])c5F)c5nc(c(-c6cccc(S(=O)(=O)[O-])c6F)c6ccc3[nH]6)C=C5)C=C4)cc2)CCN1C(=O)[C@H]1CC[C@@H](C[NH3+])CC1
REMARK SMILES IDX 8 1 7 2 6 3 4 4 5 5 3 7 1 8 2 9 79 10 77 11 78 12 80 13
REMARK SMILES IDX 81 14 82 15 89 16 83 17 88 18 84 19 85 20 86 21 87 22 9 26
REMARK SMILES IDX 10 27 11 28 12 29 13 31 14 32 15 33 76 34 16 35 75 36 17 37
REMARK SMILES IDX 18 38 19 39 69 40 20 41 74 42 68 43 70 44 21 45 73 46 67 47
REMARK SMILES IDX 66 48 22 50 54 51 34 52 53 53 35 54 38 55 52 56 71 57 36 58
REMARK SMILES IDX 37 59 51 61 72 62 39 63 23 64 24 65 32 66 25 67 27 68 33 69
REMARK SMILES IDX 26 70 28 71 29 72 30 73 31 74 55 75 56 76 64 77 57 78 59 79
REMARK SMILES IDX 65 80 58 81 60 82 61 83 62 84 63 85 40 86 41 87 49 88 42 89
REMARK SMILES IDX 44 90 50 91 43 92 45 93 46 94 47 95 48 96
REMARK H PARENT 6 6 87 23 87 24 87 25 11 30 70 49 38 60
REMARK Flexibility Score: inf
ROOT
ATOM      1  C   UNL A   1      32.233  27.812  26.988  1.00  0.00     0.023 C 
ENDROOT
BRANCH   1   2
ATOM      2  C   UNL A   1      31.074  27.416  26.079  1.00  0.00     0.116 C 
BRANCH   2   3
ATOM      3  N   UNL A   1      31.001  28.269  24.912  1.00  0.00    -0.356 N 
ATOM      4  C   UNL A   1      31.058  27.977  23.590  1.00  0.00     0.225 C 
ATOM      5  O   UNL A   1      31.029  28.925  22.799  1.00  0.00    -0.275 OA
ATOM      6  H   UNL A   1      30.891  29.226  25.113  1.00  0.00     0.163 HD
BRANCH   4   7
ATOM      7  C   UNL A   1      31.173  26.559  23.049  1.00  0.00     0.102 C 
ATOM      8  C   UNL A   1      33.169  25.618  21.909  1.00  0.00     0.032 C 
ATOM      9  C   UNL A   1      32.549  25.898  23.287  1.00  0.00     0.094 C 
ATOM     10  N   UNL A   1      32.255  24.654  24.018  1.00  0.00    -0.339 N 
ATOM     11  C   UNL A   1      30.118  25.570  23.538  1.00  0.00     0.037 C 
ATOM     12  C   UNL A   1      30.873  24.271  23.770  1.00  0.00     0.120 C 
BRANCH  10  13
ATOM     13  C   UNL A   1      33.030  23.833  24.819  1.00  0.00     0.225 C 
ATOM     14  O   UNL A   1      32.867  23.853  26.047  1.00  0.00    -0.275 OA
BRANCH  13  15
ATOM     15  C   UNL A   1      34.148  22.919  24.278  1.00  0.00     0.078 C 
ATOM     16  C   UNL A   1      35.434  23.644  23.891  1.00  0.00     0.014 C 
ATOM     17  C   UNL A   1      34.372  21.691  25.156  1.00  0.00     0.014 C 
ATOM     18  C   UNL A   1      36.551  22.697  23.452  1.00  0.00     0.010 C 
ATOM     19  C   UNL A   1      35.532  20.806  24.707  1.00  0.00     0.010 C 
ATOM     20  C   UNL A   1      36.829  21.601  24.496  1.00  0.00     0.044 C 
BRANCH  20  21
ATOM     21  C   UNL A   1      37.421  22.201  25.792  1.00  0.00     0.262 C 
BRANCH  21  22
ATOM     22  N   UNL A   1      38.663  22.923  25.563  1.00  0.00    -0.357 N 
ATOM     23  H   UNL A   1      38.641  23.355  24.640  1.00  0.00     0.344 HD
ATOM     24  H   UNL A   1      39.448  22.273  25.615  1.00  0.00     0.344 HD
ATOM     25  H   UNL A   1      38.772  23.645  26.275  1.00  0.00     0.344 HD
ENDBRANCH  21  22
ENDBRANCH  20  21
ENDBRANCH  13  15
ENDBRANCH  10  13
ENDBRANCH   4   7
ENDBRANCH   2   3
ENDBRANCH   1   2
BRANCH   1  26
ATOM     26  C   UNL A   1      33.625  27.460  26.493  1.00  0.00     0.023 C 
BRANCH  26  27
ATOM     27  C   UNL A   1      34.489  28.645  26.099  1.00  0.00     0.116 C 
BRANCH  27  28
ATOM     28  N   UNL A   1      33.960  29.927  26.548  1.00  0.00    -0.352 N 
ATOM     29  C   UNL A   1      34.453  30.780  27.512  1.00  0.00     0.251 C 
ATOM     30  H   UNL A   1      33.135  30.226  26.099  1.00  0.00     0.163 HD
ATOM     31  O   UNL A   1      33.826  31.778  27.834  1.00  0.00    -0.269 OA
BRANCH  29  32
ATOM     32  C   UNL A   1      35.731  30.446  28.178  1.00  0.00     0.039 A 
ATOM     33  C   UNL A   1      35.705  29.691  29.352  1.00  0.00     0.014 A 
ATOM     34  C   UNL A   1      36.946  30.818  27.602  1.00  0.00     0.014 A 
ATOM     35  C   UNL A   1      36.906  29.231  29.899  1.00  0.00     0.010 A 
ATOM     36  C   UNL A   1      38.129  30.276  28.089  1.00  0.00     0.010 A 
ATOM     37  C   UNL A   1      38.124  29.481  29.244  1.00  0.00    -0.014 A 
BRANCH  37  38
ATOM     38  C   UNL A   1      39.406  28.917  29.737  1.00  0.00     0.031 A 
ATOM     39  C   UNL A   1      40.129  29.582  30.877  1.00  0.00     0.074 A 
ATOM     40  C   UNL A   1      39.971  27.876  29.092  1.00  0.00     0.049 A 
ATOM     41  N   UNL A   1      41.295  29.295  31.391  1.00  0.00    -0.248 NA
ATOM     42  C   UNL A   1      39.474  30.749  31.493  1.00  0.00     0.031 C 
ATOM     43  C   UNL A   1      39.418  27.206  27.913  1.00  0.00     0.029 A 
ATOM     44  N   UNL A   1      41.155  27.219  29.319  1.00  0.00    -0.354 N 
ATOM     45  C   UNL A   1      41.534  30.266  32.356  1.00  0.00     0.074 A 
ATOM     46  C   UNL A   1      40.410  31.176  32.328  1.00  0.00     0.031 C 
ATOM     47  C   UNL A   1      40.255  26.230  27.527  1.00  0.00     0.029 A 
ATOM     48  C   UNL A   1      41.416  26.220  28.411  1.00  0.00     0.049 A 
ATOM     49  H   UNL A   1      41.761  27.443  30.063  1.00  0.00     0.167 HD
ATOM     50  C   UNL A   1      42.574  30.373  33.215  1.00  0.00     0.034 A 
ATOM     51  C   UNL A   1      42.471  25.388  28.304  1.00  0.00     0.034 A 
ATOM     52  C   UNL A   1      43.654  29.427  33.288  1.00  0.00     0.049 A 
ATOM     53  C   UNL A   1      43.578  25.481  29.318  1.00  0.00     0.074 A 
ATOM     54  C   UNL A   1      44.699  29.384  34.194  1.00  0.00     0.029 A 
ATOM     55  N   UNL A   1      43.826  28.357  32.424  1.00  0.00    -0.354 N 
ATOM     56  N   UNL A   1      43.700  26.301  30.334  1.00  0.00    -0.248 NA
ATOM     57  C   UNL A   1      44.676  24.509  29.198  1.00  0.00     0.031 C 
ATOM     58  C   UNL A   1      45.510  28.291  33.869  1.00  0.00     0.029 A 
ATOM     59  C   UNL A   1      44.962  27.648  32.771  1.00  0.00     0.049 A 
ATOM     60  H   UNL A   1      43.229  28.136  31.673  1.00  0.00     0.167 HD
ATOM     61  C   UNL A   1      44.866  25.925  30.991  1.00  0.00     0.074 A 
ATOM     62  C   UNL A   1      45.402  24.787  30.272  1.00  0.00     0.031 C 
ATOM     63  C   UNL A   1      45.449  26.481  32.081  1.00  0.00     0.034 A 
BRANCH  50  64
ATOM     64  C   UNL A   1      42.554  31.514  34.197  1.00  0.00     0.023 A 
ATOM     65  C   UNL A   1      43.260  32.697  33.896  1.00  0.00     0.012 A 
ATOM     66  C   UNL A   1      41.804  31.440  35.387  1.00  0.00     0.148 A 
ATOM     67  C   UNL A   1      43.252  33.775  34.780  1.00  0.00     0.002 A 
ATOM     68  C   UNL A   1      41.765  32.536  36.242  1.00  0.00     0.091 A 
ATOM     69  F   UNL A   1      41.159  30.299  35.668  1.00  0.00    -0.205 F 
ATOM     70  C   UNL A   1      42.496  33.698  35.946  1.00  0.00     0.022 A 
BRANCH  68  71
ATOM     71  S   UNL A   1      40.759  32.564  37.730  1.00  0.00     0.127 S 
ATOM     72  O   UNL A   1      40.539  33.998  37.909  1.00  0.00    -0.237 OA
ATOM     73  O   UNL A   1      39.574  31.813  37.316  1.00  0.00    -0.237 OA
ATOM     74  O   UNL A   1      41.556  31.918  38.763  1.00  0.00    -0.744 OA
ENDBRANCH  68  71
ENDBRANCH  50  64
BRANCH  51  75
ATOM     75  C   UNL A   1      42.489  24.340  27.244  1.00  0.00     0.023 A 
ATOM     76  C   UNL A   1      43.085  24.632  26.001  1.00  0.00     0.012 A 
ATOM     77  C   UNL A   1      41.955  23.057  27.465  1.00  0.00     0.148 A 
ATOM     78  C   UNL A   1      43.121  23.675  24.986  1.00  0.00     0.002 A 
ATOM     79  C   UNL A   1      42.043  22.090  26.468  1.00  0.00     0.091 A 
ATOM     80  F   UNL A   1      41.381  22.801  28.649  1.00  0.00    -0.205 F 
ATOM     81  C   UNL A   1      42.610  22.401  25.223  1.00  0.00     0.022 A 
BRANCH  79  82
ATOM     82  S   UNL A   1      41.529  20.388  26.734  1.00  0.00     0.127 S 
ATOM     83  O   UNL A   1      42.269  20.039  27.944  1.00  0.00    -0.237 OA
ATOM     84  O   UNL A   1      40.084  20.532  26.914  1.00  0.00    -0.237 OA
ATOM     85  O   UNL A   1      41.913  19.674  25.524  1.00  0.00    -0.744 OA
ENDBRANCH  79  82
ENDBRANCH  51  75
BRANCH  63  86
ATOM     86  C   UNL A   1      46.721  25.856  32.588  1.00  0.00     0.023 A 
ATOM     87  C   UNL A   1      47.965  26.369  32.171  1.00  0.00     0.012 A 
ATOM     88  C   UNL A   1      46.684  24.819  33.542  1.00  0.00     0.148 A 
ATOM     89  C   UNL A   1      49.153  25.841  32.673  1.00  0.00     0.002 A 
ATOM     90  C   UNL A   1      47.870  24.329  34.071  1.00  0.00     0.091 A 
ATOM     91  F   UNL A   1      45.490  24.332  33.911  1.00  0.00    -0.205 F 
ATOM     92  C   UNL A   1      49.106  24.830  33.630  1.00  0.00     0.022 A 
BRANCH  90  93
ATOM     93  S   UNL A   1      47.900  23.097  35.378  1.00  0.00     0.127 S 
ATOM     94  O   UNL A   1      49.333  22.971  35.638  1.00  0.00    -0.237 OA
ATOM     95  O   UNL A   1      47.143  23.753  36.446  1.00  0.00    -0.237 OA
ATOM     96  O   UNL A   1      47.256  21.913  34.824  1.00  0.00    -0.744 OA
ENDBRANCH  90  93
ENDBRANCH  63  86
ENDBRANCH  37  38
ENDBRANCH  29  32
ENDBRANCH  27  28
ENDBRANCH  26  27
ENDBRANCH   1  26
TORSDOF 18
ENDMDL
