MODEL 1
REMARK VINA RESULT:     -13.2      0.000      0.000
REMARK SMILES CC1CCN(S(=O)(=O)N2CCC[C@H](c3cccc(C(=O)NCCCCNC(=O)c4ccc(-c5c6nc(c(-c7cccc(S(=O)(=O)[O-])c7F)c7ccc([nH]7)c(-c7cccc(S(=O)(=O)[O-])c7F)c7nc(c(-c8cccc(S(=O)(=O)[O-])c8F)c8ccc5[nH]8)C=C7)C=C6)cc4)c3)C2)CC1
REMARK SMILES IDX 23 1 22 2 21 3 19 4 20 5 18 7 14 8 15 9 92 10 16 11 17 12
REMARK SMILES IDX 13 13 9 14 10 15 93 16 11 17 12 18 6 19 7 20 8 21 5 22 1 23
REMARK SMILES IDX 2 24 3 25 95 26 4 27 94 28 24 29 25 30 26 31 27 32 28 34
REMARK SMILES IDX 29 35 30 36 91 37 31 38 90 39 32 40 33 41 34 42 84 43 35 44
REMARK SMILES IDX 89 45 83 46 85 47 36 48 88 49 82 50 81 51 37 53 69 54 49 55
REMARK SMILES IDX 68 56 50 57 53 58 67 59 86 60 51 61 52 62 66 64 87 65 54 66
REMARK SMILES IDX 38 67 39 68 47 69 40 70 42 71 48 72 41 73 43 74 44 75 45 76
REMARK SMILES IDX 46 77 70 78 71 79 79 80 72 81 74 82 80 83 73 84 75 85 76 86
REMARK SMILES IDX 77 87 78 88 55 89 56 90 64 91 57 92 59 93 65 94 58 95 60 96
REMARK SMILES IDX 61 97 62 98 63 99
REMARK H PARENT 21 6 26 33 85 52 53 63
REMARK Flexibility Score: inf
ROOT
ATOM      1  C   UNL A   1      30.905  29.481  24.359  1.00  0.00     0.023 C 
ENDROOT
BRANCH   1   2
ATOM      2  C   UNL A   1      30.426  28.718  23.134  1.00  0.00     0.116 C 
BRANCH   2   3
ATOM      3  N   UNL A   1      29.162  28.007  23.282  1.00  0.00    -0.352 N 
ATOM      4  C   UNL A   1      28.858  26.791  23.874  1.00  0.00     0.251 C 
ATOM      5  O   UNL A   1      27.693  26.402  23.881  1.00  0.00    -0.269 OA
ATOM      6  H   UNL A   1      28.387  28.471  22.893  1.00  0.00     0.163 HD
BRANCH   4   7
ATOM      7  C   UNL A   1      29.914  25.907  24.438  1.00  0.00     0.040 A 
ATOM      8  C   UNL A   1      31.570  24.179  24.023  1.00  0.00    -0.043 A 
ATOM      9  C   UNL A   1      31.537  23.848  25.383  1.00  0.00     0.004 A 
ATOM     10  C   UNL A   1      30.875  25.323  23.620  1.00  0.00     0.017 A 
ATOM     11  C   UNL A   1      30.742  24.578  26.274  1.00  0.00     0.001 A 
ATOM     12  C   UNL A   1      29.890  25.573  25.793  1.00  0.00     0.014 A 
BRANCH   8  13
ATOM     13  C   UNL A   1      32.064  23.236  22.930  1.00  0.00     0.034 C 
ATOM     14  N   UNL A   1      33.597  21.676  24.102  1.00  0.00    -0.188 NA
ATOM     15  C   UNL A   1      34.797  22.218  23.435  1.00  0.00     0.103 C 
ATOM     16  C   UNL A   1      32.332  21.789  23.346  1.00  0.00     0.111 C 
ATOM     17  C   UNL A   1      34.544  23.645  22.948  1.00  0.00     0.017 C 
ATOM     18  C   UNL A   1      33.276  23.721  22.111  1.00  0.00     0.011 C 
BRANCH  14  19
ATOM     19  S   UNL A   1      33.793  20.383  25.142  1.00  0.00     0.281 S 
ATOM     20  O   UNL A   1      33.298  20.782  26.441  1.00  0.00    -0.195 OA
ATOM     21  O   UNL A   1      35.144  19.891  25.002  1.00  0.00    -0.195 OA
BRANCH  19  22
ATOM     22  N   UNL A   1      32.773  19.177  24.512  1.00  0.00    -0.189 NA
ATOM     23  C   UNL A   1      35.169  15.755  25.374  1.00  0.00     0.008 C 
ATOM     24  C   UNL A   1      33.964  16.506  24.806  1.00  0.00    -0.012 C 
ATOM     25  C   UNL A   1      34.408  17.479  23.696  1.00  0.00     0.020 C 
ATOM     26  C   UNL A   1      33.194  17.200  25.941  1.00  0.00     0.020 C 
ATOM     27  C   UNL A   1      33.337  18.501  23.305  1.00  0.00     0.104 C 
ATOM     28  C   UNL A   1      32.154  18.152  25.378  1.00  0.00     0.104 C 
ENDBRANCH  19  22
ENDBRANCH  14  19
ENDBRANCH   8  13
ENDBRANCH   4   7
ENDBRANCH   2   3
ENDBRANCH   1   2
BRANCH   1  29
ATOM     29  C   UNL A   1      32.032  28.842  25.154  1.00  0.00     0.023 C 
BRANCH  29  30
ATOM     30  C   UNL A   1      32.197  29.333  26.586  1.00  0.00     0.116 C 
BRANCH  30  31
ATOM     31  N   UNL A   1      31.969  30.767  26.749  1.00  0.00    -0.352 N 
ATOM     32  C   UNL A   1      32.812  31.734  27.249  1.00  0.00     0.251 C 
ATOM     33  H   UNL A   1      31.085  31.088  26.459  1.00  0.00     0.163 HD
ATOM     34  O   UNL A   1      32.413  32.886  27.397  1.00  0.00    -0.269 OA
BRANCH  32  35
ATOM     35  C   UNL A   1      34.187  31.364  27.649  1.00  0.00     0.039 A 
ATOM     36  C   UNL A   1      35.113  32.379  27.907  1.00  0.00     0.014 A 
ATOM     37  C   UNL A   1      34.532  30.026  27.848  1.00  0.00     0.014 A 
ATOM     38  C   UNL A   1      36.346  32.054  28.478  1.00  0.00     0.010 A 
ATOM     39  C   UNL A   1      35.723  29.715  28.495  1.00  0.00     0.010 A 
ATOM     40  C   UNL A   1      36.634  30.727  28.837  1.00  0.00    -0.014 A 
BRANCH  40  41
ATOM     41  C   UNL A   1      37.844  30.383  29.628  1.00  0.00     0.031 A 
ATOM     42  C   UNL A   1      38.851  29.402  29.094  1.00  0.00     0.074 A 
ATOM     43  C   UNL A   1      37.977  30.872  30.878  1.00  0.00     0.049 A 
ATOM     44  N   UNL A   1      39.915  28.917  29.678  1.00  0.00    -0.248 NA
ATOM     45  C   UNL A   1      38.618  28.880  27.739  1.00  0.00     0.031 C 
ATOM     46  C   UNL A   1      37.030  31.771  31.541  1.00  0.00     0.029 A 
ATOM     47  N   UNL A   1      38.944  30.653  31.830  1.00  0.00    -0.354 N 
ATOM     48  C   UNL A   1      40.461  28.009  28.778  1.00  0.00     0.074 A 
ATOM     49  C   UNL A   1      39.593  27.989  27.622  1.00  0.00     0.031 C 
ATOM     50  C   UNL A   1      37.462  32.029  32.786  1.00  0.00     0.029 A 
ATOM     51  C   UNL A   1      38.689  31.280  33.029  1.00  0.00     0.049 A 
ATOM     52  H   UNL A   1      39.742  30.101  31.670  1.00  0.00     0.167 HD
ATOM     53  C   UNL A   1      41.594  27.277  28.895  1.00  0.00     0.034 A 
ATOM     54  C   UNL A   1      39.354  31.239  34.201  1.00  0.00     0.034 A 
ATOM     55  C   UNL A   1      42.467  27.317  30.037  1.00  0.00     0.049 A 
ATOM     56  C   UNL A   1      40.610  30.416  34.302  1.00  0.00     0.074 A 
ATOM     57  C   UNL A   1      43.684  26.680  30.210  1.00  0.00     0.029 A 
ATOM     58  N   UNL A   1      42.209  28.010  31.209  1.00  0.00    -0.354 N 
ATOM     59  N   UNL A   1      41.201  29.695  33.380  1.00  0.00    -0.248 NA
ATOM     60  C   UNL A   1      41.305  30.420  35.598  1.00  0.00     0.031 C 
ATOM     61  C   UNL A   1      44.140  26.954  31.503  1.00  0.00     0.029 A 
ATOM     62  C   UNL A   1      43.229  27.795  32.121  1.00  0.00     0.049 A 
ATOM     63  H   UNL A   1      41.418  28.573  31.370  1.00  0.00     0.167 HD
ATOM     64  C   UNL A   1      42.347  29.181  33.974  1.00  0.00     0.074 A 
ATOM     65  C   UNL A   1      42.384  29.699  35.326  1.00  0.00     0.031 C 
ATOM     66  C   UNL A   1      43.277  28.344  33.452  1.00  0.00     0.034 A 
BRANCH  53  67
ATOM     67  C   UNL A   1      41.977  26.390  27.738  1.00  0.00     0.023 A 
ATOM     68  C   UNL A   1      42.769  26.907  26.692  1.00  0.00     0.012 A 
ATOM     69  C   UNL A   1      41.606  25.031  27.717  1.00  0.00     0.148 A 
ATOM     70  C   UNL A   1      43.155  26.097  25.625  1.00  0.00     0.002 A 
ATOM     71  C   UNL A   1      42.035  24.218  26.674  1.00  0.00     0.091 A 
ATOM     72  F   UNL A   1      40.837  24.562  28.709  1.00  0.00    -0.205 F 
ATOM     73  C   UNL A   1      42.798  24.752  25.622  1.00  0.00     0.022 A 
BRANCH  71  74
ATOM     74  S   UNL A   1      41.698  22.455  26.616  1.00  0.00     0.127 S 
ATOM     75  O   UNL A   1      40.237  22.437  26.553  1.00  0.00    -0.237 OA
ATOM     76  O   UNL A   1      42.367  22.056  25.378  1.00  0.00    -0.237 OA
ATOM     77  O   UNL A   1      42.276  21.894  27.830  1.00  0.00    -0.744 OA
ENDBRANCH  71  74
ENDBRANCH  53  67
BRANCH  54  78
ATOM     78  C   UNL A   1      38.862  32.027  35.368  1.00  0.00     0.023 A 
ATOM     79  C   UNL A   1      38.979  33.431  35.357  1.00  0.00     0.012 A 
ATOM     80  C   UNL A   1      38.267  31.397  36.477  1.00  0.00     0.148 A 
ATOM     81  C   UNL A   1      38.543  34.189  36.445  1.00  0.00     0.002 A 
ATOM     82  C   UNL A   1      37.781  32.162  37.531  1.00  0.00     0.091 A 
ATOM     83  F   UNL A   1      38.175  30.059  36.474  1.00  0.00    -0.205 F 
ATOM     84  C   UNL A   1      37.936  33.557  37.526  1.00  0.00     0.022 A 
BRANCH  82  85
ATOM     85  S   UNL A   1      36.867  31.447  38.901  1.00  0.00     0.127 S 
ATOM     86  O   UNL A   1      37.819  31.584  40.001  1.00  0.00    -0.237 OA
ATOM     87  O   UNL A   1      35.703  32.331  38.979  1.00  0.00    -0.237 OA
ATOM     88  O   UNL A   1      36.558  30.081  38.500  1.00  0.00    -0.744 OA
ENDBRANCH  82  85
ENDBRANCH  54  78
BRANCH  66  89
ATOM     89  C   UNL A   1      44.430  27.942  34.335  1.00  0.00     0.023 A 
ATOM     90  C   UNL A   1      45.585  28.749  34.392  1.00  0.00     0.012 A 
ATOM     91  C   UNL A   1      44.339  26.808  35.165  1.00  0.00     0.148 A 
ATOM     92  C   UNL A   1      46.643  28.414  35.235  1.00  0.00     0.002 A 
ATOM     93  C   UNL A   1      45.376  26.509  36.041  1.00  0.00     0.091 A 
ATOM     94  F   UNL A   1      43.239  26.045  35.087  1.00  0.00    -0.205 F 
ATOM     95  C   UNL A   1      46.533  27.303  36.069  1.00  0.00     0.022 A 
BRANCH  93  96
ATOM     96  S   UNL A   1      45.288  25.156  37.219  1.00  0.00     0.127 S 
ATOM     97  O   UNL A   1      44.063  25.477  37.950  1.00  0.00    -0.237 OA
ATOM     98  O   UNL A   1      45.187  23.990  36.341  1.00  0.00    -0.237 OA
ATOM     99  O   UNL A   1      46.512  25.221  38.005  1.00  0.00    -0.744 OA
ENDBRANCH  93  96
ENDBRANCH  66  89
ENDBRANCH  40  41
ENDBRANCH  32  35
ENDBRANCH  30  31
ENDBRANCH  29  30
ENDBRANCH   1  29
TORSDOF 17
ENDMDL
MODEL 2
REMARK VINA RESULT:     -12.5      5.745     10.883
REMARK SMILES CC1CCN(S(=O)(=O)N2CCC[C@H](c3cccc(C(=O)NCCCCNC(=O)c4ccc(-c5c6nc(c(-c7cccc(S(=O)(=O)[O-])c7F)c7ccc([nH]7)c(-c7cccc(S(=O)(=O)[O-])c7F)c7nc(c(-c8cccc(S(=O)(=O)[O-])c8F)c8ccc5[nH]8)C=C7)C=C6)cc4)c3)C2)CC1
REMARK SMILES IDX 23 1 22 2 21 3 19 4 20 5 18 7 14 8 15 9 92 10 16 11 17 12
REMARK SMILES IDX 13 13 9 14 10 15 93 16 11 17 12 18 6 19 7 20 8 21 5 22 1 23
REMARK SMILES IDX 2 24 3 25 95 26 4 27 94 28 24 29 25 30 26 31 27 32 28 34
REMARK SMILES IDX 29 35 30 36 91 37 31 38 90 39 32 40 33 41 34 42 84 43 35 44
REMARK SMILES IDX 89 45 83 46 85 47 36 48 88 49 82 50 81 51 37 53 69 54 49 55
REMARK SMILES IDX 68 56 50 57 53 58 67 59 86 60 51 61 52 62 66 64 87 65 54 66
REMARK SMILES IDX 38 67 39 68 47 69 40 70 42 71 48 72 41 73 43 74 44 75 45 76
REMARK SMILES IDX 46 77 70 78 71 79 79 80 72 81 74 82 80 83 73 84 75 85 76 86
REMARK SMILES IDX 77 87 78 88 55 89 56 90 64 91 57 92 59 93 65 94 58 95 60 96
REMARK SMILES IDX 61 97 62 98 63 99
REMARK H PARENT 21 6 26 33 85 52 53 63
REMARK Flexibility Score: inf
ROOT
ATOM      1  C   UNL A   1      38.900  23.257  26.331  1.00  0.00     0.023 C 
ENDROOT
BRANCH   1   2
ATOM      2  C   UNL A   1      37.632  23.959  25.867  1.00  0.00     0.116 C 
BRANCH   2   3
ATOM      3  N   UNL A   1      37.231  23.703  24.489  1.00  0.00    -0.352 N 
ATOM      4  C   UNL A   1      36.144  23.025  23.961  1.00  0.00     0.251 C 
ATOM      5  O   UNL A   1      36.017  22.953  22.742  1.00  0.00    -0.269 OA
ATOM      6  H   UNL A   1      37.841  24.078  23.814  1.00  0.00     0.163 HD
BRANCH   4   7
ATOM      7  C   UNL A   1      35.164  22.318  24.830  1.00  0.00     0.040 A 
ATOM      8  C   UNL A   1      32.834  21.787  25.270  1.00  0.00    -0.043 A 
ATOM      9  C   UNL A   1      33.171  21.501  26.599  1.00  0.00     0.004 A 
ATOM     10  C   UNL A   1      33.883  22.025  24.376  1.00  0.00     0.017 A 
ATOM     11  C   UNL A   1      34.502  21.569  27.026  1.00  0.00     0.001 A 
ATOM     12  C   UNL A   1      35.491  22.028  26.155  1.00  0.00     0.014 A 
BRANCH   8  13
ATOM     13  C   UNL A   1      31.423  22.130  24.805  1.00  0.00     0.034 C 
ATOM     14  N   UNL A   1      31.513  24.554  24.282  1.00  0.00    -0.188 NA
ATOM     15  C   UNL A   1      30.652  24.920  25.424  1.00  0.00     0.103 C 
ATOM     16  C   UNL A   1      31.302  23.203  23.722  1.00  0.00     0.111 C 
ATOM     17  C   UNL A   1      30.699  23.837  26.502  1.00  0.00     0.017 C 
ATOM     18  C   UNL A   1      30.406  22.466  25.913  1.00  0.00     0.011 C 
BRANCH  14  19
ATOM     19  S   UNL A   1      32.020  25.773  23.258  1.00  0.00     0.281 S 
ATOM     20  O   UNL A   1      31.175  26.924  23.489  1.00  0.00    -0.195 OA
ATOM     21  O   UNL A   1      32.146  25.223  21.929  1.00  0.00    -0.195 OA
BRANCH  19  22
ATOM     22  N   UNL A   1      33.597  26.135  23.782  1.00  0.00    -0.189 NA
ATOM     23  C   UNL A   1      32.665  29.051  26.751  1.00  0.00     0.008 C 
ATOM     24  C   UNL A   1      33.583  28.190  25.884  1.00  0.00    -0.012 C 
ATOM     25  C   UNL A   1      33.408  28.545  24.394  1.00  0.00     0.020 C 
ATOM     26  C   UNL A   1      33.340  26.701  26.178  1.00  0.00     0.020 C 
ATOM     27  C   UNL A   1      34.028  27.523  23.437  1.00  0.00     0.104 C 
ATOM     28  C   UNL A   1      34.049  25.830  25.155  1.00  0.00     0.104 C 
ENDBRANCH  19  22
ENDBRANCH  14  19
ENDBRANCH   8  13
ENDBRANCH   4   7
ENDBRANCH   2   3
ENDBRANCH   1   2
BRANCH   1  29
ATOM     29  C   UNL A   1      39.161  21.881  25.742  1.00  0.00     0.023 C 
BRANCH  29  30
ATOM     30  C   UNL A   1      39.381  20.759  26.748  1.00  0.00     0.116 C 
BRANCH  30  31
ATOM     31  N   UNL A   1      40.266  19.700  26.269  1.00  0.00    -0.352 N 
ATOM     32  C   UNL A   1      41.627  19.725  26.062  1.00  0.00     0.251 C 
ATOM     33  H   UNL A   1      39.825  18.844  26.065  1.00  0.00     0.163 HD
ATOM     34  O   UNL A   1      42.195  18.758  25.563  1.00  0.00    -0.269 OA
BRANCH  32  35
ATOM     35  C   UNL A   1      42.391  20.945  26.402  1.00  0.00     0.039 A 
ATOM     36  C   UNL A   1      42.770  21.814  25.377  1.00  0.00     0.014 A 
ATOM     37  C   UNL A   1      42.657  21.266  27.735  1.00  0.00     0.014 A 
ATOM     38  C   UNL A   1      43.311  23.062  25.698  1.00  0.00     0.010 A 
ATOM     39  C   UNL A   1      43.113  22.541  28.054  1.00  0.00     0.010 A 
ATOM     40  C   UNL A   1      43.425  23.461  27.040  1.00  0.00    -0.014 A 
BRANCH  40  41
ATOM     41  C   UNL A   1      43.800  24.851  27.407  1.00  0.00     0.031 A 
ATOM     42  C   UNL A   1      42.780  25.788  27.992  1.00  0.00     0.074 A 
ATOM     43  C   UNL A   1      45.036  25.302  27.107  1.00  0.00     0.049 A 
ATOM     44  N   UNL A   1      42.903  27.055  28.288  1.00  0.00    -0.248 NA
ATOM     45  C   UNL A   1      41.442  25.236  28.252  1.00  0.00     0.031 C 
ATOM     46  C   UNL A   1      46.093  24.515  26.468  1.00  0.00     0.029 A 
ATOM     47  N   UNL A   1      45.602  26.544  27.269  1.00  0.00    -0.354 N 
ATOM     48  C   UNL A   1      41.653  27.461  28.740  1.00  0.00     0.074 A 
ATOM     49  C   UNL A   1      40.778  26.313  28.648  1.00  0.00     0.031 C 
ATOM     50  C   UNL A   1      47.177  25.289  26.295  1.00  0.00     0.029 A 
ATOM     51  C   UNL A   1      46.880  26.637  26.765  1.00  0.00     0.049 A 
ATOM     52  H   UNL A   1      45.138  27.295  27.703  1.00  0.00     0.167 HD
ATOM     53  C   UNL A   1      41.273  28.674  29.209  1.00  0.00     0.034 A 
ATOM     54  C   UNL A   1      47.713  27.693  26.670  1.00  0.00     0.034 A 
ATOM     55  C   UNL A   1      42.152  29.807  29.321  1.00  0.00     0.049 A 
ATOM     56  C   UNL A   1      47.265  29.029  27.199  1.00  0.00     0.074 A 
ATOM     57  C   UNL A   1      41.884  31.050  29.867  1.00  0.00     0.029 A 
ATOM     58  N   UNL A   1      43.458  29.847  28.857  1.00  0.00    -0.354 N 
ATOM     59  N   UNL A   1      46.133  29.350  27.777  1.00  0.00    -0.248 NA
ATOM     60  C   UNL A   1      48.218  30.143  27.085  1.00  0.00     0.031 C 
ATOM     61  C   UNL A   1      43.015  31.855  29.695  1.00  0.00     0.029 A 
ATOM     62  C   UNL A   1      44.001  31.102  29.079  1.00  0.00     0.049 A 
ATOM     63  H   UNL A   1      43.930  29.095  28.433  1.00  0.00     0.167 HD
ATOM     64  C   UNL A   1      46.246  30.692  28.119  1.00  0.00     0.074 A 
ATOM     65  C   UNL A   1      47.569  31.116  27.710  1.00  0.00     0.031 C 
ATOM     66  C   UNL A   1      45.332  31.505  28.703  1.00  0.00     0.034 A 
BRANCH  53  67
ATOM     67  C   UNL A   1      39.848  28.831  29.673  1.00  0.00     0.023 A 
ATOM     68  C   UNL A   1      39.475  28.373  30.954  1.00  0.00     0.012 A 
ATOM     69  C   UNL A   1      38.895  29.486  28.869  1.00  0.00     0.148 A 
ATOM     70  C   UNL A   1      38.168  28.531  31.412  1.00  0.00     0.002 A 
ATOM     71  C   UNL A   1      37.607  29.682  29.353  1.00  0.00     0.091 A 
ATOM     72  F   UNL A   1      39.263  29.897  27.648  1.00  0.00    -0.205 F 
ATOM     73  C   UNL A   1      37.238  29.194  30.617  1.00  0.00     0.022 A 
BRANCH  71  74
ATOM     74  S   UNL A   1      36.357  30.596  28.442  1.00  0.00     0.127 S 
ATOM     75  O   UNL A   1      36.191  29.761  27.253  1.00  0.00    -0.237 OA
ATOM     76  O   UNL A   1      35.225  30.572  29.368  1.00  0.00    -0.237 OA
ATOM     77  O   UNL A   1      36.919  31.918  28.201  1.00  0.00    -0.744 OA
ENDBRANCH  71  74
ENDBRANCH  53  67
BRANCH  54  78
ATOM     78  C   UNL A   1      49.070  27.524  26.075  1.00  0.00     0.023 A 
ATOM     79  C   UNL A   1      50.155  27.183  26.907  1.00  0.00     0.012 A 
ATOM     80  C   UNL A   1      49.288  27.684  24.693  1.00  0.00     0.148 A 
ATOM     81  C   UNL A   1      51.438  27.037  26.376  1.00  0.00     0.002 A 
ATOM     82  C   UNL A   1      50.557  27.479  24.164  1.00  0.00     0.091 A 
ATOM     83  F   UNL A   1      48.245  28.020  23.920  1.00  0.00    -0.205 F 
ATOM     84  C   UNL A   1      51.637  27.176  25.006  1.00  0.00     0.022 A 
BRANCH  82  85
ATOM     85  S   UNL A   1      50.880  27.505  22.398  1.00  0.00     0.127 S 
ATOM     86  O   UNL A   1      49.775  26.702  21.879  1.00  0.00    -0.237 OA
ATOM     87  O   UNL A   1      50.799  28.935  22.099  1.00  0.00    -0.237 OA
ATOM     88  O   UNL A   1      52.210  26.931  22.231  1.00  0.00    -0.744 OA
ENDBRANCH  82  85
ENDBRANCH  54  78
BRANCH  66  89
ATOM     89  C   UNL A   1      45.729  32.936  28.958  1.00  0.00     0.023 A 
ATOM     90  C   UNL A   1      46.436  33.271  30.130  1.00  0.00     0.012 A 
ATOM     91  C   UNL A   1      45.469  33.936  27.999  1.00  0.00     0.148 A 
ATOM     92  C   UNL A   1      46.848  34.582  30.360  1.00  0.00     0.002 A 
ATOM     93  C   UNL A   1      45.928  35.230  28.211  1.00  0.00     0.091 A 
ATOM     94  F   UNL A   1      44.782  33.601  26.897  1.00  0.00    -0.205 F 
ATOM     95  C   UNL A   1      46.606  35.558  29.395  1.00  0.00     0.022 A 
BRANCH  93  96
ATOM     96  S   UNL A   1      45.748  36.533  26.987  1.00  0.00     0.127 S 
ATOM     97  O   UNL A   1      46.400  35.939  25.821  1.00  0.00    -0.237 OA
ATOM     98  O   UNL A   1      44.293  36.653  26.878  1.00  0.00    -0.237 OA
ATOM     99  O   UNL A   1      46.414  37.704  27.540  1.00  0.00    -0.744 OA
ENDBRANCH  93  96
ENDBRANCH  66  89
ENDBRANCH  40  41
ENDBRANCH  32  35
ENDBRANCH  30  31
ENDBRANCH  29  30
ENDBRANCH   1  29
TORSDOF 17
ENDMDL
MODEL 3
REMARK VINA RESULT:     -12.4      1.941      2.250
REMARK SMILES CC1CCN(S(=O)(=O)N2CCC[C@H](c3cccc(C(=O)NCCCCNC(=O)c4ccc(-c5c6nc(c(-c7cccc(S(=O)(=O)[O-])c7F)c7ccc([nH]7)c(-c7cccc(S(=O)(=O)[O-])c7F)c7nc(c(-c8cccc(S(=O)(=O)[O-])c8F)c8ccc5[nH]8)C=C7)C=C6)cc4)c3)C2)CC1
REMARK SMILES IDX 23 1 22 2 21 3 19 4 20 5 18 7 14 8 15 9 92 10 16 11 17 12
REMARK SMILES IDX 13 13 9 14 10 15 93 16 11 17 12 18 6 19 7 20 8 21 5 22 1 23
REMARK SMILES IDX 2 24 3 25 95 26 4 27 94 28 24 29 25 30 26 31 27 32 28 34
REMARK SMILES IDX 29 35 30 36 91 37 31 38 90 39 32 40 33 41 34 42 84 43 35 44
REMARK SMILES IDX 89 45 83 46 85 47 36 48 88 49 82 50 81 51 37 53 69 54 49 55
REMARK SMILES IDX 68 56 50 57 53 58 67 59 86 60 51 61 52 62 66 64 87 65 54 66
REMARK SMILES IDX 38 67 39 68 47 69 40 70 42 71 48 72 41 73 43 74 44 75 45 76
REMARK SMILES IDX 46 77 70 78 71 79 79 80 72 81 74 82 80 83 73 84 75 85 76 86
REMARK SMILES IDX 77 87 78 88 55 89 56 90 64 91 57 92 59 93 65 94 58 95 60 96
REMARK SMILES IDX 61 97 62 98 63 99
REMARK H PARENT 21 6 26 33 85 52 53 63
REMARK Flexibility Score: inf
ROOT
ATOM      1  C   UNL A   1      31.520  29.455  24.588  1.00  0.00     0.023 C 
ENDROOT
BRANCH   1   2
ATOM      2  C   UNL A   1      31.042  28.746  23.330  1.00  0.00     0.116 C 
BRANCH   2   3
ATOM      3  N   UNL A   1      29.675  28.241  23.365  1.00  0.00    -0.352 N 
ATOM      4  C   UNL A   1      29.145  27.065  23.871  1.00  0.00     0.251 C 
ATOM      5  O   UNL A   1      27.935  26.869  23.789  1.00  0.00    -0.269 OA
ATOM      6  H   UNL A   1      29.011  28.841  22.956  1.00  0.00     0.163 HD
BRANCH   4   7
ATOM      7  C   UNL A   1      30.008  25.999  24.448  1.00  0.00     0.040 A 
ATOM      8  C   UNL A   1      31.505  24.132  24.030  1.00  0.00    -0.043 A 
ATOM      9  C   UNL A   1      31.247  23.660  25.323  1.00  0.00     0.004 A 
ATOM     10  C   UNL A   1      31.003  25.392  23.690  1.00  0.00     0.017 A 
ATOM     11  C   UNL A   1      30.421  24.383  26.192  1.00  0.00     0.001 A 
ATOM     12  C   UNL A   1      29.759  25.524  25.737  1.00  0.00     0.014 A 
BRANCH   8  13
ATOM     13  C   UNL A   1      32.039  23.260  22.898  1.00  0.00     0.034 C 
ATOM     14  N   UNL A   1      33.367  21.502  24.041  1.00  0.00    -0.188 NA
ATOM     15  C   UNL A   1      34.651  22.020  23.532  1.00  0.00     0.103 C 
ATOM     16  C   UNL A   1      32.184  21.767  23.196  1.00  0.00     0.111 C 
ATOM     17  C   UNL A   1      34.527  23.499  23.164  1.00  0.00     0.017 C 
ATOM     18  C   UNL A   1      33.346  23.734  22.234  1.00  0.00     0.011 C 
BRANCH  14  19
ATOM     19  S   UNL A   1      33.392  20.111  24.967  1.00  0.00     0.281 S 
ATOM     20  O   UNL A   1      32.035  19.832  25.383  1.00  0.00    -0.195 OA
ATOM     21  O   UNL A   1      34.439  20.244  25.953  1.00  0.00    -0.195 OA
BRANCH  19  22
ATOM     22  N   UNL A   1      33.897  18.897  23.889  1.00  0.00    -0.189 NA
ATOM     23  C   UNL A   1      32.288  15.500  25.904  1.00  0.00     0.008 C 
ATOM     24  C   UNL A   1      33.069  16.232  24.813  1.00  0.00    -0.012 C 
ATOM     25  C   UNL A   1      34.284  16.965  25.417  1.00  0.00     0.020 C 
ATOM     26  C   UNL A   1      32.132  17.167  24.032  1.00  0.00     0.020 C 
ATOM     27  C   UNL A   1      34.925  17.984  24.471  1.00  0.00     0.104 C 
ATOM     28  C   UNL A   1      32.928  18.086  23.122  1.00  0.00     0.104 C 
ENDBRANCH  19  22
ENDBRANCH  14  19
ENDBRANCH   8  13
ENDBRANCH   4   7
ENDBRANCH   2   3
ENDBRANCH   1   2
BRANCH   1  29
ATOM     29  C   UNL A   1      32.693  28.820  25.316  1.00  0.00     0.023 C 
BRANCH  29  30
ATOM     30  C   UNL A   1      32.932  29.305  26.740  1.00  0.00     0.116 C 
BRANCH  30  31
ATOM     31  N   UNL A   1      32.759  30.745  26.911  1.00  0.00    -0.352 N 
ATOM     32  C   UNL A   1      33.614  31.667  27.473  1.00  0.00     0.251 C 
ATOM     33  H   UNL A   1      31.908  31.110  26.576  1.00  0.00     0.163 HD
ATOM     34  O   UNL A   1      33.259  32.834  27.615  1.00  0.00    -0.269 OA
BRANCH  32  35
ATOM     35  C   UNL A   1      34.945  31.230  27.945  1.00  0.00     0.039 A 
ATOM     36  C   UNL A   1      35.987  32.161  27.989  1.00  0.00     0.014 A 
ATOM     37  C   UNL A   1      35.139  29.931  28.420  1.00  0.00     0.014 A 
ATOM     38  C   UNL A   1      37.187  31.821  28.618  1.00  0.00     0.010 A 
ATOM     39  C   UNL A   1      36.300  29.625  29.122  1.00  0.00     0.010 A 
ATOM     40  C   UNL A   1      37.329  30.573  29.246  1.00  0.00    -0.014 A 
BRANCH  40  41
ATOM     41  C   UNL A   1      38.508  30.261  30.096  1.00  0.00     0.031 A 
ATOM     42  C   UNL A   1      39.511  29.230  29.660  1.00  0.00     0.074 A 
ATOM     43  C   UNL A   1      38.613  30.830  31.315  1.00  0.00     0.049 A 
ATOM     44  N   UNL A   1      40.548  28.767  30.307  1.00  0.00    -0.248 NA
ATOM     45  C   UNL A   1      39.309  28.622  28.335  1.00  0.00     0.031 C 
ATOM     46  C   UNL A   1      37.664  31.788  31.887  1.00  0.00     0.029 A 
ATOM     47  N   UNL A   1      39.547  30.659  32.308  1.00  0.00    -0.354 N 
ATOM     48  C   UNL A   1      41.103  27.792  29.487  1.00  0.00     0.074 A 
ATOM     49  C   UNL A   1      40.269  27.709  28.307  1.00  0.00     0.031 C 
ATOM     50  C   UNL A   1      38.064  32.122  33.124  1.00  0.00     0.029 A 
ATOM     51  C   UNL A   1      39.269  31.369  33.454  1.00  0.00     0.049 A 
ATOM     52  H   UNL A   1      40.339  30.084  32.209  1.00  0.00     0.167 HD
ATOM     53  C   UNL A   1      42.217  27.049  29.686  1.00  0.00     0.034 A 
ATOM     54  C   UNL A   1      39.898  31.396  34.646  1.00  0.00     0.034 A 
ATOM     55  C   UNL A   1      43.057  27.150  30.849  1.00  0.00     0.049 A 
ATOM     56  C   UNL A   1      41.134  30.560  34.840  1.00  0.00     0.074 A 
ATOM     57  C   UNL A   1      44.256  26.506  31.102  1.00  0.00     0.029 A 
ATOM     58  N   UNL A   1      42.778  27.925  31.964  1.00  0.00    -0.354 N 
ATOM     59  N   UNL A   1      41.738  29.769  33.987  1.00  0.00    -0.248 NA
ATOM     60  C   UNL A   1      41.791  30.639  36.154  1.00  0.00     0.031 C 
ATOM     61  C   UNL A   1      44.679  26.858  32.387  1.00  0.00     0.029 A 
ATOM     62  C   UNL A   1      43.766  27.754  32.920  1.00  0.00     0.049 A 
ATOM     63  H   UNL A   1      41.993  28.511  32.063  1.00  0.00     0.167 HD
ATOM     64  C   UNL A   1      42.857  29.276  34.648  1.00  0.00     0.074 A 
ATOM     65  C   UNL A   1      42.864  29.882  35.964  1.00  0.00     0.031 C 
ATOM     66  C   UNL A   1      43.785  28.390  34.212  1.00  0.00     0.034 A 
BRANCH  53  67
ATOM     67  C   UNL A   1      42.617  26.080  28.603  1.00  0.00     0.023 A 
ATOM     68  C   UNL A   1      41.890  24.884  28.432  1.00  0.00     0.012 A 
ATOM     69  C   UNL A   1      43.669  26.382  27.717  1.00  0.00     0.148 A 
ATOM     70  C   UNL A   1      42.227  23.986  27.420  1.00  0.00     0.002 A 
ATOM     71  C   UNL A   1      43.968  25.504  26.681  1.00  0.00     0.091 A 
ATOM     72  F   UNL A   1      44.360  27.514  27.906  1.00  0.00    -0.205 F 
ATOM     73  C   UNL A   1      43.258  24.301  26.539  1.00  0.00     0.022 A 
BRANCH  71  74
ATOM     74  S   UNL A   1      45.222  25.855  25.443  1.00  0.00     0.127 S 
ATOM     75  O   UNL A   1      46.442  25.838  26.249  1.00  0.00    -0.237 OA
ATOM     76  O   UNL A   1      45.078  24.720  24.532  1.00  0.00    -0.237 OA
ATOM     77  O   UNL A   1      44.872  27.147  24.869  1.00  0.00    -0.744 OA
ENDBRANCH  71  74
ENDBRANCH  53  67
BRANCH  54  78
ATOM     78  C   UNL A   1      39.387  32.268  35.743  1.00  0.00     0.023 A 
ATOM     79  C   UNL A   1      38.429  31.762  36.643  1.00  0.00     0.012 A 
ATOM     80  C   UNL A   1      39.855  33.586  35.908  1.00  0.00     0.148 A 
ATOM     81  C   UNL A   1      37.921  32.564  37.666  1.00  0.00     0.002 A 
ATOM     82  C   UNL A   1      39.389  34.359  36.965  1.00  0.00     0.091 A 
ATOM     83  F   UNL A   1      40.759  34.053  35.034  1.00  0.00    -0.205 F 
ATOM     84  C   UNL A   1      38.408  33.858  37.833  1.00  0.00     0.022 A 
BRANCH  82  85
ATOM     85  S   UNL A   1      40.054  35.985  37.337  1.00  0.00     0.127 S 
ATOM     86  O   UNL A   1      39.284  36.361  38.519  1.00  0.00    -0.237 OA
ATOM     87  O   UNL A   1      41.463  35.681  37.589  1.00  0.00    -0.237 OA
ATOM     88  O   UNL A   1      39.818  36.791  36.146  1.00  0.00    -0.744 OA
ENDBRANCH  82  85
ENDBRANCH  54  78
BRANCH  66  89
ATOM     89  C   UNL A   1      44.904  28.029  35.154  1.00  0.00     0.023 A 
ATOM     90  C   UNL A   1      46.107  28.763  35.130  1.00  0.00     0.012 A 
ATOM     91  C   UNL A   1      44.735  27.012  36.115  1.00  0.00     0.148 A 
ATOM     92  C   UNL A   1      47.136  28.469  36.024  1.00  0.00     0.002 A 
ATOM     93  C   UNL A   1      45.744  26.759  37.037  1.00  0.00     0.091 A 
ATOM     94  F   UNL A   1      43.589  26.315  36.114  1.00  0.00    -0.205 F 
ATOM     95  C   UNL A   1      46.949  27.477  36.985  1.00  0.00     0.022 A 
BRANCH  93  96
ATOM     96  S   UNL A   1      45.562  25.569  38.370  1.00  0.00     0.127 S 
ATOM     97  O   UNL A   1      44.506  26.182  39.174  1.00  0.00    -0.237 OA
ATOM     98  O   UNL A   1      45.156  24.361  37.649  1.00  0.00    -0.237 OA
ATOM     99  O   UNL A   1      46.863  25.482  39.018  1.00  0.00    -0.744 OA
ENDBRANCH  93  96
ENDBRANCH  66  89
ENDBRANCH  40  41
ENDBRANCH  32  35
ENDBRANCH  30  31
ENDBRANCH  29  30
ENDBRANCH   1  29
TORSDOF 17
ENDMDL
