MODEL 1
REMARK VINA RESULT:     -11.0      0.000      0.000
REMARK SMILES CCc1nnsc1C(=O)NC[C@@H](CC(C)C)C(=O)NCCCCNC(=O)c1ccc(-c2c3nc(c(-c4cccc(S(=O)(=O)[O-])c4F)c4ccc([nH]4)c(-c4cccc(S(=O)(=O)[O-])c4F)c4nc(c(-c5cccc(S(=O)(=O)[O-])c5F)c5ccc2[nH]5)C=C4)C=C3)cc1
REMARK SMILES IDX 21 1 20 2 19 3 17 4 18 5 12 7 11 8 10 9 8 10 9 11 7 13 3 14
REMARK SMILES IDX 4 15 5 16 6 17 2 18 1 19 13 20 14 21 15 22 16 23 22 24 23 25
REMARK SMILES IDX 24 26 25 27 26 29 27 30 28 31 89 32 29 33 88 34 30 35 31 36
REMARK SMILES IDX 32 37 82 38 33 39 87 40 81 41 83 42 34 43 86 44 80 45 79 46
REMARK SMILES IDX 35 48 67 49 47 50 66 51 48 52 51 53 65 54 84 55 49 56 50 57
REMARK SMILES IDX 64 59 85 60 52 61 36 62 37 63 45 64 38 65 40 66 46 67 39 68
REMARK SMILES IDX 41 69 42 70 43 71 44 72 68 73 69 74 77 75 70 76 72 77 78 78
REMARK SMILES IDX 71 79 73 80 74 81 75 82 76 83 53 84 54 85 62 86 55 87 57 88
REMARK SMILES IDX 63 89 56 90 58 91 59 92 60 93 61 94
REMARK H PARENT 19 6 10 12 24 28 83 47 51 58
REMARK Flexibility Score: inf
ROOT
ATOM      1  C   UNL A   1      32.083  27.978  27.610  1.00  0.00     0.023 C 
ENDROOT
BRANCH   1   2
ATOM      2  C   UNL A   1      32.495  26.970  26.548  1.00  0.00     0.116 C 
BRANCH   2   3
ATOM      3  N   UNL A   1      31.759  25.727  26.628  1.00  0.00    -0.356 N 
ATOM      4  C   UNL A   1      31.115  25.014  25.669  1.00  0.00     0.224 C 
ATOM      5  O   UNL A   1      30.781  23.860  25.952  1.00  0.00    -0.275 OA
ATOM      6  H   UNL A   1      31.718  25.332  27.530  1.00  0.00     0.163 HD
BRANCH   4   7
ATOM      7  C   UNL A   1      30.806  25.566  24.284  1.00  0.00     0.098 C 
BRANCH   7   8
ATOM      8  C   UNL A   1      30.608  24.500  23.192  1.00  0.00     0.129 C 
BRANCH   8   9
ATOM      9  N   UNL A   1      31.720  24.470  22.259  1.00  0.00    -0.350 N 
ATOM     10  C   UNL A   1      32.931  23.826  22.260  1.00  0.00     0.264 C 
ATOM     11  O   UNL A   1      33.503  23.855  21.163  1.00  0.00    -0.268 OA
ATOM     12  H   UNL A   1      31.576  25.027  21.460  1.00  0.00     0.163 HD
BRANCH  10  13
ATOM     13  C   UNL A   1      33.495  23.137  23.401  1.00  0.00     0.136 A 
ATOM     14  C   UNL A   1      33.393  21.893  24.026  1.00  0.00     0.088 A 
ATOM     15  N   UNL A   1      34.126  21.783  25.214  1.00  0.00    -0.142 NA
ATOM     16  N   UNL A   1      34.756  22.893  25.531  1.00  0.00    -0.090 NA
ATOM     17  S   UNL A   1      34.511  24.105  24.426  1.00  0.00    -0.006 S 
BRANCH  14  18
ATOM     18  C   UNL A   1      32.602  20.672  23.686  1.00  0.00     0.056 C 
ATOM     19  C   UNL A   1      32.540  19.650  24.804  1.00  0.00     0.011 C 
ENDBRANCH  14  18
ENDBRANCH  10  13
ENDBRANCH   8   9
ENDBRANCH   7   8
BRANCH   7  20
ATOM     20  C   UNL A   1      29.768  26.716  24.271  1.00  0.00     0.018 C 
BRANCH  20  21
ATOM     21  C   UNL A   1      30.223  28.106  23.784  1.00  0.00    -0.017 C 
ATOM     22  C   UNL A   1      31.628  28.077  23.170  1.00  0.00     0.007 C 
ATOM     23  C   UNL A   1      29.258  28.643  22.720  1.00  0.00     0.007 C 
ENDBRANCH  20  21
ENDBRANCH   7  20
ENDBRANCH   4   7
ENDBRANCH   2   3
ENDBRANCH   1   2
BRANCH   1  24
ATOM     24  C   UNL A   1      31.548  29.300  27.065  1.00  0.00     0.023 C 
BRANCH  24  25
ATOM     25  C   UNL A   1      32.570  30.178  26.349  1.00  0.00     0.116 C 
BRANCH  25  26
ATOM     26  N   UNL A   1      32.485  31.587  26.715  1.00  0.00    -0.352 N 
ATOM     27  C   UNL A   1      33.375  32.363  27.421  1.00  0.00     0.251 C 
ATOM     28  H   UNL A   1      31.671  32.052  26.412  1.00  0.00     0.163 HD
ATOM     29  O   UNL A   1      33.098  33.516  27.708  1.00  0.00    -0.269 OA
BRANCH  27  30
ATOM     30  C   UNL A   1      34.649  31.762  27.863  1.00  0.00     0.039 A 
ATOM     31  C   UNL A   1      35.755  32.594  28.047  1.00  0.00     0.014 A 
ATOM     32  C   UNL A   1      34.720  30.401  28.168  1.00  0.00     0.014 A 
ATOM     33  C   UNL A   1      36.912  32.075  28.630  1.00  0.00     0.010 A 
ATOM     34  C   UNL A   1      35.842  29.908  28.823  1.00  0.00     0.010 A 
ATOM     35  C   UNL A   1      36.945  30.741  29.067  1.00  0.00    -0.014 A 
BRANCH  35  36
ATOM     36  C   UNL A   1      38.108  30.204  29.817  1.00  0.00     0.031 A 
ATOM     37  C   UNL A   1      38.388  30.673  31.217  1.00  0.00     0.074 A 
ATOM     38  C   UNL A   1      38.977  29.382  29.195  1.00  0.00     0.049 A 
ATOM     39  N   UNL A   1      39.395  30.381  31.998  1.00  0.00    -0.248 NA
ATOM     40  C   UNL A   1      37.431  31.625  31.803  1.00  0.00     0.031 C 
ATOM     41  C   UNL A   1      38.872  28.938  27.802  1.00  0.00     0.029 A 
ATOM     42  N   UNL A   1      40.139  28.803  29.640  1.00  0.00    -0.354 N 
ATOM     43  C   UNL A   1      39.212  31.135  33.149  1.00  0.00     0.074 A 
ATOM     44  C   UNL A   1      38.021  31.931  32.948  1.00  0.00     0.031 C 
ATOM     45  C   UNL A   1      39.927  28.163  27.507  1.00  0.00     0.029 A 
ATOM     46  C   UNL A   1      40.796  28.074  28.676  1.00  0.00     0.049 A 
ATOM     47  H   UNL A   1      40.471  28.902  30.562  1.00  0.00     0.167 HD
ATOM     48  C   UNL A   1      39.947  31.139  34.287  1.00  0.00     0.034 A 
ATOM     49  C   UNL A   1      41.971  27.416  28.725  1.00  0.00     0.034 A 
ATOM     50  C   UNL A   1      41.103  30.312  34.500  1.00  0.00     0.049 A 
ATOM     51  C   UNL A   1      42.737  27.382  30.019  1.00  0.00     0.074 A 
ATOM     52  C   UNL A   1      41.857  30.167  35.650  1.00  0.00     0.029 A 
ATOM     53  N   UNL A   1      41.676  29.492  33.539  1.00  0.00    -0.354 N 
ATOM     54  N   UNL A   1      42.450  27.961  31.160  1.00  0.00    -0.248 NA
ATOM     55  C   UNL A   1      43.964  26.574  30.047  1.00  0.00     0.031 C 
ATOM     56  C   UNL A   1      42.895  29.268  35.381  1.00  0.00     0.029 A 
ATOM     57  C   UNL A   1      42.778  28.842  34.068  1.00  0.00     0.049 A 
ATOM     58  H   UNL A   1      41.348  29.388  32.618  1.00  0.00     0.167 HD
ATOM     59  C   UNL A   1      43.444  27.567  32.048  1.00  0.00     0.074 A 
ATOM     60  C   UNL A   1      44.327  26.680  31.318  1.00  0.00     0.031 C 
ATOM     61  C   UNL A   1      43.620  27.923  33.345  1.00  0.00     0.034 A 
BRANCH  48  62
ATOM     62  C   UNL A   1      39.474  32.023  35.412  1.00  0.00     0.023 A 
ATOM     63  C   UNL A   1      38.563  31.508  36.356  1.00  0.00     0.012 A 
ATOM     64  C   UNL A   1      39.948  33.340  35.555  1.00  0.00     0.148 A 
ATOM     65  C   UNL A   1      38.096  32.304  37.401  1.00  0.00     0.002 A 
ATOM     66  C   UNL A   1      39.513  34.114  36.626  1.00  0.00     0.091 A 
ATOM     67  F   UNL A   1      40.795  33.823  34.634  1.00  0.00    -0.205 F 
ATOM     68  C   UNL A   1      38.577  33.602  37.542  1.00  0.00     0.022 A 
BRANCH  66  69
ATOM     69  S   UNL A   1      40.135  35.770  36.934  1.00  0.00     0.127 S 
ATOM     70  O   UNL A   1      39.480  36.100  38.199  1.00  0.00    -0.237 OA
ATOM     71  O   UNL A   1      41.578  35.547  37.035  1.00  0.00    -0.237 OA
ATOM     72  O   UNL A   1      39.727  36.567  35.785  1.00  0.00    -0.744 OA
ENDBRANCH  66  69
ENDBRANCH  48  62
BRANCH  49  73
ATOM     73  C   UNL A   1      42.451  26.679  27.522  1.00  0.00     0.023 A 
ATOM     74  C   UNL A   1      43.234  27.352  26.565  1.00  0.00     0.012 A 
ATOM     75  C   UNL A   1      42.187  25.306  27.352  1.00  0.00     0.148 A 
ATOM     76  C   UNL A   1      43.724  26.676  25.446  1.00  0.00     0.002 A 
ATOM     77  C   UNL A   1      42.724  24.627  26.265  1.00  0.00     0.091 A 
ATOM     78  F   UNL A   1      41.431  24.687  28.271  1.00  0.00    -0.205 F 
ATOM     79  C   UNL A   1      43.480  25.314  25.303  1.00  0.00     0.022 A 
BRANCH  77  80
ATOM     80  S   UNL A   1      42.580  22.847  26.077  1.00  0.00     0.127 S 
ATOM     81  O   UNL A   1      41.134  22.655  26.136  1.00  0.00    -0.237 OA
ATOM     82  O   UNL A   1      43.178  22.632  24.759  1.00  0.00    -0.237 OA
ATOM     83  O   UNL A   1      43.342  22.273  27.179  1.00  0.00    -0.744 OA
ENDBRANCH  77  80
ENDBRANCH  49  73
BRANCH  61  84
ATOM     84  C   UNL A   1      44.802  27.341  34.074  1.00  0.00     0.023 A 
ATOM     85  C   UNL A   1      46.041  28.011  34.040  1.00  0.00     0.012 A 
ATOM     86  C   UNL A   1      44.665  26.178  34.857  1.00  0.00     0.148 A 
ATOM     87  C   UNL A   1      47.133  27.518  34.753  1.00  0.00     0.002 A 
ATOM     88  C   UNL A   1      45.746  25.718  35.601  1.00  0.00     0.091 A 
ATOM     89  F   UNL A   1      43.485  25.543  34.859  1.00  0.00    -0.205 F 
ATOM     90  C   UNL A   1      46.982  26.380  35.542  1.00  0.00     0.022 A 
BRANCH  88  91
ATOM     91  S   UNL A   1      45.617  24.314  36.715  1.00  0.00     0.127 S 
ATOM     92  O   UNL A   1      45.620  23.190  35.780  1.00  0.00    -0.237 OA
ATOM     93  O   UNL A   1      46.833  24.442  37.520  1.00  0.00    -0.237 OA
ATOM     94  O   UNL A   1      44.380  24.507  37.460  1.00  0.00    -0.744 OA
ENDBRANCH  88  91
ENDBRANCH  61  84
ENDBRANCH  35  36
ENDBRANCH  27  30
ENDBRANCH  25  26
ENDBRANCH  24  25
ENDBRANCH   1  24
TORSDOF 20
ENDMDL
MODEL 2
REMARK VINA RESULT:     -10.8      1.677      2.285
REMARK SMILES CCc1nnsc1C(=O)NC[C@@H](CC(C)C)C(=O)NCCCCNC(=O)c1ccc(-c2c3nc(c(-c4cccc(S(=O)(=O)[O-])c4F)c4ccc([nH]4)c(-c4cccc(S(=O)(=O)[O-])c4F)c4nc(c(-c5cccc(S(=O)(=O)[O-])c5F)c5ccc2[nH]5)C=C4)C=C3)cc1
REMARK SMILES IDX 21 1 20 2 19 3 17 4 18 5 12 7 11 8 10 9 8 10 9 11 7 13 3 14
REMARK SMILES IDX 4 15 5 16 6 17 2 18 1 19 13 20 14 21 15 22 16 23 22 24 23 25
REMARK SMILES IDX 24 26 25 27 26 29 27 30 28 31 89 32 29 33 88 34 30 35 31 36
REMARK SMILES IDX 32 37 82 38 33 39 87 40 81 41 83 42 34 43 86 44 80 45 79 46
REMARK SMILES IDX 35 48 67 49 47 50 66 51 48 52 51 53 65 54 84 55 49 56 50 57
REMARK SMILES IDX 64 59 85 60 52 61 36 62 37 63 45 64 38 65 40 66 46 67 39 68
REMARK SMILES IDX 41 69 42 70 43 71 44 72 68 73 69 74 77 75 70 76 72 77 78 78
REMARK SMILES IDX 71 79 73 80 74 81 75 82 76 83 53 84 54 85 62 86 55 87 57 88
REMARK SMILES IDX 63 89 56 90 58 91 59 92 60 93 61 94
REMARK H PARENT 19 6 10 12 24 28 83 47 51 58
REMARK Flexibility Score: inf
ROOT
ATOM      1  C   UNL A   1      31.093  29.857  24.682  1.00  0.00     0.023 C 
ENDROOT
BRANCH   1   2
ATOM      2  C   UNL A   1      30.898  29.052  23.407  1.00  0.00     0.116 C 
BRANCH   2   3
ATOM      3  N   UNL A   1      29.873  28.037  23.526  1.00  0.00    -0.356 N 
ATOM      4  C   UNL A   1      29.876  26.844  24.173  1.00  0.00     0.224 C 
ATOM      5  O   UNL A   1      28.787  26.284  24.328  1.00  0.00    -0.275 OA
ATOM      6  H   UNL A   1      29.031  28.249  23.058  1.00  0.00     0.163 HD
BRANCH   4   7
ATOM      7  C   UNL A   1      31.140  26.190  24.712  1.00  0.00     0.098 C 
BRANCH   7   8
ATOM      8  C   UNL A   1      30.969  25.466  26.059  1.00  0.00     0.129 C 
BRANCH   8   9
ATOM      9  N   UNL A   1      30.417  24.134  25.891  1.00  0.00    -0.350 N 
ATOM     10  C   UNL A   1      30.949  22.875  26.003  1.00  0.00     0.264 C 
ATOM     11  O   UNL A   1      30.094  21.982  26.028  1.00  0.00    -0.268 OA
ATOM     12  H   UNL A   1      29.464  24.134  25.645  1.00  0.00     0.163 HD
BRANCH  10  13
ATOM     13  C   UNL A   1      32.362  22.587  26.123  1.00  0.00     0.136 A 
ATOM     14  C   UNL A   1      33.430  22.227  25.300  1.00  0.00     0.088 A 
ATOM     15  N   UNL A   1      34.624  21.967  25.983  1.00  0.00    -0.142 NA
ATOM     16  N   UNL A   1      34.503  22.087  27.287  1.00  0.00    -0.090 NA
ATOM     17  S   UNL A   1      32.972  22.524  27.750  1.00  0.00    -0.006 S 
BRANCH  14  18
ATOM     18  C   UNL A   1      33.518  22.016  23.823  1.00  0.00     0.056 C 
ATOM     19  C   UNL A   1      34.626  22.807  23.155  1.00  0.00     0.011 C 
ENDBRANCH  14  18
ENDBRANCH  10  13
ENDBRANCH   8   9
ENDBRANCH   7   8
BRANCH   7  20
ATOM     20  C   UNL A   1      31.961  25.414  23.652  1.00  0.00     0.018 C 
BRANCH  20  21
ATOM     21  C   UNL A   1      33.412  25.859  23.381  1.00  0.00    -0.017 C 
ATOM     22  C   UNL A   1      33.493  26.974  22.331  1.00  0.00     0.007 C 
ATOM     23  C   UNL A   1      34.062  26.379  24.669  1.00  0.00     0.007 C 
ENDBRANCH  20  21
ENDBRANCH   7  20
ENDBRANCH   4   7
ENDBRANCH   2   3
ENDBRANCH   1   2
BRANCH   1  24
ATOM     24  C   UNL A   1      32.447  29.664  25.361  1.00  0.00     0.023 C 
BRANCH  24  25
ATOM     25  C   UNL A   1      32.512  30.078  26.828  1.00  0.00     0.116 C 
BRANCH  25  26
ATOM     26  N   UNL A   1      32.533  31.523  27.024  1.00  0.00    -0.352 N 
ATOM     27  C   UNL A   1      33.518  32.318  27.562  1.00  0.00     0.251 C 
ATOM     28  H   UNL A   1      31.722  31.999  26.729  1.00  0.00     0.163 HD
ATOM     29  O   UNL A   1      33.327  33.513  27.726  1.00  0.00    -0.269 OA
BRANCH  27  30
ATOM     30  C   UNL A   1      34.790  31.695  27.977  1.00  0.00     0.039 A 
ATOM     31  C   UNL A   1      35.916  32.506  28.129  1.00  0.00     0.014 A 
ATOM     32  C   UNL A   1      34.841  30.335  28.289  1.00  0.00     0.014 A 
ATOM     33  C   UNL A   1      37.077  31.967  28.687  1.00  0.00     0.010 A 
ATOM     34  C   UNL A   1      35.968  29.822  28.919  1.00  0.00     0.010 A 
ATOM     35  C   UNL A   1      37.094  30.635  29.132  1.00  0.00    -0.014 A 
BRANCH  35  36
ATOM     36  C   UNL A   1      38.263  30.079  29.858  1.00  0.00     0.031 A 
ATOM     37  C   UNL A   1      38.601  30.569  31.237  1.00  0.00     0.074 A 
ATOM     38  C   UNL A   1      39.087  29.218  29.227  1.00  0.00     0.049 A 
ATOM     39  N   UNL A   1      39.623  30.263  31.993  1.00  0.00    -0.248 NA
ATOM     40  C   UNL A   1      37.691  31.562  31.832  1.00  0.00     0.031 C 
ATOM     41  C   UNL A   1      38.925  28.748  27.849  1.00  0.00     0.029 A 
ATOM     42  N   UNL A   1      40.245  28.615  29.648  1.00  0.00    -0.354 N 
ATOM     43  C   UNL A   1      39.499  31.047  33.132  1.00  0.00     0.074 A 
ATOM     44  C   UNL A   1      38.326  31.874  32.951  1.00  0.00     0.031 C 
ATOM     45  C   UNL A   1      39.947  27.936  27.538  1.00  0.00     0.029 A 
ATOM     46  C   UNL A   1      40.850  27.846  28.681  1.00  0.00     0.049 A 
ATOM     47  H   UNL A   1      40.609  28.722  30.557  1.00  0.00     0.167 HD
ATOM     48  C   UNL A   1      40.269  31.053  34.247  1.00  0.00     0.034 A 
ATOM     49  C   UNL A   1      42.006  27.154  28.709  1.00  0.00     0.034 A 
ATOM     50  C   UNL A   1      41.406  30.196  34.443  1.00  0.00     0.049 A 
ATOM     51  C   UNL A   1      42.811  27.125  29.979  1.00  0.00     0.074 A 
ATOM     52  C   UNL A   1      42.192  30.052  35.572  1.00  0.00     0.029 A 
ATOM     53  N   UNL A   1      41.924  29.339  33.483  1.00  0.00    -0.354 N 
ATOM     54  N   UNL A   1      42.577  27.735  31.114  1.00  0.00    -0.248 NA
ATOM     55  C   UNL A   1      44.014  26.280  29.986  1.00  0.00     0.031 C 
ATOM     56  C   UNL A   1      43.194  29.117  35.290  1.00  0.00     0.029 A 
ATOM     57  C   UNL A   1      43.023  28.667  33.991  1.00  0.00     0.049 A 
ATOM     58  H   UNL A   1      41.564  29.226  32.575  1.00  0.00     0.167 HD
ATOM     59  C   UNL A   1      43.587  27.330  31.980  1.00  0.00     0.074 A 
ATOM     60  C   UNL A   1      44.420  26.402  31.243  1.00  0.00     0.031 C 
ATOM     61  C   UNL A   1      43.814  27.708  33.263  1.00  0.00     0.034 A 
BRANCH  48  62
ATOM     62  C   UNL A   1      39.858  31.974  35.366  1.00  0.00     0.023 A 
ATOM     63  C   UNL A   1      40.390  33.278  35.416  1.00  0.00     0.012 A 
ATOM     64  C   UNL A   1      38.930  31.568  36.344  1.00  0.00     0.148 A 
ATOM     65  C   UNL A   1      40.041  34.150  36.446  1.00  0.00     0.002 A 
ATOM     66  C   UNL A   1      38.552  32.458  37.342  1.00  0.00     0.091 A 
ATOM     67  F   UNL A   1      38.452  30.316  36.296  1.00  0.00    -0.205 F 
ATOM     68  C   UNL A   1      39.115  33.745  37.402  1.00  0.00     0.022 A 
BRANCH  66  69
ATOM     69  S   UNL A   1      37.309  32.054  38.574  1.00  0.00     0.127 S 
ATOM     70  O   UNL A   1      37.913  32.593  39.792  1.00  0.00    -0.237 OA
ATOM     71  O   UNL A   1      36.141  32.795  38.094  1.00  0.00    -0.237 OA
ATOM     72  O   UNL A   1      37.163  30.605  38.530  1.00  0.00    -0.744 OA
ENDBRANCH  66  69
ENDBRANCH  48  62
BRANCH  49  73
ATOM     73  C   UNL A   1      42.426  26.377  27.508  1.00  0.00     0.023 A 
ATOM     74  C   UNL A   1      43.246  26.989  26.540  1.00  0.00     0.012 A 
ATOM     75  C   UNL A   1      42.068  25.024  27.350  1.00  0.00     0.148 A 
ATOM     76  C   UNL A   1      43.681  26.274  25.423  1.00  0.00     0.002 A 
ATOM     77  C   UNL A   1      42.550  24.303  26.264  1.00  0.00     0.091 A 
ATOM     78  F   UNL A   1      41.278  24.465  28.278  1.00  0.00    -0.205 F 
ATOM     79  C   UNL A   1      43.343  24.930  25.292  1.00  0.00     0.022 A 
BRANCH  77  80
ATOM     80  S   UNL A   1      42.284  22.535  26.091  1.00  0.00     0.127 S 
ATOM     81  O   UNL A   1      42.887  22.268  24.788  1.00  0.00    -0.237 OA
ATOM     82  O   UNL A   1      43.025  22.004  27.235  1.00  0.00    -0.237 OA
ATOM     83  O   UNL A   1      40.841  22.346  26.174  1.00  0.00    -0.744 OA
ENDBRANCH  77  80
ENDBRANCH  49  73
BRANCH  61  84
ATOM     84  C   UNL A   1      45.001  27.106  33.968  1.00  0.00     0.023 A 
ATOM     85  C   UNL A   1      46.243  27.770  33.931  1.00  0.00     0.012 A 
ATOM     86  C   UNL A   1      44.866  25.931  34.732  1.00  0.00     0.148 A 
ATOM     87  C   UNL A   1      47.341  27.257  34.622  1.00  0.00     0.002 A 
ATOM     88  C   UNL A   1      45.953  25.451  35.455  1.00  0.00     0.091 A 
ATOM     89  F   UNL A   1      43.681  25.303  34.738  1.00  0.00    -0.205 F 
ATOM     90  C   UNL A   1      47.192  26.107  35.393  1.00  0.00     0.022 A 
BRANCH  88  91
ATOM     91  S   UNL A   1      45.827  24.030  36.547  1.00  0.00     0.127 S 
ATOM     92  O   UNL A   1      45.426  22.975  35.617  1.00  0.00    -0.237 OA
ATOM     93  O   UNL A   1      47.194  23.906  37.055  1.00  0.00    -0.237 OA
ATOM     94  O   UNL A   1      44.840  24.386  37.557  1.00  0.00    -0.744 OA
ENDBRANCH  88  91
ENDBRANCH  61  84
ENDBRANCH  35  36
ENDBRANCH  27  30
ENDBRANCH  25  26
ENDBRANCH  24  25
ENDBRANCH   1  24
TORSDOF 20
ENDMDL
MODEL 3
REMARK VINA RESULT:     -10.7      2.443      8.021
REMARK SMILES CCc1nnsc1C(=O)NC[C@@H](CC(C)C)C(=O)NCCCCNC(=O)c1ccc(-c2c3nc(c(-c4cccc(S(=O)(=O)[O-])c4F)c4ccc([nH]4)c(-c4cccc(S(=O)(=O)[O-])c4F)c4nc(c(-c5cccc(S(=O)(=O)[O-])c5F)c5ccc2[nH]5)C=C4)C=C3)cc1
REMARK SMILES IDX 21 1 20 2 19 3 17 4 18 5 12 7 11 8 10 9 8 10 9 11 7 13 3 14
REMARK SMILES IDX 4 15 5 16 6 17 2 18 1 19 13 20 14 21 15 22 16 23 22 24 23 25
REMARK SMILES IDX 24 26 25 27 26 29 27 30 28 31 89 32 29 33 88 34 30 35 31 36
REMARK SMILES IDX 32 37 82 38 33 39 87 40 81 41 83 42 34 43 86 44 80 45 79 46
REMARK SMILES IDX 35 48 67 49 47 50 66 51 48 52 51 53 65 54 84 55 49 56 50 57
REMARK SMILES IDX 64 59 85 60 52 61 36 62 37 63 45 64 38 65 40 66 46 67 39 68
REMARK SMILES IDX 41 69 42 70 43 71 44 72 68 73 69 74 77 75 70 76 72 77 78 78
REMARK SMILES IDX 71 79 73 80 74 81 75 82 76 83 53 84 54 85 62 86 55 87 57 88
REMARK SMILES IDX 63 89 56 90 58 91 59 92 60 93 61 94
REMARK H PARENT 19 6 10 12 24 28 83 47 51 58
REMARK Flexibility Score: inf
ROOT
ATOM      1  C   UNL A   1      32.359  29.681  27.211  1.00  0.00     0.023 C 
ENDROOT
BRANCH   1   2
ATOM      2  C   UNL A   1      33.453  28.828  26.588  1.00  0.00     0.116 C 
BRANCH   2   3
ATOM      3  N   UNL A   1      33.756  29.199  25.223  1.00  0.00    -0.356 N 
ATOM      4  C   UNL A   1      33.305  28.696  24.046  1.00  0.00     0.224 C 
ATOM      5  O   UNL A   1      33.527  29.358  23.027  1.00  0.00    -0.275 OA
ATOM      6  H   UNL A   1      34.397  29.942  25.133  1.00  0.00     0.163 HD
BRANCH   4   7
ATOM      7  C   UNL A   1      32.544  27.382  23.936  1.00  0.00     0.098 C 
BRANCH   7   8
ATOM      8  C   UNL A   1      33.407  26.119  24.100  1.00  0.00     0.129 C 
BRANCH   8   9
ATOM      9  N   UNL A   1      33.501  25.364  22.863  1.00  0.00    -0.350 N 
ATOM     10  C   UNL A   1      33.698  24.036  22.585  1.00  0.00     0.264 C 
ATOM     11  O   UNL A   1      33.467  23.742  21.406  1.00  0.00    -0.268 OA
ATOM     12  H   UNL A   1      33.405  25.921  22.057  1.00  0.00     0.163 HD
BRANCH  10  13
ATOM     13  C   UNL A   1      34.096  23.043  23.560  1.00  0.00     0.136 A 
ATOM     14  C   UNL A   1      35.223  22.712  24.314  1.00  0.00     0.088 A 
ATOM     15  N   UNL A   1      35.090  21.536  25.064  1.00  0.00    -0.142 NA
ATOM     16  N   UNL A   1      33.926  20.949  24.892  1.00  0.00    -0.090 NA
ATOM     17  S   UNL A   1      32.943  21.774  23.843  1.00  0.00    -0.006 S 
BRANCH  14  18
ATOM     18  C   UNL A   1      36.567  23.354  24.428  1.00  0.00     0.056 C 
ATOM     19  C   UNL A   1      36.917  23.802  25.834  1.00  0.00     0.011 C 
ENDBRANCH  14  18
ENDBRANCH  10  13
ENDBRANCH   8   9
ENDBRANCH   7   8
BRANCH   7  20
ATOM     20  C   UNL A   1      31.197  27.359  24.699  1.00  0.00     0.018 C 
BRANCH  20  21
ATOM     21  C   UNL A   1      30.313  26.101  24.584  1.00  0.00    -0.017 C 
ATOM     22  C   UNL A   1      30.038  25.455  25.947  1.00  0.00     0.007 C 
ATOM     23  C   UNL A   1      28.960  26.453  23.952  1.00  0.00     0.007 C 
ENDBRANCH  20  21
ENDBRANCH   7  20
ENDBRANCH   4   7
ENDBRANCH   2   3
ENDBRANCH   1   2
BRANCH   1  24
ATOM     24  C   UNL A   1      32.306  31.122  26.708  1.00  0.00     0.023 C 
BRANCH  24  25
ATOM     25  C   UNL A   1      33.349  32.065  27.300  1.00  0.00     0.116 C 
BRANCH  25  26
ATOM     26  N   UNL A   1      32.840  33.406  27.560  1.00  0.00    -0.352 N 
ATOM     27  C   UNL A   1      33.241  34.327  28.500  1.00  0.00     0.251 C 
ATOM     28  H   UNL A   1      32.100  33.695  26.979  1.00  0.00     0.163 HD
ATOM     29  O   UNL A   1      32.639  35.381  28.629  1.00  0.00    -0.269 OA
BRANCH  27  30
ATOM     30  C   UNL A   1      34.383  33.999  29.377  1.00  0.00     0.039 A 
ATOM     31  C   UNL A   1      34.154  33.221  30.513  1.00  0.00     0.014 A 
ATOM     32  C   UNL A   1      35.677  34.392  29.028  1.00  0.00     0.014 A 
ATOM     33  C   UNL A   1      35.242  32.756  31.253  1.00  0.00     0.010 A 
ATOM     34  C   UNL A   1      36.759  33.860  29.718  1.00  0.00     0.010 A 
ATOM     35  C   UNL A   1      36.553  33.031  30.831  1.00  0.00    -0.014 A 
BRANCH  35  36
ATOM     36  C   UNL A   1      37.725  32.431  31.516  1.00  0.00     0.031 A 
ATOM     37  C   UNL A   1      38.469  31.289  30.884  1.00  0.00     0.074 A 
ATOM     38  C   UNL A   1      38.047  32.839  32.761  1.00  0.00     0.049 A 
ATOM     39  N   UNL A   1      39.462  30.586  31.362  1.00  0.00    -0.248 NA
ATOM     40  C   UNL A   1      38.014  30.855  29.553  1.00  0.00     0.031 C 
ATOM     41  C   UNL A   1      37.335  33.866  33.525  1.00  0.00     0.029 A 
ATOM     42  N   UNL A   1      39.032  32.413  33.617  1.00  0.00    -0.354 N 
ATOM     43  C   UNL A   1      39.727  29.610  30.412  1.00  0.00     0.074 A 
ATOM     44  C   UNL A   1      38.763  29.783  29.348  1.00  0.00     0.031 C 
ATOM     45  C   UNL A   1      37.902  33.986  34.735  1.00  0.00     0.029 A 
ATOM     46  C   UNL A   1      38.999  33.030  34.845  1.00  0.00     0.049 A 
ATOM     47  H   UNL A   1      39.698  31.730  33.374  1.00  0.00     0.167 HD
ATOM     48  C   UNL A   1      40.708  28.675  30.406  1.00  0.00     0.034 A 
ATOM     49  C   UNL A   1      39.760  32.841  35.941  1.00  0.00     0.034 A 
ATOM     50  C   UNL A   1      41.693  28.537  31.443  1.00  0.00     0.049 A 
ATOM     51  C   UNL A   1      40.884  31.842  35.887  1.00  0.00     0.074 A 
ATOM     52  C   UNL A   1      42.786  27.690  31.485  1.00  0.00     0.029 A 
ATOM     53  N   UNL A   1      41.702  29.261  32.626  1.00  0.00    -0.354 N 
ATOM     54  N   UNL A   1      41.233  31.049  34.904  1.00  0.00    -0.248 NA
ATOM     55  C   UNL A   1      41.743  31.741  37.076  1.00  0.00     0.031 C 
ATOM     56  C   UNL A   1      43.449  27.893  32.700  1.00  0.00     0.029 A 
ATOM     57  C   UNL A   1      42.778  28.878  33.408  1.00  0.00     0.049 A 
ATOM     58  H   UNL A   1      41.041  29.945  32.873  1.00  0.00     0.167 HD
ATOM     59  C   UNL A   1      42.366  30.373  35.342  1.00  0.00     0.074 A 
ATOM     60  C   UNL A   1      42.659  30.870  36.672  1.00  0.00     0.031 C 
ATOM     61  C   UNL A   1      43.086  29.415  34.709  1.00  0.00     0.034 A 
BRANCH  48  62
ATOM     62  C   UNL A   1      40.797  27.775  29.201  1.00  0.00     0.023 A 
ATOM     63  C   UNL A   1      39.991  26.620  29.143  1.00  0.00     0.012 A 
ATOM     64  C   UNL A   1      41.646  28.081  28.120  1.00  0.00     0.148 A 
ATOM     65  C   UNL A   1      40.060  25.759  28.048  1.00  0.00     0.002 A 
ATOM     66  C   UNL A   1      41.675  27.242  27.012  1.00  0.00     0.091 A 
ATOM     67  F   UNL A   1      42.424  29.170  28.203  1.00  0.00    -0.205 F 
ATOM     68  C   UNL A   1      40.893  26.074  26.980  1.00  0.00     0.022 A 
BRANCH  66  69
ATOM     69  S   UNL A   1      42.660  27.605  25.555  1.00  0.00     0.127 S 
ATOM     70  O   UNL A   1      42.425  26.416  24.736  1.00  0.00    -0.237 OA
ATOM     71  O   UNL A   1      42.031  28.827  25.050  1.00  0.00    -0.237 OA
ATOM     72  O   UNL A   1      44.024  27.783  26.032  1.00  0.00    -0.744 OA
ENDBRANCH  66  69
ENDBRANCH  48  62
BRANCH  49  73
ATOM     73  C   UNL A   1      39.521  33.672  37.155  1.00  0.00     0.023 A 
ATOM     74  C   UNL A   1      39.965  35.007  37.178  1.00  0.00     0.012 A 
ATOM     75  C   UNL A   1      38.808  33.165  38.259  1.00  0.00     0.148 A 
ATOM     76  C   UNL A   1      39.725  35.816  38.290  1.00  0.00     0.002 A 
ATOM     77  C   UNL A   1      38.525  33.992  39.339  1.00  0.00     0.091 A 
ATOM     78  F   UNL A   1      38.404  31.887  38.219  1.00  0.00    -0.205 F 
ATOM     79  C   UNL A   1      38.996  35.313  39.363  1.00  0.00     0.022 A 
BRANCH  77  80
ATOM     80  S   UNL A   1      37.472  33.471  40.698  1.00  0.00     0.127 S 
ATOM     81  O   UNL A   1      38.310  32.478  41.363  1.00  0.00    -0.237 OA
ATOM     82  O   UNL A   1      37.291  34.721  41.436  1.00  0.00    -0.237 OA
ATOM     83  O   UNL A   1      36.255  32.962  40.078  1.00  0.00    -0.744 OA
ENDBRANCH  77  80
ENDBRANCH  49  73
BRANCH  61  84
ATOM     84  C   UNL A   1      44.279  28.847  35.432  1.00  0.00     0.023 A 
ATOM     85  C   UNL A   1      45.545  29.442  35.263  1.00  0.00     0.012 A 
ATOM     86  C   UNL A   1      44.132  27.779  36.339  1.00  0.00     0.148 A 
ATOM     87  C   UNL A   1      46.651  28.966  35.965  1.00  0.00     0.002 A 
ATOM     88  C   UNL A   1      45.230  27.340  37.069  1.00  0.00     0.091 A 
ATOM     89  F   UNL A   1      42.924  27.213  36.471  1.00  0.00    -0.205 F 
ATOM     90  C   UNL A   1      46.492  27.924  36.876  1.00  0.00     0.022 A 
BRANCH  88  91
ATOM     91  S   UNL A   1      45.098  26.067  38.330  1.00  0.00     0.127 S 
ATOM     92  O   UNL A   1      46.447  26.066  38.895  1.00  0.00    -0.237 OA
ATOM     93  O   UNL A   1      44.067  26.611  39.215  1.00  0.00    -0.237 OA
ATOM     94  O   UNL A   1      44.710  24.849  37.632  1.00  0.00    -0.744 OA
ENDBRANCH  88  91
ENDBRANCH  61  84
ENDBRANCH  35  36
ENDBRANCH  27  30
ENDBRANCH  25  26
ENDBRANCH  24  25
ENDBRANCH   1  24
TORSDOF 20
ENDMDL
