MODEL 1
REMARK VINA RESULT:     -12.7      0.000      0.000
REMARK SMILES CC1=C(C)C[C@H](C(=O)N[C@@H](C)CCc2ccccc2)[C@@H](C(=O)NCCCCNC(=O)c2ccc(-c3c4nc(c(-c5cccc(S(=O)(=O)[O-])c5F)c5ccc([nH]5)c(-c5cccc(S(=O)(=O)[O-])c5F)c5nc(c(-c6cccc(S(=O)(=O)[O-])c6F)c6ccc3[nH]6)C=C5)C=C4)cc2)C1
REMARK SMILES IDX 24 1 23 2 21 3 22 4 20 6 1 7 2 8 3 9 94 10 4 11 5 12 6 13
REMARK SMILES IDX 7 14 8 15 9 16 10 18 11 19 12 20 13 21 14 22 15 23 19 24
REMARK SMILES IDX 16 25 18 26 17 27 25 28 26 29 27 30 28 31 29 32 30 34 31 35
REMARK SMILES IDX 32 36 93 37 33 38 92 39 34 40 35 41 36 42 86 43 37 44 91 45
REMARK SMILES IDX 85 46 87 47 38 48 90 49 84 50 83 51 39 53 71 54 51 55 70 56
REMARK SMILES IDX 52 57 55 58 69 59 88 60 53 61 54 62 68 64 89 65 56 66 40 67
REMARK SMILES IDX 41 68 49 69 42 70 44 71 50 72 43 73 45 74 46 75 47 76 48 77
REMARK SMILES IDX 72 78 73 79 81 80 74 81 76 82 82 83 75 84 77 85 78 86 79 87
REMARK SMILES IDX 80 88 57 89 58 90 66 91 59 92 61 93 67 94 60 95 62 96 63 97
REMARK SMILES IDX 64 98 65 99
REMARK H PARENT 23 5 9 17 28 33 87 52 55 63
REMARK Flexibility Score: inf
ROOT
ATOM      1  C   UNL A   1      33.667  27.597  23.952  1.00  0.00     0.116 C 
ENDROOT
BRANCH   1   2
ATOM      2  N   UNL A   1      32.611  27.041  23.128  1.00  0.00    -0.356 N 
ATOM      3  C   UNL A   1      32.181  25.745  23.049  1.00  0.00     0.224 C 
ATOM      4  O   UNL A   1      31.174  25.517  22.377  1.00  0.00    -0.275 OA
ATOM      5  H   UNL A   1      32.142  27.683  22.548  1.00  0.00     0.163 HD
BRANCH   3   6
ATOM      6  C   UNL A   1      32.908  24.645  23.838  1.00  0.00     0.095 C 
ATOM      7  C   UNL A   1      36.338  22.950  23.073  1.00  0.00     0.039 C 
ATOM      8  C   UNL A   1      35.381  23.806  23.861  1.00  0.00    -0.074 C 
ATOM      9  C   UNL A   1      35.563  24.188  25.140  1.00  0.00    -0.074 C 
ATOM     10  C   UNL A   1      34.193  24.301  23.065  1.00  0.00     0.045 C 
ATOM     11  C   UNL A   1      36.791  23.901  25.969  1.00  0.00     0.039 C 
ATOM     12  C   UNL A   1      34.551  25.057  25.847  1.00  0.00     0.045 C 
ATOM     13  C   UNL A   1      33.116  25.062  25.309  1.00  0.00     0.095 C 
BRANCH  13  14
ATOM     14  C   UNL A   1      32.150  24.336  26.254  1.00  0.00     0.224 C 
ATOM     15  O   UNL A   1      31.338  24.983  26.925  1.00  0.00    -0.275 OA
ATOM     16  N   UNL A   1      32.114  22.987  26.421  1.00  0.00    -0.353 N 
ATOM     17  H   UNL A   1      31.321  22.664  26.908  1.00  0.00     0.163 HD
BRANCH  16  18
ATOM     18  C   UNL A   1      33.033  21.930  26.013  1.00  0.00     0.079 C 
ATOM     19  C   UNL A   1      33.783  21.431  27.252  1.00  0.00     0.031 C 
BRANCH  18  20
ATOM     20  C   UNL A   1      32.285  20.741  25.374  1.00  0.00     0.029 C 
BRANCH  20  21
ATOM     21  C   UNL A   1      33.092  19.907  24.368  1.00  0.00     0.037 C 
BRANCH  21  22
ATOM     22  C   UNL A   1      33.320  18.436  24.648  1.00  0.00    -0.048 A 
ATOM     23  C   UNL A   1      32.390  17.598  25.270  1.00  0.00     0.004 A 
ATOM     24  C   UNL A   1      34.572  17.891  24.314  1.00  0.00     0.004 A 
ATOM     25  C   UNL A   1      32.722  16.278  25.602  1.00  0.00     0.000 A 
ATOM     26  C   UNL A   1      34.899  16.569  24.631  1.00  0.00     0.000 A 
ATOM     27  C   UNL A   1      33.981  15.769  25.301  1.00  0.00     0.000 A 
ENDBRANCH  21  22
ENDBRANCH  20  21
ENDBRANCH  18  20
ENDBRANCH  16  18
ENDBRANCH  13  14
ENDBRANCH   3   6
ENDBRANCH   1   2
BRANCH   1  28
ATOM     28  C   UNL A   1      33.429  29.051  24.353  1.00  0.00     0.023 C 
BRANCH  28  29
ATOM     29  C   UNL A   1      32.288  29.305  25.335  1.00  0.00     0.023 C 
BRANCH  29  30
ATOM     30  C   UNL A   1      32.688  29.659  26.764  1.00  0.00     0.116 C 
BRANCH  30  31
ATOM     31  N   UNL A   1      32.726  31.090  27.042  1.00  0.00    -0.352 N 
ATOM     32  C   UNL A   1      33.722  31.861  27.602  1.00  0.00     0.251 C 
ATOM     33  H   UNL A   1      31.912  31.582  26.790  1.00  0.00     0.163 HD
ATOM     34  O   UNL A   1      33.517  33.056  27.812  1.00  0.00    -0.269 OA
BRANCH  32  35
ATOM     35  C   UNL A   1      35.016  31.252  27.993  1.00  0.00     0.039 A 
ATOM     36  C   UNL A   1      36.154  32.061  28.081  1.00  0.00     0.014 A 
ATOM     37  C   UNL A   1      35.107  29.896  28.312  1.00  0.00     0.014 A 
ATOM     38  C   UNL A   1      37.344  31.537  28.599  1.00  0.00     0.010 A 
ATOM     39  C   UNL A   1      36.262  29.402  28.915  1.00  0.00     0.010 A 
ATOM     40  C   UNL A   1      37.391  30.218  29.081  1.00  0.00    -0.014 A 
BRANCH  40  41
ATOM     41  C   UNL A   1      38.582  29.684  29.800  1.00  0.00     0.031 A 
ATOM     42  C   UNL A   1      38.986  30.250  31.137  1.00  0.00     0.074 A 
ATOM     43  C   UNL A   1      39.375  28.774  29.193  1.00  0.00     0.049 A 
ATOM     44  N   UNL A   1      40.044  29.986  31.860  1.00  0.00    -0.248 NA
ATOM     45  C   UNL A   1      38.104  31.273  31.726  1.00  0.00     0.031 C 
ATOM     46  C   UNL A   1      39.152  28.208  27.860  1.00  0.00     0.029 A 
ATOM     47  N   UNL A   1      40.549  28.188  29.604  1.00  0.00    -0.354 N 
ATOM     48  C   UNL A   1      39.982  30.838  32.956  1.00  0.00     0.074 A 
ATOM     49  C   UNL A   1      38.794  31.646  32.794  1.00  0.00     0.031 C 
ATOM     50  C   UNL A   1      40.150  27.360  27.565  1.00  0.00     0.029 A 
ATOM     51  C   UNL A   1      41.103  27.342  28.669  1.00  0.00     0.049 A 
ATOM     52  H   UNL A   1      40.956  28.358  30.483  1.00  0.00     0.167 HD
ATOM     53  C   UNL A   1      40.821  30.923  34.015  1.00  0.00     0.034 A 
ATOM     54  C   UNL A   1      42.254  26.639  28.691  1.00  0.00     0.034 A 
ATOM     55  C   UNL A   1      41.965  30.073  34.210  1.00  0.00     0.049 A 
ATOM     56  C   UNL A   1      43.134  26.711  29.912  1.00  0.00     0.074 A 
ATOM     57  C   UNL A   1      42.807  30.006  35.307  1.00  0.00     0.029 A 
ATOM     58  N   UNL A   1      42.431  29.150  33.290  1.00  0.00    -0.354 N 
ATOM     59  N   UNL A   1      42.956  27.392  31.017  1.00  0.00    -0.248 NA
ATOM     60  C   UNL A   1      44.354  25.888  29.904  1.00  0.00     0.031 C 
ATOM     61  C   UNL A   1      43.796  29.055  35.040  1.00  0.00     0.029 A 
ATOM     62  C   UNL A   1      43.554  28.513  33.789  1.00  0.00     0.049 A 
ATOM     63  H   UNL A   1      42.024  28.971  32.412  1.00  0.00     0.167 HD
ATOM     64  C   UNL A   1      44.015  27.047  31.850  1.00  0.00     0.074 A 
ATOM     65  C   UNL A   1      44.818  26.081  31.130  1.00  0.00     0.031 C 
ATOM     66  C   UNL A   1      44.305  27.502  33.093  1.00  0.00     0.034 A 
BRANCH  53  67
ATOM     67  C   UNL A   1      40.507  31.930  35.091  1.00  0.00     0.023 A 
ATOM     68  C   UNL A   1      41.211  33.150  35.129  1.00  0.00     0.012 A 
ATOM     69  C   UNL A   1      39.455  31.710  36.002  1.00  0.00     0.148 A 
ATOM     70  C   UNL A   1      40.892  34.126  36.071  1.00  0.00     0.002 A 
ATOM     71  C   UNL A   1      39.112  32.707  36.910  1.00  0.00     0.091 A 
ATOM     72  F   UNL A   1      38.807  30.537  35.961  1.00  0.00    -0.205 F 
ATOM     73  C   UNL A   1      39.836  33.910  36.951  1.00  0.00     0.022 A 
BRANCH  71  74
ATOM     74  S   UNL A   1      37.717  32.563  38.033  1.00  0.00     0.127 S 
ATOM     75  O   UNL A   1      36.605  32.974  37.177  1.00  0.00    -0.237 OA
ATOM     76  O   UNL A   1      37.737  31.138  38.364  1.00  0.00    -0.237 OA
ATOM     77  O   UNL A   1      38.004  33.454  39.150  1.00  0.00    -0.744 OA
ENDBRANCH  71  74
ENDBRANCH  53  67
BRANCH  54  78
ATOM     78  C   UNL A   1      42.620  25.750  27.549  1.00  0.00     0.023 A 
ATOM     79  C   UNL A   1      43.430  26.259  26.513  1.00  0.00     0.012 A 
ATOM     80  C   UNL A   1      42.170  24.418  27.474  1.00  0.00     0.148 A 
ATOM     81  C   UNL A   1      43.747  25.473  25.405  1.00  0.00     0.002 A 
ATOM     82  C   UNL A   1      42.538  23.623  26.394  1.00  0.00     0.091 A 
ATOM     83  F   UNL A   1      41.387  23.954  28.458  1.00  0.00    -0.205 F 
ATOM     84  C   UNL A   1      43.309  24.153  25.349  1.00  0.00     0.022 A 
BRANCH  82  85
ATOM     85  S   UNL A   1      42.127  21.876  26.309  1.00  0.00     0.127 S 
ATOM     86  O   UNL A   1      40.700  21.919  25.997  1.00  0.00    -0.237 OA
ATOM     87  O   UNL A   1      42.983  21.412  25.217  1.00  0.00    -0.237 OA
ATOM     88  O   UNL A   1      42.480  21.333  27.614  1.00  0.00    -0.744 OA
ENDBRANCH  82  85
ENDBRANCH  54  78
BRANCH  66  89
ATOM     89  C   UNL A   1      45.513  26.930  33.787  1.00  0.00     0.023 A 
ATOM     90  C   UNL A   1      46.746  27.610  33.730  1.00  0.00     0.012 A 
ATOM     91  C   UNL A   1      45.405  25.759  34.563  1.00  0.00     0.148 A 
ATOM     92  C   UNL A   1      47.859  27.116  34.407  1.00  0.00     0.002 A 
ATOM     93  C   UNL A   1      46.505  25.300  35.276  1.00  0.00     0.091 A 
ATOM     94  F   UNL A   1      44.228  25.115  34.589  1.00  0.00    -0.205 F 
ATOM     95  C   UNL A   1      47.737  25.970  35.189  1.00  0.00     0.022 A 
BRANCH  93  96
ATOM     96  S   UNL A   1      46.412  23.891  36.386  1.00  0.00     0.127 S 
ATOM     97  O   UNL A   1      46.412  22.770  35.448  1.00  0.00    -0.237 OA
ATOM     98  O   UNL A   1      47.641  24.031  37.170  1.00  0.00    -0.237 OA
ATOM     99  O   UNL A   1      45.186  24.065  37.154  1.00  0.00    -0.744 OA
ENDBRANCH  93  96
ENDBRANCH  66  89
ENDBRANCH  40  41
ENDBRANCH  32  35
ENDBRANCH  30  31
ENDBRANCH  29  30
ENDBRANCH  28  29
ENDBRANCH   1  28
TORSDOF 19
ENDMDL
MODEL 2
REMARK VINA RESULT:     -12.4      1.903      8.362
REMARK SMILES CC1=C(C)C[C@H](C(=O)N[C@@H](C)CCc2ccccc2)[C@@H](C(=O)NCCCCNC(=O)c2ccc(-c3c4nc(c(-c5cccc(S(=O)(=O)[O-])c5F)c5ccc([nH]5)c(-c5cccc(S(=O)(=O)[O-])c5F)c5nc(c(-c6cccc(S(=O)(=O)[O-])c6F)c6ccc3[nH]6)C=C5)C=C4)cc2)C1
REMARK SMILES IDX 24 1 23 2 21 3 22 4 20 6 1 7 2 8 3 9 94 10 4 11 5 12 6 13
REMARK SMILES IDX 7 14 8 15 9 16 10 18 11 19 12 20 13 21 14 22 15 23 19 24
REMARK SMILES IDX 16 25 18 26 17 27 25 28 26 29 27 30 28 31 29 32 30 34 31 35
REMARK SMILES IDX 32 36 93 37 33 38 92 39 34 40 35 41 36 42 86 43 37 44 91 45
REMARK SMILES IDX 85 46 87 47 38 48 90 49 84 50 83 51 39 53 71 54 51 55 70 56
REMARK SMILES IDX 52 57 55 58 69 59 88 60 53 61 54 62 68 64 89 65 56 66 40 67
REMARK SMILES IDX 41 68 49 69 42 70 44 71 50 72 43 73 45 74 46 75 47 76 48 77
REMARK SMILES IDX 72 78 73 79 81 80 74 81 76 82 82 83 75 84 77 85 78 86 79 87
REMARK SMILES IDX 80 88 57 89 58 90 66 91 59 92 61 93 67 94 60 95 62 96 63 97
REMARK SMILES IDX 64 98 65 99
REMARK H PARENT 23 5 9 17 28 33 87 52 55 63
REMARK Flexibility Score: inf
ROOT
ATOM      1  C   UNL A   1      32.603  27.769  23.066  1.00  0.00     0.116 C 
ENDROOT
BRANCH   1   2
ATOM      2  N   UNL A   1      33.010  27.043  21.879  1.00  0.00    -0.356 N 
ATOM      3  C   UNL A   1      33.085  25.691  21.685  1.00  0.00     0.224 C 
ATOM      4  O   UNL A   1      33.330  25.288  20.548  1.00  0.00    -0.275 OA
ATOM      5  H   UNL A   1      33.269  27.599  21.108  1.00  0.00     0.163 HD
BRANCH   3   6
ATOM      6  C   UNL A   1      32.798  24.733  22.853  1.00  0.00     0.095 C 
ATOM      7  C   UNL A   1      32.041  20.908  22.745  1.00  0.00     0.039 C 
ATOM      8  C   UNL A   1      32.851  22.132  23.080  1.00  0.00    -0.074 C 
ATOM      9  C   UNL A   1      33.856  22.170  23.976  1.00  0.00    -0.074 C 
ATOM     10  C   UNL A   1      32.508  23.349  22.248  1.00  0.00     0.045 C 
ATOM     11  C   UNL A   1      34.398  20.980  24.729  1.00  0.00     0.039 C 
ATOM     12  C   UNL A   1      34.621  23.445  24.239  1.00  0.00     0.045 C 
ATOM     13  C   UNL A   1      33.934  24.771  23.895  1.00  0.00     0.095 C 
BRANCH  13  14
ATOM     14  C   UNL A   1      33.532  25.549  25.155  1.00  0.00     0.224 C 
ATOM     15  O   UNL A   1      34.397  26.107  25.840  1.00  0.00    -0.275 OA
ATOM     16  N   UNL A   1      32.253  25.677  25.598  1.00  0.00    -0.353 N 
ATOM     17  H   UNL A   1      32.138  26.358  26.300  1.00  0.00     0.163 HD
BRANCH  16  18
ATOM     18  C   UNL A   1      31.020  24.993  25.225  1.00  0.00     0.079 C 
ATOM     19  C   UNL A   1      30.757  23.875  26.238  1.00  0.00     0.031 C 
BRANCH  18  20
ATOM     20  C   UNL A   1      29.813  25.955  25.223  1.00  0.00     0.029 C 
BRANCH  20  21
ATOM     21  C   UNL A   1      29.271  26.345  23.840  1.00  0.00     0.037 C 
BRANCH  21  22
ATOM     22  C   UNL A   1      28.809  27.768  23.606  1.00  0.00    -0.048 A 
ATOM     23  C   UNL A   1      27.489  28.133  23.325  1.00  0.00     0.004 A 
ATOM     24  C   UNL A   1      29.781  28.784  23.614  1.00  0.00     0.004 A 
ATOM     25  C   UNL A   1      27.163  29.456  23.002  1.00  0.00     0.000 A 
ATOM     26  C   UNL A   1      29.454  30.108  23.307  1.00  0.00     0.000 A 
ATOM     27  C   UNL A   1      28.146  30.440  22.975  1.00  0.00     0.000 A 
ENDBRANCH  21  22
ENDBRANCH  20  21
ENDBRANCH  18  20
ENDBRANCH  16  18
ENDBRANCH  13  14
ENDBRANCH   3   6
ENDBRANCH   1   2
BRANCH   1  28
ATOM     28  C   UNL A   1      33.398  29.051  23.303  1.00  0.00     0.023 C 
BRANCH  28  29
ATOM     29  C   UNL A   1      33.835  29.320  24.741  1.00  0.00     0.023 C 
BRANCH  29  30
ATOM     30  C   UNL A   1      32.735  29.317  25.797  1.00  0.00     0.116 C 
BRANCH  30  31
ATOM     31  N   UNL A   1      32.410  30.635  26.330  1.00  0.00    -0.352 N 
ATOM     32  C   UNL A   1      33.137  31.464  27.158  1.00  0.00     0.251 C 
ATOM     33  H   UNL A   1      31.533  30.988  26.056  1.00  0.00     0.163 HD
ATOM     34  O   UNL A   1      32.640  32.520  27.547  1.00  0.00    -0.269 OA
BRANCH  32  35
ATOM     35  C   UNL A   1      34.492  31.071  27.615  1.00  0.00     0.039 A 
ATOM     36  C   UNL A   1      35.500  32.039  27.677  1.00  0.00     0.014 A 
ATOM     37  C   UNL A   1      34.765  29.763  28.020  1.00  0.00     0.014 A 
ATOM     38  C   UNL A   1      36.735  31.723  28.254  1.00  0.00     0.010 A 
ATOM     39  C   UNL A   1      35.958  29.477  28.679  1.00  0.00     0.010 A 
ATOM     40  C   UNL A   1      36.954  30.456  28.819  1.00  0.00    -0.014 A 
BRANCH  40  41
ATOM     41  C   UNL A   1      38.186  30.141  29.597  1.00  0.00     0.031 A 
ATOM     42  C   UNL A   1      39.206  29.173  29.055  1.00  0.00     0.074 A 
ATOM     43  C   UNL A   1      38.328  30.631  30.848  1.00  0.00     0.049 A 
ATOM     44  N   UNL A   1      40.282  28.701  29.629  1.00  0.00    -0.248 NA
ATOM     45  C   UNL A   1      38.972  28.639  27.702  1.00  0.00     0.031 C 
ATOM     46  C   UNL A   1      37.372  31.506  31.531  1.00  0.00     0.029 A 
ATOM     47  N   UNL A   1      39.317  30.435  31.783  1.00  0.00    -0.354 N 
ATOM     48  C   UNL A   1      40.823  27.783  28.737  1.00  0.00     0.074 A 
ATOM     49  C   UNL A   1      39.944  27.745  27.589  1.00  0.00     0.031 C 
ATOM     50  C   UNL A   1      37.819  31.772  32.769  1.00  0.00     0.029 A 
ATOM     51  C   UNL A   1      39.076  31.064  32.985  1.00  0.00     0.049 A 
ATOM     52  H   UNL A   1      40.121  29.896  31.610  1.00  0.00     0.167 HD
ATOM     53  C   UNL A   1      41.959  27.056  28.848  1.00  0.00     0.034 A 
ATOM     54  C   UNL A   1      39.780  31.062  34.135  1.00  0.00     0.034 A 
ATOM     55  C   UNL A   1      42.868  27.143  29.959  1.00  0.00     0.049 A 
ATOM     56  C   UNL A   1      41.071  30.291  34.203  1.00  0.00     0.074 A 
ATOM     57  C   UNL A   1      44.102  26.534  30.108  1.00  0.00     0.029 A 
ATOM     58  N   UNL A   1      42.643  27.878  31.111  1.00  0.00    -0.354 N 
ATOM     59  N   UNL A   1      41.653  29.573  33.274  1.00  0.00    -0.248 NA
ATOM     60  C   UNL A   1      41.824  30.361  35.466  1.00  0.00     0.031 C 
ATOM     61  C   UNL A   1      44.614  26.884  31.361  1.00  0.00     0.029 A 
ATOM     62  C   UNL A   1      43.710  27.731  31.980  1.00  0.00     0.049 A 
ATOM     63  H   UNL A   1      41.843  28.424  31.286  1.00  0.00     0.167 HD
ATOM     64  C   UNL A   1      42.855  29.143  33.824  1.00  0.00     0.074 A 
ATOM     65  C   UNL A   1      42.929  29.698  35.159  1.00  0.00     0.031 C 
ATOM     66  C   UNL A   1      43.806  28.345  33.278  1.00  0.00     0.034 A 
BRANCH  53  67
ATOM     67  C   UNL A   1      42.332  26.141  27.710  1.00  0.00     0.023 A 
ATOM     68  C   UNL A   1      43.237  26.587  26.727  1.00  0.00     0.012 A 
ATOM     69  C   UNL A   1      41.863  24.813  27.668  1.00  0.00     0.148 A 
ATOM     70  C   UNL A   1      43.651  25.736  25.704  1.00  0.00     0.002 A 
ATOM     71  C   UNL A   1      42.315  23.956  26.670  1.00  0.00     0.091 A 
ATOM     72  F   UNL A   1      40.989  24.413  28.603  1.00  0.00    -0.205 F 
ATOM     73  C   UNL A   1      43.200  24.419  25.683  1.00  0.00     0.022 A 
BRANCH  71  74
ATOM     74  S   UNL A   1      41.860  22.220  26.598  1.00  0.00     0.127 S 
ATOM     75  O   UNL A   1      42.461  21.707  27.830  1.00  0.00    -0.237 OA
ATOM     76  O   UNL A   1      40.399  22.285  26.614  1.00  0.00    -0.237 OA
ATOM     77  O   UNL A   1      42.436  21.702  25.364  1.00  0.00    -0.744 OA
ENDBRANCH  71  74
ENDBRANCH  53  67
BRANCH  54  78
ATOM     78  C   UNL A   1      39.319  31.867  35.305  1.00  0.00     0.023 A 
ATOM     79  C   UNL A   1      38.415  31.293  36.222  1.00  0.00     0.012 A 
ATOM     80  C   UNL A   1      39.757  33.189  35.512  1.00  0.00     0.148 A 
ATOM     81  C   UNL A   1      37.923  32.034  37.297  1.00  0.00     0.002 A 
ATOM     82  C   UNL A   1      39.306  33.902  36.619  1.00  0.00     0.091 A 
ATOM     83  F   UNL A   1      40.603  33.727  34.623  1.00  0.00    -0.205 F 
ATOM     84  C   UNL A   1      38.374  33.335  37.500  1.00  0.00     0.022 A 
BRANCH  82  85
ATOM     85  S   UNL A   1      39.937  35.534  37.026  1.00  0.00     0.127 S 
ATOM     86  O   UNL A   1      39.310  35.784  38.321  1.00  0.00    -0.237 OA
ATOM     87  O   UNL A   1      41.381  35.299  37.076  1.00  0.00    -0.237 OA
ATOM     88  O   UNL A   1      39.512  36.396  35.932  1.00  0.00    -0.744 OA
ENDBRANCH  82  85
ENDBRANCH  54  78
BRANCH  66  89
ATOM     89  C   UNL A   1      45.039  28.059  34.095  1.00  0.00     0.023 A 
ATOM     90  C   UNL A   1      46.146  28.927  34.024  1.00  0.00     0.012 A 
ATOM     91  C   UNL A   1      45.067  26.974  34.992  1.00  0.00     0.148 A 
ATOM     92  C   UNL A   1      47.274  28.700  34.810  1.00  0.00     0.002 A 
ATOM     93  C   UNL A   1      46.174  26.783  35.809  1.00  0.00     0.091 A 
ATOM     94  F   UNL A   1      44.010  26.147  35.031  1.00  0.00    -0.205 F 
ATOM     95  C   UNL A   1      47.284  27.638  35.710  1.00  0.00     0.022 A 
BRANCH  93  96
ATOM     96  S   UNL A   1      46.232  25.502  37.067  1.00  0.00     0.127 S 
ATOM     97  O   UNL A   1      47.547  25.728  37.663  1.00  0.00    -0.237 OA
ATOM     98  O   UNL A   1      45.102  25.858  37.926  1.00  0.00    -0.237 OA
ATOM     99  O   UNL A   1      46.074  24.238  36.359  1.00  0.00    -0.744 OA
ENDBRANCH  93  96
ENDBRANCH  66  89
ENDBRANCH  40  41
ENDBRANCH  32  35
ENDBRANCH  30  31
ENDBRANCH  29  30
ENDBRANCH  28  29
ENDBRANCH   1  28
TORSDOF 19
ENDMDL
MODEL 3
REMARK VINA RESULT:     -12.4      1.755      2.091
REMARK SMILES CC1=C(C)C[C@H](C(=O)N[C@@H](C)CCc2ccccc2)[C@@H](C(=O)NCCCCNC(=O)c2ccc(-c3c4nc(c(-c5cccc(S(=O)(=O)[O-])c5F)c5ccc([nH]5)c(-c5cccc(S(=O)(=O)[O-])c5F)c5nc(c(-c6cccc(S(=O)(=O)[O-])c6F)c6ccc3[nH]6)C=C5)C=C4)cc2)C1
REMARK SMILES IDX 24 1 23 2 21 3 22 4 20 6 1 7 2 8 3 9 94 10 4 11 5 12 6 13
REMARK SMILES IDX 7 14 8 15 9 16 10 18 11 19 12 20 13 21 14 22 15 23 19 24
REMARK SMILES IDX 16 25 18 26 17 27 25 28 26 29 27 30 28 31 29 32 30 34 31 35
REMARK SMILES IDX 32 36 93 37 33 38 92 39 34 40 35 41 36 42 86 43 37 44 91 45
REMARK SMILES IDX 85 46 87 47 38 48 90 49 84 50 83 51 39 53 71 54 51 55 70 56
REMARK SMILES IDX 52 57 55 58 69 59 88 60 53 61 54 62 68 64 89 65 56 66 40 67
REMARK SMILES IDX 41 68 49 69 42 70 44 71 50 72 43 73 45 74 46 75 47 76 48 77
REMARK SMILES IDX 72 78 73 79 81 80 74 81 76 82 82 83 75 84 77 85 78 86 79 87
REMARK SMILES IDX 80 88 57 89 58 90 66 91 59 92 61 93 67 94 60 95 62 96 63 97
REMARK SMILES IDX 64 98 65 99
REMARK H PARENT 23 5 9 17 28 33 87 52 55 63
REMARK Flexibility Score: inf
ROOT
ATOM      1  C   UNL A   1      33.294  27.816  24.154  1.00  0.00     0.116 C 
ENDROOT
BRANCH   1   2
ATOM      2  N   UNL A   1      32.479  27.192  23.130  1.00  0.00    -0.356 N 
ATOM      3  C   UNL A   1      32.192  25.865  22.955  1.00  0.00     0.224 C 
ATOM      4  O   UNL A   1      31.365  25.569  22.092  1.00  0.00    -0.275 OA
ATOM      5  H   UNL A   1      32.080  27.805  22.472  1.00  0.00     0.163 HD
BRANCH   3   6
ATOM      6  C   UNL A   1      32.843  24.813  23.866  1.00  0.00     0.095 C 
ATOM      7  C   UNL A   1      36.096  22.744  23.274  1.00  0.00     0.039 C 
ATOM      8  C   UNL A   1      35.235  23.771  23.961  1.00  0.00    -0.074 C 
ATOM      9  C   UNL A   1      35.480  24.291  25.180  1.00  0.00    -0.074 C 
ATOM     10  C   UNL A   1      34.074  24.265  23.125  1.00  0.00     0.045 C 
ATOM     11  C   UNL A   1      36.698  24.004  26.022  1.00  0.00     0.039 C 
ATOM     12  C   UNL A   1      34.562  25.326  25.786  1.00  0.00     0.045 C 
ATOM     13  C   UNL A   1      33.120  25.389  25.270  1.00  0.00     0.095 C 
BRANCH  13  14
ATOM     14  C   UNL A   1      32.119  24.873  26.311  1.00  0.00     0.224 C 
ATOM     15  O   UNL A   1      31.356  25.662  26.880  1.00  0.00    -0.275 OA
ATOM     16  N   UNL A   1      32.000  23.568  26.676  1.00  0.00    -0.353 N 
ATOM     17  H   UNL A   1      31.193  23.371  27.204  1.00  0.00     0.163 HD
BRANCH  16  18
ATOM     18  C   UNL A   1      32.847  22.407  26.428  1.00  0.00     0.079 C 
ATOM     19  C   UNL A   1      33.297  21.836  27.776  1.00  0.00     0.031 C 
BRANCH  18  20
ATOM     20  C   UNL A   1      32.092  21.307  25.651  1.00  0.00     0.029 C 
BRANCH  20  21
ATOM     21  C   UNL A   1      32.641  20.980  24.254  1.00  0.00     0.037 C 
BRANCH  21  22
ATOM     22  C   UNL A   1      33.162  19.585  23.978  1.00  0.00    -0.048 A 
ATOM     23  C   UNL A   1      32.477  18.619  23.234  1.00  0.00     0.004 A 
ATOM     24  C   UNL A   1      34.390  19.217  24.556  1.00  0.00     0.004 A 
ATOM     25  C   UNL A   1      32.972  17.313  23.126  1.00  0.00     0.000 A 
ATOM     26  C   UNL A   1      34.892  17.918  24.434  1.00  0.00     0.000 A 
ATOM     27  C   UNL A   1      34.168  16.956  23.739  1.00  0.00     0.000 A 
ENDBRANCH  21  22
ENDBRANCH  20  21
ENDBRANCH  18  20
ENDBRANCH  16  18
ENDBRANCH  13  14
ENDBRANCH   3   6
ENDBRANCH   1   2
BRANCH   1  28
ATOM     28  C   UNL A   1      33.001  29.302  24.348  1.00  0.00     0.023 C 
BRANCH  28  29
ATOM     29  C   UNL A   1      31.831  29.647  25.267  1.00  0.00     0.023 C 
BRANCH  29  30
ATOM     30  C   UNL A   1      32.186  30.061  26.692  1.00  0.00     0.116 C 
BRANCH  30  31
ATOM     31  N   UNL A   1      32.236  31.503  26.904  1.00  0.00    -0.352 N 
ATOM     32  C   UNL A   1      33.236  32.289  27.434  1.00  0.00     0.251 C 
ATOM     33  H   UNL A   1      31.427  31.991  26.627  1.00  0.00     0.163 HD
ATOM     34  O   UNL A   1      33.042  33.494  27.589  1.00  0.00    -0.269 OA
BRANCH  32  35
ATOM     35  C   UNL A   1      34.523  31.686  27.858  1.00  0.00     0.039 A 
ATOM     36  C   UNL A   1      35.642  32.510  28.026  1.00  0.00     0.014 A 
ATOM     37  C   UNL A   1      34.625  30.321  28.129  1.00  0.00     0.014 A 
ATOM     38  C   UNL A   1      36.817  31.986  28.576  1.00  0.00     0.010 A 
ATOM     39  C   UNL A   1      35.761  29.823  28.763  1.00  0.00     0.010 A 
ATOM     40  C   UNL A   1      36.867  30.651  29.009  1.00  0.00    -0.014 A 
BRANCH  40  41
ATOM     41  C   UNL A   1      38.035  30.108  29.759  1.00  0.00     0.031 A 
ATOM     42  C   UNL A   1      38.346  30.599  31.150  1.00  0.00     0.074 A 
ATOM     43  C   UNL A   1      38.891  29.265  29.142  1.00  0.00     0.049 A 
ATOM     44  N   UNL A   1      39.371  30.322  31.913  1.00  0.00    -0.248 NA
ATOM     45  C   UNL A   1      37.398  31.554  31.751  1.00  0.00     0.031 C 
ATOM     46  C   UNL A   1      38.760  28.780  27.765  1.00  0.00     0.029 A 
ATOM     47  N   UNL A   1      40.061  28.691  29.580  1.00  0.00    -0.354 N 
ATOM     48  C   UNL A   1      39.221  31.099  33.056  1.00  0.00     0.074 A 
ATOM     49  C   UNL A   1      38.016  31.878  32.878  1.00  0.00     0.031 C 
ATOM     50  C   UNL A   1      39.802  27.984  27.474  1.00  0.00     0.029 A 
ATOM     51  C   UNL A   1      40.694  27.925  28.626  1.00  0.00     0.049 A 
ATOM     52  H   UNL A   1      40.414  28.816  30.490  1.00  0.00     0.167 HD
ATOM     53  C   UNL A   1      39.998  31.141  34.163  1.00  0.00     0.034 A 
ATOM     54  C   UNL A   1      41.866  27.258  28.669  1.00  0.00     0.034 A 
ATOM     55  C   UNL A   1      41.158  30.317  34.369  1.00  0.00     0.049 A 
ATOM     56  C   UNL A   1      42.674  27.278  29.939  1.00  0.00     0.074 A 
ATOM     57  C   UNL A   1      41.941  30.205  35.504  1.00  0.00     0.029 A 
ATOM     58  N   UNL A   1      41.705  29.470  33.420  1.00  0.00    -0.354 N 
ATOM     59  N   UNL A   1      42.414  27.880  31.074  1.00  0.00    -0.248 NA
ATOM     60  C   UNL A   1      43.921  26.496  29.948  1.00  0.00     0.031 C 
ATOM     61  C   UNL A   1      42.976  29.305  35.235  1.00  0.00     0.029 A 
ATOM     62  C   UNL A   1      42.822  28.838  33.940  1.00  0.00     0.049 A 
ATOM     63  H   UNL A   1      41.353  29.336  32.511  1.00  0.00     0.167 HD
ATOM     64  C   UNL A   1      43.437  27.515  31.941  1.00  0.00     0.074 A 
ATOM     65  C   UNL A   1      44.311  26.624  31.208  1.00  0.00     0.031 C 
ATOM     66  C   UNL A   1      43.644  27.898  33.225  1.00  0.00     0.034 A 
BRANCH  53  67
ATOM     67  C   UNL A   1      39.591  32.066  35.281  1.00  0.00     0.023 A 
ATOM     68  C   UNL A   1      38.743  31.592  36.302  1.00  0.00     0.012 A 
ATOM     69  C   UNL A   1      40.122  33.368  35.371  1.00  0.00     0.148 A 
ATOM     70  C   UNL A   1      38.410  32.406  37.383  1.00  0.00     0.002 A 
ATOM     71  C   UNL A   1      39.821  34.158  36.475  1.00  0.00     0.091 A 
ATOM     72  F   UNL A   1      40.914  33.806  34.382  1.00  0.00    -0.205 F 
ATOM     73  C   UNL A   1      38.957  33.682  37.475  1.00  0.00     0.022 A 
BRANCH  71  74
ATOM     74  S   UNL A   1      40.537  35.786  36.733  1.00  0.00     0.127 S 
ATOM     75  O   UNL A   1      39.721  36.611  35.843  1.00  0.00    -0.237 OA
ATOM     76  O   UNL A   1      40.296  36.004  38.159  1.00  0.00    -0.237 OA
ATOM     77  O   UNL A   1      41.941  35.672  36.361  1.00  0.00    -0.744 OA
ENDBRANCH  71  74
ENDBRANCH  53  67
BRANCH  54  78
ATOM     78  C   UNL A   1      42.324  26.457  27.496  1.00  0.00     0.023 A 
ATOM     79  C   UNL A   1      43.048  27.094  26.468  1.00  0.00     0.012 A 
ATOM     80  C   UNL A   1      42.044  25.081  27.385  1.00  0.00     0.148 A 
ATOM     81  C   UNL A   1      43.445  26.388  25.332  1.00  0.00     0.002 A 
ATOM     82  C   UNL A   1      42.494  24.371  26.276  1.00  0.00     0.091 A 
ATOM     83  F   UNL A   1      41.341  24.493  28.362  1.00  0.00    -0.205 F 
ATOM     84  C   UNL A   1      43.175  25.026  25.239  1.00  0.00     0.022 A 
BRANCH  82  85
ATOM     85  S   UNL A   1      42.304  22.590  26.141  1.00  0.00     0.127 S 
ATOM     86  O   UNL A   1      43.070  22.297  24.932  1.00  0.00    -0.237 OA
ATOM     87  O   UNL A   1      42.915  22.122  27.386  1.00  0.00    -0.237 OA
ATOM     88  O   UNL A   1      40.868  22.360  26.059  1.00  0.00    -0.744 OA
ENDBRANCH  82  85
ENDBRANCH  54  78
BRANCH  66  89
ATOM     89  C   UNL A   1      44.832  27.320  33.949  1.00  0.00     0.023 A 
ATOM     90  C   UNL A   1      44.697  26.122  34.678  1.00  0.00     0.012 A 
ATOM     91  C   UNL A   1      46.100  27.924  33.840  1.00  0.00     0.148 A 
ATOM     92  C   UNL A   1      45.799  25.551  35.312  1.00  0.00     0.002 A 
ATOM     93  C   UNL A   1      47.203  27.323  34.432  1.00  0.00     0.091 A 
ATOM     94  F   UNL A   1      46.204  29.075  33.157  1.00  0.00    -0.205 F 
ATOM     95  C   UNL A   1      47.053  26.144  35.180  1.00  0.00     0.022 A 
BRANCH  93  96
ATOM     96  S   UNL A   1      48.870  27.961  34.230  1.00  0.00     0.127 S 
ATOM     97  O   UNL A   1      48.852  29.128  35.110  1.00  0.00    -0.237 OA
ATOM     98  O   UNL A   1      49.690  26.848  34.710  1.00  0.00    -0.237 OA
ATOM     99  O   UNL A   1      49.019  28.250  32.810  1.00  0.00    -0.744 OA
ENDBRANCH  93  96
ENDBRANCH  66  89
ENDBRANCH  40  41
ENDBRANCH  32  35
ENDBRANCH  30  31
ENDBRANCH  29  30
ENDBRANCH  28  29
ENDBRANCH   1  28
TORSDOF 19
ENDMDL
