MODEL 1
REMARK VINA RESULT:     -11.5      0.000      0.000
REMARK SMILES CCCCCCNC(=O)Oc1cccc(-c2ccc([C@@H](C)C(=O)NCCCCNC(=O)c3ccc(-c4c5nc(c(-c6cccc(S(=O)(=O)[O-])c6F)c6ccc([nH]6)c(-c6cccc(S(=O)(=O)[O-])c6F)c6nc(c(-c7cccc(S(=O)(=O)[O-])c7F)c7ccc4[nH]7)C=C6)C=C5)cc3)cc2F)c1
REMARK SMILES IDX 20 1 21 2 19 3 16 4 17 5 96 6 18 7 95 8 97 9 15 10 11 11
REMARK SMILES IDX 12 12 98 13 13 14 14 15 10 16 8 17 7 18 9 20 6 21 5 22 4 23
REMARK SMILES IDX 3 24 2 25 1 26 22 27 23 28 24 29 25 31 26 32 27 33 28 34
REMARK SMILES IDX 29 35 30 36 31 38 32 39 33 40 94 41 34 42 93 43 35 44 36 45
REMARK SMILES IDX 37 46 87 47 38 48 92 49 86 50 88 51 39 52 91 53 85 54 84 55
REMARK SMILES IDX 40 57 72 58 52 59 71 60 53 61 56 62 70 63 89 64 54 65 55 66
REMARK SMILES IDX 69 68 90 69 57 70 41 71 42 72 50 73 43 74 45 75 51 76 44 77
REMARK SMILES IDX 46 78 47 79 48 80 49 81 73 82 74 83 82 84 75 85 77 86 83 87
REMARK SMILES IDX 76 88 78 89 79 90 80 91 81 92 58 93 59 94 67 95 60 96 62 97
REMARK SMILES IDX 68 98 61 99 63 100 64 101 65 102 66 103
REMARK H PARENT 7 19 24 30 29 37 88 56 56 67
REMARK Flexibility Score: inf
ROOT
ATOM      1  C   UNL A   1      30.379  27.102  23.005  1.00  0.00     0.105 C 
ATOM      2  C   UNL A   1      29.130  26.802  23.833  1.00  0.00     0.023 C 
ENDROOT
BRANCH   1   3
ATOM      3  C   UNL A   1      31.671  26.466  23.495  1.00  0.00    -0.033 A 
ATOM      4  C   UNL A   1      33.974  25.022  24.394  1.00  0.00     0.018 A 
ATOM      5  C   UNL A   1      33.931  25.633  23.130  1.00  0.00     0.012 A 
ATOM      6  C   UNL A   1      32.853  25.209  25.215  1.00  0.00     0.131 A 
ATOM      7  C   UNL A   1      32.821  26.376  22.707  1.00  0.00     0.005 A 
ATOM      8  C   UNL A   1      31.716  25.893  24.773  1.00  0.00     0.044 A 
ATOM      9  F   UNL A   1      32.839  24.730  26.469  1.00  0.00    -0.206 F 
BRANCH   4  10
ATOM     10  C   UNL A   1      35.141  24.206  24.797  1.00  0.00    -0.012 A 
ATOM     11  C   UNL A   1      36.602  22.283  24.492  1.00  0.00     0.133 A 
ATOM     12  C   UNL A   1      37.421  22.692  25.539  1.00  0.00     0.047 A 
ATOM     13  C   UNL A   1      35.473  23.017  24.123  1.00  0.00     0.056 A 
ATOM     14  C   UNL A   1      37.115  23.866  26.217  1.00  0.00     0.004 A 
ATOM     15  C   UNL A   1      35.985  24.606  25.854  1.00  0.00     0.009 A 
BRANCH  11  16
ATOM     16  O   UNL A   1      36.889  21.038  23.911  1.00  0.00    -0.410 OA
BRANCH  16  17
ATOM     17  C   UNL A   1      37.177  19.978  24.756  1.00  0.00     0.412 C 
ATOM     18  N   UNL A   1      36.065  19.257  25.097  1.00  0.00    -0.321 N 
ATOM     19  H   UNL A   1      36.202  18.495  25.706  1.00  0.00     0.167 HD
ATOM     20  O   UNL A   1      38.281  19.682  25.192  1.00  0.00    -0.224 OA
BRANCH  18  21
ATOM     21  C   UNL A   1      34.708  19.500  24.654  1.00  0.00     0.119 C 
BRANCH  21  22
ATOM     22  C   UNL A   1      33.908  20.305  25.678  1.00  0.00     0.021 C 
BRANCH  22  23
ATOM     23  C   UNL A   1      32.606  20.908  25.140  1.00  0.00     0.002 C 
BRANCH  23  24
ATOM     24  C   UNL A   1      32.478  20.944  23.612  1.00  0.00    -0.000 C 
BRANCH  24  25
ATOM     25  C   UNL A   1      31.989  22.270  23.025  1.00  0.00    -0.003 C 
ATOM     26  C   UNL A   1      32.711  22.664  21.746  1.00  0.00     0.004 C 
ENDBRANCH  24  25
ENDBRANCH  23  24
ENDBRANCH  22  23
ENDBRANCH  21  22
ENDBRANCH  18  21
ENDBRANCH  16  17
ENDBRANCH  11  16
ENDBRANCH   4  10
ENDBRANCH   1   3
BRANCH   1  27
ATOM     27  C   UNL A   1      30.531  28.582  22.614  1.00  0.00     0.227 C 
ATOM     28  O   UNL A   1      29.897  29.023  21.648  1.00  0.00    -0.274 OA
ATOM     29  N   UNL A   1      31.321  29.465  23.282  1.00  0.00    -0.356 N 
ATOM     30  H   UNL A   1      31.265  30.389  22.944  1.00  0.00     0.163 HD
BRANCH  29  31
ATOM     31  C   UNL A   1      32.227  29.296  24.398  1.00  0.00     0.116 C 
BRANCH  31  32
ATOM     32  C   UNL A   1      31.564  29.623  25.737  1.00  0.00     0.023 C 
BRANCH  32  33
ATOM     33  C   UNL A   1      31.562  31.103  26.109  1.00  0.00     0.023 C 
BRANCH  33  34
ATOM     34  C   UNL A   1      32.527  31.493  27.221  1.00  0.00     0.116 C 
BRANCH  34  35
ATOM     35  N   UNL A   1      32.712  32.931  27.370  1.00  0.00    -0.352 N 
ATOM     36  C   UNL A   1      33.807  33.592  27.883  1.00  0.00     0.251 C 
ATOM     37  H   UNL A   1      31.966  33.499  27.068  1.00  0.00     0.163 HD
ATOM     38  O   UNL A   1      33.793  34.810  28.025  1.00  0.00    -0.269 OA
BRANCH  36  39
ATOM     39  C   UNL A   1      34.981  32.797  28.299  1.00  0.00     0.039 A 
ATOM     40  C   UNL A   1      36.254  33.364  28.203  1.00  0.00     0.014 A 
ATOM     41  C   UNL A   1      34.808  31.534  28.870  1.00  0.00     0.014 A 
ATOM     42  C   UNL A   1      37.346  32.691  28.753  1.00  0.00     0.010 A 
ATOM     43  C   UNL A   1      35.880  30.911  29.494  1.00  0.00     0.010 A 
ATOM     44  C   UNL A   1      37.161  31.480  29.442  1.00  0.00    -0.014 A 
BRANCH  44  45
ATOM     45  C   UNL A   1      38.291  30.790  30.117  1.00  0.00     0.031 A 
ATOM     46  C   UNL A   1      38.647  31.149  31.537  1.00  0.00     0.074 A 
ATOM     47  C   UNL A   1      39.046  29.908  29.431  1.00  0.00     0.049 A 
ATOM     48  N   UNL A   1      39.640  30.722  32.271  1.00  0.00    -0.248 NA
ATOM     49  C   UNL A   1      37.788  32.140  32.211  1.00  0.00     0.031 C 
ATOM     50  C   UNL A   1      38.852  29.533  28.028  1.00  0.00     0.029 A 
ATOM     51  N   UNL A   1      40.148  29.183  29.816  1.00  0.00    -0.354 N 
ATOM     52  C   UNL A   1      39.543  31.406  33.476  1.00  0.00     0.074 A 
ATOM     53  C   UNL A   1      38.424  32.314  33.359  1.00  0.00     0.031 C 
ATOM     54  C   UNL A   1      39.794  28.642  27.674  1.00  0.00     0.029 A 
ATOM     55  C   UNL A   1      40.679  28.407  28.810  1.00  0.00     0.049 A 
ATOM     56  H   UNL A   1      40.522  29.215  30.725  1.00  0.00     0.167 HD
ATOM     57  C   UNL A   1      40.288  31.264  34.597  1.00  0.00     0.034 A 
ATOM     58  C   UNL A   1      41.760  27.603  28.805  1.00  0.00     0.034 A 
ATOM     59  C   UNL A   1      41.372  30.328  34.726  1.00  0.00     0.049 A 
ATOM     60  C   UNL A   1      42.560  27.452  30.074  1.00  0.00     0.074 A 
ATOM     61  C   UNL A   1      42.153  30.068  35.838  1.00  0.00     0.029 A 
ATOM     62  N   UNL A   1      41.823  29.498  33.714  1.00  0.00    -0.354 N 
ATOM     63  N   UNL A   1      42.363  28.004  31.246  1.00  0.00    -0.248 NA
ATOM     64  C   UNL A   1      43.710  26.536  30.029  1.00  0.00     0.031 C 
ATOM     65  C   UNL A   1      43.087  29.086  35.493  1.00  0.00     0.029 A 
ATOM     66  C   UNL A   1      42.870  28.720  34.175  1.00  0.00     0.049 A 
ATOM     67  H   UNL A   1      41.455  29.467  32.803  1.00  0.00     0.167 HD
ATOM     68  C   UNL A   1      43.332  27.468  32.087  1.00  0.00     0.074 A 
ATOM     69  C   UNL A   1      44.101  26.530  31.296  1.00  0.00     0.031 C 
ATOM     70  C   UNL A   1      43.576  27.738  33.392  1.00  0.00     0.034 A 
BRANCH  57  71
ATOM     71  C   UNL A   1      39.910  32.085  35.801  1.00  0.00     0.023 A 
ATOM     72  C   UNL A   1      40.514  33.346  35.991  1.00  0.00     0.012 A 
ATOM     73  C   UNL A   1      38.915  31.654  36.699  1.00  0.00     0.148 A 
ATOM     74  C   UNL A   1      40.155  34.153  37.068  1.00  0.00     0.002 A 
ATOM     75  C   UNL A   1      38.529  32.484  37.746  1.00  0.00     0.091 A 
ATOM     76  F   UNL A   1      38.365  30.446  36.511  1.00  0.00    -0.205 F 
ATOM     77  C   UNL A   1      39.155  33.727  37.938  1.00  0.00     0.022 A 
BRANCH  75  78
ATOM     78  S   UNL A   1      37.198  32.068  38.879  1.00  0.00     0.127 S 
ATOM     79  O   UNL A   1      37.742  32.533  40.154  1.00  0.00    -0.237 OA
ATOM     80  O   UNL A   1      36.093  32.871  38.358  1.00  0.00    -0.237 OA
ATOM     81  O   UNL A   1      37.012  30.627  38.773  1.00  0.00    -0.744 OA
ENDBRANCH  75  78
ENDBRANCH  57  71
BRANCH  58  82
ATOM     82  C   UNL A   1      42.128  26.826  27.585  1.00  0.00     0.023 A 
ATOM     83  C   UNL A   1      42.655  27.505  26.467  1.00  0.00     0.012 A 
ATOM     84  C   UNL A   1      41.937  25.434  27.511  1.00  0.00     0.148 A 
ATOM     85  C   UNL A   1      42.935  26.820  25.284  1.00  0.00     0.002 A 
ATOM     86  C   UNL A   1      42.272  24.748  26.347  1.00  0.00     0.091 A 
ATOM     87  F   UNL A   1      41.422  24.804  28.577  1.00  0.00    -0.205 F 
ATOM     88  C   UNL A   1      42.751  25.443  25.225  1.00  0.00     0.022 A 
BRANCH  86  89
ATOM     89  S   UNL A   1      42.182  22.959  26.232  1.00  0.00     0.127 S 
ATOM     90  O   UNL A   1      40.748  22.722  26.375  1.00  0.00    -0.237 OA
ATOM     91  O   UNL A   1      42.716  22.712  24.891  1.00  0.00    -0.237 OA
ATOM     92  O   UNL A   1      43.023  22.459  27.311  1.00  0.00    -0.744 OA
ENDBRANCH  86  89
ENDBRANCH  58  82
BRANCH  70  93
ATOM     93  C   UNL A   1      44.680  26.971  34.071  1.00  0.00     0.023 A 
ATOM     94  C   UNL A   1      45.973  27.525  34.155  1.00  0.00     0.012 A 
ATOM     95  C   UNL A   1      44.414  25.735  34.692  1.00  0.00     0.148 A 
ATOM     96  C   UNL A   1      46.993  26.842  34.815  1.00  0.00     0.002 A 
ATOM     97  C   UNL A   1      45.422  25.086  35.392  1.00  0.00     0.091 A 
ATOM     98  F   UNL A   1      43.180  25.219  34.585  1.00  0.00    -0.205 F 
ATOM     99  C   UNL A   1      46.715  25.630  35.443  1.00  0.00     0.022 A 
BRANCH  97 100
ATOM    100  S   UNL A   1      45.133  23.571  36.315  1.00  0.00     0.127 S 
ATOM    101  O   UNL A   1      44.151  22.892  35.472  1.00  0.00    -0.237 OA
ATOM    102  O   UNL A   1      46.461  22.956  36.322  1.00  0.00    -0.237 OA
ATOM    103  O   UNL A   1      44.652  23.985  37.626  1.00  0.00    -0.744 OA
ENDBRANCH  97 100
ENDBRANCH  70  93
ENDBRANCH  44  45
ENDBRANCH  36  39
ENDBRANCH  34  35
ENDBRANCH  33  34
ENDBRANCH  32  33
ENDBRANCH  31  32
ENDBRANCH  29  31
ENDBRANCH   1  27
TORSDOF 23
ENDMDL
MODEL 2
REMARK VINA RESULT:     -11.1      2.635      4.185
REMARK SMILES CCCCCCNC(=O)Oc1cccc(-c2ccc([C@@H](C)C(=O)NCCCCNC(=O)c3ccc(-c4c5nc(c(-c6cccc(S(=O)(=O)[O-])c6F)c6ccc([nH]6)c(-c6cccc(S(=O)(=O)[O-])c6F)c6nc(c(-c7cccc(S(=O)(=O)[O-])c7F)c7ccc4[nH]7)C=C6)C=C5)cc3)cc2F)c1
REMARK SMILES IDX 20 1 21 2 19 3 16 4 17 5 96 6 18 7 95 8 97 9 15 10 11 11
REMARK SMILES IDX 12 12 98 13 13 14 14 15 10 16 8 17 7 18 9 20 6 21 5 22 4 23
REMARK SMILES IDX 3 24 2 25 1 26 22 27 23 28 24 29 25 31 26 32 27 33 28 34
REMARK SMILES IDX 29 35 30 36 31 38 32 39 33 40 94 41 34 42 93 43 35 44 36 45
REMARK SMILES IDX 37 46 87 47 38 48 92 49 86 50 88 51 39 52 91 53 85 54 84 55
REMARK SMILES IDX 40 57 72 58 52 59 71 60 53 61 56 62 70 63 89 64 54 65 55 66
REMARK SMILES IDX 69 68 90 69 57 70 41 71 42 72 50 73 43 74 45 75 51 76 44 77
REMARK SMILES IDX 46 78 47 79 48 80 49 81 73 82 74 83 82 84 75 85 77 86 83 87
REMARK SMILES IDX 76 88 78 89 79 90 80 91 81 92 58 93 59 94 67 95 60 96 62 97
REMARK SMILES IDX 68 98 61 99 63 100 64 101 65 102 66 103
REMARK H PARENT 7 19 24 30 29 37 88 56 56 67
REMARK Flexibility Score: inf
ROOT
ATOM      1  C   UNL A   1      31.959  23.849  24.964  1.00  0.00     0.105 C 
ATOM      2  C   UNL A   1      31.270  22.836  24.051  1.00  0.00     0.023 C 
ENDROOT
BRANCH   1   3
ATOM      3  C   UNL A   1      33.425  23.583  25.266  1.00  0.00    -0.033 A 
ATOM      4  C   UNL A   1      36.234  23.351  25.774  1.00  0.00     0.018 A 
ATOM      5  C   UNL A   1      35.289  23.322  26.813  1.00  0.00     0.012 A 
ATOM      6  C   UNL A   1      35.724  23.438  24.471  1.00  0.00     0.131 A 
ATOM      7  C   UNL A   1      33.913  23.392  26.561  1.00  0.00     0.005 A 
ATOM      8  C   UNL A   1      34.356  23.576  24.218  1.00  0.00     0.044 A 
ATOM      9  F   UNL A   1      36.548  23.392  23.412  1.00  0.00    -0.206 F 
BRANCH   4  10
ATOM     10  C   UNL A   1      37.683  23.320  26.072  1.00  0.00    -0.012 A 
ATOM     11  C   UNL A   1      39.806  22.135  26.202  1.00  0.00     0.133 A 
ATOM     12  C   UNL A   1      40.473  23.296  26.579  1.00  0.00     0.047 A 
ATOM     13  C   UNL A   1      38.431  22.135  25.956  1.00  0.00     0.056 A 
ATOM     14  C   UNL A   1      39.756  24.480  26.696  1.00  0.00     0.004 A 
ATOM     15  C   UNL A   1      38.378  24.487  26.453  1.00  0.00     0.009 A 
BRANCH  11  16
ATOM     16  O   UNL A   1      40.550  20.946  26.203  1.00  0.00    -0.410 OA
BRANCH  16  17
ATOM     17  C   UNL A   1      41.231  20.608  27.362  1.00  0.00     0.412 C 
ATOM     18  N   UNL A   1      42.502  20.164  27.117  1.00  0.00    -0.321 N 
ATOM     19  H   UNL A   1      43.035  19.896  27.901  1.00  0.00     0.167 HD
ATOM     20  O   UNL A   1      40.789  20.666  28.501  1.00  0.00    -0.224 OA
BRANCH  18  21
ATOM     21  C   UNL A   1      43.143  20.046  25.824  1.00  0.00     0.119 C 
BRANCH  21  22
ATOM     22  C   UNL A   1      43.612  18.619  25.546  1.00  0.00     0.021 C 
BRANCH  22  23
ATOM     23  C   UNL A   1      45.049  18.508  25.024  1.00  0.00     0.002 C 
BRANCH  23  24
ATOM     24  C   UNL A   1      45.475  19.598  24.033  1.00  0.00    -0.000 C 
BRANCH  24  25
ATOM     25  C   UNL A   1      46.609  20.510  24.507  1.00  0.00    -0.003 C 
ATOM     26  C   UNL A   1      46.213  21.977  24.573  1.00  0.00     0.004 C 
ENDBRANCH  24  25
ENDBRANCH  23  24
ENDBRANCH  22  23
ENDBRANCH  21  22
ENDBRANCH  18  21
ENDBRANCH  16  17
ENDBRANCH  11  16
ENDBRANCH   4  10
ENDBRANCH   1   3
BRANCH   1  27
ATOM     27  C   UNL A   1      31.136  24.237  26.204  1.00  0.00     0.227 C 
ATOM     28  O   UNL A   1      30.743  23.353  26.974  1.00  0.00    -0.274 OA
ATOM     29  N   UNL A   1      30.814  25.518  26.530  1.00  0.00    -0.356 N 
ATOM     30  H   UNL A   1      30.333  25.607  27.385  1.00  0.00     0.163 HD
BRANCH  29  31
ATOM     31  C   UNL A   1      31.050  26.774  25.850  1.00  0.00     0.116 C 
BRANCH  31  32
ATOM     32  C   UNL A   1      32.478  27.284  26.054  1.00  0.00     0.023 C 
BRANCH  32  33
ATOM     33  C   UNL A   1      32.661  28.785  25.844  1.00  0.00     0.023 C 
BRANCH  33  34
ATOM     34  C   UNL A   1      33.816  29.410  26.614  1.00  0.00     0.116 C 
BRANCH  34  35
ATOM     35  N   UNL A   1      33.663  30.839  26.858  1.00  0.00    -0.352 N 
ATOM     36  C   UNL A   1      34.479  31.661  27.605  1.00  0.00     0.251 C 
ATOM     37  H   UNL A   1      32.883  31.270  26.439  1.00  0.00     0.163 HD
ATOM     38  O   UNL A   1      34.183  32.835  27.793  1.00  0.00    -0.269 OA
BRANCH  36  39
ATOM     39  C   UNL A   1      35.698  31.083  28.211  1.00  0.00     0.039 A 
ATOM     40  C   UNL A   1      36.894  31.802  28.148  1.00  0.00     0.014 A 
ATOM     41  C   UNL A   1      35.628  29.882  28.919  1.00  0.00     0.014 A 
ATOM     42  C   UNL A   1      38.003  31.349  28.864  1.00  0.00     0.010 A 
ATOM     43  C   UNL A   1      36.704  29.483  29.701  1.00  0.00     0.010 A 
ATOM     44  C   UNL A   1      37.904  30.210  29.682  1.00  0.00    -0.014 A 
BRANCH  44  45
ATOM     45  C   UNL A   1      39.040  29.760  30.527  1.00  0.00     0.031 A 
ATOM     46  C   UNL A   1      39.260  30.384  31.881  1.00  0.00     0.074 A 
ATOM     47  C   UNL A   1      39.919  28.857  30.046  1.00  0.00     0.049 A 
ATOM     48  N   UNL A   1      40.233  30.188  32.731  1.00  0.00    -0.248 NA
ATOM     49  C   UNL A   1      38.269  31.381  32.325  1.00  0.00     0.031 C 
ATOM     50  C   UNL A   1      39.861  28.236  28.720  1.00  0.00     0.029 A 
ATOM     51  N   UNL A   1      41.051  28.321  30.610  1.00  0.00    -0.354 N 
ATOM     52  C   UNL A   1      39.988  31.049  33.793  1.00  0.00     0.074 A 
ATOM     53  C   UNL A   1      38.803  31.808  33.460  1.00  0.00     0.031 C 
ATOM     54  C   UNL A   1      40.902  27.399  28.577  1.00  0.00     0.029 A 
ATOM     55  C   UNL A   1      41.721  27.447  29.783  1.00  0.00     0.049 A 
ATOM     56  H   UNL A   1      41.355  28.542  31.519  1.00  0.00     0.167 HD
ATOM     57  C   UNL A   1      40.661  31.171  34.962  1.00  0.00     0.034 A 
ATOM     58  C   UNL A   1      42.868  26.766  29.977  1.00  0.00     0.034 A 
ATOM     59  C   UNL A   1      41.813  30.385  35.309  1.00  0.00     0.049 A 
ATOM     60  C   UNL A   1      43.585  26.910  31.295  1.00  0.00     0.074 A 
ATOM     61  C   UNL A   1      42.533  30.393  36.490  1.00  0.00     0.029 A 
ATOM     62  N   UNL A   1      42.409  29.448  34.482  1.00  0.00    -0.354 N 
ATOM     63  N   UNL A   1      43.256  27.627  32.342  1.00  0.00    -0.248 NA
ATOM     64  C   UNL A   1      44.813  26.120  31.472  1.00  0.00     0.031 C 
ATOM     65  C   UNL A   1      43.574  29.468  36.372  1.00  0.00     0.029 A 
ATOM     66  C   UNL A   1      43.486  28.867  35.127  1.00  0.00     0.049 A 
ATOM     67  H   UNL A   1      42.111  29.228  33.570  1.00  0.00     0.167 HD
ATOM     68  C   UNL A   1      44.207  27.339  33.315  1.00  0.00     0.074 A 
ATOM     69  C   UNL A   1      45.112  26.365  32.740  1.00  0.00     0.031 C 
ATOM     70  C   UNL A   1      44.332  27.845  34.565  1.00  0.00     0.034 A 
BRANCH  57  71
ATOM     71  C   UNL A   1      40.125  32.139  35.983  1.00  0.00     0.023 A 
ATOM     72  C   UNL A   1      40.670  33.438  36.052  1.00  0.00     0.012 A 
ATOM     73  C   UNL A   1      39.045  31.798  36.818  1.00  0.00     0.148 A 
ATOM     74  C   UNL A   1      40.169  34.374  36.954  1.00  0.00     0.002 A 
ATOM     75  C   UNL A   1      38.519  32.751  37.684  1.00  0.00     0.091 A 
ATOM     76  F   UNL A   1      38.552  30.554  36.750  1.00  0.00    -0.205 F 
ATOM     77  C   UNL A   1      39.086  34.035  37.761  1.00  0.00     0.022 A 
BRANCH  75  78
ATOM     78  S   UNL A   1      37.078  32.444  38.712  1.00  0.00     0.127 S 
ATOM     79  O   UNL A   1      37.076  30.984  38.786  1.00  0.00    -0.237 OA
ATOM     80  O   UNL A   1      37.443  33.118  39.957  1.00  0.00    -0.237 OA
ATOM     81  O   UNL A   1      35.946  33.030  38.007  1.00  0.00    -0.744 OA
ENDBRANCH  75  78
ENDBRANCH  57  71
BRANCH  58  82
ATOM     82  C   UNL A   1      43.391  25.839  28.931  1.00  0.00     0.023 A 
ATOM     83  C   UNL A   1      43.079  24.467  29.006  1.00  0.00     0.012 A 
ATOM     84  C   UNL A   1      44.211  26.297  27.883  1.00  0.00     0.148 A 
ATOM     85  C   UNL A   1      43.615  23.562  28.089  1.00  0.00     0.002 A 
ATOM     86  C   UNL A   1      44.697  25.397  26.939  1.00  0.00     0.091 A 
ATOM     87  F   UNL A   1      44.511  27.602  27.832  1.00  0.00    -0.205 F 
ATOM     88  C   UNL A   1      44.418  24.026  27.052  1.00  0.00     0.022 A 
BRANCH  86  89
ATOM     89  S   UNL A   1      45.634  25.931  25.503  1.00  0.00     0.127 S 
ATOM     90  O   UNL A   1      47.009  25.707  25.944  1.00  0.00    -0.237 OA
ATOM     91  O   UNL A   1      45.161  25.009  24.469  1.00  0.00    -0.237 OA
ATOM     92  O   UNL A   1      45.251  27.319  25.286  1.00  0.00    -0.744 OA
ENDBRANCH  86  89
ENDBRANCH  58  82
BRANCH  70  93
ATOM     93  C   UNL A   1      45.449  27.318  35.426  1.00  0.00     0.023 A 
ATOM     94  C   UNL A   1      46.696  27.974  35.442  1.00  0.00     0.012 A 
ATOM     95  C   UNL A   1      45.236  26.214  36.276  1.00  0.00     0.148 A 
ATOM     96  C   UNL A   1      47.725  27.519  36.264  1.00  0.00     0.002 A 
ATOM     97  C   UNL A   1      46.249  25.798  37.130  1.00  0.00     0.091 A 
ATOM     98  F   UNL A   1      44.048  25.594  36.232  1.00  0.00    -0.205 F 
ATOM     99  C   UNL A   1      47.498  26.440  37.115  1.00  0.00     0.022 A 
BRANCH  97 100
ATOM    100  S   UNL A   1      46.017  24.482  38.331  1.00  0.00     0.127 S 
ATOM    101  O   UNL A   1      45.779  23.328  37.466  1.00  0.00    -0.237 OA
ATOM    102  O   UNL A   1      47.304  24.470  39.027  1.00  0.00    -0.237 OA
ATOM    103  O   UNL A   1      44.888  24.887  39.157  1.00  0.00    -0.744 OA
ENDBRANCH  97 100
ENDBRANCH  70  93
ENDBRANCH  44  45
ENDBRANCH  36  39
ENDBRANCH  34  35
ENDBRANCH  33  34
ENDBRANCH  32  33
ENDBRANCH  31  32
ENDBRANCH  29  31
ENDBRANCH   1  27
TORSDOF 23
ENDMDL
MODEL 3
REMARK VINA RESULT:     -11.0      4.943     10.446
REMARK SMILES CCCCCCNC(=O)Oc1cccc(-c2ccc([C@@H](C)C(=O)NCCCCNC(=O)c3ccc(-c4c5nc(c(-c6cccc(S(=O)(=O)[O-])c6F)c6ccc([nH]6)c(-c6cccc(S(=O)(=O)[O-])c6F)c6nc(c(-c7cccc(S(=O)(=O)[O-])c7F)c7ccc4[nH]7)C=C6)C=C5)cc3)cc2F)c1
REMARK SMILES IDX 20 1 21 2 19 3 16 4 17 5 96 6 18 7 95 8 97 9 15 10 11 11
REMARK SMILES IDX 12 12 98 13 13 14 14 15 10 16 8 17 7 18 9 20 6 21 5 22 4 23
REMARK SMILES IDX 3 24 2 25 1 26 22 27 23 28 24 29 25 31 26 32 27 33 28 34
REMARK SMILES IDX 29 35 30 36 31 38 32 39 33 40 94 41 34 42 93 43 35 44 36 45
REMARK SMILES IDX 37 46 87 47 38 48 92 49 86 50 88 51 39 52 91 53 85 54 84 55
REMARK SMILES IDX 40 57 72 58 52 59 71 60 53 61 56 62 70 63 89 64 54 65 55 66
REMARK SMILES IDX 69 68 90 69 57 70 41 71 42 72 50 73 43 74 45 75 51 76 44 77
REMARK SMILES IDX 46 78 47 79 48 80 49 81 73 82 74 83 82 84 75 85 77 86 83 87
REMARK SMILES IDX 76 88 78 89 79 90 80 91 81 92 58 93 59 94 67 95 60 96 62 97
REMARK SMILES IDX 68 98 61 99 63 100 64 101 65 102 66 103
REMARK H PARENT 7 19 24 30 29 37 88 56 56 67
REMARK Flexibility Score: inf
ROOT
ATOM      1  C   UNL A   1      41.736  24.835  26.783  1.00  0.00     0.105 C 
ATOM      2  C   UNL A   1      40.501  23.971  26.527  1.00  0.00     0.023 C 
ENDROOT
BRANCH   1   3
ATOM      3  C   UNL A   1      41.500  26.116  27.567  1.00  0.00    -0.033 A 
ATOM      4  C   UNL A   1      40.790  28.452  29.063  1.00  0.00     0.018 A 
ATOM      5  C   UNL A   1      41.562  27.421  29.623  1.00  0.00     0.012 A 
ATOM      6  C   UNL A   1      40.437  28.304  27.713  1.00  0.00     0.131 A 
ATOM      7  C   UNL A   1      41.946  26.299  28.878  1.00  0.00     0.005 A 
ATOM      8  C   UNL A   1      40.761  27.155  26.985  1.00  0.00     0.044 A 
ATOM      9  F   UNL A   1      39.768  29.276  27.073  1.00  0.00    -0.206 F 
BRANCH   4  10
ATOM     10  C   UNL A   1      40.361  29.605  29.886  1.00  0.00    -0.012 A 
ATOM     11  C   UNL A   1      39.406  30.527  31.926  1.00  0.00     0.133 A 
ATOM     12  C   UNL A   1      39.610  31.828  31.478  1.00  0.00     0.047 A 
ATOM     13  C   UNL A   1      39.767  29.426  31.148  1.00  0.00     0.056 A 
ATOM     14  C   UNL A   1      40.199  32.030  30.236  1.00  0.00     0.004 A 
ATOM     15  C   UNL A   1      40.561  30.932  29.449  1.00  0.00     0.009 A 
BRANCH  11  16
ATOM     16  O   UNL A   1      38.711  30.374  33.136  1.00  0.00    -0.410 OA
BRANCH  16  17
ATOM     17  C   UNL A   1      37.491  29.717  33.104  1.00  0.00     0.412 C 
ATOM     18  N   UNL A   1      36.428  30.579  33.118  1.00  0.00    -0.321 N 
ATOM     19  H   UNL A   1      35.530  30.173  33.108  1.00  0.00     0.167 HD
ATOM     20  O   UNL A   1      37.323  28.506  33.079  1.00  0.00    -0.224 OA
BRANCH  18  21
ATOM     21  C   UNL A   1      36.487  32.025  33.147  1.00  0.00     0.119 C 
BRANCH  21  22
ATOM     22  C   UNL A   1      36.123  32.640  31.797  1.00  0.00     0.021 C 
BRANCH  22  23
ATOM     23  C   UNL A   1      35.856  31.624  30.682  1.00  0.00     0.002 C 
BRANCH  23  24
ATOM     24  C   UNL A   1      36.451  31.977  29.313  1.00  0.00    -0.000 C 
BRANCH  24  25
ATOM     25  C   UNL A   1      37.060  30.805  28.539  1.00  0.00    -0.003 C 
ATOM     26  C   UNL A   1      36.735  29.450  29.148  1.00  0.00     0.004 C 
ENDBRANCH  24  25
ENDBRANCH  23  24
ENDBRANCH  22  23
ENDBRANCH  21  22
ENDBRANCH  18  21
ENDBRANCH  16  17
ENDBRANCH  11  16
ENDBRANCH   4  10
ENDBRANCH   1   3
BRANCH   1  27
ATOM     27  C   UNL A   1      42.634  25.024  25.549  1.00  0.00     0.227 C 
ATOM     28  O   UNL A   1      42.278  25.796  24.650  1.00  0.00    -0.274 OA
ATOM     29  N   UNL A   1      43.831  24.400  25.380  1.00  0.00    -0.356 N 
ATOM     30  H   UNL A   1      44.314  24.671  24.565  1.00  0.00     0.163 HD
BRANCH  29  31
ATOM     31  C   UNL A   1      44.524  23.411  26.177  1.00  0.00     0.116 C 
BRANCH  31  32
ATOM     32  C   UNL A   1      46.041  23.608  26.154  1.00  0.00     0.023 C 
BRANCH  32  33
ATOM     33  C   UNL A   1      46.584  24.267  24.889  1.00  0.00     0.023 C 
BRANCH  33  34
ATOM     34  C   UNL A   1      47.630  25.350  25.121  1.00  0.00     0.116 C 
BRANCH  34  35
ATOM     35  N   UNL A   1      47.531  26.478  24.203  1.00  0.00    -0.352 N 
ATOM     36  C   UNL A   1      46.963  27.711  24.439  1.00  0.00     0.251 C 
ATOM     37  H   UNL A   1      47.916  26.343  23.306  1.00  0.00     0.163 HD
ATOM     38  O   UNL A   1      46.876  28.542  23.542  1.00  0.00    -0.269 OA
BRANCH  36  39
ATOM     39  C   UNL A   1      46.420  27.992  25.784  1.00  0.00     0.039 A 
ATOM     40  C   UNL A   1      47.264  28.535  26.756  1.00  0.00     0.014 A 
ATOM     41  C   UNL A   1      45.061  27.807  26.047  1.00  0.00     0.014 A 
ATOM     42  C   UNL A   1      46.722  28.965  27.969  1.00  0.00     0.010 A 
ATOM     43  C   UNL A   1      44.513  28.317  27.216  1.00  0.00     0.010 A 
ATOM     44  C   UNL A   1      45.336  28.900  28.192  1.00  0.00    -0.014 A 
BRANCH  44  45
ATOM     45  C   UNL A   1      44.723  29.436  29.434  1.00  0.00     0.031 A 
ATOM     46  C   UNL A   1      44.317  30.885  29.505  1.00  0.00     0.074 A 
ATOM     47  C   UNL A   1      44.609  28.647  30.522  1.00  0.00     0.049 A 
ATOM     48  N   UNL A   1      43.843  31.561  30.518  1.00  0.00    -0.248 NA
ATOM     49  C   UNL A   1      44.496  31.690  28.282  1.00  0.00     0.031 C 
ATOM     50  C   UNL A   1      45.036  27.248  30.606  1.00  0.00     0.029 A 
ATOM     51  N   UNL A   1      44.121  28.917  31.777  1.00  0.00    -0.354 N 
ATOM     52  C   UNL A   1      43.690  32.866  30.067  1.00  0.00     0.074 A 
ATOM     53  C   UNL A   1      44.170  32.902  28.703  1.00  0.00     0.031 C 
ATOM     54  C   UNL A   1      44.783  26.780  31.840  1.00  0.00     0.029 A 
ATOM     55  C   UNL A   1      44.208  27.852  32.647  1.00  0.00     0.049 A 
ATOM     56  H   UNL A   1      43.745  29.790  32.032  1.00  0.00     0.167 HD
ATOM     57  C   UNL A   1      43.159  33.932  30.711  1.00  0.00     0.034 A 
ATOM     58  C   UNL A   1      43.867  27.755  33.947  1.00  0.00     0.034 A 
ATOM     59  C   UNL A   1      42.642  33.883  32.051  1.00  0.00     0.049 A 
ATOM     60  C   UNL A   1      43.262  28.954  34.631  1.00  0.00     0.074 A 
ATOM     61  C   UNL A   1      42.033  34.893  32.773  1.00  0.00     0.029 A 
ATOM     62  N   UNL A   1      42.667  32.764  32.867  1.00  0.00    -0.354 N 
ATOM     63  N   UNL A   1      42.997  30.141  34.140  1.00  0.00    -0.248 NA
ATOM     64  C   UNL A   1      42.873  28.788  36.040  1.00  0.00     0.031 C 
ATOM     65  C   UNL A   1      41.700  34.388  34.034  1.00  0.00     0.029 A 
ATOM     66  C   UNL A   1      42.080  33.056  34.086  1.00  0.00     0.049 A 
ATOM     67  H   UNL A   1      43.047  31.891  32.618  1.00  0.00     0.167 HD
ATOM     68  C   UNL A   1      42.370  30.844  35.162  1.00  0.00     0.074 A 
ATOM     69  C   UNL A   1      42.274  29.944  36.293  1.00  0.00     0.031 C 
ATOM     70  C   UNL A   1      41.928  32.125  35.173  1.00  0.00     0.034 A 
BRANCH  57  71
ATOM     71  C   UNL A   1      43.040  35.225  29.949  1.00  0.00     0.023 A 
ATOM     72  C   UNL A   1      41.960  35.402  29.059  1.00  0.00     0.012 A 
ATOM     73  C   UNL A   1      43.941  36.285  30.161  1.00  0.00     0.148 A 
ATOM     74  C   UNL A   1      41.792  36.602  28.372  1.00  0.00     0.002 A 
ATOM     75  C   UNL A   1      43.742  37.497  29.506  1.00  0.00     0.091 A 
ATOM     76  F   UNL A   1      44.970  36.092  30.997  1.00  0.00    -0.205 F 
ATOM     77  C   UNL A   1      42.676  37.652  28.604  1.00  0.00     0.022 A 
BRANCH  75  78
ATOM     78  S   UNL A   1      44.774  38.939  29.790  1.00  0.00     0.127 S 
ATOM     79  O   UNL A   1      44.604  39.143  31.228  1.00  0.00    -0.237 OA
ATOM     80  O   UNL A   1      46.096  38.449  29.397  1.00  0.00    -0.237 OA
ATOM     81  O   UNL A   1      44.236  39.995  28.946  1.00  0.00    -0.744 OA
ENDBRANCH  75  78
ENDBRANCH  57  71
BRANCH  58  82
ATOM     82  C   UNL A   1      44.027  26.467  34.683  1.00  0.00     0.023 A 
ATOM     83  C   UNL A   1      42.938  25.576  34.762  1.00  0.00     0.012 A 
ATOM     84  C   UNL A   1      45.233  26.130  35.326  1.00  0.00     0.148 A 
ATOM     85  C   UNL A   1      43.031  24.400  35.508  1.00  0.00     0.002 A 
ATOM     86  C   UNL A   1      45.337  24.930  36.021  1.00  0.00     0.091 A 
ATOM     87  F   UNL A   1      46.256  26.994  35.255  1.00  0.00    -0.205 F 
ATOM     88  C   UNL A   1      44.230  24.073  36.132  1.00  0.00     0.022 A 
BRANCH  86  89
ATOM     89  S   UNL A   1      46.883  24.376  36.748  1.00  0.00     0.127 S 
ATOM     90  O   UNL A   1      47.792  24.448  35.608  1.00  0.00    -0.237 OA
ATOM     91  O   UNL A   1      47.113  25.385  37.784  1.00  0.00    -0.237 OA
ATOM     92  O   UNL A   1      46.610  23.042  37.265  1.00  0.00    -0.744 OA
ENDBRANCH  86  89
ENDBRANCH  58  82
BRANCH  70  93
ATOM     93  C   UNL A   1      41.245  32.619  36.421  1.00  0.00     0.023 A 
ATOM     94  C   UNL A   1      41.936  33.460  37.315  1.00  0.00     0.012 A 
ATOM     95  C   UNL A   1      39.893  32.309  36.665  1.00  0.00     0.148 A 
ATOM     96  C   UNL A   1      41.302  33.956  38.453  1.00  0.00     0.002 A 
ATOM     97  C   UNL A   1      39.253  32.849  37.774  1.00  0.00     0.091 A 
ATOM     98  F   UNL A   1      39.259  31.493  35.810  1.00  0.00    -0.205 F 
ATOM     99  C   UNL A   1      39.959  33.661  38.676  1.00  0.00     0.022 A 
BRANCH  97 100
ATOM    100  S   UNL A   1      37.501  32.605  38.088  1.00  0.00     0.127 S 
ATOM    101  O   UNL A   1      36.896  33.267  36.935  1.00  0.00    -0.237 OA
ATOM    102  O   UNL A   1      37.388  31.146  38.085  1.00  0.00    -0.237 OA
ATOM    103  O   UNL A   1      37.234  33.228  39.378  1.00  0.00    -0.744 OA
ENDBRANCH  97 100
ENDBRANCH  70  93
ENDBRANCH  44  45
ENDBRANCH  36  39
ENDBRANCH  34  35
ENDBRANCH  33  34
ENDBRANCH  32  33
ENDBRANCH  31  32
ENDBRANCH  29  31
ENDBRANCH   1  27
TORSDOF 23
ENDMDL
