MODEL 1
REMARK VINA RESULT:     -13.1      0.000      0.000
REMARK SMILES C[C@@H]1Cc2ccccc2N1c1ccc(F)cc1C(=O)NCCCCNC(=O)c1ccc(-c2c3nc(c(-c4cccc(S(=O)(=O)[O-])c4F)c4ccc([nH]4)c(-c4cccc(S(=O)(=O)[O-])c4F)c4nc(c(-c5cccc(S(=O)(=O)[O-])c5F)c5ccc2[nH]5)C=C4)C=C3)cc1
REMARK SMILES IDX 23 1 22 2 21 3 20 4 18 5 19 6 17 8 11 9 12 10 13 11 16 12
REMARK SMILES IDX 14 13 15 14 10 15 1 16 2 17 3 18 4 19 9 20 5 21 8 22 6 23
REMARK SMILES IDX 7 24 24 25 25 26 26 27 27 29 28 30 29 31 90 32 30 33 89 34
REMARK SMILES IDX 31 35 32 36 33 37 83 38 34 39 88 40 82 41 84 42 35 43 87 44
REMARK SMILES IDX 81 45 80 46 36 48 68 49 48 50 67 51 49 52 52 53 66 54 85 55
REMARK SMILES IDX 50 56 51 57 65 59 86 60 53 61 37 62 38 63 46 64 39 65 41 66
REMARK SMILES IDX 47 67 40 68 42 69 43 70 44 71 45 72 69 73 70 74 78 75 71 76
REMARK SMILES IDX 73 77 79 78 72 79 74 80 75 81 76 82 77 83 54 84 55 85 63 86
REMARK SMILES IDX 56 87 58 88 64 89 57 90 59 91 60 92 61 93 62 94
REMARK H PARENT 20 7 25 28 84 47 52 58
REMARK Flexibility Score: inf
ROOT
ATOM      1  C   UNL A   1      31.632  29.631  26.717  1.00  0.00     0.023 C 
ENDROOT
BRANCH   1   2
ATOM      2  C   UNL A   1      32.475  28.517  27.333  1.00  0.00     0.023 C 
BRANCH   2   3
ATOM      3  C   UNL A   1      32.240  27.115  26.794  1.00  0.00     0.116 C 
BRANCH   3   4
ATOM      4  N   UNL A   1      30.926  26.559  26.971  1.00  0.00    -0.352 N 
ATOM      5  C   UNL A   1      30.309  25.564  26.249  1.00  0.00     0.253 C 
ATOM      6  O   UNL A   1      29.199  25.193  26.642  1.00  0.00    -0.269 OA
ATOM      7  H   UNL A   1      30.397  26.941  27.708  1.00  0.00     0.163 HD
BRANCH   5   8
ATOM      8  C   UNL A   1      30.834  24.949  24.986  1.00  0.00     0.066 A 
ATOM      9  C   UNL A   1      31.207  25.599  23.783  1.00  0.00     0.054 A 
ATOM     10  C   UNL A   1      31.810  24.828  22.760  1.00  0.00     0.030 A 
ATOM     11  C   UNL A   1      32.026  23.459  22.898  1.00  0.00     0.041 A 
ATOM     12  C   UNL A   1      31.066  23.560  25.105  1.00  0.00     0.055 A 
ATOM     13  C   UNL A   1      31.644  22.836  24.071  1.00  0.00     0.124 A 
ATOM     14  F   UNL A   1      31.841  21.519  24.211  1.00  0.00    -0.207 F 
BRANCH   9  15
ATOM     15  N   UNL A   1      30.970  26.944  23.508  1.00  0.00    -0.337 N 
ATOM     16  C   UNL A   1      33.292  27.930  23.446  1.00  0.00     0.032 C 
ATOM     17  C   UNL A   1      31.932  27.799  22.763  1.00  0.00     0.089 C 
ATOM     18  C   UNL A   1      31.244  29.191  22.600  1.00  0.00     0.063 C 
ATOM     19  C   UNL A   1      29.807  28.852  22.821  1.00  0.00    -0.022 A 
ATOM     20  C   UNL A   1      29.699  27.535  23.262  1.00  0.00     0.045 A 
ATOM     21  C   UNL A   1      28.697  29.679  22.751  1.00  0.00     0.006 A 
ATOM     22  C   UNL A   1      28.456  26.988  23.559  1.00  0.00     0.026 A 
ATOM     23  C   UNL A   1      27.450  29.144  23.087  1.00  0.00     0.000 A 
ATOM     24  C   UNL A   1      27.326  27.802  23.471  1.00  0.00     0.002 A 
ENDBRANCH   9  15
ENDBRANCH   5   8
ENDBRANCH   3   4
ENDBRANCH   2   3
ENDBRANCH   1   2
BRANCH   1  25
ATOM     25  C   UNL A   1      32.367  30.848  26.160  1.00  0.00     0.116 C 
BRANCH  25  26
ATOM     26  N   UNL A   1      32.281  32.056  26.970  1.00  0.00    -0.352 N 
ATOM     27  C   UNL A   1      33.263  32.746  27.665  1.00  0.00     0.251 C 
ATOM     28  H   UNL A   1      31.379  32.446  27.035  1.00  0.00     0.163 HD
ATOM     29  O   UNL A   1      32.995  33.787  28.231  1.00  0.00    -0.269 OA
BRANCH  27  30
ATOM     30  C   UNL A   1      34.620  32.150  27.787  1.00  0.00     0.039 A 
ATOM     31  C   UNL A   1      34.804  30.772  27.851  1.00  0.00     0.014 A 
ATOM     32  C   UNL A   1      35.707  33.010  27.972  1.00  0.00     0.014 A 
ATOM     33  C   UNL A   1      35.989  30.268  28.381  1.00  0.00     0.010 A 
ATOM     34  C   UNL A   1      36.931  32.492  28.407  1.00  0.00     0.010 A 
ATOM     35  C   UNL A   1      37.046  31.129  28.721  1.00  0.00    -0.014 A 
BRANCH  35  36
ATOM     36  C   UNL A   1      38.205  30.607  29.498  1.00  0.00     0.031 A 
ATOM     37  C   UNL A   1      38.387  30.983  30.951  1.00  0.00     0.074 A 
ATOM     38  C   UNL A   1      39.064  29.740  28.929  1.00  0.00     0.049 A 
ATOM     39  N   UNL A   1      39.318  30.602  31.790  1.00  0.00    -0.248 NA
ATOM     40  C   UNL A   1      37.405  31.910  31.542  1.00  0.00     0.031 C 
ATOM     41  C   UNL A   1      39.014  29.300  27.535  1.00  0.00     0.029 A 
ATOM     42  N   UNL A   1      40.135  29.063  29.456  1.00  0.00    -0.354 N 
ATOM     43  C   UNL A   1      39.072  31.284  32.976  1.00  0.00     0.074 A 
ATOM     44  C   UNL A   1      37.901  32.101  32.758  1.00  0.00     0.031 C 
ATOM     45  C   UNL A   1      39.981  28.396  27.326  1.00  0.00     0.029 A 
ATOM     46  C   UNL A   1      40.751  28.226  28.556  1.00  0.00     0.049 A 
ATOM     47  H   UNL A   1      40.434  29.168  30.388  1.00  0.00     0.167 HD
ATOM     48  C   UNL A   1      39.742  31.220  34.150  1.00  0.00     0.034 A 
ATOM     49  C   UNL A   1      41.816  27.412  28.697  1.00  0.00     0.034 A 
ATOM     50  C   UNL A   1      40.847  30.339  34.409  1.00  0.00     0.049 A 
ATOM     51  C   UNL A   1      42.515  27.322  30.022  1.00  0.00     0.074 A 
ATOM     52  C   UNL A   1      41.529  30.148  35.599  1.00  0.00     0.029 A 
ATOM     53  N   UNL A   1      41.424  29.497  33.476  1.00  0.00    -0.354 N 
ATOM     54  N   UNL A   1      42.209  27.912  31.151  1.00  0.00    -0.248 NA
ATOM     55  C   UNL A   1      43.695  26.448  30.098  1.00  0.00     0.031 C 
ATOM     56  C   UNL A   1      42.521  29.187  35.383  1.00  0.00     0.029 A 
ATOM     57  C   UNL A   1      42.458  28.786  34.059  1.00  0.00     0.049 A 
ATOM     58  H   UNL A   1      41.141  29.415  32.536  1.00  0.00     0.167 HD
ATOM     59  C   UNL A   1      43.156  27.482  32.072  1.00  0.00     0.074 A 
ATOM     60  C   UNL A   1      44.031  26.561  31.377  1.00  0.00     0.031 C 
ATOM     61  C   UNL A   1      43.298  27.841  33.371  1.00  0.00     0.034 A 
BRANCH  48  62
ATOM     62  C   UNL A   1      39.269  32.087  35.284  1.00  0.00     0.023 A 
ATOM     63  C   UNL A   1      38.358  31.563  36.221  1.00  0.00     0.012 A 
ATOM     64  C   UNL A   1      39.801  33.378  35.478  1.00  0.00     0.148 A 
ATOM     65  C   UNL A   1      37.976  32.313  37.333  1.00  0.00     0.002 A 
ATOM     66  C   UNL A   1      39.436  34.110  36.601  1.00  0.00     0.091 A 
ATOM     67  F   UNL A   1      40.652  33.861  34.561  1.00  0.00    -0.205 F 
ATOM     68  C   UNL A   1      38.522  33.579  37.528  1.00  0.00     0.022 A 
BRANCH  66  69
ATOM     69  S   UNL A   1      40.121  35.728  36.972  1.00  0.00     0.127 S 
ATOM     70  O   UNL A   1      39.672  36.508  35.820  1.00  0.00    -0.237 OA
ATOM     71  O   UNL A   1      39.458  36.063  38.232  1.00  0.00    -0.237 OA
ATOM     72  O   UNL A   1      41.562  35.541  37.074  1.00  0.00    -0.744 OA
ENDBRANCH  66  69
ENDBRANCH  48  62
BRANCH  49  73
ATOM     73  C   UNL A   1      42.236  26.581  27.537  1.00  0.00     0.023 A 
ATOM     74  C   UNL A   1      43.138  27.115  26.599  1.00  0.00     0.012 A 
ATOM     75  C   UNL A   1      41.841  25.233  27.432  1.00  0.00     0.148 A 
ATOM     76  C   UNL A   1      43.648  26.316  25.576  1.00  0.00     0.002 A 
ATOM     77  C   UNL A   1      42.389  24.431  26.439  1.00  0.00     0.091 A 
ATOM     78  F   UNL A   1      40.976  24.755  28.337  1.00  0.00    -0.205 F 
ATOM     79  C   UNL A   1      43.286  24.973  25.504  1.00  0.00     0.022 A 
BRANCH  77  80
ATOM     80  S   UNL A   1      42.090  22.662  26.349  1.00  0.00     0.127 S 
ATOM     81  O   UNL A   1      42.620  22.204  27.631  1.00  0.00    -0.237 OA
ATOM     82  O   UNL A   1      40.632  22.614  26.231  1.00  0.00    -0.237 OA
ATOM     83  O   UNL A   1      42.809  22.197  25.172  1.00  0.00    -0.744 OA
ENDBRANCH  77  80
ENDBRANCH  49  73
BRANCH  61  84
ATOM     84  C   UNL A   1      44.448  27.260  34.143  1.00  0.00     0.023 A 
ATOM     85  C   UNL A   1      45.679  27.943  34.147  1.00  0.00     0.012 A 
ATOM     86  C   UNL A   1      44.279  26.123  34.956  1.00  0.00     0.148 A 
ATOM     87  C   UNL A   1      46.731  27.500  34.947  1.00  0.00     0.002 A 
ATOM     88  C   UNL A   1      45.322  25.702  35.772  1.00  0.00     0.091 A 
ATOM     89  F   UNL A   1      43.100  25.486  34.924  1.00  0.00    -0.205 F 
ATOM     90  C   UNL A   1      46.549  26.387  35.767  1.00  0.00     0.022 A 
BRANCH  88  91
ATOM     91  S   UNL A   1      45.163  24.324  36.915  1.00  0.00     0.127 S 
ATOM     92  O   UNL A   1      44.118  24.807  37.817  1.00  0.00    -0.237 OA
ATOM     93  O   UNL A   1      44.752  23.234  36.031  1.00  0.00    -0.237 OA
ATOM     94  O   UNL A   1      46.476  24.151  37.521  1.00  0.00    -0.744 OA
ENDBRANCH  88  91
ENDBRANCH  61  84
ENDBRANCH  35  36
ENDBRANCH  27  30
ENDBRANCH  25  26
ENDBRANCH   1  25
TORSDOF 15
ENDMDL
MODEL 2
REMARK VINA RESULT:     -13.1      1.479      3.035
REMARK SMILES C[C@@H]1Cc2ccccc2N1c1ccc(F)cc1C(=O)NCCCCNC(=O)c1ccc(-c2c3nc(c(-c4cccc(S(=O)(=O)[O-])c4F)c4ccc([nH]4)c(-c4cccc(S(=O)(=O)[O-])c4F)c4nc(c(-c5cccc(S(=O)(=O)[O-])c5F)c5ccc2[nH]5)C=C4)C=C3)cc1
REMARK SMILES IDX 23 1 22 2 21 3 20 4 18 5 19 6 17 8 11 9 12 10 13 11 16 12
REMARK SMILES IDX 14 13 15 14 10 15 1 16 2 17 3 18 4 19 9 20 5 21 8 22 6 23
REMARK SMILES IDX 7 24 24 25 25 26 26 27 27 29 28 30 29 31 90 32 30 33 89 34
REMARK SMILES IDX 31 35 32 36 33 37 83 38 34 39 88 40 82 41 84 42 35 43 87 44
REMARK SMILES IDX 81 45 80 46 36 48 68 49 48 50 67 51 49 52 52 53 66 54 85 55
REMARK SMILES IDX 50 56 51 57 65 59 86 60 53 61 37 62 38 63 46 64 39 65 41 66
REMARK SMILES IDX 47 67 40 68 42 69 43 70 44 71 45 72 69 73 70 74 78 75 71 76
REMARK SMILES IDX 73 77 79 78 72 79 74 80 75 81 76 82 77 83 54 84 55 85 63 86
REMARK SMILES IDX 56 87 58 88 64 89 57 90 59 91 60 92 61 93 62 94
REMARK H PARENT 20 7 25 28 84 47 52 58
REMARK Flexibility Score: inf
ROOT
ATOM      1  C   UNL A   1      31.834  29.058  27.178  1.00  0.00     0.023 C 
ENDROOT
BRANCH   1   2
ATOM      2  C   UNL A   1      31.378  27.816  26.416  1.00  0.00     0.023 C 
BRANCH   2   3
ATOM      3  C   UNL A   1      32.091  26.516  26.753  1.00  0.00     0.116 C 
BRANCH   3   4
ATOM      4  N   UNL A   1      31.337  25.301  26.606  1.00  0.00    -0.352 N 
ATOM      5  C   UNL A   1      31.271  24.456  25.522  1.00  0.00     0.253 C 
ATOM      6  O   UNL A   1      30.615  23.419  25.659  1.00  0.00    -0.269 OA
ATOM      7  H   UNL A   1      30.795  25.038  27.385  1.00  0.00     0.163 HD
BRANCH   5   8
ATOM      8  C   UNL A   1      31.862  24.724  24.170  1.00  0.00     0.066 A 
ATOM      9  C   UNL A   1      32.855  23.983  23.482  1.00  0.00     0.054 A 
ATOM     10  C   UNL A   1      33.163  24.346  22.149  1.00  0.00     0.030 A 
ATOM     11  C   UNL A   1      32.536  25.413  21.511  1.00  0.00     0.041 A 
ATOM     12  C   UNL A   1      31.236  25.801  23.501  1.00  0.00     0.055 A 
ATOM     13  C   UNL A   1      31.581  26.137  22.199  1.00  0.00     0.124 A 
ATOM     14  F   UNL A   1      30.977  27.169  21.597  1.00  0.00    -0.207 F 
BRANCH   9  15
ATOM     15  N   UNL A   1      33.597  22.948  24.047  1.00  0.00    -0.337 N 
ATOM     16  C   UNL A   1      35.550  24.155  25.095  1.00  0.00     0.032 C 
ATOM     17  C   UNL A   1      34.435  23.123  25.262  1.00  0.00     0.089 C 
ATOM     18  C   UNL A   1      35.015  21.715  25.601  1.00  0.00     0.063 C 
ATOM     19  C   UNL A   1      34.082  20.812  24.864  1.00  0.00    -0.022 A 
ATOM     20  C   UNL A   1      33.241  21.570  24.052  1.00  0.00     0.045 A 
ATOM     21  C   UNL A   1      34.058  19.427  24.828  1.00  0.00     0.006 A 
ATOM     22  C   UNL A   1      32.291  20.954  23.246  1.00  0.00     0.026 A 
ATOM     23  C   UNL A   1      33.131  18.803  23.988  1.00  0.00     0.000 A 
ATOM     24  C   UNL A   1      32.240  19.560  23.216  1.00  0.00     0.002 A 
ENDBRANCH   9  15
ENDBRANCH   5   8
ENDBRANCH   3   4
ENDBRANCH   2   3
ENDBRANCH   1   2
BRANCH   1  25
ATOM     25  C   UNL A   1      32.392  30.222  26.362  1.00  0.00     0.116 C 
BRANCH  25  26
ATOM     26  N   UNL A   1      32.295  31.532  26.992  1.00  0.00    -0.352 N 
ATOM     27  C   UNL A   1      33.278  32.348  27.530  1.00  0.00     0.251 C 
ATOM     28  H   UNL A   1      31.382  31.898  27.044  1.00  0.00     0.163 HD
ATOM     29  O   UNL A   1      32.995  33.451  27.953  1.00  0.00    -0.269 OA
BRANCH  27  30
ATOM     30  C   UNL A   1      34.662  31.821  27.670  1.00  0.00     0.039 A 
ATOM     31  C   UNL A   1      34.918  30.453  27.689  1.00  0.00     0.014 A 
ATOM     32  C   UNL A   1      35.695  32.729  27.919  1.00  0.00     0.014 A 
ATOM     33  C   UNL A   1      36.114  29.993  28.235  1.00  0.00     0.010 A 
ATOM     34  C   UNL A   1      36.933  32.261  28.370  1.00  0.00     0.010 A 
ATOM     35  C   UNL A   1      37.113  30.896  28.637  1.00  0.00    -0.014 A 
BRANCH  35  36
ATOM     36  C   UNL A   1      38.277  30.407  29.428  1.00  0.00     0.031 A 
ATOM     37  C   UNL A   1      38.433  30.791  30.883  1.00  0.00     0.074 A 
ATOM     38  C   UNL A   1      39.165  29.562  28.871  1.00  0.00     0.049 A 
ATOM     39  N   UNL A   1      39.364  30.437  31.733  1.00  0.00    -0.248 NA
ATOM     40  C   UNL A   1      37.419  31.692  31.461  1.00  0.00     0.031 C 
ATOM     41  C   UNL A   1      39.142  29.118  27.478  1.00  0.00     0.029 A 
ATOM     42  N   UNL A   1      40.248  28.916  29.412  1.00  0.00    -0.354 N 
ATOM     43  C   UNL A   1      39.086  31.115  32.915  1.00  0.00     0.074 A 
ATOM     44  C   UNL A   1      37.896  31.899  32.682  1.00  0.00     0.031 C 
ATOM     45  C   UNL A   1      40.136  28.240  27.283  1.00  0.00     0.029 A 
ATOM     46  C   UNL A   1      40.897  28.093  28.521  1.00  0.00     0.049 A 
ATOM     47  H   UNL A   1      40.534  29.031  30.347  1.00  0.00     0.167 HD
ATOM     48  C   UNL A   1      39.745  31.072  34.096  1.00  0.00     0.034 A 
ATOM     49  C   UNL A   1      41.982  27.309  28.676  1.00  0.00     0.034 A 
ATOM     50  C   UNL A   1      40.870  30.221  34.370  1.00  0.00     0.049 A 
ATOM     51  C   UNL A   1      42.668  27.241  30.009  1.00  0.00     0.074 A 
ATOM     52  C   UNL A   1      41.543  30.051  35.567  1.00  0.00     0.029 A 
ATOM     53  N   UNL A   1      41.480  29.393  33.445  1.00  0.00    -0.354 N 
ATOM     54  N   UNL A   1      42.334  27.825  31.132  1.00  0.00    -0.248 NA
ATOM     55  C   UNL A   1      43.870  26.399  30.100  1.00  0.00     0.031 C 
ATOM     56  C   UNL A   1      42.564  29.117  35.365  1.00  0.00     0.029 A 
ATOM     57  C   UNL A   1      42.527  28.712  34.041  1.00  0.00     0.049 A 
ATOM     58  H   UNL A   1      41.210  29.302  32.502  1.00  0.00     0.167 HD
ATOM     59  C   UNL A   1      43.281  27.423  32.066  1.00  0.00     0.074 A 
ATOM     60  C   UNL A   1      44.189  26.524  31.383  1.00  0.00     0.031 C 
ATOM     61  C   UNL A   1      43.400  27.788  33.365  1.00  0.00     0.034 A 
BRANCH  48  62
ATOM     62  C   UNL A   1      39.236  31.928  35.223  1.00  0.00     0.023 A 
ATOM     63  C   UNL A   1      38.320  31.384  36.145  1.00  0.00     0.012 A 
ATOM     64  C   UNL A   1      39.738  33.229  35.425  1.00  0.00     0.148 A 
ATOM     65  C   UNL A   1      37.906  32.126  37.250  1.00  0.00     0.002 A 
ATOM     66  C   UNL A   1      39.340  33.953  36.543  1.00  0.00     0.091 A 
ATOM     67  F   UNL A   1      40.593  33.730  34.523  1.00  0.00    -0.205 F 
ATOM     68  C   UNL A   1      38.422  33.403  37.454  1.00  0.00     0.022 A 
BRANCH  66  69
ATOM     69  S   UNL A   1      39.986  35.584  36.925  1.00  0.00     0.127 S 
ATOM     70  O   UNL A   1      39.298  35.886  38.180  1.00  0.00    -0.237 OA
ATOM     71  O   UNL A   1      41.419  35.324  37.062  1.00  0.00    -0.237 OA
ATOM     72  O   UNL A   1      39.627  36.434  35.798  1.00  0.00    -0.744 OA
ENDBRANCH  66  69
ENDBRANCH  48  62
BRANCH  49  73
ATOM     73  C   UNL A   1      42.437  26.487  27.523  1.00  0.00     0.023 A 
ATOM     74  C   UNL A   1      43.378  27.024  26.625  1.00  0.00     0.012 A 
ATOM     75  C   UNL A   1      42.034  25.144  27.387  1.00  0.00     0.148 A 
ATOM     76  C   UNL A   1      43.918  26.231  25.612  1.00  0.00     0.002 A 
ATOM     77  C   UNL A   1      42.612  24.348  26.407  1.00  0.00     0.091 A 
ATOM     78  F   UNL A   1      41.132  24.664  28.254  1.00  0.00    -0.205 F 
ATOM     79  C   UNL A   1      43.547  24.893  25.512  1.00  0.00     0.022 A 
BRANCH  77  80
ATOM     80  S   UNL A   1      42.301  22.583  26.285  1.00  0.00     0.127 S 
ATOM     81  O   UNL A   1      42.899  22.089  27.523  1.00  0.00    -0.237 OA
ATOM     82  O   UNL A   1      40.838  22.542  26.247  1.00  0.00    -0.237 OA
ATOM     83  O   UNL A   1      42.951  22.149  25.057  1.00  0.00    -0.744 OA
ENDBRANCH  77  80
ENDBRANCH  49  73
BRANCH  61  84
ATOM     84  C   UNL A   1      44.556  27.240  34.152  1.00  0.00     0.023 A 
ATOM     85  C   UNL A   1      45.759  27.970  34.190  1.00  0.00     0.012 A 
ATOM     86  C   UNL A   1      44.416  26.085  34.944  1.00  0.00     0.148 A 
ATOM     87  C   UNL A   1      46.812  27.556  35.004  1.00  0.00     0.002 A 
ATOM     88  C   UNL A   1      45.458  25.692  35.774  1.00  0.00     0.091 A 
ATOM     89  F   UNL A   1      43.263  25.404  34.879  1.00  0.00    -0.205 F 
ATOM     90  C   UNL A   1      46.658  26.424  35.804  1.00  0.00     0.022 A 
BRANCH  88  91
ATOM     91  S   UNL A   1      45.330  24.292  36.893  1.00  0.00     0.127 S 
ATOM     92  O   UNL A   1      44.285  24.741  37.812  1.00  0.00    -0.237 OA
ATOM     93  O   UNL A   1      44.930  23.211  35.994  1.00  0.00    -0.237 OA
ATOM     94  O   UNL A   1      46.652  24.129  37.486  1.00  0.00    -0.744 OA
ENDBRANCH  88  91
ENDBRANCH  61  84
ENDBRANCH  35  36
ENDBRANCH  27  30
ENDBRANCH  25  26
ENDBRANCH   1  25
TORSDOF 15
ENDMDL
MODEL 3
REMARK VINA RESULT:     -12.8      4.799      9.761
REMARK SMILES C[C@@H]1Cc2ccccc2N1c1ccc(F)cc1C(=O)NCCCCNC(=O)c1ccc(-c2c3nc(c(-c4cccc(S(=O)(=O)[O-])c4F)c4ccc([nH]4)c(-c4cccc(S(=O)(=O)[O-])c4F)c4nc(c(-c5cccc(S(=O)(=O)[O-])c5F)c5ccc2[nH]5)C=C4)C=C3)cc1
REMARK SMILES IDX 23 1 22 2 21 3 20 4 18 5 19 6 17 8 11 9 12 10 13 11 16 12
REMARK SMILES IDX 14 13 15 14 10 15 1 16 2 17 3 18 4 19 9 20 5 21 8 22 6 23
REMARK SMILES IDX 7 24 24 25 25 26 26 27 27 29 28 30 29 31 90 32 30 33 89 34
REMARK SMILES IDX 31 35 32 36 33 37 83 38 34 39 88 40 82 41 84 42 35 43 87 44
REMARK SMILES IDX 81 45 80 46 36 48 68 49 48 50 67 51 49 52 52 53 66 54 85 55
REMARK SMILES IDX 50 56 51 57 65 59 86 60 53 61 37 62 38 63 46 64 39 65 41 66
REMARK SMILES IDX 47 67 40 68 42 69 43 70 44 71 45 72 69 73 70 74 78 75 71 76
REMARK SMILES IDX 73 77 79 78 72 79 74 80 75 81 76 82 77 83 54 84 55 85 63 86
REMARK SMILES IDX 56 87 58 88 64 89 57 90 59 91 60 92 61 93 62 94
REMARK H PARENT 20 7 25 28 84 47 52 58
REMARK Flexibility Score: inf
ROOT
ATOM      1  C   UNL A   1      36.589  22.329  23.855  1.00  0.00     0.023 C 
ENDROOT
BRANCH   1   2
ATOM      2  C   UNL A   1      35.134  22.740  23.637  1.00  0.00     0.023 C 
BRANCH   2   3
ATOM      3  C   UNL A   1      34.851  24.234  23.613  1.00  0.00     0.116 C 
BRANCH   3   4
ATOM      4  N   UNL A   1      33.838  24.691  22.700  1.00  0.00    -0.352 N 
ATOM      5  C   UNL A   1      32.513  24.964  22.951  1.00  0.00     0.253 C 
ATOM      6  O   UNL A   1      31.850  25.428  22.019  1.00  0.00    -0.269 OA
ATOM      7  H   UNL A   1      34.132  24.829  21.770  1.00  0.00     0.163 HD
BRANCH   5   8
ATOM      8  C   UNL A   1      31.791  24.672  24.233  1.00  0.00     0.066 A 
ATOM      9  C   UNL A   1      31.109  25.577  25.083  1.00  0.00     0.054 A 
ATOM     10  C   UNL A   1      30.378  25.055  26.176  1.00  0.00     0.030 A 
ATOM     11  C   UNL A   1      30.329  23.689  26.445  1.00  0.00     0.041 A 
ATOM     12  C   UNL A   1      31.725  23.290  24.523  1.00  0.00     0.055 A 
ATOM     13  C   UNL A   1      31.012  22.819  25.617  1.00  0.00     0.124 A 
ATOM     14  F   UNL A   1      30.976  21.504  25.871  1.00  0.00    -0.207 F 
BRANCH   9  15
ATOM     15  N   UNL A   1      31.152  26.964  24.952  1.00  0.00    -0.337 N 
ATOM     16  C   UNL A   1      33.103  27.613  26.416  1.00  0.00     0.032 C 
ATOM     17  C   UNL A   1      32.411  27.748  25.061  1.00  0.00     0.089 C 
ATOM     18  C   UNL A   1      32.028  29.232  24.767  1.00  0.00     0.063 C 
ATOM     19  C   UNL A   1      30.726  29.080  24.053  1.00  0.00    -0.022 A 
ATOM     20  C   UNL A   1      30.309  27.752  24.119  1.00  0.00     0.045 A 
ATOM     21  C   UNL A   1      29.921  30.058  23.492  1.00  0.00     0.006 A 
ATOM     22  C   UNL A   1      29.107  27.358  23.543  1.00  0.00     0.026 A 
ATOM     23  C   UNL A   1      28.693  29.673  22.947  1.00  0.00     0.000 A 
ATOM     24  C   UNL A   1      28.295  28.328  22.954  1.00  0.00     0.002 A 
ENDBRANCH   9  15
ENDBRANCH   5   8
ENDBRANCH   3   4
ENDBRANCH   2   3
ENDBRANCH   1   2
BRANCH   1  25
ATOM     25  C   UNL A   1      36.949  21.692  25.194  1.00  0.00     0.116 C 
BRANCH  25  26
ATOM     26  N   UNL A   1      38.157  20.876  25.195  1.00  0.00    -0.352 N 
ATOM     27  C   UNL A   1      39.333  21.011  25.917  1.00  0.00     0.251 C 
ATOM     28  H   UNL A   1      38.134  20.104  24.585  1.00  0.00     0.163 HD
ATOM     29  O   UNL A   1      40.208  20.173  25.823  1.00  0.00    -0.269 OA
BRANCH  27  30
ATOM     30  C   UNL A   1      39.549  22.237  26.730  1.00  0.00     0.039 A 
ATOM     31  C   UNL A   1      38.853  23.413  26.468  1.00  0.00     0.014 A 
ATOM     32  C   UNL A   1      40.570  22.227  27.685  1.00  0.00     0.014 A 
ATOM     33  C   UNL A   1      39.361  24.622  26.936  1.00  0.00     0.010 A 
ATOM     34  C   UNL A   1      41.014  23.433  28.236  1.00  0.00     0.010 A 
ATOM     35  C   UNL A   1      40.485  24.650  27.779  1.00  0.00    -0.014 A 
BRANCH  35  36
ATOM     36  C   UNL A   1      41.153  25.948  28.078  1.00  0.00     0.031 A 
ATOM     37  C   UNL A   1      42.532  26.245  27.533  1.00  0.00     0.074 A 
ATOM     38  C   UNL A   1      40.505  26.895  28.783  1.00  0.00     0.049 A 
ATOM     39  N   UNL A   1      43.254  27.330  27.666  1.00  0.00    -0.248 NA
ATOM     40  C   UNL A   1      43.191  25.192  26.740  1.00  0.00     0.031 C 
ATOM     41  C   UNL A   1      39.178  26.738  29.377  1.00  0.00     0.029 A 
ATOM     42  N   UNL A   1      40.867  28.179  29.104  1.00  0.00    -0.354 N 
ATOM     43  C   UNL A   1      44.464  27.068  27.034  1.00  0.00     0.074 A 
ATOM     44  C   UNL A   1      44.385  25.724  26.509  1.00  0.00     0.031 C 
ATOM     45  C   UNL A   1      38.818  27.894  29.953  1.00  0.00     0.029 A 
ATOM     46  C   UNL A   1      39.906  28.859  29.813  1.00  0.00     0.049 A 
ATOM     47  H   UNL A   1      41.733  28.574  28.851  1.00  0.00     0.167 HD
ATOM     48  C   UNL A   1      45.538  27.877  26.881  1.00  0.00     0.034 A 
ATOM     49  C   UNL A   1      39.895  30.115  30.300  1.00  0.00     0.034 A 
ATOM     50  C   UNL A   1      45.592  29.247  27.312  1.00  0.00     0.049 A 
ATOM     51  C   UNL A   1      41.078  31.011  30.077  1.00  0.00     0.074 A 
ATOM     52  C   UNL A   1      46.609  30.166  27.120  1.00  0.00     0.029 A 
ATOM     53  N   UNL A   1      44.590  29.898  28.009  1.00  0.00    -0.354 N 
ATOM     54  N   UNL A   1      42.174  30.768  29.402  1.00  0.00    -0.248 NA
ATOM     55  C   UNL A   1      41.020  32.356  30.670  1.00  0.00     0.031 C 
ATOM     56  C   UNL A   1      46.221  31.376  27.702  1.00  0.00     0.029 A 
ATOM     57  C   UNL A   1      44.964  31.207  28.260  1.00  0.00     0.049 A 
ATOM     58  H   UNL A   1      43.737  29.491  28.286  1.00  0.00     0.167 HD
ATOM     59  C   UNL A   1      42.937  31.926  29.487  1.00  0.00     0.074 A 
ATOM     60  C   UNL A   1      42.167  32.881  30.257  1.00  0.00     0.031 C 
ATOM     61  C   UNL A   1      44.175  32.163  28.991  1.00  0.00     0.034 A 
BRANCH  48  62
ATOM     62  C   UNL A   1      46.741  27.332  26.162  1.00  0.00     0.023 A 
ATOM     63  C   UNL A   1      46.874  27.549  24.777  1.00  0.00     0.012 A 
ATOM     64  C   UNL A   1      47.780  26.696  26.870  1.00  0.00     0.148 A 
ATOM     65  C   UNL A   1      48.024  27.135  24.104  1.00  0.00     0.002 A 
ATOM     66  C   UNL A   1      48.933  26.310  26.198  1.00  0.00     0.091 A 
ATOM     67  F   UNL A   1      47.620  26.485  28.184  1.00  0.00    -0.205 F 
ATOM     68  C   UNL A   1      49.055  26.527  24.815  1.00  0.00     0.022 A 
BRANCH  66  69
ATOM     69  S   UNL A   1      50.340  25.567  27.030  1.00  0.00     0.127 S 
ATOM     70  O   UNL A   1      51.265  25.361  25.917  1.00  0.00    -0.237 OA
ATOM     71  O   UNL A   1      50.737  26.619  27.966  1.00  0.00    -0.237 OA
ATOM     72  O   UNL A   1      49.841  24.351  27.658  1.00  0.00    -0.744 OA
ENDBRANCH  66  69
ENDBRANCH  48  62
BRANCH  49  73
ATOM     73  C   UNL A   1      38.676  30.596  31.004  1.00  0.00     0.023 A 
ATOM     74  C   UNL A   1      38.629  30.546  32.409  1.00  0.00     0.012 A 
ATOM     75  C   UNL A   1      37.624  31.208  30.295  1.00  0.00     0.148 A 
ATOM     76  C   UNL A   1      37.555  31.107  33.100  1.00  0.00     0.002 A 
ATOM     77  C   UNL A   1      36.582  31.807  30.991  1.00  0.00     0.091 A 
ATOM     78  F   UNL A   1      37.695  31.235  28.957  1.00  0.00    -0.205 F 
ATOM     79  C   UNL A   1      36.541  31.750  32.394  1.00  0.00     0.022 A 
BRANCH  77  80
ATOM     80  S   UNL A   1      35.305  32.773  30.179  1.00  0.00     0.127 S 
ATOM     81  O   UNL A   1      34.726  31.793  29.263  1.00  0.00    -0.237 OA
ATOM     82  O   UNL A   1      34.450  33.144  31.307  1.00  0.00    -0.237 OA
ATOM     83  O   UNL A   1      35.992  33.890  29.547  1.00  0.00    -0.744 OA
ENDBRANCH  77  80
ENDBRANCH  49  73
BRANCH  61  84
ATOM     84  C   UNL A   1      44.804  33.499  29.267  1.00  0.00     0.023 A 
ATOM     85  C   UNL A   1      45.544  33.670  30.452  1.00  0.00     0.012 A 
ATOM     86  C   UNL A   1      44.770  34.531  28.311  1.00  0.00     0.148 A 
ATOM     87  C   UNL A   1      46.241  34.855  30.686  1.00  0.00     0.002 A 
ATOM     88  C   UNL A   1      45.489  35.699  28.537  1.00  0.00     0.091 A 
ATOM     89  F   UNL A   1      44.049  34.345  27.196  1.00  0.00    -0.205 F 
ATOM     90  C   UNL A   1      46.222  35.864  29.724  1.00  0.00     0.022 A 
BRANCH  88  91
ATOM     91  S   UNL A   1      45.586  37.025  27.329  1.00  0.00     0.127 S 
ATOM     92  O   UNL A   1      44.175  37.355  27.136  1.00  0.00    -0.237 OA
ATOM     93  O   UNL A   1      46.359  38.041  28.043  1.00  0.00    -0.237 OA
ATOM     94  O   UNL A   1      46.257  36.461  26.165  1.00  0.00    -0.744 OA
ENDBRANCH  88  91
ENDBRANCH  61  84
ENDBRANCH  35  36
ENDBRANCH  27  30
ENDBRANCH  25  26
ENDBRANCH   1  25
TORSDOF 15
ENDMDL
