MODEL 1
REMARK VINA RESULT:     -12.2      0.000      0.000
REMARK SMILES O=C1NC(=O)/C(=C/c2ccc(OCc3cn(-c4ccc(C(=O)NCCCCNC(=O)c5ccc(-c6c7nc(c(-c8cccc(S(=O)(=O)[O-])c8F)c8ccc([nH]8)c(-c8cccc(S(=O)(=O)[O-])c8F)c8nc(c(-c9cccc(S(=O)(=O)[O-])c9F)c9ccc6[nH]9)C=C8)C=C7)cc5)cc4)nn3)cc2)S1
REMARK SMILES IDX 24 1 23 2 21 3 22 4 20 6 17 7 18 8 95 9 19 10 94 11 16 12
REMARK SMILES IDX 14 13 15 14 97 15 96 16 13 17 12 18 11 19 8 20 9 21 99 22
REMARK SMILES IDX 10 23 98 24 7 25 1 26 2 27 3 28 100 29 4 30 6 32 5 33 25 34
REMARK SMILES IDX 26 35 27 36 28 37 29 38 30 40 31 41 32 42 93 43 33 44 92 45
REMARK SMILES IDX 34 46 35 47 36 48 86 49 37 50 91 51 85 52 87 53 38 54 90 55
REMARK SMILES IDX 84 56 83 57 39 59 71 60 51 61 70 62 52 63 55 64 69 65 88 66
REMARK SMILES IDX 53 67 54 68 68 70 89 71 56 72 40 73 41 74 49 75 42 76 44 77
REMARK SMILES IDX 50 78 43 79 45 80 46 81 47 82 48 83 72 84 73 85 81 86 74 87
REMARK SMILES IDX 76 88 82 89 75 90 77 91 78 92 79 93 80 94 57 95 58 96 66 97
REMARK SMILES IDX 59 98 61 99 67 100 60 101 62 102 63 103 64 104 65 105
REMARK H PARENT 23 5 3 31 28 39 87 58 55 69
REMARK Flexibility Score: inf
ROOT
ATOM      1  C   UNL A   1      39.326  21.724  26.035  1.00  0.00     0.116 C 
ENDROOT
BRANCH   1   2
ATOM      2  N   UNL A   1      38.564  20.663  25.409  1.00  0.00    -0.352 N 
ATOM      3  C   UNL A   1      37.238  20.528  25.086  1.00  0.00     0.251 C 
ATOM      4  O   UNL A   1      36.865  19.436  24.657  1.00  0.00    -0.269 OA
ATOM      5  H   UNL A   1      39.109  19.880  25.165  1.00  0.00     0.163 HD
BRANCH   3   6
ATOM      6  C   UNL A   1      36.241  21.632  25.193  1.00  0.00     0.039 A 
ATOM      7  C   UNL A   1      34.513  23.843  25.266  1.00  0.00     0.066 A 
ATOM      8  C   UNL A   1      35.306  23.622  24.137  1.00  0.00     0.029 A 
ATOM      9  C   UNL A   1      34.537  22.944  26.331  1.00  0.00     0.029 A 
ATOM     10  C   UNL A   1      36.189  22.539  24.121  1.00  0.00     0.016 A 
ATOM     11  C   UNL A   1      35.356  21.815  26.259  1.00  0.00     0.016 A 
BRANCH   7  12
ATOM     12  N   UNL A   1      33.669  24.967  25.315  1.00  0.00    -0.220 N 
ATOM     13  C   UNL A   1      32.753  26.913  25.687  1.00  0.00     0.120 A 
ATOM     14  C   UNL A   1      33.934  26.217  25.832  1.00  0.00     0.144 A 
ATOM     15  N   UNL A   1      31.842  26.093  25.075  1.00  0.00    -0.131 NA
ATOM     16  N   UNL A   1      32.415  24.931  24.823  1.00  0.00    -0.062 NA
BRANCH  13  17
ATOM     17  C   UNL A   1      32.418  28.341  25.969  1.00  0.00     0.289 C 
BRANCH  17  18
ATOM     18  O   UNL A   1      33.213  28.983  26.983  1.00  0.00    -0.487 OA
BRANCH  18  19
ATOM     19  C   UNL A   1      33.152  30.344  27.100  1.00  0.00     0.119 A 
ATOM     20  C   UNL A   1      33.166  33.082  27.741  1.00  0.00    -0.024 A 
ATOM     21  C   UNL A   1      34.325  32.319  27.896  1.00  0.00     0.012 A 
ATOM     22  C   UNL A   1      32.038  32.492  27.171  1.00  0.00     0.012 A 
ATOM     23  C   UNL A   1      34.312  30.954  27.583  1.00  0.00     0.047 A 
ATOM     24  C   UNL A   1      32.044  31.140  26.820  1.00  0.00     0.047 A 
BRANCH  20  25
ATOM     25  C   UNL A   1      33.130  34.488  28.149  1.00  0.00     0.029 C 
ATOM     26  O   UNL A   1      34.474  35.534  32.894  1.00  0.00    -0.261 OA
ATOM     27  C   UNL A   1      34.102  35.509  31.729  1.00  0.00     0.290 C 
ATOM     28  N   UNL A   1      33.664  36.579  31.022  1.00  0.00    -0.282 N 
ATOM     29  S   UNL A   1      34.066  34.078  30.724  1.00  0.00    -0.022 SA
ATOM     30  C   UNL A   1      33.304  36.386  29.722  1.00  0.00     0.265 C 
ATOM     31  H   UNL A   1      33.609  37.471  31.436  1.00  0.00     0.174 HD
ATOM     32  C   UNL A   1      33.457  34.952  29.364  1.00  0.00     0.083 C 
ATOM     33  O   UNL A   1      32.906  37.264  28.974  1.00  0.00    -0.268 OA
ENDBRANCH  20  25
ENDBRANCH  18  19
ENDBRANCH  17  18
ENDBRANCH  13  17
ENDBRANCH   7  12
ENDBRANCH   3   6
ENDBRANCH   1   2
BRANCH   1  34
ATOM     34  C   UNL A   1      40.573  21.155  26.726  1.00  0.00     0.023 C 
BRANCH  34  35
ATOM     35  C   UNL A   1      41.102  19.848  26.116  1.00  0.00     0.023 C 
BRANCH  35  36
ATOM     36  C   UNL A   1      42.512  19.474  26.560  1.00  0.00     0.116 C 
BRANCH  36  37
ATOM     37  N   UNL A   1      43.424  19.294  25.427  1.00  0.00    -0.352 N 
ATOM     38  C   UNL A   1      43.994  20.269  24.631  1.00  0.00     0.251 C 
ATOM     39  H   UNL A   1      43.660  18.365  25.206  1.00  0.00     0.163 HD
ATOM     40  O   UNL A   1      44.411  20.004  23.509  1.00  0.00    -0.269 OA
BRANCH  38  41
ATOM     41  C   UNL A   1      44.112  21.632  25.171  1.00  0.00     0.039 A 
ATOM     42  C   UNL A   1      43.187  22.630  24.853  1.00  0.00     0.014 A 
ATOM     43  C   UNL A   1      45.160  21.877  26.055  1.00  0.00     0.014 A 
ATOM     44  C   UNL A   1      43.284  23.857  25.502  1.00  0.00     0.010 A 
ATOM     45  C   UNL A   1      45.156  23.020  26.807  1.00  0.00     0.010 A 
ATOM     46  C   UNL A   1      44.261  24.037  26.494  1.00  0.00    -0.014 A 
BRANCH  46  47
ATOM     47  C   UNL A   1      44.290  25.247  27.303  1.00  0.00     0.031 A 
ATOM     48  C   UNL A   1      45.415  26.170  26.996  1.00  0.00     0.074 A 
ATOM     49  C   UNL A   1      43.264  25.606  28.106  1.00  0.00     0.049 A 
ATOM     50  N   UNL A   1      46.418  26.458  27.756  1.00  0.00    -0.248 NA
ATOM     51  C   UNL A   1      45.520  26.725  25.637  1.00  0.00     0.031 C 
ATOM     52  C   UNL A   1      41.957  24.954  28.257  1.00  0.00     0.029 A 
ATOM     53  N   UNL A   1      43.116  26.737  28.845  1.00  0.00    -0.354 N 
ATOM     54  C   UNL A   1      47.147  27.423  27.067  1.00  0.00     0.074 A 
ATOM     55  C   UNL A   1      46.677  27.389  25.707  1.00  0.00     0.031 C 
ATOM     56  C   UNL A   1      41.079  25.827  28.797  1.00  0.00     0.029 A 
ATOM     57  C   UNL A   1      41.798  27.024  29.187  1.00  0.00     0.049 A 
ATOM     58  H   UNL A   1      43.875  27.303  29.115  1.00  0.00     0.167 HD
ATOM     59  C   UNL A   1      47.891  28.354  27.730  1.00  0.00     0.034 A 
ATOM     60  C   UNL A   1      41.328  28.191  29.695  1.00  0.00     0.034 A 
ATOM     61  C   UNL A   1      48.080  27.992  29.112  1.00  0.00     0.049 A 
ATOM     62  C   UNL A   1      42.485  28.895  30.297  1.00  0.00     0.074 A 
ATOM     63  C   UNL A   1      48.591  26.886  29.762  1.00  0.00     0.029 A 
ATOM     64  N   UNL A   1      47.314  28.653  30.044  1.00  0.00    -0.354 N 
ATOM     65  N   UNL A   1      43.135  28.442  31.333  1.00  0.00    -0.248 NA
ATOM     66  C   UNL A   1      43.209  29.842  29.465  1.00  0.00     0.031 C 
ATOM     67  C   UNL A   1      47.698  26.665  30.852  1.00  0.00     0.029 A 
ATOM     68  C   UNL A   1      46.760  27.699  30.857  1.00  0.00     0.049 A 
ATOM     69  H   UNL A   1      47.189  29.627  30.114  1.00  0.00     0.167 HD
ATOM     70  C   UNL A   1      44.471  28.659  31.018  1.00  0.00     0.074 A 
ATOM     71  C   UNL A   1      44.448  29.616  29.910  1.00  0.00     0.031 C 
ATOM     72  C   UNL A   1      45.454  27.823  31.467  1.00  0.00     0.034 A 
BRANCH  59  73
ATOM     73  C   UNL A   1      48.145  29.760  27.242  1.00  0.00     0.023 A 
ATOM     74  C   UNL A   1      49.471  30.243  27.298  1.00  0.00     0.012 A 
ATOM     75  C   UNL A   1      47.128  30.706  26.982  1.00  0.00     0.148 A 
ATOM     76  C   UNL A   1      49.763  31.603  27.139  1.00  0.00     0.002 A 
ATOM     77  C   UNL A   1      47.432  32.039  26.735  1.00  0.00     0.091 A 
ATOM     78  F   UNL A   1      45.844  30.359  27.111  1.00  0.00    -0.205 F 
ATOM     79  C   UNL A   1      48.744  32.500  26.844  1.00  0.00     0.022 A 
BRANCH  77  80
ATOM     80  S   UNL A   1      46.158  33.224  26.287  1.00  0.00     0.127 S 
ATOM     81  O   UNL A   1      45.594  33.556  27.592  1.00  0.00    -0.237 OA
ATOM     82  O   UNL A   1      46.946  34.286  25.660  1.00  0.00    -0.237 OA
ATOM     83  O   UNL A   1      45.277  32.515  25.367  1.00  0.00    -0.744 OA
ENDBRANCH  77  80
ENDBRANCH  59  73
BRANCH  60  84
ATOM     84  C   UNL A   1      40.023  28.854  29.467  1.00  0.00     0.023 A 
ATOM     85  C   UNL A   1      39.364  28.705  28.230  1.00  0.00     0.012 A 
ATOM     86  C   UNL A   1      39.292  29.404  30.545  1.00  0.00     0.148 A 
ATOM     87  C   UNL A   1      38.017  29.059  28.081  1.00  0.00     0.002 A 
ATOM     88  C   UNL A   1      37.957  29.765  30.389  1.00  0.00     0.091 A 
ATOM     89  F   UNL A   1      39.875  29.484  31.748  1.00  0.00    -0.205 F 
ATOM     90  C   UNL A   1      37.310  29.582  29.161  1.00  0.00     0.022 A 
BRANCH  88  91
ATOM     91  S   UNL A   1      36.986  30.428  31.750  1.00  0.00     0.127 S 
ATOM     92  O   UNL A   1      35.744  30.813  31.078  1.00  0.00    -0.237 OA
ATOM     93  O   UNL A   1      36.873  29.270  32.632  1.00  0.00    -0.237 OA
ATOM     94  O   UNL A   1      37.754  31.552  32.271  1.00  0.00    -0.744 OA
ENDBRANCH  88  91
ENDBRANCH  60  84
BRANCH  72  95
ATOM     95  C   UNL A   1      45.096  26.771  32.491  1.00  0.00     0.023 A 
ATOM     96  C   UNL A   1      44.711  25.460  32.134  1.00  0.00     0.012 A 
ATOM     97  C   UNL A   1      45.345  27.052  33.845  1.00  0.00     0.148 A 
ATOM     98  C   UNL A   1      44.558  24.464  33.104  1.00  0.00     0.002 A 
ATOM     99  C   UNL A   1      45.240  26.049  34.800  1.00  0.00     0.091 A 
ATOM    100  F   UNL A   1      45.716  28.300  34.174  1.00  0.00    -0.205 F 
ATOM    101  C   UNL A   1      44.837  24.755  34.436  1.00  0.00     0.022 A 
BRANCH  99 102
ATOM    102  S   UNL A   1      45.711  26.331  36.509  1.00  0.00     0.127 S 
ATOM    103  O   UNL A   1      44.735  27.333  36.932  1.00  0.00    -0.237 OA
ATOM    104  O   UNL A   1      45.529  25.007  37.108  1.00  0.00    -0.237 OA
ATOM    105  O   UNL A   1      47.097  26.780  36.472  1.00  0.00    -0.744 OA
ENDBRANCH  99 102
ENDBRANCH  72  95
ENDBRANCH  46  47
ENDBRANCH  38  41
ENDBRANCH  36  37
ENDBRANCH  35  36
ENDBRANCH  34  35
ENDBRANCH   1  34
TORSDOF 19
ENDMDL
MODEL 2
REMARK VINA RESULT:     -12.0      5.184     11.126
REMARK SMILES O=C1NC(=O)/C(=C/c2ccc(OCc3cn(-c4ccc(C(=O)NCCCCNC(=O)c5ccc(-c6c7nc(c(-c8cccc(S(=O)(=O)[O-])c8F)c8ccc([nH]8)c(-c8cccc(S(=O)(=O)[O-])c8F)c8nc(c(-c9cccc(S(=O)(=O)[O-])c9F)c9ccc6[nH]9)C=C8)C=C7)cc5)cc4)nn3)cc2)S1
REMARK SMILES IDX 24 1 23 2 21 3 22 4 20 6 17 7 18 8 95 9 19 10 94 11 16 12
REMARK SMILES IDX 14 13 15 14 97 15 96 16 13 17 12 18 11 19 8 20 9 21 99 22
REMARK SMILES IDX 10 23 98 24 7 25 1 26 2 27 3 28 100 29 4 30 6 32 5 33 25 34
REMARK SMILES IDX 26 35 27 36 28 37 29 38 30 40 31 41 32 42 93 43 33 44 92 45
REMARK SMILES IDX 34 46 35 47 36 48 86 49 37 50 91 51 85 52 87 53 38 54 90 55
REMARK SMILES IDX 84 56 83 57 39 59 71 60 51 61 70 62 52 63 55 64 69 65 88 66
REMARK SMILES IDX 53 67 54 68 68 70 89 71 56 72 40 73 41 74 49 75 42 76 44 77
REMARK SMILES IDX 50 78 43 79 45 80 46 81 47 82 48 83 72 84 73 85 81 86 74 87
REMARK SMILES IDX 76 88 82 89 75 90 77 91 78 92 79 93 80 94 57 95 58 96 66 97
REMARK SMILES IDX 59 98 61 99 67 100 60 101 62 102 63 103 64 104 65 105
REMARK H PARENT 23 5 3 31 28 39 87 58 55 69
REMARK Flexibility Score: inf
ROOT
ATOM      1  C   UNL A   1      36.476  32.463  33.973  1.00  0.00     0.116 C 
ENDROOT
BRANCH   1   2
ATOM      2  N   UNL A   1      37.460  31.592  34.583  1.00  0.00    -0.352 N 
ATOM      3  C   UNL A   1      38.810  31.432  34.400  1.00  0.00     0.251 C 
ATOM      4  O   UNL A   1      39.361  30.508  34.999  1.00  0.00    -0.269 OA
ATOM      5  H   UNL A   1      37.084  30.994  35.269  1.00  0.00     0.163 HD
BRANCH   3   6
ATOM      6  C   UNL A   1      39.645  32.329  33.550  1.00  0.00     0.039 A 
ATOM      7  C   UNL A   1      41.184  33.863  31.772  1.00  0.00     0.066 A 
ATOM      8  C   UNL A   1      40.086  33.143  31.293  1.00  0.00     0.029 A 
ATOM      9  C   UNL A   1      41.485  33.865  33.133  1.00  0.00     0.029 A 
ATOM     10  C   UNL A   1      39.345  32.355  32.177  1.00  0.00     0.016 A 
ATOM     11  C   UNL A   1      40.678  33.146  34.017  1.00  0.00     0.016 A 
BRANCH   7  12
ATOM     12  N   UNL A   1      41.973  34.608  30.878  1.00  0.00    -0.220 N 
ATOM     13  C   UNL A   1      42.818  35.626  29.142  1.00  0.00     0.120 A 
ATOM     14  C   UNL A   1      41.689  34.965  29.577  1.00  0.00     0.144 A 
ATOM     15  N   UNL A   1      43.716  35.672  30.176  1.00  0.00    -0.131 NA
ATOM     16  N   UNL A   1      43.183  35.085  31.232  1.00  0.00    -0.062 NA
BRANCH  13  17
ATOM     17  C   UNL A   1      43.104  36.333  27.858  1.00  0.00     0.289 C 
BRANCH  17  18
ATOM     18  O   UNL A   1      42.135  37.320  27.457  1.00  0.00    -0.487 OA
BRANCH  18  19
ATOM     19  C   UNL A   1      42.580  38.551  27.061  1.00  0.00     0.119 A 
ATOM     20  C   UNL A   1      43.203  41.051  25.935  1.00  0.00    -0.024 A 
ATOM     21  C   UNL A   1      41.890  40.759  26.313  1.00  0.00     0.012 A 
ATOM     22  C   UNL A   1      44.210  40.129  26.218  1.00  0.00     0.012 A 
ATOM     23  C   UNL A   1      41.583  39.511  26.866  1.00  0.00     0.047 A 
ATOM     24  C   UNL A   1      43.903  38.901  26.810  1.00  0.00     0.047 A 
BRANCH  20  25
ATOM     25  C   UNL A   1      43.531  42.314  25.269  1.00  0.00     0.029 C 
ATOM     26  O   UNL A   1      41.272  43.236  20.858  1.00  0.00    -0.261 OA
ATOM     27  C   UNL A   1      41.933  43.213  21.887  1.00  0.00     0.290 C 
ATOM     28  N   UNL A   1      42.845  44.146  22.255  1.00  0.00    -0.282 N 
ATOM     29  S   UNL A   1      41.831  41.967  23.110  1.00  0.00    -0.022 SA
ATOM     30  C   UNL A   1      43.484  43.983  23.448  1.00  0.00     0.265 C 
ATOM     31  H   UNL A   1      43.039  44.919  21.678  1.00  0.00     0.174 HD
ATOM     32  C   UNL A   1      43.026  42.728  24.098  1.00  0.00     0.083 C 
ATOM     33  O   UNL A   1      44.315  44.753  23.900  1.00  0.00    -0.268 OA
ENDBRANCH  20  25
ENDBRANCH  18  19
ENDBRANCH  17  18
ENDBRANCH  13  17
ENDBRANCH   7  12
ENDBRANCH   3   6
ENDBRANCH   1   2
BRANCH   1  34
ATOM     34  C   UNL A   1      35.964  31.859  32.659  1.00  0.00     0.023 C 
BRANCH  34  35
ATOM     35  C   UNL A   1      34.738  32.567  32.065  1.00  0.00     0.023 C 
BRANCH  35  36
ATOM     36  C   UNL A   1      34.960  33.142  30.670  1.00  0.00     0.116 C 
BRANCH  36  37
ATOM     37  N   UNL A   1      34.317  32.338  29.626  1.00  0.00    -0.352 N 
ATOM     38  C   UNL A   1      34.914  31.474  28.730  1.00  0.00     0.251 C 
ATOM     39  H   UNL A   1      33.340  32.425  29.556  1.00  0.00     0.163 HD
ATOM     40  O   UNL A   1      34.357  31.165  27.682  1.00  0.00    -0.269 OA
BRANCH  38  41
ATOM     41  C   UNL A   1      36.229  30.910  29.073  1.00  0.00     0.039 A 
ATOM     42  C   UNL A   1      36.371  29.590  29.506  1.00  0.00     0.014 A 
ATOM     43  C   UNL A   1      37.338  31.735  28.902  1.00  0.00     0.014 A 
ATOM     44  C   UNL A   1      37.655  29.084  29.686  1.00  0.00     0.010 A 
ATOM     45  C   UNL A   1      38.594  31.191  28.922  1.00  0.00     0.010 A 
ATOM     46  C   UNL A   1      38.763  29.887  29.372  1.00  0.00    -0.014 A 
BRANCH  46  47
ATOM     47  C   UNL A   1      40.112  29.341  29.395  1.00  0.00     0.031 A 
ATOM     48  C   UNL A   1      40.674  29.136  30.758  1.00  0.00     0.074 A 
ATOM     49  C   UNL A   1      40.716  28.856  28.288  1.00  0.00     0.049 A 
ATOM     50  N   UNL A   1      41.657  29.773  31.300  1.00  0.00    -0.248 NA
ATOM     51  C   UNL A   1      39.974  28.225  31.678  1.00  0.00     0.031 C 
ATOM     52  C   UNL A   1      40.153  28.699  26.941  1.00  0.00     0.029 A 
ATOM     53  N   UNL A   1      41.925  28.244  28.176  1.00  0.00    -0.354 N 
ATOM     54  C   UNL A   1      41.859  29.168  32.538  1.00  0.00     0.074 A 
ATOM     55  C   UNL A   1      40.681  28.384  32.800  1.00  0.00     0.031 C 
ATOM     56  C   UNL A   1      40.891  27.806  26.247  1.00  0.00     0.029 A 
ATOM     57  C   UNL A   1      42.063  27.466  27.030  1.00  0.00     0.049 A 
ATOM     58  H   UNL A   1      42.639  28.343  28.846  1.00  0.00     0.167 HD
ATOM     59  C   UNL A   1      43.090  29.150  33.123  1.00  0.00     0.034 A 
ATOM     60  C   UNL A   1      43.042  26.562  26.778  1.00  0.00     0.034 A 
ATOM     61  C   UNL A   1      43.988  30.085  32.493  1.00  0.00     0.049 A 
ATOM     62  C   UNL A   1      44.185  26.908  27.657  1.00  0.00     0.074 A 
ATOM     63  C   UNL A   1      43.951  31.442  32.238  1.00  0.00     0.029 A 
ATOM     64  N   UNL A   1      44.930  29.569  31.633  1.00  0.00    -0.354 N 
ATOM     65  N   UNL A   1      44.864  28.016  27.540  1.00  0.00    -0.248 NA
ATOM     66  C   UNL A   1      44.264  26.255  28.953  1.00  0.00     0.031 C 
ATOM     67  C   UNL A   1      44.463  31.574  30.914  1.00  0.00     0.029 A 
ATOM     68  C   UNL A   1      44.869  30.309  30.481  1.00  0.00     0.049 A 
ATOM     69  H   UNL A   1      45.532  28.812  31.811  1.00  0.00     0.167 HD
ATOM     70  C   UNL A   1      45.048  28.441  28.849  1.00  0.00     0.074 A 
ATOM     71  C   UNL A   1      44.753  27.268  29.674  1.00  0.00     0.031 C 
ATOM     72  C   UNL A   1      45.121  29.769  29.163  1.00  0.00     0.034 A 
BRANCH  59  73
ATOM     73  C   UNL A   1      43.603  28.048  34.019  1.00  0.00     0.023 A 
ATOM     74  C   UNL A   1      43.545  26.725  33.529  1.00  0.00     0.012 A 
ATOM     75  C   UNL A   1      43.890  28.212  35.393  1.00  0.00     0.148 A 
ATOM     76  C   UNL A   1      43.729  25.623  34.372  1.00  0.00     0.002 A 
ATOM     77  C   UNL A   1      44.160  27.119  36.206  1.00  0.00     0.091 A 
ATOM     78  F   UNL A   1      43.765  29.415  35.963  1.00  0.00    -0.205 F 
ATOM     79  C   UNL A   1      44.050  25.820  35.710  1.00  0.00     0.022 A 
BRANCH  77  80
ATOM     80  S   UNL A   1      44.641  27.325  37.926  1.00  0.00     0.127 S 
ATOM     81  O   UNL A   1      43.632  26.523  38.611  1.00  0.00    -0.237 OA
ATOM     82  O   UNL A   1      45.991  26.760  37.927  1.00  0.00    -0.237 OA
ATOM     83  O   UNL A   1      44.597  28.761  38.170  1.00  0.00    -0.744 OA
ENDBRANCH  77  80
ENDBRANCH  59  73
BRANCH  60  84
ATOM     84  C   UNL A   1      42.966  25.279  26.039  1.00  0.00     0.023 A 
ATOM     85  C   UNL A   1      43.936  24.971  25.064  1.00  0.00     0.012 A 
ATOM     86  C   UNL A   1      42.113  24.241  26.477  1.00  0.00     0.148 A 
ATOM     87  C   UNL A   1      44.073  23.668  24.566  1.00  0.00     0.002 A 
ATOM     88  C   UNL A   1      42.245  22.951  25.971  1.00  0.00     0.091 A 
ATOM     89  F   UNL A   1      41.236  24.494  27.457  1.00  0.00    -0.205 F 
ATOM     90  C   UNL A   1      43.233  22.656  25.025  1.00  0.00     0.022 A 
BRANCH  88  91
ATOM     91  S   UNL A   1      41.203  21.598  26.536  1.00  0.00     0.127 S 
ATOM     92  O   UNL A   1      39.891  21.989  26.019  1.00  0.00    -0.237 OA
ATOM     93  O   UNL A   1      41.809  20.451  25.865  1.00  0.00    -0.237 OA
ATOM     94  O   UNL A   1      41.297  21.608  27.990  1.00  0.00    -0.744 OA
ENDBRANCH  88  91
ENDBRANCH  60  84
BRANCH  72  95
ATOM     95  C   UNL A   1      45.211  30.774  28.038  1.00  0.00     0.023 A 
ATOM     96  C   UNL A   1      44.070  31.282  27.379  1.00  0.00     0.012 A 
ATOM     97  C   UNL A   1      46.457  31.365  27.775  1.00  0.00     0.148 A 
ATOM     98  C   UNL A   1      44.175  32.337  26.466  1.00  0.00     0.002 A 
ATOM     99  C   UNL A   1      46.552  32.445  26.905  1.00  0.00     0.091 A 
ATOM    100  F   UNL A   1      47.535  30.879  28.411  1.00  0.00    -0.205 F 
ATOM    101  C   UNL A   1      45.414  32.928  26.241  1.00  0.00     0.022 A 
BRANCH  99 102
ATOM    102  S   UNL A   1      48.096  33.329  26.675  1.00  0.00     0.127 S 
ATOM    103  O   UNL A   1      47.773  34.222  25.565  1.00  0.00    -0.237 OA
ATOM    104  O   UNL A   1      48.273  33.996  27.966  1.00  0.00    -0.237 OA
ATOM    105  O   UNL A   1      49.100  32.312  26.390  1.00  0.00    -0.744 OA
ENDBRANCH  99 102
ENDBRANCH  72  95
ENDBRANCH  46  47
ENDBRANCH  38  41
ENDBRANCH  36  37
ENDBRANCH  35  36
ENDBRANCH  34  35
ENDBRANCH   1  34
TORSDOF 19
ENDMDL
MODEL 3
REMARK VINA RESULT:     -11.9      3.906     10.302
REMARK SMILES O=C1NC(=O)/C(=C/c2ccc(OCc3cn(-c4ccc(C(=O)NCCCCNC(=O)c5ccc(-c6c7nc(c(-c8cccc(S(=O)(=O)[O-])c8F)c8ccc([nH]8)c(-c8cccc(S(=O)(=O)[O-])c8F)c8nc(c(-c9cccc(S(=O)(=O)[O-])c9F)c9ccc6[nH]9)C=C8)C=C7)cc5)cc4)nn3)cc2)S1
REMARK SMILES IDX 24 1 23 2 21 3 22 4 20 6 17 7 18 8 95 9 19 10 94 11 16 12
REMARK SMILES IDX 14 13 15 14 97 15 96 16 13 17 12 18 11 19 8 20 9 21 99 22
REMARK SMILES IDX 10 23 98 24 7 25 1 26 2 27 3 28 100 29 4 30 6 32 5 33 25 34
REMARK SMILES IDX 26 35 27 36 28 37 29 38 30 40 31 41 32 42 93 43 33 44 92 45
REMARK SMILES IDX 34 46 35 47 36 48 86 49 37 50 91 51 85 52 87 53 38 54 90 55
REMARK SMILES IDX 84 56 83 57 39 59 71 60 51 61 70 62 52 63 55 64 69 65 88 66
REMARK SMILES IDX 53 67 54 68 68 70 89 71 56 72 40 73 41 74 49 75 42 76 44 77
REMARK SMILES IDX 50 78 43 79 45 80 46 81 47 82 48 83 72 84 73 85 81 86 74 87
REMARK SMILES IDX 76 88 82 89 75 90 77 91 78 92 79 93 80 94 57 95 58 96 66 97
REMARK SMILES IDX 59 98 61 99 67 100 60 101 62 102 63 103 64 104 65 105
REMARK H PARENT 23 5 3 31 28 39 87 58 55 69
REMARK Flexibility Score: inf
ROOT
ATOM      1  C   UNL A   1      40.232  33.342  35.788  1.00  0.00     0.116 C 
ENDROOT
BRANCH   1   2
ATOM      2  N   UNL A   1      39.217  32.947  36.741  1.00  0.00    -0.352 N 
ATOM      3  C   UNL A   1      37.862  32.760  36.643  1.00  0.00     0.251 C 
ATOM      4  O   UNL A   1      37.240  32.531  37.681  1.00  0.00    -0.269 OA
ATOM      5  H   UNL A   1      39.571  32.776  37.645  1.00  0.00     0.163 HD
BRANCH   3   6
ATOM      6  C   UNL A   1      37.112  32.786  35.354  1.00  0.00     0.039 A 
ATOM      7  C   UNL A   1      35.887  32.727  32.828  1.00  0.00     0.066 A 
ATOM      8  C   UNL A   1      36.735  31.684  33.210  1.00  0.00     0.029 A 
ATOM      9  C   UNL A   1      35.605  33.766  33.714  1.00  0.00     0.029 A 
ATOM     10  C   UNL A   1      37.368  31.737  34.454  1.00  0.00     0.016 A 
ATOM     11  C   UNL A   1      36.172  33.754  34.990  1.00  0.00     0.016 A 
BRANCH   7  12
ATOM     12  N   UNL A   1      35.296  32.712  31.552  1.00  0.00    -0.220 N 
ATOM     13  C   UNL A   1      34.749  32.319  29.476  1.00  0.00     0.120 A 
ATOM     14  C   UNL A   1      35.540  31.852  30.504  1.00  0.00     0.144 A 
ATOM     15  N   UNL A   1      34.045  33.403  29.933  1.00  0.00    -0.131 NA
ATOM     16  N   UNL A   1      34.357  33.612  31.199  1.00  0.00    -0.062 NA
BRANCH  13  17
ATOM     17  C   UNL A   1      34.494  31.771  28.110  1.00  0.00     0.289 C 
BRANCH  17  18
ATOM     18  O   UNL A   1      33.206  31.161  27.909  1.00  0.00    -0.487 OA
BRANCH  18  19
ATOM     19  C   UNL A   1      33.046  30.297  26.861  1.00  0.00     0.119 A 
ATOM     20  C   UNL A   1      33.130  28.598  24.622  1.00  0.00    -0.024 A 
ATOM     21  C   UNL A   1      34.037  28.424  25.670  1.00  0.00     0.012 A 
ATOM     22  C   UNL A   1      32.123  29.555  24.750  1.00  0.00     0.012 A 
ATOM     23  C   UNL A   1      33.997  29.277  26.779  1.00  0.00     0.047 A 
ATOM     24  C   UNL A   1      32.062  30.375  25.880  1.00  0.00     0.047 A 
BRANCH  20  25
ATOM     25  C   UNL A   1      33.212  27.779  23.411  1.00  0.00     0.029 C 
ATOM     26  O   UNL A   1      30.483  23.541  23.318  1.00  0.00    -0.261 OA
ATOM     27  C   UNL A   1      31.223  24.497  23.133  1.00  0.00     0.290 C 
ATOM     28  N   UNL A   1      32.015  24.677  22.048  1.00  0.00    -0.282 N 
ATOM     29  S   UNL A   1      31.408  25.844  24.233  1.00  0.00    -0.022 SA
ATOM     30  C   UNL A   1      32.768  25.811  21.984  1.00  0.00     0.265 C 
ATOM     31  H   UNL A   1      32.045  24.008  21.327  1.00  0.00     0.174 HD
ATOM     32  C   UNL A   1      32.556  26.627  23.207  1.00  0.00     0.083 C 
ATOM     33  O   UNL A   1      33.511  26.099  21.060  1.00  0.00    -0.268 OA
ENDBRANCH  20  25
ENDBRANCH  18  19
ENDBRANCH  17  18
ENDBRANCH  13  17
ENDBRANCH   7  12
ENDBRANCH   3   6
ENDBRANCH   1   2
BRANCH   1  34
ATOM     34  C   UNL A   1      40.154  34.850  35.513  1.00  0.00     0.023 C 
BRANCH  34  35
ATOM     35  C   UNL A   1      40.042  35.225  34.028  1.00  0.00     0.023 C 
BRANCH  35  36
ATOM     36  C   UNL A   1      39.888  34.033  33.090  1.00  0.00     0.116 C 
BRANCH  36  37
ATOM     37  N   UNL A   1      38.863  34.256  32.067  1.00  0.00    -0.352 N 
ATOM     38  C   UNL A   1      38.874  33.847  30.748  1.00  0.00     0.251 C 
ATOM     39  H   UNL A   1      38.069  34.760  32.355  1.00  0.00     0.163 HD
ATOM     40  O   UNL A   1      38.178  34.404  29.907  1.00  0.00    -0.269 OA
BRANCH  38  41
ATOM     41  C   UNL A   1      39.727  32.706  30.378  1.00  0.00     0.039 A 
ATOM     42  C   UNL A   1      41.098  32.856  30.156  1.00  0.00     0.014 A 
ATOM     43  C   UNL A   1      39.118  31.456  30.303  1.00  0.00     0.014 A 
ATOM     44  C   UNL A   1      41.865  31.716  29.939  1.00  0.00     0.010 A 
ATOM     45  C   UNL A   1      39.893  30.330  30.252  1.00  0.00     0.010 A 
ATOM     46  C   UNL A   1      41.256  30.453  30.008  1.00  0.00    -0.014 A 
BRANCH  46  47
ATOM     47  C   UNL A   1      42.052  29.235  29.945  1.00  0.00     0.031 A 
ATOM     48  C   UNL A   1      42.830  28.940  31.179  1.00  0.00     0.074 A 
ATOM     49  C   UNL A   1      41.924  28.337  28.944  1.00  0.00     0.049 A 
ATOM     50  N   UNL A   1      44.114  28.958  31.314  1.00  0.00    -0.248 NA
ATOM     51  C   UNL A   1      42.101  28.749  32.443  1.00  0.00     0.031 C 
ATOM     52  C   UNL A   1      40.963  28.344  27.834  1.00  0.00     0.029 A 
ATOM     53  N   UNL A   1      42.531  27.129  28.801  1.00  0.00    -0.354 N 
ATOM     54  C   UNL A   1      44.360  28.533  32.617  1.00  0.00     0.074 A 
ATOM     55  C   UNL A   1      43.105  28.627  33.315  1.00  0.00     0.031 C 
ATOM     56  C   UNL A   1      40.864  27.101  27.317  1.00  0.00     0.029 A 
ATOM     57  C   UNL A   1      41.870  26.261  27.937  1.00  0.00     0.049 A 
ATOM     58  H   UNL A   1      43.364  26.890  29.267  1.00  0.00     0.167 HD
ATOM     59  C   UNL A   1      45.516  27.889  32.944  1.00  0.00     0.034 A 
ATOM     60  C   UNL A   1      42.098  24.931  27.793  1.00  0.00     0.034 A 
ATOM     61  C   UNL A   1      46.508  28.027  31.908  1.00  0.00     0.049 A 
ATOM     62  C   UNL A   1      43.466  24.672  28.302  1.00  0.00     0.074 A 
ATOM     63  C   UNL A   1      47.098  29.100  31.269  1.00  0.00     0.029 A 
ATOM     64  N   UNL A   1      46.712  26.943  31.085  1.00  0.00    -0.354 N 
ATOM     65  N   UNL A   1      44.540  25.149  27.734  1.00  0.00    -0.248 NA
ATOM     66  C   UNL A   1      43.609  24.289  29.697  1.00  0.00     0.031 C 
ATOM     67  C   UNL A   1      47.146  28.718  29.896  1.00  0.00     0.029 A 
ATOM     68  C   UNL A   1      46.676  27.407  29.796  1.00  0.00     0.049 A 
ATOM     69  H   UNL A   1      46.856  26.012  31.369  1.00  0.00     0.167 HD
ATOM     70  C   UNL A   1      45.327  25.571  28.798  1.00  0.00     0.074 A 
ATOM     71  C   UNL A   1      44.752  24.920  29.977  1.00  0.00     0.031 C 
ATOM     72  C   UNL A   1      46.172  26.638  28.679  1.00  0.00     0.034 A 
BRANCH  59  73
ATOM     73  C   UNL A   1      45.642  26.837  34.019  1.00  0.00     0.023 A 
ATOM     74  C   UNL A   1      46.720  26.950  34.923  1.00  0.00     0.012 A 
ATOM     75  C   UNL A   1      44.922  25.620  34.028  1.00  0.00     0.148 A 
ATOM     76  C   UNL A   1      47.085  25.893  35.766  1.00  0.00     0.002 A 
ATOM     77  C   UNL A   1      45.231  24.609  34.929  1.00  0.00     0.091 A 
ATOM     78  F   UNL A   1      44.024  25.369  33.071  1.00  0.00    -0.205 F 
ATOM     79  C   UNL A   1      46.331  24.726  35.778  1.00  0.00     0.022 A 
BRANCH  77  80
ATOM     80  S   UNL A   1      44.247  23.108  35.026  1.00  0.00     0.127 S 
ATOM     81  O   UNL A   1      44.436  22.546  33.692  1.00  0.00    -0.237 OA
ATOM     82  O   UNL A   1      44.917  22.383  36.108  1.00  0.00    -0.237 OA
ATOM     83  O   UNL A   1      42.897  23.551  35.353  1.00  0.00    -0.744 OA
ENDBRANCH  77  80
ENDBRANCH  59  73
BRANCH  60  84
ATOM     84  C   UNL A   1      41.137  23.841  27.502  1.00  0.00     0.023 A 
ATOM     85  C   UNL A   1      39.798  24.149  27.187  1.00  0.00     0.012 A 
ATOM     86  C   UNL A   1      41.588  22.524  27.260  1.00  0.00     0.148 A 
ATOM     87  C   UNL A   1      38.948  23.189  26.623  1.00  0.00     0.002 A 
ATOM     88  C   UNL A   1      40.737  21.570  26.709  1.00  0.00     0.091 A 
ATOM     89  F   UNL A   1      42.877  22.231  27.479  1.00  0.00    -0.205 F 
ATOM     90  C   UNL A   1      39.419  21.902  26.376  1.00  0.00     0.022 A 
BRANCH  88  91
ATOM     91  S   UNL A   1      41.290  19.897  26.351  1.00  0.00     0.127 S 
ATOM     92  O   UNL A   1      40.084  19.294  25.780  1.00  0.00    -0.237 OA
ATOM     93  O   UNL A   1      42.368  20.134  25.395  1.00  0.00    -0.237 OA
ATOM     94  O   UNL A   1      41.690  19.330  27.633  1.00  0.00    -0.744 OA
ENDBRANCH  88  91
ENDBRANCH  60  84
BRANCH  72  95
ATOM     95  C   UNL A   1      46.401  27.230  27.307  1.00  0.00     0.023 A 
ATOM     96  C   UNL A   1      45.789  28.430  26.885  1.00  0.00     0.012 A 
ATOM     97  C   UNL A   1      47.406  26.669  26.502  1.00  0.00     0.148 A 
ATOM     98  C   UNL A   1      46.156  29.042  25.682  1.00  0.00     0.002 A 
ATOM     99  C   UNL A   1      47.802  27.305  25.332  1.00  0.00     0.091 A 
ATOM    100  F   UNL A   1      47.985  25.531  26.915  1.00  0.00    -0.205 F 
ATOM    101  C   UNL A   1      47.173  28.487  24.912  1.00  0.00     0.022 A 
BRANCH  99 102
ATOM    102  S   UNL A   1      49.194  26.708  24.368  1.00  0.00     0.127 S 
ATOM    103  O   UNL A   1      48.527  26.016  23.267  1.00  0.00    -0.237 OA
ATOM    104  O   UNL A   1      49.872  27.949  23.991  1.00  0.00    -0.237 OA
ATOM    105  O   UNL A   1      49.967  25.859  25.266  1.00  0.00    -0.744 OA
ENDBRANCH  99 102
ENDBRANCH  72  95
ENDBRANCH  46  47
ENDBRANCH  38  41
ENDBRANCH  36  37
ENDBRANCH  35  36
ENDBRANCH  34  35
ENDBRANCH   1  34
TORSDOF 19
ENDMDL
