MODEL 1
REMARK VINA RESULT:     -11.0      0.000      0.000
REMARK SMILES COc1ccc([C@@H](C#N)CC(=O)NCCCCNC(=O)c2ccc(-c3c4nc(c(-c5cccc(S(=O)(=O)[O-])c5F)c5ccc([nH]5)c(-c5cccc(S(=O)(=O)[O-])c5F)c5nc(c(-c6cccc(S(=O)(=O)[O-])c6F)c6ccc3[nH]6)C=C5)C=C4)cc2)cc1
REMARK SMILES IDX 15 1 14 2 13 3 11 4 12 5 10 7 7 8 6 9 3 10 4 11 85 12 5 13
REMARK SMILES IDX 84 14 2 15 1 16 8 17 9 18 16 19 17 20 18 21 19 22 20 24
REMARK SMILES IDX 21 25 22 26 83 27 23 28 82 29 24 30 25 31 26 32 76 33 27 34
REMARK SMILES IDX 81 35 75 36 77 37 28 38 80 39 74 40 73 41 29 43 61 44 41 45
REMARK SMILES IDX 60 46 42 47 45 48 59 49 78 50 43 51 44 52 58 54 79 55 46 56
REMARK SMILES IDX 30 57 31 58 39 59 32 60 34 61 40 62 33 63 35 64 36 65 37 66
REMARK SMILES IDX 38 67 62 68 63 69 71 70 64 71 66 72 72 73 65 74 67 75 68 76
REMARK SMILES IDX 69 77 70 78 47 79 48 80 56 81 49 82 51 83 57 84 50 85 52 86
REMARK SMILES IDX 53 87 54 88 55 89
REMARK H PARENT 13 6 18 23 77 42 45 53
REMARK Flexibility Score: inf
ROOT
ATOM      1  C   UNL A   1      31.798  28.939  23.746  1.00  0.00     0.023 C 
ENDROOT
BRANCH   1   2
ATOM      2  C   UNL A   1      30.952  27.821  23.147  1.00  0.00     0.116 C 
BRANCH   2   3
ATOM      3  N   UNL A   1      31.616  27.255  21.987  1.00  0.00    -0.356 N 
ATOM      4  C   UNL A   1      32.569  26.286  21.923  1.00  0.00     0.221 C 
ATOM      5  O   UNL A   1      33.150  26.090  20.854  1.00  0.00    -0.275 OA
ATOM      6  H   UNL A   1      31.338  27.628  21.120  1.00  0.00     0.163 HD
BRANCH   4   7
ATOM      7  C   UNL A   1      32.913  25.455  23.135  1.00  0.00     0.123 C 
BRANCH   7   8
ATOM      8  C   UNL A   1      33.688  24.198  22.739  1.00  0.00     0.132 C 
BRANCH   8   9
ATOM      9  C   UNL A   1      34.913  23.896  23.610  1.00  0.00    -0.030 A 
ATOM     10  C   UNL A   1      37.078  23.218  25.279  1.00  0.00     0.118 A 
ATOM     11  C   UNL A   1      36.084  24.073  25.748  1.00  0.00     0.047 A 
ATOM     12  C   UNL A   1      36.964  22.644  24.013  1.00  0.00     0.047 A 
ATOM     13  C   UNL A   1      35.017  24.418  24.919  1.00  0.00     0.009 A 
ATOM     14  C   UNL A   1      35.882  22.971  23.186  1.00  0.00     0.009 A 
BRANCH  10  15
ATOM     15  O   UNL A   1      38.110  22.967  26.137  1.00  0.00    -0.497 OA
ATOM     16  C   UNL A   1      38.599  24.141  26.786  1.00  0.00     0.278 C 
ENDBRANCH  10  15
ENDBRANCH   8   9
BRANCH   8  17
ATOM     17  C   UNL A   1      32.828  22.964  22.964  1.00  0.00     0.071 C 
ATOM     18  N   UNL A   1      32.116  21.941  23.151  1.00  0.00    -0.198 NA
ENDBRANCH   8  17
ENDBRANCH   7   8
ENDBRANCH   4   7
ENDBRANCH   2   3
ENDBRANCH   1   2
BRANCH   1  19
ATOM     19  C   UNL A   1      31.573  29.230  25.215  1.00  0.00     0.023 C 
BRANCH  19  20
ATOM     20  C   UNL A   1      32.786  29.813  25.919  1.00  0.00     0.116 C 
BRANCH  20  21
ATOM     21  N   UNL A   1      32.565  31.129  26.518  1.00  0.00    -0.352 N 
ATOM     22  C   UNL A   1      33.410  31.852  27.333  1.00  0.00     0.251 C 
ATOM     23  H   UNL A   1      31.700  31.553  26.314  1.00  0.00     0.163 HD
ATOM     24  O   UNL A   1      33.058  32.923  27.817  1.00  0.00    -0.269 OA
BRANCH  22  25
ATOM     25  C   UNL A   1      34.726  31.275  27.665  1.00  0.00     0.039 A 
ATOM     26  C   UNL A   1      35.801  32.130  27.916  1.00  0.00     0.014 A 
ATOM     27  C   UNL A   1      34.838  29.903  27.883  1.00  0.00     0.014 A 
ATOM     28  C   UNL A   1      36.958  31.617  28.507  1.00  0.00     0.010 A 
ATOM     29  C   UNL A   1      35.936  29.422  28.577  1.00  0.00     0.010 A 
ATOM     30  C   UNL A   1      37.007  30.271  28.903  1.00  0.00    -0.014 A 
BRANCH  30  31
ATOM     31  C   UNL A   1      38.149  29.697  29.660  1.00  0.00     0.031 A 
ATOM     32  C   UNL A   1      38.357  30.117  31.090  1.00  0.00     0.074 A 
ATOM     33  C   UNL A   1      39.076  28.947  29.031  1.00  0.00     0.049 A 
ATOM     34  N   UNL A   1      39.400  29.951  31.857  1.00  0.00    -0.248 NA
ATOM     35  C   UNL A   1      37.269  30.888  31.717  1.00  0.00     0.031 C 
ATOM     36  C   UNL A   1      39.039  28.545  27.621  1.00  0.00     0.029 A 
ATOM     37  N   UNL A   1      40.257  28.419  29.491  1.00  0.00    -0.354 N 
ATOM     38  C   UNL A   1      39.130  30.664  33.018  1.00  0.00     0.074 A 
ATOM     39  C   UNL A   1      37.839  31.291  32.843  1.00  0.00     0.031 C 
ATOM     40  C   UNL A   1      40.139  27.830  27.336  1.00  0.00     0.029 A 
ATOM     41  C   UNL A   1      40.978  27.752  28.527  1.00  0.00     0.049 A 
ATOM     42  H   UNL A   1      40.561  28.509  30.423  1.00  0.00     0.167 HD
ATOM     43  C   UNL A   1      39.872  30.761  34.145  1.00  0.00     0.034 A 
ATOM     44  C   UNL A   1      42.184  27.153  28.595  1.00  0.00     0.034 A 
ATOM     45  C   UNL A   1      41.093  30.037  34.358  1.00  0.00     0.049 A 
ATOM     46  C   UNL A   1      42.928  27.164  29.904  1.00  0.00     0.074 A 
ATOM     47  C   UNL A   1      41.859  29.963  35.507  1.00  0.00     0.029 A 
ATOM     48  N   UNL A   1      41.710  29.239  33.408  1.00  0.00    -0.354 N 
ATOM     49  N   UNL A   1      42.590  27.730  31.038  1.00  0.00    -0.248 NA
ATOM     50  C   UNL A   1      44.199  26.428  29.957  1.00  0.00     0.031 C 
ATOM     51  C   UNL A   1      42.937  29.107  35.254  1.00  0.00     0.029 A 
ATOM     52  C   UNL A   1      42.839  28.652  33.947  1.00  0.00     0.049 A 
ATOM     53  H   UNL A   1      41.391  29.109  32.486  1.00  0.00     0.167 HD
ATOM     54  C   UNL A   1      43.588  27.393  31.946  1.00  0.00     0.074 A 
ATOM     55  C   UNL A   1      44.533  26.555  31.234  1.00  0.00     0.031 C 
ATOM     56  C   UNL A   1      43.723  27.761  33.242  1.00  0.00     0.034 A 
BRANCH  43  57
ATOM     57  C   UNL A   1      39.333  31.614  35.261  1.00  0.00     0.023 A 
ATOM     58  C   UNL A   1      38.386  31.069  36.154  1.00  0.00     0.012 A 
ATOM     59  C   UNL A   1      39.775  32.938  35.446  1.00  0.00     0.148 A 
ATOM     60  C   UNL A   1      37.857  31.841  37.187  1.00  0.00     0.002 A 
ATOM     61  C   UNL A   1      39.276  33.687  36.506  1.00  0.00     0.091 A 
ATOM     62  F   UNL A   1      40.653  33.449  34.572  1.00  0.00    -0.205 F 
ATOM     63  C   UNL A   1      38.308  33.144  37.369  1.00  0.00     0.022 A 
BRANCH  61  64
ATOM     64  S   UNL A   1      39.852  35.350  36.865  1.00  0.00     0.127 S 
ATOM     65  O   UNL A   1      39.372  36.087  35.699  1.00  0.00    -0.237 OA
ATOM     66  O   UNL A   1      39.153  35.659  38.113  1.00  0.00    -0.237 OA
ATOM     67  O   UNL A   1      41.299  35.247  36.995  1.00  0.00    -0.744 OA
ENDBRANCH  61  64
ENDBRANCH  43  57
BRANCH  44  68
ATOM     68  C   UNL A   1      42.720  26.414  27.416  1.00  0.00     0.023 A 
ATOM     69  C   UNL A   1      43.570  27.091  26.519  1.00  0.00     0.012 A 
ATOM     70  C   UNL A   1      42.434  25.054  27.194  1.00  0.00     0.148 A 
ATOM     71  C   UNL A   1      44.102  26.435  25.407  1.00  0.00     0.002 A 
ATOM     72  C   UNL A   1      43.006  24.393  26.111  1.00  0.00     0.091 A 
ATOM     73  F   UNL A   1      41.612  24.427  28.049  1.00  0.00    -0.205 F 
ATOM     74  C   UNL A   1      43.828  25.086  25.209  1.00  0.00     0.022 A 
BRANCH  72  75
ATOM     75  S   UNL A   1      42.813  22.624  25.860  1.00  0.00     0.127 S 
ATOM     76  O   UNL A   1      43.422  22.440  24.545  1.00  0.00    -0.237 OA
ATOM     77  O   UNL A   1      43.580  22.069  26.976  1.00  0.00    -0.237 OA
ATOM     78  O   UNL A   1      41.380  22.378  25.942  1.00  0.00    -0.744 OA
ENDBRANCH  72  75
ENDBRANCH  44  68
BRANCH  56  79
ATOM     79  C   UNL A   1      44.911  27.235  33.999  1.00  0.00     0.023 A 
ATOM     80  C   UNL A   1      46.113  27.967  33.999  1.00  0.00     0.012 A 
ATOM     81  C   UNL A   1      44.803  26.075  34.790  1.00  0.00     0.148 A 
ATOM     82  C   UNL A   1      47.198  27.543  34.763  1.00  0.00     0.002 A 
ATOM     83  C   UNL A   1      45.875  25.681  35.581  1.00  0.00     0.091 A 
ATOM     84  F   UNL A   1      43.656  25.381  34.758  1.00  0.00    -0.205 F 
ATOM     85  C   UNL A   1      47.076  26.410  35.563  1.00  0.00     0.022 A 
BRANCH  83  86
ATOM     86  S   UNL A   1      45.768  24.287  36.711  1.00  0.00     0.127 S 
ATOM     87  O   UNL A   1      47.130  24.226  37.237  1.00  0.00    -0.237 OA
ATOM     88  O   UNL A   1      44.762  24.739  37.673  1.00  0.00    -0.237 OA
ATOM     89  O   UNL A   1      45.353  23.151  35.898  1.00  0.00    -0.744 OA
ENDBRANCH  83  86
ENDBRANCH  56  79
ENDBRANCH  30  31
ENDBRANCH  22  25
ENDBRANCH  20  21
ENDBRANCH  19  20
ENDBRANCH   1  19
TORSDOF 18
ENDMDL
MODEL 2
REMARK VINA RESULT:     -10.9      1.222      8.087
REMARK SMILES COc1ccc([C@@H](C#N)CC(=O)NCCCCNC(=O)c2ccc(-c3c4nc(c(-c5cccc(S(=O)(=O)[O-])c5F)c5ccc([nH]5)c(-c5cccc(S(=O)(=O)[O-])c5F)c5nc(c(-c6cccc(S(=O)(=O)[O-])c6F)c6ccc3[nH]6)C=C5)C=C4)cc2)cc1
REMARK SMILES IDX 15 1 14 2 13 3 11 4 12 5 10 7 7 8 6 9 3 10 4 11 85 12 5 13
REMARK SMILES IDX 84 14 2 15 1 16 8 17 9 18 16 19 17 20 18 21 19 22 20 24
REMARK SMILES IDX 21 25 22 26 83 27 23 28 82 29 24 30 25 31 26 32 76 33 27 34
REMARK SMILES IDX 81 35 75 36 77 37 28 38 80 39 74 40 73 41 29 43 61 44 41 45
REMARK SMILES IDX 60 46 42 47 45 48 59 49 78 50 43 51 44 52 58 54 79 55 46 56
REMARK SMILES IDX 30 57 31 58 39 59 32 60 34 61 40 62 33 63 35 64 36 65 37 66
REMARK SMILES IDX 38 67 62 68 63 69 71 70 64 71 66 72 72 73 65 74 67 75 68 76
REMARK SMILES IDX 69 77 70 78 47 79 48 80 56 81 49 82 51 83 57 84 50 85 52 86
REMARK SMILES IDX 53 87 54 88 55 89
REMARK H PARENT 13 6 18 23 77 42 45 53
REMARK Flexibility Score: inf
ROOT
ATOM      1  C   UNL A   1      31.969  27.575  26.297  1.00  0.00     0.023 C 
ENDROOT
BRANCH   1   2
ATOM      2  C   UNL A   1      30.843  26.806  25.615  1.00  0.00     0.116 C 
BRANCH   2   3
ATOM      3  N   UNL A   1      30.390  27.521  24.436  1.00  0.00    -0.356 N 
ATOM      4  C   UNL A   1      30.493  27.177  23.123  1.00  0.00     0.221 C 
ATOM      5  O   UNL A   1      30.224  28.018  22.264  1.00  0.00    -0.275 OA
ATOM      6  H   UNL A   1      29.944  28.380  24.611  1.00  0.00     0.163 HD
BRANCH   4   7
ATOM      7  C   UNL A   1      30.924  25.789  22.717  1.00  0.00     0.123 C 
BRANCH   7   8
ATOM      8  C   UNL A   1      32.436  25.724  22.501  1.00  0.00     0.132 C 
BRANCH   8   9
ATOM      9  C   UNL A   1      33.125  24.505  23.127  1.00  0.00    -0.030 A 
ATOM     10  C   UNL A   1      34.449  22.230  24.128  1.00  0.00     0.118 A 
ATOM     11  C   UNL A   1      33.183  22.101  23.564  1.00  0.00     0.047 A 
ATOM     12  C   UNL A   1      35.088  23.470  24.132  1.00  0.00     0.047 A 
ATOM     13  C   UNL A   1      32.521  23.229  23.077  1.00  0.00     0.009 A 
ATOM     14  C   UNL A   1      34.436  24.601  23.623  1.00  0.00     0.009 A 
BRANCH  10  15
ATOM     15  O   UNL A   1      35.008  21.086  24.621  1.00  0.00    -0.497 OA
ATOM     16  C   UNL A   1      36.408  21.206  24.869  1.00  0.00     0.278 C 
ENDBRANCH  10  15
ENDBRANCH   8   9
BRANCH   8  17
ATOM     17  C   UNL A   1      32.743  25.535  21.023  1.00  0.00     0.071 C 
ATOM     18  N   UNL A   1      32.997  25.378  19.799  1.00  0.00    -0.198 NA
ENDBRANCH   8  17
ENDBRANCH   7   8
ENDBRANCH   4   7
ENDBRANCH   2   3
ENDBRANCH   1   2
BRANCH   1  19
ATOM     19  C   UNL A   1      33.224  27.787  25.475  1.00  0.00     0.023 C 
BRANCH  19  20
ATOM     20  C   UNL A   1      33.478  29.239  25.106  1.00  0.00     0.116 C 
BRANCH  20  21
ATOM     21  N   UNL A   1      32.778  30.209  25.949  1.00  0.00    -0.352 N 
ATOM     22  C   UNL A   1      33.269  30.923  27.022  1.00  0.00     0.251 C 
ATOM     23  H   UNL A   1      31.835  30.373  25.721  1.00  0.00     0.163 HD
ATOM     24  O   UNL A   1      32.539  31.659  27.678  1.00  0.00    -0.269 OA
BRANCH  22  25
ATOM     25  C   UNL A   1      34.681  30.731  27.404  1.00  0.00     0.039 A 
ATOM     26  C   UNL A   1      35.478  31.850  27.650  1.00  0.00     0.014 A 
ATOM     27  C   UNL A   1      35.149  29.446  27.672  1.00  0.00     0.014 A 
ATOM     28  C   UNL A   1      36.711  31.684  28.286  1.00  0.00     0.010 A 
ATOM     29  C   UNL A   1      36.313  29.297  28.409  1.00  0.00     0.010 A 
ATOM     30  C   UNL A   1      37.106  30.412  28.730  1.00  0.00    -0.014 A 
BRANCH  30  31
ATOM     31  C   UNL A   1      38.335  30.188  29.533  1.00  0.00     0.031 A 
ATOM     32  C   UNL A   1      39.395  29.263  28.997  1.00  0.00     0.074 A 
ATOM     33  C   UNL A   1      38.427  30.670  30.789  1.00  0.00     0.049 A 
ATOM     34  N   UNL A   1      40.414  28.728  29.613  1.00  0.00    -0.248 NA
ATOM     35  C   UNL A   1      39.245  28.828  27.597  1.00  0.00     0.031 C 
ATOM     36  C   UNL A   1      37.426  31.504  31.460  1.00  0.00     0.029 A 
ATOM     37  N   UNL A   1      39.398  30.492  31.743  1.00  0.00    -0.354 N 
ATOM     38  C   UNL A   1      40.974  27.836  28.707  1.00  0.00     0.074 A 
ATOM     39  C   UNL A   1      40.163  27.877  27.511  1.00  0.00     0.031 C 
ATOM     40  C   UNL A   1      37.838  31.771  32.710  1.00  0.00     0.029 A 
ATOM     41  C   UNL A   1      39.111  31.099  32.945  1.00  0.00     0.049 A 
ATOM     42  H   UNL A   1      40.223  29.979  31.583  1.00  0.00     0.167 HD
ATOM     43  C   UNL A   1      42.084  27.075  28.843  1.00  0.00     0.034 A 
ATOM     44  C   UNL A   1      39.795  31.105  34.106  1.00  0.00     0.034 A 
ATOM     45  C   UNL A   1      42.952  27.132  29.986  1.00  0.00     0.049 A 
ATOM     46  C   UNL A   1      41.098  30.355  34.186  1.00  0.00     0.074 A 
ATOM     47  C   UNL A   1      44.167  26.500  30.174  1.00  0.00     0.029 A 
ATOM     48  N   UNL A   1      42.708  27.888  31.122  1.00  0.00    -0.354 N 
ATOM     49  N   UNL A   1      41.685  29.623  33.269  1.00  0.00    -0.248 NA
ATOM     50  C   UNL A   1      41.853  30.456  35.444  1.00  0.00     0.031 C 
ATOM     51  C   UNL A   1      44.666  26.885  31.424  1.00  0.00     0.029 A 
ATOM     52  C   UNL A   1      43.758  27.754  32.011  1.00  0.00     0.049 A 
ATOM     53  H   UNL A   1      41.906  28.437  31.273  1.00  0.00     0.167 HD
ATOM     54  C   UNL A   1      42.888  29.205  33.824  1.00  0.00     0.074 A 
ATOM     55  C   UNL A   1      42.957  29.782  35.152  1.00  0.00     0.031 C 
ATOM     56  C   UNL A   1      43.839  28.399  33.295  1.00  0.00     0.034 A 
BRANCH  43  57
ATOM     57  C   UNL A   1      42.463  26.186  27.691  1.00  0.00     0.023 A 
ATOM     58  C   UNL A   1      43.275  26.700  26.658  1.00  0.00     0.012 A 
ATOM     59  C   UNL A   1      42.045  24.843  27.637  1.00  0.00     0.148 A 
ATOM     60  C   UNL A   1      43.628  25.905  25.569  1.00  0.00     0.002 A 
ATOM     61  C   UNL A   1      42.439  24.043  26.570  1.00  0.00     0.091 A 
ATOM     62  F   UNL A   1      41.250  24.379  28.612  1.00  0.00    -0.205 F 
ATOM     63  C   UNL A   1      43.220  24.576  25.531  1.00  0.00     0.022 A 
BRANCH  61  64
ATOM     64  S   UNL A   1      42.023  22.298  26.471  1.00  0.00     0.127 S 
ATOM     65  O   UNL A   1      40.563  22.344  26.439  1.00  0.00    -0.237 OA
ATOM     66  O   UNL A   1      42.648  21.900  25.208  1.00  0.00    -0.237 OA
ATOM     67  O   UNL A   1      42.610  21.684  27.653  1.00  0.00    -0.744 OA
ENDBRANCH  61  64
ENDBRANCH  43  57
BRANCH  44  68
ATOM     68  C   UNL A   1      39.309  31.919  35.256  1.00  0.00     0.023 A 
ATOM     69  C   UNL A   1      38.434  31.325  36.188  1.00  0.00     0.012 A 
ATOM     70  C   UNL A   1      39.727  33.247  35.461  1.00  0.00     0.148 A 
ATOM     71  C   UNL A   1      37.961  32.048  37.285  1.00  0.00     0.002 A 
ATOM     72  C   UNL A   1      39.292  33.946  36.583  1.00  0.00     0.091 A 
ATOM     73  F   UNL A   1      40.550  33.802  34.559  1.00  0.00    -0.205 F 
ATOM     74  C   UNL A   1      38.397  33.353  37.487  1.00  0.00     0.022 A 
BRANCH  72  75
ATOM     75  S   UNL A   1      39.911  35.584  36.989  1.00  0.00     0.127 S 
ATOM     76  O   UNL A   1      41.347  35.341  37.104  1.00  0.00    -0.237 OA
ATOM     77  O   UNL A   1      39.510  36.364  35.816  1.00  0.00    -0.237 OA
ATOM     78  O   UNL A   1      39.225  35.961  38.217  1.00  0.00    -0.744 OA
ENDBRANCH  72  75
ENDBRANCH  44  68
BRANCH  56  79
ATOM     79  C   UNL A   1      45.060  28.116  34.127  1.00  0.00     0.023 A 
ATOM     80  C   UNL A   1      46.132  29.028  34.115  1.00  0.00     0.012 A 
ATOM     81  C   UNL A   1      45.098  27.007  34.994  1.00  0.00     0.148 A 
ATOM     82  C   UNL A   1      47.235  28.831  34.943  1.00  0.00     0.002 A 
ATOM     83  C   UNL A   1      46.183  26.839  35.846  1.00  0.00     0.091 A 
ATOM     84  F   UNL A   1      44.075  26.141  34.972  1.00  0.00    -0.205 F 
ATOM     85  C   UNL A   1      47.255  27.746  35.817  1.00  0.00     0.022 A 
BRANCH  83  86
ATOM     86  S   UNL A   1      46.243  25.522  37.067  1.00  0.00     0.127 S 
ATOM     87  O   UNL A   1      47.523  25.781  37.722  1.00  0.00    -0.237 OA
ATOM     88  O   UNL A   1      45.067  25.803  37.891  1.00  0.00    -0.237 OA
ATOM     89  O   UNL A   1      46.161  24.279  36.311  1.00  0.00    -0.744 OA
ENDBRANCH  83  86
ENDBRANCH  56  79
ENDBRANCH  30  31
ENDBRANCH  22  25
ENDBRANCH  20  21
ENDBRANCH  19  20
ENDBRANCH   1  19
TORSDOF 18
ENDMDL
MODEL 3
REMARK VINA RESULT:     -10.8      1.801      3.293
REMARK SMILES COc1ccc([C@@H](C#N)CC(=O)NCCCCNC(=O)c2ccc(-c3c4nc(c(-c5cccc(S(=O)(=O)[O-])c5F)c5ccc([nH]5)c(-c5cccc(S(=O)(=O)[O-])c5F)c5nc(c(-c6cccc(S(=O)(=O)[O-])c6F)c6ccc3[nH]6)C=C5)C=C4)cc2)cc1
REMARK SMILES IDX 15 1 14 2 13 3 11 4 12 5 10 7 7 8 6 9 3 10 4 11 85 12 5 13
REMARK SMILES IDX 84 14 2 15 1 16 8 17 9 18 16 19 17 20 18 21 19 22 20 24
REMARK SMILES IDX 21 25 22 26 83 27 23 28 82 29 24 30 25 31 26 32 76 33 27 34
REMARK SMILES IDX 81 35 75 36 77 37 28 38 80 39 74 40 73 41 29 43 61 44 41 45
REMARK SMILES IDX 60 46 42 47 45 48 59 49 78 50 43 51 44 52 58 54 79 55 46 56
REMARK SMILES IDX 30 57 31 58 39 59 32 60 34 61 40 62 33 63 35 64 36 65 37 66
REMARK SMILES IDX 38 67 62 68 63 69 71 70 64 71 66 72 72 73 65 74 67 75 68 76
REMARK SMILES IDX 69 77 70 78 47 79 48 80 56 81 49 82 51 83 57 84 50 85 52 86
REMARK SMILES IDX 53 87 54 88 55 89
REMARK H PARENT 13 6 18 23 77 42 45 53
REMARK Flexibility Score: inf
ROOT
ATOM      1  C   UNL A   1      32.283  27.960  27.154  1.00  0.00     0.023 C 
ENDROOT
BRANCH   1   2
ATOM      2  C   UNL A   1      33.338  27.240  26.321  1.00  0.00     0.116 C 
BRANCH   2   3
ATOM      3  N   UNL A   1      33.032  25.824  26.240  1.00  0.00    -0.356 N 
ATOM      4  C   UNL A   1      32.886  25.031  25.144  1.00  0.00     0.221 C 
ATOM      5  O   UNL A   1      32.427  23.897  25.285  1.00  0.00    -0.275 OA
ATOM      6  H   UNL A   1      32.911  25.370  27.106  1.00  0.00     0.163 HD
BRANCH   4   7
ATOM      7  C   UNL A   1      33.283  25.524  23.774  1.00  0.00     0.123 C 
BRANCH   7   8
ATOM      8  C   UNL A   1      32.103  25.461  22.803  1.00  0.00     0.132 C 
BRANCH   8   9
ATOM      9  C   UNL A   1      31.157  26.667  22.860  1.00  0.00    -0.030 A 
ATOM     10  C   UNL A   1      29.453  28.893  23.126  1.00  0.00     0.118 A 
ATOM     11  C   UNL A   1      28.973  27.617  23.406  1.00  0.00     0.047 A 
ATOM     12  C   UNL A   1      30.793  29.074  22.783  1.00  0.00     0.047 A 
ATOM     13  C   UNL A   1      29.812  26.512  23.266  1.00  0.00     0.009 A 
ATOM     14  C   UNL A   1      31.646  27.969  22.662  1.00  0.00     0.009 A 
BRANCH  10  15
ATOM     15  O   UNL A   1      28.555  29.915  23.245  1.00  0.00    -0.497 OA
ATOM     16  C   UNL A   1      29.154  31.144  23.654  1.00  0.00     0.278 C 
ENDBRANCH  10  15
ENDBRANCH   8   9
BRANCH   8  17
ATOM     17  C   UNL A   1      32.605  25.522  21.369  1.00  0.00     0.071 C 
ATOM     18  N   UNL A   1      33.021  25.572  20.181  1.00  0.00    -0.198 NA
ENDBRANCH   8  17
ENDBRANCH   7   8
ENDBRANCH   4   7
ENDBRANCH   2   3
ENDBRANCH   1   2
BRANCH   1  19
ATOM     19  C   UNL A   1      31.797  29.288  26.610  1.00  0.00     0.023 C 
BRANCH  19  20
ATOM     20  C   UNL A   1      32.916  30.256  26.265  1.00  0.00     0.116 C 
BRANCH  20  21
ATOM     21  N   UNL A   1      32.782  31.579  26.876  1.00  0.00    -0.352 N 
ATOM     22  C   UNL A   1      33.687  32.252  27.670  1.00  0.00     0.251 C 
ATOM     23  H   UNL A   1      31.936  32.050  26.698  1.00  0.00     0.163 HD
ATOM     24  O   UNL A   1      33.407  33.337  28.168  1.00  0.00    -0.269 OA
BRANCH  22  25
ATOM     25  C   UNL A   1      34.979  31.603  27.962  1.00  0.00     0.039 A 
ATOM     26  C   UNL A   1      36.115  32.396  28.138  1.00  0.00     0.014 A 
ATOM     27  C   UNL A   1      35.016  30.233  28.220  1.00  0.00     0.014 A 
ATOM     28  C   UNL A   1      37.264  31.829  28.695  1.00  0.00     0.010 A 
ATOM     29  C   UNL A   1      36.113  29.705  28.881  1.00  0.00     0.010 A 
ATOM     30  C   UNL A   1      37.248  30.495  29.132  1.00  0.00    -0.014 A 
BRANCH  30  31
ATOM     31  C   UNL A   1      38.386  29.874  29.856  1.00  0.00     0.031 A 
ATOM     32  C   UNL A   1      38.737  30.381  31.229  1.00  0.00     0.074 A 
ATOM     33  C   UNL A   1      39.191  28.991  29.232  1.00  0.00     0.049 A 
ATOM     34  N   UNL A   1      39.815  30.173  31.937  1.00  0.00    -0.248 NA
ATOM     35  C   UNL A   1      37.773  31.300  31.860  1.00  0.00     0.031 C 
ATOM     36  C   UNL A   1      39.013  28.487  27.867  1.00  0.00     0.029 A 
ATOM     37  N   UNL A   1      40.350  28.388  29.655  1.00  0.00    -0.354 N 
ATOM     38  C   UNL A   1      39.697  30.997  33.049  1.00  0.00     0.074 A 
ATOM     39  C   UNL A   1      38.459  31.730  32.908  1.00  0.00     0.031 C 
ATOM     40  C   UNL A   1      40.019  27.649  27.570  1.00  0.00     0.029 A 
ATOM     41  C   UNL A   1      40.934  27.581  28.704  1.00  0.00     0.049 A 
ATOM     42  H   UNL A   1      40.729  28.519  30.554  1.00  0.00     0.167 HD
ATOM     43  C   UNL A   1      40.526  31.109  34.112  1.00  0.00     0.034 A 
ATOM     44  C   UNL A   1      42.082  26.876  28.743  1.00  0.00     0.034 A 
ATOM     45  C   UNL A   1      41.689  30.288  34.304  1.00  0.00     0.049 A 
ATOM     46  C   UNL A   1      42.919  26.916  29.993  1.00  0.00     0.074 A 
ATOM     47  C   UNL A   1      42.528  30.229  35.400  1.00  0.00     0.029 A 
ATOM     48  N   UNL A   1      42.158  29.363  33.384  1.00  0.00    -0.354 N 
ATOM     49  N   UNL A   1      42.719  27.598  31.096  1.00  0.00    -0.248 NA
ATOM     50  C   UNL A   1      44.118  26.067  30.023  1.00  0.00     0.031 C 
ATOM     51  C   UNL A   1      43.501  29.255  35.149  1.00  0.00     0.029 A 
ATOM     52  C   UNL A   1      43.266  28.713  33.894  1.00  0.00     0.049 A 
ATOM     53  H   UNL A   1      41.762  29.194  32.500  1.00  0.00     0.167 HD
ATOM     54  C   UNL A   1      43.746  27.237  31.960  1.00  0.00     0.074 A 
ATOM     55  C   UNL A   1      44.556  26.259  31.260  1.00  0.00     0.031 C 
ATOM     56  C   UNL A   1      44.010  27.688  33.209  1.00  0.00     0.034 A 
BRANCH  43  57
ATOM     57  C   UNL A   1      40.151  32.093  35.186  1.00  0.00     0.023 A 
ATOM     58  C   UNL A   1      40.763  33.364  35.204  1.00  0.00     0.012 A 
ATOM     59  C   UNL A   1      39.183  31.779  36.158  1.00  0.00     0.148 A 
ATOM     60  C   UNL A   1      40.448  34.290  36.196  1.00  0.00     0.002 A 
ATOM     61  C   UNL A   1      38.841  32.725  37.118  1.00  0.00     0.091 A 
ATOM     62  F   UNL A   1      38.632  30.556  36.144  1.00  0.00    -0.205 F 
ATOM     63  C   UNL A   1      39.482  33.975  37.146  1.00  0.00     0.022 A 
BRANCH  61  64
ATOM     64  S   UNL A   1      37.553  32.437  38.337  1.00  0.00     0.127 S 
ATOM     65  O   UNL A   1      38.000  33.281  39.444  1.00  0.00    -0.237 OA
ATOM     66  O   UNL A   1      36.357  32.921  37.647  1.00  0.00    -0.237 OA
ATOM     67  O   UNL A   1      37.564  31.004  38.593  1.00  0.00    -0.744 OA
ENDBRANCH  61  64
ENDBRANCH  43  57
BRANCH  44  68
ATOM     68  C   UNL A   1      42.459  26.000  27.597  1.00  0.00     0.023 A 
ATOM     69  C   UNL A   1      43.311  26.515  26.599  1.00  0.00     0.012 A 
ATOM     70  C   UNL A   1      42.024  24.665  27.501  1.00  0.00     0.148 A 
ATOM     71  C   UNL A   1      43.697  25.728  25.513  1.00  0.00     0.002 A 
ATOM     72  C   UNL A   1      42.451  23.870  26.443  1.00  0.00     0.091 A 
ATOM     73  F   UNL A   1      41.203  24.194  28.451  1.00  0.00    -0.205 F 
ATOM     74  C   UNL A   1      43.276  24.404  25.440  1.00  0.00     0.022 A 
BRANCH  72  75
ATOM     75  S   UNL A   1      42.064  22.117  26.346  1.00  0.00     0.127 S 
ATOM     76  O   UNL A   1      42.845  21.702  25.183  1.00  0.00    -0.237 OA
ATOM     77  O   UNL A   1      42.560  21.621  27.631  1.00  0.00    -0.237 OA
ATOM     78  O   UNL A   1      40.617  22.051  26.201  1.00  0.00    -0.744 OA
ENDBRANCH  72  75
ENDBRANCH  44  68
BRANCH  56  79
ATOM     79  C   UNL A   1      45.198  27.110  33.927  1.00  0.00     0.023 A 
ATOM     80  C   UNL A   1      46.443  27.761  33.843  1.00  0.00     0.012 A 
ATOM     81  C   UNL A   1      45.055  25.986  34.764  1.00  0.00     0.148 A 
ATOM     82  C   UNL A   1      47.536  27.291  34.569  1.00  0.00     0.002 A 
ATOM     83  C   UNL A   1      46.138  25.548  35.516  1.00  0.00     0.091 A 
ATOM     84  F   UNL A   1      43.865  25.369  34.811  1.00  0.00    -0.205 F 
ATOM     85  C   UNL A   1      47.381  26.195  35.414  1.00  0.00     0.022 A 
BRANCH  83  86
ATOM     86  S   UNL A   1      45.998  24.202  36.699  1.00  0.00     0.127 S 
ATOM     87  O   UNL A   1      47.385  24.036  37.126  1.00  0.00    -0.237 OA
ATOM     88  O   UNL A   1      45.110  24.768  37.715  1.00  0.00    -0.237 OA
ATOM     89  O   UNL A   1      45.427  23.084  35.959  1.00  0.00    -0.744 OA
ENDBRANCH  83  86
ENDBRANCH  56  79
ENDBRANCH  30  31
ENDBRANCH  22  25
ENDBRANCH  20  21
ENDBRANCH  19  20
ENDBRANCH   1  19
TORSDOF 18
ENDMDL
