MODEL 1
REMARK VINA RESULT:     -12.3      0.000      0.000
REMARK SMILES C[N@H+]([C@H]1CCC[C@]([NH3+])(C(=O)NCCCCNC(=O)c2ccc(-c3c4nc(c(-c5cccc(S(=O)(=O)[O-])c5F)c5ccc([nH]5)c(-c5cccc(S(=O)(=O)[O-])c5F)c5nc(c(-c6cccc(S(=O)(=O)[O-])c6F)c6ccc3[nH]6)C=C5)C=C4)cc2)C1)[C@H]1CC[C@H](C)CC1
REMARK SMILES IDX 14 1 13 2 12 3 11 4 9 5 10 6 7 8 3 9 4 10 82 11 5 12 6 13
REMARK SMILES IDX 2 14 1 15 83 17 87 18 86 19 85 20 88 21 84 22 89 23 8 24
REMARK SMILES IDX 15 28 16 29 17 30 18 32 19 33 20 34 81 35 21 36 80 37 22 38
REMARK SMILES IDX 23 39 24 40 74 41 25 42 79 43 73 44 75 45 26 46 78 47 72 48
REMARK SMILES IDX 71 49 27 51 59 52 39 53 58 54 40 55 43 56 57 57 76 58 41 59
REMARK SMILES IDX 42 60 56 62 77 63 44 64 28 65 29 66 37 67 30 68 32 69 38 70
REMARK SMILES IDX 31 71 33 72 34 73 35 74 36 75 60 76 61 77 69 78 62 79 64 80
REMARK SMILES IDX 70 81 63 82 65 83 66 84 67 85 68 86 45 87 46 88 54 89 47 90
REMARK SMILES IDX 49 91 55 92 48 93 50 94 51 95 52 96 53 97
REMARK H PARENT 11 7 2 16 8 25 8 26 8 27 16 31 75 50 43 61
REMARK Flexibility Score: inf
ROOT
ATOM      1  C   UNL A   1      31.401  30.849  26.254  1.00  0.00     0.023 C 
ENDROOT
BRANCH   1   2
ATOM      2  C   UNL A   1      31.655  29.991  25.023  1.00  0.00     0.023 C 
BRANCH   2   3
ATOM      3  C   UNL A   1      33.022  29.313  24.990  1.00  0.00     0.116 C 
BRANCH   3   4
ATOM      4  N   UNL A   1      33.582  29.151  23.653  1.00  0.00    -0.351 N 
ATOM      5  C   UNL A   1      33.707  28.003  22.887  1.00  0.00     0.281 C 
ATOM      6  O   UNL A   1      34.165  28.094  21.746  1.00  0.00    -0.268 OA
ATOM      7  H   UNL A   1      33.920  29.976  23.235  1.00  0.00     0.163 HD
BRANCH   5   8
ATOM      8  C   UNL A   1      33.188  26.648  23.485  1.00  0.00     0.179 C 
ATOM      9  C   UNL A   1      32.703  24.106  23.052  1.00  0.00     0.190 C 
ATOM     10  C   UNL A   1      31.201  24.378  22.895  1.00  0.00     0.065 C 
ATOM     11  C   UNL A   1      33.481  25.403  22.623  1.00  0.00     0.144 C 
ATOM     12  C   UNL A   1      30.720  25.595  23.668  1.00  0.00     0.013 C 
ATOM     13  C   UNL A   1      31.627  26.818  23.528  1.00  0.00     0.079 C 
BRANCH   9  14
ATOM     14  N   UNL A   1      33.104  23.433  24.331  1.00  0.00    -0.332 N 
ATOM     15  C   UNL A   1      32.083  22.587  24.977  1.00  0.00     0.333 C 
ATOM     16  H   UNL A   1      33.272  24.263  24.900  1.00  0.00     0.348 HD
BRANCH  14  17
ATOM     17  C   UNL A   1      34.330  22.578  24.236  1.00  0.00     0.184 C 
ATOM     18  C   UNL A   1      37.780  19.970  24.767  1.00  0.00     0.007 C 
ATOM     19  C   UNL A   1      36.711  20.999  25.127  1.00  0.00    -0.014 C 
ATOM     20  C   UNL A   1      35.329  20.369  24.980  1.00  0.00     0.009 C 
ATOM     21  C   UNL A   1      36.841  22.258  24.259  1.00  0.00     0.009 C 
ATOM     22  C   UNL A   1      34.227  21.386  25.229  1.00  0.00     0.065 C 
ATOM     23  C   UNL A   1      35.694  23.257  24.470  1.00  0.00     0.065 C 
ENDBRANCH  14  17
ENDBRANCH   9  14
BRANCH   8  24
ATOM     24  N   UNL A   1      34.008  26.478  24.703  1.00  0.00    -0.345 N 
ATOM     25  H   UNL A   1      34.988  26.648  24.478  1.00  0.00     0.345 HD
ATOM     26  H   UNL A   1      33.899  25.528  25.056  1.00  0.00     0.345 HD
ATOM     27  H   UNL A   1      33.701  27.143  25.413  1.00  0.00     0.345 HD
ENDBRANCH   8  24
ENDBRANCH   5   8
ENDBRANCH   3   4
ENDBRANCH   2   3
ENDBRANCH   1   2
BRANCH   1  28
ATOM     28  C   UNL A   1      32.646  31.222  27.045  1.00  0.00     0.116 C 
BRANCH  28  29
ATOM     29  N   UNL A   1      32.745  32.642  27.361  1.00  0.00    -0.352 N 
ATOM     30  C   UNL A   1      33.782  33.305  27.975  1.00  0.00     0.251 C 
ATOM     31  H   UNL A   1      31.973  33.195  27.103  1.00  0.00     0.163 HD
ATOM     32  O   UNL A   1      33.682  34.498  28.248  1.00  0.00    -0.269 OA
BRANCH  30  33
ATOM     33  C   UNL A   1      34.996  32.549  28.342  1.00  0.00     0.039 A 
ATOM     34  C   UNL A   1      36.236  33.182  28.256  1.00  0.00     0.014 A 
ATOM     35  C   UNL A   1      34.896  31.252  28.855  1.00  0.00     0.014 A 
ATOM     36  C   UNL A   1      37.368  32.543  28.762  1.00  0.00     0.010 A 
ATOM     37  C   UNL A   1      36.008  30.656  29.439  1.00  0.00     0.010 A 
ATOM     38  C   UNL A   1      37.256  31.295  29.400  1.00  0.00    -0.014 A 
BRANCH  38  39
ATOM     39  C   UNL A   1      38.427  30.673  30.069  1.00  0.00     0.031 A 
ATOM     40  C   UNL A   1      38.822  31.082  31.462  1.00  0.00     0.074 A 
ATOM     41  C   UNL A   1      39.185  29.792  29.386  1.00  0.00     0.049 A 
ATOM     42  N   UNL A   1      39.805  30.639  32.200  1.00  0.00    -0.248 NA
ATOM     43  C   UNL A   1      38.027  32.146  32.098  1.00  0.00     0.031 C 
ATOM     44  C   UNL A   1      38.973  29.395  27.991  1.00  0.00     0.029 A 
ATOM     45  N   UNL A   1      40.299  29.085  29.764  1.00  0.00    -0.354 N 
ATOM     46  C   UNL A   1      39.768  31.386  33.371  1.00  0.00     0.074 A 
ATOM     47  C   UNL A   1      38.691  32.340  33.229  1.00  0.00     0.031 C 
ATOM     48  C   UNL A   1      39.913  28.504  27.638  1.00  0.00     0.029 A 
ATOM     49  C   UNL A   1      40.808  28.282  28.770  1.00  0.00     0.049 A 
ATOM     50  H   UNL A   1      40.696  29.146  30.663  1.00  0.00     0.167 HD
ATOM     51  C   UNL A   1      40.538  31.267  34.479  1.00  0.00     0.034 A 
ATOM     52  C   UNL A   1      41.872  27.456  28.770  1.00  0.00     0.034 A 
ATOM     53  C   UNL A   1      41.583  30.290  34.632  1.00  0.00     0.049 A 
ATOM     54  C   UNL A   1      42.670  27.296  30.035  1.00  0.00     0.074 A 
ATOM     55  C   UNL A   1      42.352  30.021  35.751  1.00  0.00     0.029 A 
ATOM     56  N   UNL A   1      42.013  29.428  33.636  1.00  0.00    -0.354 N 
ATOM     57  N   UNL A   1      42.500  27.877  31.198  1.00  0.00    -0.248 NA
ATOM     58  C   UNL A   1      43.780  26.333  30.001  1.00  0.00     0.031 C 
ATOM     59  C   UNL A   1      43.264  29.012  35.422  1.00  0.00     0.029 A 
ATOM     60  C   UNL A   1      43.045  28.634  34.107  1.00  0.00     0.049 A 
ATOM     61  H   UNL A   1      41.640  29.386  32.726  1.00  0.00     0.167 HD
ATOM     62  C   UNL A   1      43.461  27.332  32.040  1.00  0.00     0.074 A 
ATOM     63  C   UNL A   1      44.188  26.349  31.262  1.00  0.00     0.031 C 
ATOM     64  C   UNL A   1      43.733  27.632  33.335  1.00  0.00     0.034 A 
BRANCH  51  65
ATOM     65  C   UNL A   1      40.235  32.178  35.640  1.00  0.00     0.023 A 
ATOM     66  C   UNL A   1      40.989  33.357  35.813  1.00  0.00     0.012 A 
ATOM     67  C   UNL A   1      39.173  31.903  36.524  1.00  0.00     0.148 A 
ATOM     68  C   UNL A   1      40.716  34.230  36.866  1.00  0.00     0.002 A 
ATOM     69  C   UNL A   1      38.877  32.800  37.544  1.00  0.00     0.091 A 
ATOM     70  F   UNL A   1      38.480  30.767  36.358  1.00  0.00    -0.205 F 
ATOM     71  C   UNL A   1      39.654  33.957  37.723  1.00  0.00     0.022 A 
BRANCH  69  72
ATOM     72  S   UNL A   1      37.481  32.583  38.652  1.00  0.00     0.127 S 
ATOM     73  O   UNL A   1      37.539  31.146  38.921  1.00  0.00    -0.237 OA
ATOM     74  O   UNL A   1      37.853  33.430  39.786  1.00  0.00    -0.237 OA
ATOM     75  O   UNL A   1      36.309  33.035  37.916  1.00  0.00    -0.744 OA
ENDBRANCH  69  72
ENDBRANCH  51  65
BRANCH  52  76
ATOM     76  C   UNL A   1      42.195  26.658  27.554  1.00  0.00     0.023 A 
ATOM     77  C   UNL A   1      42.843  27.281  26.469  1.00  0.00     0.012 A 
ATOM     78  C   UNL A   1      41.892  25.285  27.475  1.00  0.00     0.148 A 
ATOM     79  C   UNL A   1      43.153  26.560  25.316  1.00  0.00     0.002 A 
ATOM     80  C   UNL A   1      42.256  24.560  26.346  1.00  0.00     0.091 A 
ATOM     81  F   UNL A   1      41.266  24.712  28.513  1.00  0.00    -0.205 F 
ATOM     82  C   UNL A   1      42.869  25.199  25.258  1.00  0.00     0.022 A 
BRANCH  80  83
ATOM     83  S   UNL A   1      42.053  22.778  26.242  1.00  0.00     0.127 S 
ATOM     84  O   UNL A   1      42.763  22.326  27.435  1.00  0.00    -0.237 OA
ATOM     85  O   UNL A   1      40.598  22.635  26.300  1.00  0.00    -0.237 OA
ATOM     86  O   UNL A   1      42.642  22.391  24.968  1.00  0.00    -0.744 OA
ENDBRANCH  80  83
ENDBRANCH  52  76
BRANCH  64  87
ATOM     87  C   UNL A   1      44.854  26.873  33.999  1.00  0.00     0.023 A 
ATOM     88  C   UNL A   1      46.179  27.336  33.879  1.00  0.00     0.012 A 
ATOM     89  C   UNL A   1      44.590  25.729  34.779  1.00  0.00     0.148 A 
ATOM     90  C   UNL A   1      47.230  26.648  34.483  1.00  0.00     0.002 A 
ATOM     91  C   UNL A   1      45.637  25.077  35.421  1.00  0.00     0.091 A 
ATOM     92  F   UNL A   1      43.326  25.291  34.868  1.00  0.00    -0.205 F 
ATOM     93  C   UNL A   1      46.959  25.526  35.262  1.00  0.00     0.022 A 
BRANCH  91  94
ATOM     94  S   UNL A   1      45.365  23.682  36.519  1.00  0.00     0.127 S 
ATOM     95  O   UNL A   1      46.733  23.300  36.861  1.00  0.00    -0.237 OA
ATOM     96  O   UNL A   1      44.609  24.289  37.615  1.00  0.00    -0.237 OA
ATOM     97  O   UNL A   1      44.614  22.705  35.741  1.00  0.00    -0.744 OA
ENDBRANCH  91  94
ENDBRANCH  64  87
ENDBRANCH  38  39
ENDBRANCH  30  33
ENDBRANCH  28  29
ENDBRANCH   1  28
TORSDOF 17
ENDMDL
MODEL 2
REMARK VINA RESULT:     -12.3      1.615      2.156
REMARK SMILES C[N@H+]([C@H]1CCC[C@]([NH3+])(C(=O)NCCCCNC(=O)c2ccc(-c3c4nc(c(-c5cccc(S(=O)(=O)[O-])c5F)c5ccc([nH]5)c(-c5cccc(S(=O)(=O)[O-])c5F)c5nc(c(-c6cccc(S(=O)(=O)[O-])c6F)c6ccc3[nH]6)C=C5)C=C4)cc2)C1)[C@H]1CC[C@H](C)CC1
REMARK SMILES IDX 14 1 13 2 12 3 11 4 9 5 10 6 7 8 3 9 4 10 82 11 5 12 6 13
REMARK SMILES IDX 2 14 1 15 83 17 87 18 86 19 85 20 88 21 84 22 89 23 8 24
REMARK SMILES IDX 15 28 16 29 17 30 18 32 19 33 20 34 81 35 21 36 80 37 22 38
REMARK SMILES IDX 23 39 24 40 74 41 25 42 79 43 73 44 75 45 26 46 78 47 72 48
REMARK SMILES IDX 71 49 27 51 59 52 39 53 58 54 40 55 43 56 57 57 76 58 41 59
REMARK SMILES IDX 42 60 56 62 77 63 44 64 28 65 29 66 37 67 30 68 32 69 38 70
REMARK SMILES IDX 31 71 33 72 34 73 35 74 36 75 60 76 61 77 69 78 62 79 64 80
REMARK SMILES IDX 70 81 63 82 65 83 66 84 67 85 68 86 45 87 46 88 54 89 47 90
REMARK SMILES IDX 49 91 55 92 48 93 50 94 51 95 52 96 53 97
REMARK H PARENT 11 7 2 16 8 25 8 26 8 27 16 31 75 50 43 61
REMARK Flexibility Score: inf
ROOT
ATOM      1  C   UNL A   1      31.301  29.336  25.527  1.00  0.00     0.023 C 
ENDROOT
BRANCH   1   2
ATOM      2  C   UNL A   1      31.476  29.285  24.016  1.00  0.00     0.023 C 
BRANCH   2   3
ATOM      3  C   UNL A   1      31.131  27.941  23.380  1.00  0.00     0.116 C 
BRANCH   3   4
ATOM      4  N   UNL A   1      31.954  27.591  22.227  1.00  0.00    -0.351 N 
ATOM      5  C   UNL A   1      32.981  26.666  22.130  1.00  0.00     0.281 C 
ATOM      6  O   UNL A   1      33.517  26.482  21.035  1.00  0.00    -0.268 OA
ATOM      7  H   UNL A   1      31.749  28.083  21.398  1.00  0.00     0.163 HD
BRANCH   5   8
ATOM      8  C   UNL A   1      33.363  25.839  23.409  1.00  0.00     0.179 C 
ATOM      9  C   UNL A   1      32.495  24.454  25.460  1.00  0.00     0.190 C 
ATOM     10  C   UNL A   1      32.720  25.640  26.407  1.00  0.00     0.065 C 
ATOM     11  C   UNL A   1      32.207  25.025  24.024  1.00  0.00     0.144 C 
ATOM     12  C   UNL A   1      33.823  26.579  25.953  1.00  0.00     0.013 C 
ATOM     13  C   UNL A   1      33.768  26.929  24.465  1.00  0.00     0.079 C 
BRANCH   9  14
ATOM     14  N   UNL A   1      33.482  23.332  25.589  1.00  0.00    -0.332 N 
ATOM     15  C   UNL A   1      34.078  23.131  26.923  1.00  0.00     0.333 C 
ATOM     16  H   UNL A   1      34.193  23.672  24.942  1.00  0.00     0.348 HD
BRANCH  14  17
ATOM     17  C   UNL A   1      32.966  21.988  25.176  1.00  0.00     0.184 C 
ATOM     18  C   UNL A   1      32.250  17.838  24.058  1.00  0.00     0.007 C 
ATOM     19  C   UNL A   1      33.006  19.155  24.213  1.00  0.00    -0.014 C 
ATOM     20  C   UNL A   1      33.111  19.509  25.693  1.00  0.00     0.009 C 
ATOM     21  C   UNL A   1      32.328  20.279  23.420  1.00  0.00     0.009 C 
ATOM     22  C   UNL A   1      33.767  20.866  25.893  1.00  0.00     0.065 C 
ATOM     23  C   UNL A   1      32.956  21.658  23.670  1.00  0.00     0.065 C 
ENDBRANCH  14  17
ENDBRANCH   9  14
BRANCH   8  24
ATOM     24  N   UNL A   1      34.314  24.834  22.891  1.00  0.00    -0.345 N 
ATOM     25  H   UNL A   1      34.372  24.912  21.876  1.00  0.00     0.345 HD
ATOM     26  H   UNL A   1      33.991  23.900  23.143  1.00  0.00     0.345 HD
ATOM     27  H   UNL A   1      35.235  24.997  23.299  1.00  0.00     0.345 HD
ENDBRANCH   8  24
ENDBRANCH   5   8
ENDBRANCH   3   4
ENDBRANCH   2   3
ENDBRANCH   1   2
BRANCH   1  28
ATOM     28  C   UNL A   1      32.476  29.932  26.289  1.00  0.00     0.116 C 
BRANCH  28  29
ATOM     29  N   UNL A   1      32.306  31.338  26.635  1.00  0.00    -0.352 N 
ATOM     30  C   UNL A   1      33.171  32.153  27.327  1.00  0.00     0.251 C 
ATOM     31  H   UNL A   1      31.466  31.756  26.337  1.00  0.00     0.163 HD
ATOM     32  O   UNL A   1      32.848  33.303  27.614  1.00  0.00    -0.269 OA
BRANCH  30  33
ATOM     33  C   UNL A   1      34.474  31.608  27.760  1.00  0.00     0.039 A 
ATOM     34  C   UNL A   1      35.540  32.486  27.955  1.00  0.00     0.014 A 
ATOM     35  C   UNL A   1      34.610  30.249  28.058  1.00  0.00     0.014 A 
ATOM     36  C   UNL A   1      36.721  32.013  28.528  1.00  0.00     0.010 A 
ATOM     37  C   UNL A   1      35.753  29.799  28.709  1.00  0.00     0.010 A 
ATOM     38  C   UNL A   1      36.820  30.676  28.954  1.00  0.00    -0.014 A 
BRANCH  38  39
ATOM     39  C   UNL A   1      38.015  30.199  29.695  1.00  0.00     0.031 A 
ATOM     40  C   UNL A   1      38.290  30.673  31.096  1.00  0.00     0.074 A 
ATOM     41  C   UNL A   1      38.901  29.396  29.070  1.00  0.00     0.049 A 
ATOM     42  N   UNL A   1      39.276  30.354  31.892  1.00  0.00    -0.248 NA
ATOM     43  C   UNL A   1      37.351  31.653  31.667  1.00  0.00     0.031 C 
ATOM     44  C   UNL A   1      38.806  28.954  27.676  1.00  0.00     0.029 A 
ATOM     45  N   UNL A   1      40.063  28.822  29.520  1.00  0.00    -0.354 N 
ATOM     46  C   UNL A   1      39.096  31.112  33.043  1.00  0.00     0.074 A 
ATOM     47  C   UNL A   1      37.930  31.938  32.825  1.00  0.00     0.031 C 
ATOM     48  C   UNL A   1      39.855  28.166  27.391  1.00  0.00     0.029 A 
ATOM     49  C   UNL A   1      40.709  28.064  28.571  1.00  0.00     0.049 A 
ATOM     50  H   UNL A   1      40.404  28.943  30.436  1.00  0.00     0.167 HD
ATOM     51  C   UNL A   1      39.816  31.097  34.190  1.00  0.00     0.034 A 
ATOM     52  C   UNL A   1      41.855  27.361  28.643  1.00  0.00     0.034 A 
ATOM     53  C   UNL A   1      40.951  30.245  34.418  1.00  0.00     0.049 A 
ATOM     54  C   UNL A   1      42.599  27.312  29.950  1.00  0.00     0.074 A 
ATOM     55  C   UNL A   1      41.686  30.082  35.579  1.00  0.00     0.029 A 
ATOM     56  N   UNL A   1      41.525  29.419  33.464  1.00  0.00    -0.354 N 
ATOM     57  N   UNL A   1      42.305  27.890  31.089  1.00  0.00    -0.248 NA
ATOM     58  C   UNL A   1      43.808  26.477  29.993  1.00  0.00     0.031 C 
ATOM     59  C   UNL A   1      42.719  29.175  35.320  1.00  0.00     0.029 A 
ATOM     60  C   UNL A   1      42.612  28.752  34.004  1.00  0.00     0.049 A 
ATOM     61  H   UNL A   1      41.207  29.320  32.537  1.00  0.00     0.167 HD
ATOM     62  C   UNL A   1      43.275  27.469  31.991  1.00  0.00     0.074 A 
ATOM     63  C   UNL A   1      44.145  26.559  31.272  1.00  0.00     0.031 C 
ATOM     64  C   UNL A   1      43.445  27.819  33.290  1.00  0.00     0.034 A 
BRANCH  51  65
ATOM     65  C   UNL A   1      39.354  31.990  35.314  1.00  0.00     0.023 A 
ATOM     66  C   UNL A   1      38.461  31.484  36.281  1.00  0.00     0.012 A 
ATOM     67  C   UNL A   1      39.843  33.304  35.446  1.00  0.00     0.148 A 
ATOM     68  C   UNL A   1      38.035  32.281  37.343  1.00  0.00     0.002 A 
ATOM     69  C   UNL A   1      39.449  34.078  36.533  1.00  0.00     0.091 A 
ATOM     70  F   UNL A   1      40.674  33.777  34.506  1.00  0.00    -0.205 F 
ATOM     71  C   UNL A   1      38.537  33.572  37.474  1.00  0.00     0.022 A 
BRANCH  69  72
ATOM     72  S   UNL A   1      40.098  35.724  36.838  1.00  0.00     0.127 S 
ATOM     73  O   UNL A   1      39.589  36.461  35.681  1.00  0.00    -0.237 OA
ATOM     74  O   UNL A   1      39.466  36.074  38.110  1.00  0.00    -0.237 OA
ATOM     75  O   UNL A   1      41.546  35.580  36.900  1.00  0.00    -0.744 OA
ENDBRANCH  69  72
ENDBRANCH  51  65
BRANCH  52  76
ATOM     76  C   UNL A   1      42.327  26.582  27.463  1.00  0.00     0.023 A 
ATOM     77  C   UNL A   1      43.095  27.226  26.472  1.00  0.00     0.012 A 
ATOM     78  C   UNL A   1      42.047  25.209  27.330  1.00  0.00     0.148 A 
ATOM     79  C   UNL A   1      43.545  26.524  25.354  1.00  0.00     0.002 A 
ATOM     80  C   UNL A   1      42.547  24.503  26.242  1.00  0.00     0.091 A 
ATOM     81  F   UNL A   1      41.305  24.617  28.277  1.00  0.00    -0.205 F 
ATOM     82  C   UNL A   1      43.281  25.162  25.244  1.00  0.00     0.022 A 
BRANCH  80  83
ATOM     83  S   UNL A   1      42.373  22.721  26.090  1.00  0.00     0.127 S 
ATOM     84  O   UNL A   1      42.930  22.479  24.762  1.00  0.00    -0.237 OA
ATOM     85  O   UNL A   1      43.196  22.241  27.201  1.00  0.00    -0.237 OA
ATOM     86  O   UNL A   1      40.949  22.454  26.240  1.00  0.00    -0.744 OA
ENDBRANCH  80  83
ENDBRANCH  52  76
BRANCH  64  87
ATOM     87  C   UNL A   1      44.605  27.200  34.027  1.00  0.00     0.023 A 
ATOM     88  C   UNL A   1      45.869  27.822  33.988  1.00  0.00     0.012 A 
ATOM     89  C   UNL A   1      44.435  26.030  34.793  1.00  0.00     0.148 A 
ATOM     90  C   UNL A   1      46.956  27.264  34.660  1.00  0.00     0.002 A 
ATOM     91  C   UNL A   1      45.510  25.508  35.503  1.00  0.00     0.091 A 
ATOM     92  F   UNL A   1      43.230  25.441  34.805  1.00  0.00    -0.205 F 
ATOM     93  C   UNL A   1      46.775  26.115  35.425  1.00  0.00     0.022 A 
BRANCH  91  94
ATOM     94  S   UNL A   1      45.342  24.087  36.588  1.00  0.00     0.127 S 
ATOM     95  O   UNL A   1      44.385  24.578  37.578  1.00  0.00    -0.237 OA
ATOM     96  O   UNL A   1      44.813  23.064  35.684  1.00  0.00    -0.237 OA
ATOM     97  O   UNL A   1      46.681  23.810  37.090  1.00  0.00    -0.744 OA
ENDBRANCH  91  94
ENDBRANCH  64  87
ENDBRANCH  38  39
ENDBRANCH  30  33
ENDBRANCH  28  29
ENDBRANCH   1  28
TORSDOF 17
ENDMDL
MODEL 3
REMARK VINA RESULT:     -12.3      4.988     10.493
REMARK SMILES C[N@H+]([C@H]1CCC[C@]([NH3+])(C(=O)NCCCCNC(=O)c2ccc(-c3c4nc(c(-c5cccc(S(=O)(=O)[O-])c5F)c5ccc([nH]5)c(-c5cccc(S(=O)(=O)[O-])c5F)c5nc(c(-c6cccc(S(=O)(=O)[O-])c6F)c6ccc3[nH]6)C=C5)C=C4)cc2)C1)[C@H]1CC[C@H](C)CC1
REMARK SMILES IDX 14 1 13 2 12 3 11 4 9 5 10 6 7 8 3 9 4 10 82 11 5 12 6 13
REMARK SMILES IDX 2 14 1 15 83 17 87 18 86 19 85 20 88 21 84 22 89 23 8 24
REMARK SMILES IDX 15 28 16 29 17 30 18 32 19 33 20 34 81 35 21 36 80 37 22 38
REMARK SMILES IDX 23 39 24 40 74 41 25 42 79 43 73 44 75 45 26 46 78 47 72 48
REMARK SMILES IDX 71 49 27 51 59 52 39 53 58 54 40 55 43 56 57 57 76 58 41 59
REMARK SMILES IDX 42 60 56 62 77 63 44 64 28 65 29 66 37 67 30 68 32 69 38 70
REMARK SMILES IDX 31 71 33 72 34 73 35 74 36 75 60 76 61 77 69 78 62 79 64 80
REMARK SMILES IDX 70 81 63 82 65 83 66 84 67 85 68 86 45 87 46 88 54 89 47 90
REMARK SMILES IDX 49 91 55 92 48 93 50 94 51 95 52 96 53 97
REMARK H PARENT 11 7 2 16 8 25 8 26 8 27 16 31 75 50 43 61
REMARK Flexibility Score: inf
ROOT
ATOM      1  C   UNL A   1      35.256  21.715  24.483  1.00  0.00     0.023 C 
ENDROOT
BRANCH   1   2
ATOM      2  C   UNL A   1      33.927  21.284  25.086  1.00  0.00     0.023 C 
BRANCH   2   3
ATOM      3  C   UNL A   1      32.746  22.184  24.734  1.00  0.00     0.116 C 
BRANCH   3   4
ATOM      4  N   UNL A   1      31.748  22.309  25.791  1.00  0.00    -0.351 N 
ATOM      5  C   UNL A   1      31.302  23.445  26.449  1.00  0.00     0.281 C 
ATOM      6  O   UNL A   1      30.401  23.337  27.282  1.00  0.00    -0.268 OA
ATOM      7  H   UNL A   1      31.330  21.465  26.078  1.00  0.00     0.163 HD
BRANCH   5   8
ATOM      8  C   UNL A   1      31.919  24.831  26.044  1.00  0.00     0.179 C 
ATOM      9  C   UNL A   1      32.455  26.503  24.095  1.00  0.00     0.190 C 
ATOM     10  C   UNL A   1      33.927  26.071  24.075  1.00  0.00     0.065 C 
ATOM     11  C   UNL A   1      31.597  25.289  24.607  1.00  0.00     0.144 C 
ATOM     12  C   UNL A   1      34.429  25.563  25.416  1.00  0.00     0.013 C 
ATOM     13  C   UNL A   1      33.471  24.597  26.113  1.00  0.00     0.079 C 
BRANCH   9  14
ATOM     14  N   UNL A   1      32.190  27.855  24.689  1.00  0.00    -0.332 N 
ATOM     15  C   UNL A   1      33.293  28.830  24.619  1.00  0.00     0.333 C 
ATOM     16  H   UNL A   1      32.039  27.575  25.658  1.00  0.00     0.348 HD
BRANCH  14  17
ATOM     17  C   UNL A   1      30.994  28.564  24.133  1.00  0.00     0.184 C 
ATOM     18  C   UNL A   1      28.007  30.792  21.873  1.00  0.00     0.007 C 
ATOM     19  C   UNL A   1      29.388  30.379  22.377  1.00  0.00    -0.014 C 
ATOM     20  C   UNL A   1      29.646  28.920  22.014  1.00  0.00     0.009 C 
ATOM     21  C   UNL A   1      29.516  30.605  23.888  1.00  0.00     0.009 C 
ATOM     22  C   UNL A   1      30.968  28.432  22.584  1.00  0.00     0.065 C 
ATOM     23  C   UNL A   1      30.828  30.058  24.472  1.00  0.00     0.065 C 
ENDBRANCH  14  17
ENDBRANCH   9  14
BRANCH   8  24
ATOM     24  N   UNL A   1      31.214  25.786  26.923  1.00  0.00    -0.345 N 
ATOM     25  H   UNL A   1      31.088  26.670  26.431  1.00  0.00     0.345 HD
ATOM     26  H   UNL A   1      31.765  25.941  27.766  1.00  0.00     0.345 HD
ATOM     27  H   UNL A   1      30.303  25.404  27.177  1.00  0.00     0.345 HD
ENDBRANCH   8  24
ENDBRANCH   5   8
ENDBRANCH   3   4
ENDBRANCH   2   3
ENDBRANCH   1   2
BRANCH   1  28
ATOM     28  C   UNL A   1      36.386  21.903  25.485  1.00  0.00     0.116 C 
BRANCH  28  29
ATOM     29  N   UNL A   1      37.418  20.876  25.415  1.00  0.00    -0.352 N 
ATOM     30  C   UNL A   1      38.735  20.967  25.802  1.00  0.00     0.251 C 
ATOM     31  H   UNL A   1      37.138  20.009  25.043  1.00  0.00     0.163 HD
ATOM     32  O   UNL A   1      39.508  20.034  25.602  1.00  0.00    -0.269 OA
BRANCH  30  33
ATOM     33  C   UNL A   1      39.213  22.221  26.417  1.00  0.00     0.039 A 
ATOM     34  C   UNL A   1      40.348  22.184  27.228  1.00  0.00     0.014 A 
ATOM     35  C   UNL A   1      38.594  23.439  26.119  1.00  0.00     0.014 A 
ATOM     36  C   UNL A   1      40.911  23.381  27.673  1.00  0.00     0.010 A 
ATOM     37  C   UNL A   1      39.207  24.630  26.489  1.00  0.00     0.010 A 
ATOM     38  C   UNL A   1      40.373  24.615  27.268  1.00  0.00    -0.014 A 
BRANCH  38  39
ATOM     39  C   UNL A   1      41.048  25.891  27.616  1.00  0.00     0.031 A 
ATOM     40  C   UNL A   1      42.480  26.135  27.223  1.00  0.00     0.074 A 
ATOM     41  C   UNL A   1      40.391  26.803  28.360  1.00  0.00     0.049 A 
ATOM     42  N   UNL A   1      43.221  27.190  27.434  1.00  0.00    -0.248 NA
ATOM     43  C   UNL A   1      43.178  25.041  26.527  1.00  0.00     0.031 C 
ATOM     44  C   UNL A   1      39.038  26.640  28.899  1.00  0.00     0.029 A 
ATOM     45  N   UNL A   1      40.777  28.041  28.809  1.00  0.00    -0.354 N 
ATOM     46  C   UNL A   1      44.477  26.880  26.926  1.00  0.00     0.074 A 
ATOM     47  C   UNL A   1      44.410  25.522  26.434  1.00  0.00     0.031 C 
ATOM     48  C   UNL A   1      38.701  27.741  29.589  1.00  0.00     0.029 A 
ATOM     49  C   UNL A   1      39.819  28.679  29.563  1.00  0.00     0.049 A 
ATOM     50  H   UNL A   1      41.657  28.435  28.611  1.00  0.00     0.167 HD
ATOM     51  C   UNL A   1      45.578  27.665  26.846  1.00  0.00     0.034 A 
ATOM     52  C   UNL A   1      39.836  29.886  30.161  1.00  0.00     0.034 A 
ATOM     53  C   UNL A   1      45.629  29.029  27.300  1.00  0.00     0.049 A 
ATOM     54  C   UNL A   1      41.049  30.762  30.000  1.00  0.00     0.074 A 
ATOM     55  C   UNL A   1      46.664  29.940  27.173  1.00  0.00     0.029 A 
ATOM     56  N   UNL A   1      44.609  29.676  27.978  1.00  0.00    -0.354 N 
ATOM     57  N   UNL A   1      42.161  30.521  29.351  1.00  0.00    -0.248 NA
ATOM     58  C   UNL A   1      40.989  32.095  30.617  1.00  0.00     0.031 C 
ATOM     59  C   UNL A   1      46.276  31.131  27.796  1.00  0.00     0.029 A 
ATOM     60  C   UNL A   1      44.990  30.971  28.288  1.00  0.00     0.049 A 
ATOM     61  H   UNL A   1      43.739  29.275  28.207  1.00  0.00     0.167 HD
ATOM     62  C   UNL A   1      42.923  31.678  29.457  1.00  0.00     0.074 A 
ATOM     63  C   UNL A   1      42.129  32.632  30.205  1.00  0.00     0.031 C 
ATOM     64  C   UNL A   1      44.175  31.923  28.997  1.00  0.00     0.034 A 
BRANCH  51  65
ATOM     65  C   UNL A   1      46.801  27.085  26.183  1.00  0.00     0.023 A 
ATOM     66  C   UNL A   1      46.956  27.202  24.786  1.00  0.00     0.012 A 
ATOM     67  C   UNL A   1      47.820  26.477  26.942  1.00  0.00     0.148 A 
ATOM     68  C   UNL A   1      48.088  26.693  24.150  1.00  0.00     0.002 A 
ATOM     69  C   UNL A   1      48.967  26.013  26.307  1.00  0.00     0.091 A 
ATOM     70  F   UNL A   1      47.646  26.354  28.266  1.00  0.00    -0.205 F 
ATOM     71  C   UNL A   1      49.097  26.109  24.911  1.00  0.00     0.022 A 
BRANCH  69  72
ATOM     72  S   UNL A   1      50.358  25.317  27.203  1.00  0.00     0.127 S 
ATOM     73  O   UNL A   1      51.299  25.038  26.118  1.00  0.00    -0.237 OA
ATOM     74  O   UNL A   1      50.748  26.425  28.077  1.00  0.00    -0.237 OA
ATOM     75  O   UNL A   1      49.843  24.148  27.901  1.00  0.00    -0.744 OA
ENDBRANCH  69  72
ENDBRANCH  51  65
BRANCH  52  76
ATOM     76  C   UNL A   1      38.636  30.367  30.901  1.00  0.00     0.023 A 
ATOM     77  C   UNL A   1      38.536  30.131  32.287  1.00  0.00     0.012 A 
ATOM     78  C   UNL A   1      37.609  31.079  30.251  1.00  0.00     0.148 A 
ATOM     79  C   UNL A   1      37.422  30.565  33.004  1.00  0.00     0.002 A 
ATOM     80  C   UNL A   1      36.529  31.558  30.983  1.00  0.00     0.091 A 
ATOM     81  F   UNL A   1      37.716  31.283  28.930  1.00  0.00    -0.205 F 
ATOM     82  C   UNL A   1      36.424  31.287  32.356  1.00  0.00     0.022 A 
BRANCH  80  83
ATOM     83  S   UNL A   1      35.268  32.613  30.257  1.00  0.00     0.127 S 
ATOM     84  O   UNL A   1      34.384  32.847  31.394  1.00  0.00    -0.237 OA
ATOM     85  O   UNL A   1      36.052  33.775  29.836  1.00  0.00    -0.237 OA
ATOM     86  O   UNL A   1      34.701  31.844  29.158  1.00  0.00    -0.744 OA
ENDBRANCH  80  83
ENDBRANCH  52  76
BRANCH  64  87
ATOM     87  C   UNL A   1      44.758  33.286  29.272  1.00  0.00     0.023 A 
ATOM     88  C   UNL A   1      45.443  33.522  30.481  1.00  0.00     0.012 A 
ATOM     89  C   UNL A   1      44.667  34.318  28.317  1.00  0.00     0.148 A 
ATOM     90  C   UNL A   1      45.986  34.776  30.755  1.00  0.00     0.002 A 
ATOM     91  C   UNL A   1      45.256  35.550  28.575  1.00  0.00     0.091 A 
ATOM     92  F   UNL A   1      43.996  34.083  27.180  1.00  0.00    -0.205 F 
ATOM     93  C   UNL A   1      45.903  35.786  29.800  1.00  0.00     0.022 A 
BRANCH  91  94
ATOM     94  S   UNL A   1      45.278  36.874  27.362  1.00  0.00     0.127 S 
ATOM     95  O   UNL A   1      46.037  37.909  28.062  1.00  0.00    -0.237 OA
ATOM     96  O   UNL A   1      45.981  36.257  26.238  1.00  0.00    -0.237 OA
ATOM     97  O   UNL A   1      43.881  37.191  27.095  1.00  0.00    -0.744 OA
ENDBRANCH  91  94
ENDBRANCH  64  87
ENDBRANCH  38  39
ENDBRANCH  30  33
ENDBRANCH  28  29
ENDBRANCH   1  28
TORSDOF 17
ENDMDL
