MODEL 1
REMARK VINA RESULT:     -13.9      0.000      0.000
REMARK SMILES O=C(NCCCCNC(=O)[C@H]1[C@H]2CC[C@H](CC2)[C@@H]1C(=O)Nc1sc2c(c1C(=O)N1CCCCC1)CCCC2)c1ccc(-c2c3nc(c(-c4cccc(S(=O)(=O)[O-])c4F)c4ccc([nH]4)c(-c4cccc(S(=O)(=O)[O-])c4F)c4nc(c(-c5cccc(S(=O)(=O)[O-])c5F)c5ccc2[nH]5)C=C4)C=C3)cc1
REMARK SMILES IDX 5 1 4 2 3 3 1 4 2 5 39 7 40 8 101 9 41 10 100 11 42 12 43 13
REMARK SMILES IDX 44 14 94 15 45 16 99 17 93 18 95 19 46 20 98 21 92 22 91 23
REMARK SMILES IDX 47 25 79 26 59 27 78 28 60 29 63 30 77 31 96 32 61 33 62 34
REMARK SMILES IDX 76 36 97 37 64 38 48 39 49 40 57 41 50 42 52 43 58 44 51 45
REMARK SMILES IDX 53 46 54 47 55 48 56 49 80 50 81 51 89 52 82 53 84 54 90 55
REMARK SMILES IDX 83 56 85 57 86 58 87 59 88 60 65 61 66 62 74 63 67 64 69 65
REMARK SMILES IDX 75 66 68 67 70 68 71 69 72 70 73 71 6 72 7 73 8 74 9 75
REMARK SMILES IDX 10 77 11 78 12 79 18 80 13 81 17 82 15 83 14 84 16 85 19 86
REMARK SMILES IDX 20 87 21 88 22 90 23 91 26 92 24 93 25 94 38 95 35 96 37 97
REMARK SMILES IDX 36 98 27 99 28 100 29 101 30 102 34 103 31 104 33 105 32 106
REMARK H PARENT 3 6 95 24 63 35 8 76 21 89
REMARK Flexibility Score: inf
ROOT
ATOM      1  C   UNL A   1      31.534  31.508  26.700  1.00  0.00     0.023 C 
ENDROOT
BRANCH   1   2
ATOM      2  C   UNL A   1      32.780  32.224  27.201  1.00  0.00     0.116 C 
BRANCH   2   3
ATOM      3  N   UNL A   1      32.516  33.619  27.513  1.00  0.00    -0.352 N 
ATOM      4  O   UNL A   1      32.639  35.498  28.752  1.00  0.00    -0.269 OA
ATOM      5  C   UNL A   1      33.109  34.398  28.474  1.00  0.00     0.251 C 
ATOM      6  H   UNL A   1      31.826  34.059  26.967  1.00  0.00     0.163 HD
BRANCH   5   7
ATOM      7  C   UNL A   1      34.305  33.888  29.175  1.00  0.00     0.039 A 
ATOM      8  C   UNL A   1      34.169  32.982  30.232  1.00  0.00     0.014 A 
ATOM      9  C   UNL A   1      35.571  34.317  28.769  1.00  0.00     0.014 A 
ATOM     10  C   UNL A   1      35.291  32.580  30.947  1.00  0.00     0.010 A 
ATOM     11  C   UNL A   1      36.704  33.849  29.439  1.00  0.00     0.010 A 
ATOM     12  C   UNL A   1      36.572  32.983  30.537  1.00  0.00    -0.014 A 
BRANCH  12  13
ATOM     13  C   UNL A   1      37.764  32.367  31.166  1.00  0.00     0.031 A 
ATOM     14  C   UNL A   1      38.490  31.218  30.528  1.00  0.00     0.074 A 
ATOM     15  C   UNL A   1      38.153  32.839  32.368  1.00  0.00     0.049 A 
ATOM     16  N   UNL A   1      39.525  30.556  30.976  1.00  0.00    -0.248 NA
ATOM     17  C   UNL A   1      37.994  30.743  29.227  1.00  0.00     0.031 C 
ATOM     18  C   UNL A   1      37.482  33.916  33.105  1.00  0.00     0.029 A 
ATOM     19  N   UNL A   1      39.180  32.464  33.196  1.00  0.00    -0.354 N 
ATOM     20  C   UNL A   1      39.777  29.559  30.043  1.00  0.00     0.074 A 
ATOM     21  C   UNL A   1      38.793  29.708  28.992  1.00  0.00     0.031 C 
ATOM     22  C   UNL A   1      38.108  34.110  34.272  1.00  0.00     0.029 A 
ATOM     23  C   UNL A   1      39.186  33.137  34.396  1.00  0.00     0.049 A 
ATOM     24  H   UNL A   1      39.846  31.781  32.956  1.00  0.00     0.167 HD
ATOM     25  C   UNL A   1      40.745  28.613  30.066  1.00  0.00     0.034 A 
ATOM     26  C   UNL A   1      39.944  32.965  35.495  1.00  0.00     0.034 A 
ATOM     27  C   UNL A   1      41.741  28.501  31.100  1.00  0.00     0.049 A 
ATOM     28  C   UNL A   1      41.011  31.910  35.478  1.00  0.00     0.074 A 
ATOM     29  C   UNL A   1      42.835  27.653  31.149  1.00  0.00     0.029 A 
ATOM     30  N   UNL A   1      41.752  29.235  32.276  1.00  0.00    -0.354 N 
ATOM     31  N   UNL A   1      41.354  31.102  34.504  1.00  0.00    -0.248 NA
ATOM     32  C   UNL A   1      41.811  31.756  36.699  1.00  0.00     0.031 C 
ATOM     33  C   UNL A   1      43.481  27.844  32.374  1.00  0.00     0.029 A 
ATOM     34  C   UNL A   1      42.809  28.831  33.075  1.00  0.00     0.049 A 
ATOM     35  H   UNL A   1      41.104  29.938  32.509  1.00  0.00     0.167 HD
ATOM     36  C   UNL A   1      42.416  30.352  34.991  1.00  0.00     0.074 A 
ATOM     37  C   UNL A   1      42.686  30.830  36.330  1.00  0.00     0.031 C 
ATOM     38  C   UNL A   1      43.090  29.342  34.391  1.00  0.00     0.034 A 
BRANCH  25  39
ATOM     39  C   UNL A   1      40.813  27.623  28.933  1.00  0.00     0.023 A 
ATOM     40  C   UNL A   1      39.841  26.610  28.829  1.00  0.00     0.012 A 
ATOM     41  C   UNL A   1      41.761  27.784  27.902  1.00  0.00     0.148 A 
ATOM     42  C   UNL A   1      39.816  25.764  27.719  1.00  0.00     0.002 A 
ATOM     43  C   UNL A   1      41.706  26.961  26.782  1.00  0.00     0.091 A 
ATOM     44  F   UNL A   1      42.686  28.746  28.028  1.00  0.00    -0.205 F 
ATOM     45  C   UNL A   1      40.738  25.948  26.692  1.00  0.00     0.022 A 
BRANCH  43  46
ATOM     46  S   UNL A   1      42.797  27.168  25.368  1.00  0.00     0.127 S 
ATOM     47  O   UNL A   1      44.097  27.325  26.020  1.00  0.00    -0.237 OA
ATOM     48  O   UNL A   1      42.621  25.900  24.658  1.00  0.00    -0.237 OA
ATOM     49  O   UNL A   1      42.316  28.341  24.654  1.00  0.00    -0.744 OA
ENDBRANCH  43  46
ENDBRANCH  25  39
BRANCH  26  50
ATOM     50  C   UNL A   1      39.710  33.809  36.698  1.00  0.00     0.023 A 
ATOM     51  C   UNL A   1      40.111  35.158  36.693  1.00  0.00     0.012 A 
ATOM     52  C   UNL A   1      39.067  33.288  37.839  1.00  0.00     0.148 A 
ATOM     53  C   UNL A   1      39.907  35.962  37.814  1.00  0.00     0.002 A 
ATOM     54  C   UNL A   1      38.812  34.111  38.928  1.00  0.00     0.091 A 
ATOM     55  F   UNL A   1      38.709  31.996  37.835  1.00  0.00    -0.205 F 
ATOM     56  C   UNL A   1      39.248  35.443  38.926  1.00  0.00     0.022 A 
BRANCH  54  57
ATOM     57  S   UNL A   1      37.839  33.555  40.331  1.00  0.00     0.127 S 
ATOM     58  O   UNL A   1      37.767  34.766  41.144  1.00  0.00    -0.237 OA
ATOM     59  O   UNL A   1      36.580  33.164  39.697  1.00  0.00    -0.237 OA
ATOM     60  O   UNL A   1      38.587  32.443  40.903  1.00  0.00    -0.744 OA
ENDBRANCH  54  57
ENDBRANCH  26  50
BRANCH  38  61
ATOM     61  C   UNL A   1      44.191  28.683  35.177  1.00  0.00     0.023 A 
ATOM     62  C   UNL A   1      45.515  29.143  35.037  1.00  0.00     0.012 A 
ATOM     63  C   UNL A   1      43.906  27.661  36.104  1.00  0.00     0.148 A 
ATOM     64  C   UNL A   1      46.545  28.577  35.785  1.00  0.00     0.002 A 
ATOM     65  C   UNL A   1      44.930  27.135  36.882  1.00  0.00     0.091 A 
ATOM     66  F   UNL A   1      42.642  27.228  36.210  1.00  0.00    -0.205 F 
ATOM     67  C   UNL A   1      46.251  27.583  36.715  1.00  0.00     0.022 A 
BRANCH  65  68
ATOM     68  S   UNL A   1      44.638  25.917  38.169  1.00  0.00     0.127 S 
ATOM     69  O   UNL A   1      45.928  25.897  38.857  1.00  0.00    -0.237 OA
ATOM     70  O   UNL A   1      43.549  26.529  38.932  1.00  0.00    -0.237 OA
ATOM     71  O   UNL A   1      44.280  24.682  37.484  1.00  0.00    -0.744 OA
ENDBRANCH  65  68
ENDBRANCH  38  61
ENDBRANCH  12  13
ENDBRANCH   5   7
ENDBRANCH   2   3
ENDBRANCH   1   2
BRANCH   1  72
ATOM     72  C   UNL A   1      31.811  30.225  25.908  1.00  0.00     0.023 C 
BRANCH  72  73
ATOM     73  C   UNL A   1      32.108  28.998  26.775  1.00  0.00     0.116 C 
BRANCH  73  74
ATOM     74  N   UNL A   1      33.043  28.128  26.093  1.00  0.00    -0.356 N 
ATOM     75  C   UNL A   1      32.914  26.807  25.815  1.00  0.00     0.224 C 
ATOM     76  H   UNL A   1      33.880  28.550  25.791  1.00  0.00     0.163 HD
ATOM     77  O   UNL A   1      33.952  26.147  25.752  1.00  0.00    -0.275 OA
BRANCH  75  78
ATOM     78  C   UNL A   1      31.540  26.227  25.491  1.00  0.00     0.094 C 
ATOM     79  C   UNL A   1      30.907  27.128  24.377  1.00  0.00     0.002 C 
ATOM     80  C   UNL A   1      31.607  24.733  25.029  1.00  0.00     0.094 C 
ATOM     81  C   UNL A   1      31.650  27.018  23.024  1.00  0.00     0.005 C 
ATOM     82  C   UNL A   1      29.493  26.605  24.133  1.00  0.00     0.005 C 
ATOM     83  C   UNL A   1      31.029  24.651  23.597  1.00  0.00     0.002 C 
ATOM     84  C   UNL A   1      31.924  25.544  22.699  1.00  0.00     0.005 C 
ATOM     85  C   UNL A   1      29.607  25.242  23.461  1.00  0.00     0.005 C 
BRANCH  80  86
ATOM     86  C   UNL A   1      31.199  23.789  26.199  1.00  0.00     0.229 C 
ATOM     87  O   UNL A   1      30.096  24.006  26.731  1.00  0.00    -0.274 OA
ATOM     88  N   UNL A   1      31.794  22.630  26.583  1.00  0.00    -0.317 N 
ATOM     89  H   UNL A   1      31.190  21.987  27.019  1.00  0.00     0.170 HD
BRANCH  88  90
ATOM     90  C   UNL A   1      33.090  22.200  26.467  1.00  0.00     0.108 A 
ATOM     91  S   UNL A   1      34.238  22.809  27.558  1.00  0.00    -0.122 S 
ATOM     92  C   UNL A   1      33.601  21.193  25.645  1.00  0.00     0.078 A 
ATOM     93  C   UNL A   1      35.482  22.321  26.512  1.00  0.00     0.011 A 
ATOM     94  C   UNL A   1      35.055  21.366  25.597  1.00  0.00    -0.019 A 
ATOM     95  C   UNL A   1      36.821  22.989  26.519  1.00  0.00     0.047 C 
ATOM     96  C   UNL A   1      36.013  20.837  24.569  1.00  0.00     0.037 C 
ATOM     97  C   UNL A   1      37.451  22.871  25.124  1.00  0.00     0.006 C 
ATOM     98  C   UNL A   1      37.433  21.417  24.660  1.00  0.00     0.005 C 
BRANCH  92  99
ATOM     99  C   UNL A   1      32.674  20.405  24.797  1.00  0.00     0.257 C 
ATOM    100  O   UNL A   1      31.813  20.967  24.116  1.00  0.00    -0.269 OA
ATOM    101  N   UNL A   1      32.877  19.034  24.662  1.00  0.00    -0.339 N 
ATOM    102  C   UNL A   1      32.653  18.470  23.336  1.00  0.00     0.120 C 
ATOM    103  C   UNL A   1      32.581  18.113  25.751  1.00  0.00     0.120 C 
ATOM    104  C   UNL A   1      33.553  17.259  23.132  1.00  0.00     0.022 C 
ATOM    105  C   UNL A   1      33.400  16.824  25.624  1.00  0.00     0.022 C 
ATOM    106  C   UNL A   1      33.318  16.214  24.222  1.00  0.00     0.004 C 
ENDBRANCH  92  99
ENDBRANCH  88  90
ENDBRANCH  80  86
ENDBRANCH  75  78
ENDBRANCH  73  74
ENDBRANCH  72  73
ENDBRANCH   1  72
TORSDOF 17
ENDMDL
MODEL 2
REMARK VINA RESULT:     -13.6      5.402     11.580
REMARK SMILES O=C(NCCCCNC(=O)[C@H]1[C@H]2CC[C@H](CC2)[C@@H]1C(=O)Nc1sc2c(c1C(=O)N1CCCCC1)CCCC2)c1ccc(-c2c3nc(c(-c4cccc(S(=O)(=O)[O-])c4F)c4ccc([nH]4)c(-c4cccc(S(=O)(=O)[O-])c4F)c4nc(c(-c5cccc(S(=O)(=O)[O-])c5F)c5ccc2[nH]5)C=C4)C=C3)cc1
REMARK SMILES IDX 5 1 4 2 3 3 1 4 2 5 39 7 40 8 101 9 41 10 100 11 42 12 43 13
REMARK SMILES IDX 44 14 94 15 45 16 99 17 93 18 95 19 46 20 98 21 92 22 91 23
REMARK SMILES IDX 47 25 79 26 59 27 78 28 60 29 63 30 77 31 96 32 61 33 62 34
REMARK SMILES IDX 76 36 97 37 64 38 48 39 49 40 57 41 50 42 52 43 58 44 51 45
REMARK SMILES IDX 53 46 54 47 55 48 56 49 80 50 81 51 89 52 82 53 84 54 90 55
REMARK SMILES IDX 83 56 85 57 86 58 87 59 88 60 65 61 66 62 74 63 67 64 69 65
REMARK SMILES IDX 75 66 68 67 70 68 71 69 72 70 73 71 6 72 7 73 8 74 9 75
REMARK SMILES IDX 10 77 11 78 12 79 18 80 13 81 17 82 15 83 14 84 16 85 19 86
REMARK SMILES IDX 20 87 21 88 22 90 23 91 26 92 24 93 25 94 38 95 35 96 37 97
REMARK SMILES IDX 36 98 27 99 28 100 29 101 30 102 34 103 31 104 33 105 32 106
REMARK H PARENT 3 6 95 24 63 35 8 76 21 89
REMARK Flexibility Score: inf
ROOT
ATOM      1  C   UNL A   1      38.020  20.093  24.804  1.00  0.00     0.023 C 
ENDROOT
BRANCH   1   2
ATOM      2  C   UNL A   1      39.126  20.425  25.794  1.00  0.00     0.116 C 
BRANCH   2   3
ATOM      3  N   UNL A   1      40.104  19.356  25.896  1.00  0.00    -0.352 N 
ATOM      4  O   UNL A   1      42.178  18.475  25.938  1.00  0.00    -0.269 OA
ATOM      5  C   UNL A   1      41.460  19.462  26.074  1.00  0.00     0.251 C 
ATOM      6  H   UNL A   1      39.749  18.440  25.829  1.00  0.00     0.163 HD
BRANCH   5   7
ATOM      7  C   UNL A   1      42.039  20.778  26.414  1.00  0.00     0.039 A 
ATOM      8  C   UNL A   1      42.360  21.688  25.402  1.00  0.00     0.014 A 
ATOM      9  C   UNL A   1      42.258  21.103  27.754  1.00  0.00     0.014 A 
ATOM     10  C   UNL A   1      42.990  22.884  25.723  1.00  0.00     0.010 A 
ATOM     11  C   UNL A   1      42.820  22.340  28.079  1.00  0.00     0.010 A 
ATOM     12  C   UNL A   1      43.195  23.237  27.066  1.00  0.00    -0.014 A 
BRANCH  12  13
ATOM     13  C   UNL A   1      43.659  24.606  27.397  1.00  0.00     0.031 A 
ATOM     14  C   UNL A   1      42.712  25.663  27.885  1.00  0.00     0.074 A 
ATOM     15  C   UNL A   1      44.961  24.893  27.194  1.00  0.00     0.049 A 
ATOM     16  N   UNL A   1      42.964  26.912  28.181  1.00  0.00    -0.248 NA
ATOM     17  C   UNL A   1      41.301  25.281  28.060  1.00  0.00     0.031 C 
ATOM     18  C   UNL A   1      45.956  23.953  26.667  1.00  0.00     0.029 A 
ATOM     19  N   UNL A   1      45.668  26.054  27.377  1.00  0.00    -0.354 N 
ATOM     20  C   UNL A   1      41.746  27.479  28.530  1.00  0.00     0.074 A 
ATOM     21  C   UNL A   1      40.750  26.433  28.423  1.00  0.00     0.031 C 
ATOM     22  C   UNL A   1      47.139  24.574  26.563  1.00  0.00     0.029 A 
ATOM     23  C   UNL A   1      46.975  25.967  26.959  1.00  0.00     0.049 A 
ATOM     24  H   UNL A   1      45.278  26.868  27.768  1.00  0.00     0.167 HD
ATOM     25  C   UNL A   1      41.490  28.753  28.908  1.00  0.00     0.034 A 
ATOM     26  C   UNL A   1      47.930  26.910  26.861  1.00  0.00     0.034 A 
ATOM     27  C   UNL A   1      42.499  29.772  29.048  1.00  0.00     0.049 A 
ATOM     28  C   UNL A   1      47.609  28.309  27.298  1.00  0.00     0.074 A 
ATOM     29  C   UNL A   1      42.356  31.058  29.541  1.00  0.00     0.029 A 
ATOM     30  N   UNL A   1      43.825  29.635  28.668  1.00  0.00    -0.354 N 
ATOM     31  N   UNL A   1      46.495  28.778  27.805  1.00  0.00    -0.248 NA
ATOM     32  C   UNL A   1      48.680  29.306  27.170  1.00  0.00     0.031 C 
ATOM     33  C   UNL A   1      43.585  31.712  29.421  1.00  0.00     0.029 A 
ATOM     34  C   UNL A   1      44.501  30.825  28.879  1.00  0.00     0.049 A 
ATOM     35  H   UNL A   1      44.226  28.814  28.303  1.00  0.00     0.167 HD
ATOM     36  C   UNL A   1      46.734  30.120  28.069  1.00  0.00     0.074 A 
ATOM     37  C   UNL A   1      48.111  30.379  27.703  1.00  0.00     0.031 C 
ATOM     38  C   UNL A   1      45.883  31.059  28.547  1.00  0.00     0.034 A 
BRANCH  25  39
ATOM     39  C   UNL A   1      40.071  29.139  29.232  1.00  0.00     0.023 A 
ATOM     40  C   UNL A   1      39.146  29.343  28.190  1.00  0.00     0.012 A 
ATOM     41  C   UNL A   1      39.626  29.164  30.570  1.00  0.00     0.148 A 
ATOM     42  C   UNL A   1      37.800  29.577  28.474  1.00  0.00     0.002 A 
ATOM     43  C   UNL A   1      38.277  29.361  30.842  1.00  0.00     0.091 A 
ATOM     44  F   UNL A   1      40.527  28.981  31.546  1.00  0.00    -0.205 F 
ATOM     45  C   UNL A   1      37.365  29.572  29.797  1.00  0.00     0.022 A 
BRANCH  43  46
ATOM     46  S   UNL A   1      37.601  29.293  32.507  1.00  0.00     0.127 S 
ATOM     47  O   UNL A   1      36.228  29.747  32.285  1.00  0.00    -0.237 OA
ATOM     48  O   UNL A   1      37.727  27.871  32.830  1.00  0.00    -0.237 OA
ATOM     49  O   UNL A   1      38.425  30.179  33.315  1.00  0.00    -0.744 OA
ENDBRANCH  43  46
ENDBRANCH  25  39
BRANCH  26  50
ATOM     50  C   UNL A   1      49.272  26.556  26.322  1.00  0.00     0.023 A 
ATOM     51  C   UNL A   1      50.112  25.695  27.052  1.00  0.00     0.012 A 
ATOM     52  C   UNL A   1      49.708  27.050  25.076  1.00  0.00     0.148 A 
ATOM     53  C   UNL A   1      51.376  25.359  26.566  1.00  0.00     0.002 A 
ATOM     54  C   UNL A   1      50.942  26.660  24.570  1.00  0.00     0.091 A 
ATOM     55  F   UNL A   1      48.903  27.884  24.403  1.00  0.00    -0.205 F 
ATOM     56  C   UNL A   1      51.785  25.831  25.321  1.00  0.00     0.022 A 
BRANCH  54  57
ATOM     57  S   UNL A   1      51.472  27.107  22.913  1.00  0.00     0.127 S 
ATOM     58  O   UNL A   1      52.685  26.309  22.762  1.00  0.00    -0.237 OA
ATOM     59  O   UNL A   1      50.339  26.667  22.099  1.00  0.00    -0.237 OA
ATOM     60  O   UNL A   1      51.656  28.553  22.945  1.00  0.00    -0.744 OA
ENDBRANCH  54  57
ENDBRANCH  26  50
BRANCH  38  61
ATOM     61  C   UNL A   1      46.414  32.458  28.706  1.00  0.00     0.023 A 
ATOM     62  C   UNL A   1      46.969  32.852  29.939  1.00  0.00     0.012 A 
ATOM     63  C   UNL A   1      46.429  33.354  27.620  1.00  0.00     0.148 A 
ATOM     64  C   UNL A   1      47.505  34.128  30.099  1.00  0.00     0.002 A 
ATOM     65  C   UNL A   1      47.009  34.607  27.771  1.00  0.00     0.091 A 
ATOM     66  F   UNL A   1      45.882  32.963  26.460  1.00  0.00    -0.205 F 
ATOM     67  C   UNL A   1      47.537  35.000  29.013  1.00  0.00     0.022 A 
BRANCH  65  68
ATOM     68  S   UNL A   1      47.179  35.765  26.410  1.00  0.00     0.127 S 
ATOM     69  O   UNL A   1      45.783  36.074  26.106  1.00  0.00    -0.237 OA
ATOM     70  O   UNL A   1      47.926  36.861  27.028  1.00  0.00    -0.237 OA
ATOM     71  O   UNL A   1      47.900  35.054  25.362  1.00  0.00    -0.744 OA
ENDBRANCH  65  68
ENDBRANCH  38  61
ENDBRANCH  12  13
ENDBRANCH   5   7
ENDBRANCH   2   3
ENDBRANCH   1   2
BRANCH   1  72
ATOM     72  C   UNL A   1      36.709  20.853  25.034  1.00  0.00     0.023 C 
BRANCH  72  73
ATOM     73  C   UNL A   1      36.684  22.266  24.442  1.00  0.00     0.116 C 
BRANCH  73  74
ATOM     74  N   UNL A   1      35.844  23.124  25.251  1.00  0.00    -0.356 N 
ATOM     75  C   UNL A   1      34.798  23.892  24.856  1.00  0.00     0.224 C 
ATOM     76  H   UNL A   1      36.057  23.152  26.212  1.00  0.00     0.163 HD
ATOM     77  O   UNL A   1      34.579  24.913  25.508  1.00  0.00    -0.275 OA
BRANCH  75  78
ATOM     78  C   UNL A   1      33.892  23.421  23.721  1.00  0.00     0.094 C 
ATOM     79  C   UNL A   1      33.366  21.997  24.109  1.00  0.00     0.002 C 
ATOM     80  C   UNL A   1      32.702  24.401  23.450  1.00  0.00     0.094 C 
ATOM     81  C   UNL A   1      32.406  22.024  25.323  1.00  0.00     0.005 C 
ATOM     82  C   UNL A   1      32.545  21.490  22.925  1.00  0.00     0.005 C 
ATOM     83  C   UNL A   1      31.384  23.624  23.675  1.00  0.00     0.002 C 
ATOM     84  C   UNL A   1      31.384  23.157  25.154  1.00  0.00     0.005 C 
ATOM     85  C   UNL A   1      31.274  22.325  22.843  1.00  0.00     0.005 C 
BRANCH  80  86
ATOM     86  C   UNL A   1      33.004  25.280  22.200  1.00  0.00     0.229 C 
ATOM     87  O   UNL A   1      33.263  24.677  21.144  1.00  0.00    -0.274 OA
ATOM     88  N   UNL A   1      32.819  26.619  22.057  1.00  0.00    -0.317 N 
ATOM     89  H   UNL A   1      32.655  26.911  21.132  1.00  0.00     0.170 HD
BRANCH  88  90
ATOM     90  C   UNL A   1      32.821  27.633  22.979  1.00  0.00     0.108 A 
ATOM     91  S   UNL A   1      34.317  28.249  23.491  1.00  0.00    -0.122 S 
ATOM     92  C   UNL A   1      31.735  28.358  23.475  1.00  0.00     0.078 A 
ATOM     93  C   UNL A   1      33.563  28.932  24.849  1.00  0.00     0.011 A 
ATOM     94  C   UNL A   1      32.188  29.047  24.685  1.00  0.00    -0.019 A 
ATOM     95  C   UNL A   1      34.322  29.213  26.109  1.00  0.00     0.047 C 
ATOM     96  C   UNL A   1      31.348  29.603  25.800  1.00  0.00     0.037 C 
ATOM     97  C   UNL A   1      33.359  29.144  27.303  1.00  0.00     0.006 C 
ATOM     98  C   UNL A   1      32.139  30.026  27.047  1.00  0.00     0.005 C 
BRANCH  92  99
ATOM     99  C   UNL A   1      30.377  28.090  22.944  1.00  0.00     0.257 C 
ATOM    100  O   UNL A   1      29.964  26.933  22.829  1.00  0.00    -0.269 OA
ATOM    101  N   UNL A   1      29.515  29.158  22.712  1.00  0.00    -0.339 N 
ATOM    102  C   UNL A   1      28.113  28.951  23.057  1.00  0.00     0.120 C 
ATOM    103  C   UNL A   1      29.718  30.065  21.590  1.00  0.00     0.120 C 
ATOM    104  C   UNL A   1      27.479  30.277  23.455  1.00  0.00     0.022 C 
ATOM    105  C   UNL A   1      29.074  31.430  21.859  1.00  0.00     0.022 C 
ATOM    106  C   UNL A   1      27.626  31.310  22.338  1.00  0.00     0.004 C 
ENDBRANCH  92  99
ENDBRANCH  88  90
ENDBRANCH  80  86
ENDBRANCH  75  78
ENDBRANCH  73  74
ENDBRANCH  72  73
ENDBRANCH   1  72
TORSDOF 17
ENDMDL
MODEL 3
REMARK VINA RESULT:     -13.5      0.507      7.270
REMARK SMILES O=C(NCCCCNC(=O)[C@H]1[C@H]2CC[C@H](CC2)[C@@H]1C(=O)Nc1sc2c(c1C(=O)N1CCCCC1)CCCC2)c1ccc(-c2c3nc(c(-c4cccc(S(=O)(=O)[O-])c4F)c4ccc([nH]4)c(-c4cccc(S(=O)(=O)[O-])c4F)c4nc(c(-c5cccc(S(=O)(=O)[O-])c5F)c5ccc2[nH]5)C=C4)C=C3)cc1
REMARK SMILES IDX 5 1 4 2 3 3 1 4 2 5 39 7 40 8 101 9 41 10 100 11 42 12 43 13
REMARK SMILES IDX 44 14 94 15 45 16 99 17 93 18 95 19 46 20 98 21 92 22 91 23
REMARK SMILES IDX 47 25 79 26 59 27 78 28 60 29 63 30 77 31 96 32 61 33 62 34
REMARK SMILES IDX 76 36 97 37 64 38 48 39 49 40 57 41 50 42 52 43 58 44 51 45
REMARK SMILES IDX 53 46 54 47 55 48 56 49 80 50 81 51 89 52 82 53 84 54 90 55
REMARK SMILES IDX 83 56 85 57 86 58 87 59 88 60 65 61 66 62 74 63 67 64 69 65
REMARK SMILES IDX 75 66 68 67 70 68 71 69 72 70 73 71 6 72 7 73 8 74 9 75
REMARK SMILES IDX 10 77 11 78 12 79 18 80 13 81 17 82 15 83 14 84 16 85 19 86
REMARK SMILES IDX 20 87 21 88 22 90 23 91 26 92 24 93 25 94 38 95 35 96 37 97
REMARK SMILES IDX 36 98 27 99 28 100 29 101 30 102 34 103 31 104 33 105 32 106
REMARK H PARENT 3 6 95 24 63 35 8 76 21 89
REMARK Flexibility Score: inf
ROOT
ATOM      1  C   UNL A   1      31.611  31.730  26.913  1.00  0.00     0.023 C 
ENDROOT
BRANCH   1   2
ATOM      2  C   UNL A   1      32.905  32.464  27.231  1.00  0.00     0.116 C 
BRANCH   2   3
ATOM      3  N   UNL A   1      32.668  33.851  27.594  1.00  0.00    -0.352 N 
ATOM      4  O   UNL A   1      32.766  35.662  28.932  1.00  0.00    -0.269 OA
ATOM      5  C   UNL A   1      33.217  34.560  28.633  1.00  0.00     0.251 C 
ATOM      6  H   UNL A   1      32.035  34.342  27.024  1.00  0.00     0.163 HD
BRANCH   5   7
ATOM      7  C   UNL A   1      34.341  33.972  29.389  1.00  0.00     0.039 A 
ATOM      8  C   UNL A   1      34.092  33.143  30.488  1.00  0.00     0.014 A 
ATOM      9  C   UNL A   1      35.651  34.249  28.993  1.00  0.00     0.014 A 
ATOM     10  C   UNL A   1      35.154  32.670  31.251  1.00  0.00     0.010 A 
ATOM     11  C   UNL A   1      36.717  33.707  29.715  1.00  0.00     0.010 A 
ATOM     12  C   UNL A   1      36.477  32.919  30.852  1.00  0.00    -0.014 A 
BRANCH  12  13
ATOM     13  C   UNL A   1      37.588  32.222  31.543  1.00  0.00     0.031 A 
ATOM     14  C   UNL A   1      38.134  32.712  32.853  1.00  0.00     0.074 A 
ATOM     15  C   UNL A   1      38.136  31.154  30.929  1.00  0.00     0.049 A 
ATOM     16  N   UNL A   1      39.125  32.228  33.556  1.00  0.00    -0.248 NA
ATOM     17  C   UNL A   1      37.500  33.898  33.451  1.00  0.00     0.031 C 
ATOM     18  C   UNL A   1      37.718  30.629  29.625  1.00  0.00     0.029 A 
ATOM     19  N   UNL A   1      39.173  30.335  31.297  1.00  0.00    -0.354 N 
ATOM     20  C   UNL A   1      39.266  33.069  34.652  1.00  0.00     0.074 A 
ATOM     21  C   UNL A   1      38.250  34.093  34.529  1.00  0.00     0.031 C 
ATOM     22  C   UNL A   1      38.491  29.584  29.300  1.00  0.00     0.029 A 
ATOM     23  C   UNL A   1      39.495  29.401  30.340  1.00  0.00     0.049 A 
ATOM     24  H   UNL A   1      39.640  30.409  32.160  1.00  0.00     0.167 HD
ATOM     25  C   UNL A   1      40.161  32.987  35.664  1.00  0.00     0.034 A 
ATOM     26  C   UNL A   1      40.512  28.521  30.280  1.00  0.00     0.034 A 
ATOM     27  C   UNL A   1      41.141  31.940  35.792  1.00  0.00     0.049 A 
ATOM     28  C   UNL A   1      41.478  28.456  31.426  1.00  0.00     0.074 A 
ATOM     29  C   UNL A   1      42.010  31.702  36.844  1.00  0.00     0.029 A 
ATOM     30  N   UNL A   1      41.405  30.976  34.832  1.00  0.00    -0.354 N 
ATOM     31  N   UNL A   1      41.477  29.140  32.544  1.00  0.00    -0.248 NA
ATOM     32  C   UNL A   1      42.573  27.483  31.316  1.00  0.00     0.031 C 
ATOM     33  C   UNL A   1      42.828  30.622  36.501  1.00  0.00     0.029 A 
ATOM     34  C   UNL A   1      42.450  30.168  35.249  1.00  0.00     0.049 A 
ATOM     35  H   UNL A   1      40.923  30.881  33.980  1.00  0.00     0.167 HD
ATOM     36  C   UNL A   1      42.561  28.674  33.275  1.00  0.00     0.074 A 
ATOM     37  C   UNL A   1      43.172  27.620  32.491  1.00  0.00     0.031 C 
ATOM     38  C   UNL A   1      43.024  29.097  34.476  1.00  0.00     0.034 A 
BRANCH  25  39
ATOM     39  C   UNL A   1      40.125  34.034  36.746  1.00  0.00     0.023 A 
ATOM     40  C   UNL A   1      40.526  35.353  36.457  1.00  0.00     0.012 A 
ATOM     41  C   UNL A   1      39.566  33.739  38.006  1.00  0.00     0.148 A 
ATOM     42  C   UNL A   1      40.381  36.361  37.411  1.00  0.00     0.002 A 
ATOM     43  C   UNL A   1      39.390  34.757  38.937  1.00  0.00     0.091 A 
ATOM     44  F   UNL A   1      39.205  32.474  38.264  1.00  0.00    -0.205 F 
ATOM     45  C   UNL A   1      39.802  36.066  38.642  1.00  0.00     0.022 A 
BRANCH  43  46
ATOM     46  S   UNL A   1      38.582  34.498  40.521  1.00  0.00     0.127 S 
ATOM     47  O   UNL A   1      39.641  33.843  41.288  1.00  0.00    -0.237 OA
ATOM     48  O   UNL A   1      38.285  35.868  40.941  1.00  0.00    -0.237 OA
ATOM     49  O   UNL A   1      37.413  33.674  40.250  1.00  0.00    -0.744 OA
ENDBRANCH  43  46
ENDBRANCH  25  39
BRANCH  26  50
ATOM     50  C   UNL A   1      40.664  27.642  29.089  1.00  0.00     0.023 A 
ATOM     51  C   UNL A   1      39.879  26.479  28.976  1.00  0.00     0.012 A 
ATOM     52  C   UNL A   1      41.565  27.967  28.055  1.00  0.00     0.148 A 
ATOM     53  C   UNL A   1      40.014  25.639  27.870  1.00  0.00     0.002 A 
ATOM     54  C   UNL A   1      41.647  27.158  26.928  1.00  0.00     0.091 A 
ATOM     55  F   UNL A   1      42.318  29.067  28.188  1.00  0.00    -0.205 F 
ATOM     56  C   UNL A   1      40.887  25.984  26.842  1.00  0.00     0.022 A 
BRANCH  54  57
ATOM     57  S   UNL A   1      42.639  27.616  25.502  1.00  0.00     0.127 S 
ATOM     58  O   UNL A   1      41.985  28.847  25.066  1.00  0.00    -0.237 OA
ATOM     59  O   UNL A   1      43.964  27.799  26.094  1.00  0.00    -0.237 OA
ATOM     60  O   UNL A   1      42.547  26.484  24.590  1.00  0.00    -0.744 OA
ENDBRANCH  54  57
ENDBRANCH  26  50
BRANCH  38  61
ATOM     61  C   UNL A   1      44.252  28.419  35.022  1.00  0.00     0.023 A 
ATOM     62  C   UNL A   1      45.525  28.933  34.706  1.00  0.00     0.012 A 
ATOM     63  C   UNL A   1      44.143  27.324  35.900  1.00  0.00     0.148 A 
ATOM     64  C   UNL A   1      46.675  28.348  35.233  1.00  0.00     0.002 A 
ATOM     65  C   UNL A   1      45.290  26.777  36.460  1.00  0.00     0.091 A 
ATOM     66  F   UNL A   1      42.922  26.842  36.174  1.00  0.00    -0.205 F 
ATOM     67  C   UNL A   1      46.557  27.280  36.119  1.00  0.00     0.022 A 
BRANCH  65  68
ATOM     68  S   UNL A   1      45.237  25.459  37.680  1.00  0.00     0.127 S 
ATOM     69  O   UNL A   1      46.643  25.355  38.066  1.00  0.00    -0.237 OA
ATOM     70  O   UNL A   1      44.363  26.025  38.708  1.00  0.00    -0.237 OA
ATOM     71  O   UNL A   1      44.694  24.295  36.994  1.00  0.00    -0.744 OA
ENDBRANCH  65  68
ENDBRANCH  38  61
ENDBRANCH  12  13
ENDBRANCH   5   7
ENDBRANCH   2   3
ENDBRANCH   1   2
BRANCH   1  72
ATOM     72  C   UNL A   1      31.789  30.453  26.085  1.00  0.00     0.023 C 
BRANCH  72  73
ATOM     73  C   UNL A   1      31.944  29.175  26.915  1.00  0.00     0.116 C 
BRANCH  73  74
ATOM     74  N   UNL A   1      32.950  28.320  26.322  1.00  0.00    -0.356 N 
ATOM     75  C   UNL A   1      32.878  26.991  26.063  1.00  0.00     0.224 C 
ATOM     76  H   UNL A   1      33.795  28.760  26.072  1.00  0.00     0.163 HD
ATOM     77  O   UNL A   1      33.936  26.360  26.089  1.00  0.00    -0.275 OA
BRANCH  75  78
ATOM     78  C   UNL A   1      31.548  26.364  25.653  1.00  0.00     0.094 C 
ATOM     79  C   UNL A   1      30.959  27.242  24.497  1.00  0.00     0.002 C 
ATOM     80  C   UNL A   1      31.695  24.873  25.202  1.00  0.00     0.094 C 
ATOM     81  C   UNL A   1      31.792  27.155  23.195  1.00  0.00     0.005 C 
ATOM     82  C   UNL A   1      29.582  26.671  24.164  1.00  0.00     0.005 C 
ATOM     83  C   UNL A   1      31.214  24.769  23.736  1.00  0.00     0.002 C 
ATOM     84  C   UNL A   1      32.135  25.690  22.894  1.00  0.00     0.005 C 
ATOM     85  C   UNL A   1      29.785  25.312  23.506  1.00  0.00     0.005 C 
BRANCH  80  86
ATOM     86  C   UNL A   1      31.242  23.918  26.347  1.00  0.00     0.229 C 
ATOM     87  O   UNL A   1      30.152  24.173  26.887  1.00  0.00    -0.274 OA
ATOM     88  N   UNL A   1      31.781  22.721  26.697  1.00  0.00    -0.317 N 
ATOM     89  H   UNL A   1      31.148  22.096  27.117  1.00  0.00     0.170 HD
BRANCH  88  90
ATOM     90  C   UNL A   1      33.055  22.232  26.566  1.00  0.00     0.108 A 
ATOM     91  S   UNL A   1      34.276  22.904  27.535  1.00  0.00    -0.122 S 
ATOM     92  C   UNL A   1      33.491  21.129  25.828  1.00  0.00     0.078 A 
ATOM     93  C   UNL A   1      35.449  22.265  26.488  1.00  0.00     0.011 A 
ATOM     94  C   UNL A   1      34.945  21.241  25.696  1.00  0.00    -0.019 A 
ATOM     95  C   UNL A   1      36.808  22.880  26.365  1.00  0.00     0.047 C 
ATOM     96  C   UNL A   1      35.833  20.575  24.684  1.00  0.00     0.037 C 
ATOM     97  C   UNL A   1      37.364  22.598  24.962  1.00  0.00     0.006 C 
ATOM     98  C   UNL A   1      37.275  21.106  24.650  1.00  0.00     0.005 C 
BRANCH  92  99
ATOM     99  C   UNL A   1      32.497  20.296  25.108  1.00  0.00     0.257 C 
ATOM    100  O   UNL A   1      31.457  20.795  24.671  1.00  0.00    -0.269 OA
ATOM    101  N   UNL A   1      32.812  18.976  24.802  1.00  0.00    -0.339 N 
ATOM    102  C   UNL A   1      32.378  18.488  23.498  1.00  0.00     0.120 C 
ATOM    103  C   UNL A   1      32.852  17.947  25.833  1.00  0.00     0.120 C 
ATOM    104  C   UNL A   1      33.340  17.417  23.001  1.00  0.00     0.022 C 
ATOM    105  C   UNL A   1      33.759  16.783  25.419  1.00  0.00     0.022 C 
ATOM    106  C   UNL A   1      33.452  16.273  24.009  1.00  0.00     0.004 C 
ENDBRANCH  92  99
ENDBRANCH  88  90
ENDBRANCH  80  86
ENDBRANCH  75  78
ENDBRANCH  73  74
ENDBRANCH  72  73
ENDBRANCH   1  72
TORSDOF 17
ENDMDL
