MODEL 1
REMARK VINA RESULT:     -12.5      0.000      0.000
REMARK SMILES COc1ccc(OC)c(S(=O)(=O)Nc2ccc(N3CCC(C)CC3)c(C(=O)NCCCCNC(=O)c3ccc(-c4c5nc(c(-c6cccc(S(=O)(=O)[O-])c6F)c6ccc([nH]6)c(-c6cccc(S(=O)(=O)[O-])c6F)c6nc(c(-c7cccc(S(=O)(=O)[O-])c7F)c7ccc4[nH]7)C=C6)C=C5)cc3)c2)c1
REMARK SMILES IDX 30 1 29 2 28 3 26 4 27 5 25 7 14 8 15 9 99 10 16 11 17 12
REMARK SMILES IDX 13 13 10 15 11 16 12 17 9 18 3 19 4 20 100 21 5 22 6 23 2 24
REMARK SMILES IDX 1 25 7 26 8 27 18 28 19 29 24 30 20 31 23 32 21 33 22 34
REMARK SMILES IDX 31 35 32 36 33 37 34 38 35 40 36 41 37 42 98 43 38 44 97 45
REMARK SMILES IDX 39 46 40 47 41 48 91 49 42 50 96 51 90 52 92 53 43 54 95 55
REMARK SMILES IDX 89 56 88 57 44 59 76 60 56 61 75 62 57 63 60 64 74 65 93 66
REMARK SMILES IDX 58 67 59 68 73 70 94 71 61 72 45 73 46 74 54 75 47 76 49 77
REMARK SMILES IDX 55 78 48 79 50 80 51 81 52 82 53 83 77 84 78 85 86 86 79 87
REMARK SMILES IDX 81 88 87 89 80 90 82 91 83 92 84 93 85 94 62 95 63 96 71 97
REMARK SMILES IDX 64 98 66 99 72 100 65 101 67 102 68 103 69 104 70 105
REMARK H PARENT 28 6 13 14 33 39 92 58 60 69
REMARK Flexibility Score: inf
ROOT
ATOM      1  C   UNL A   1      33.613  29.304  25.440  1.00  0.00     0.023 C 
ENDROOT
BRANCH   1   2
ATOM      2  C   UNL A   1      33.907  28.079  26.313  1.00  0.00     0.116 C 
BRANCH   2   3
ATOM      3  N   UNL A   1      32.673  27.433  26.711  1.00  0.00    -0.352 N 
ATOM      4  C   UNL A   1      31.917  26.419  26.170  1.00  0.00     0.253 C 
ATOM      5  O   UNL A   1      30.790  26.309  26.647  1.00  0.00    -0.269 OA
ATOM      6  H   UNL A   1      32.296  27.796  27.546  1.00  0.00     0.163 HD
BRANCH   4   7
ATOM      7  C   UNL A   1      32.391  25.518  25.060  1.00  0.00     0.065 A 
ATOM      8  C   UNL A   1      33.438  23.387  24.467  1.00  0.00     0.050 A 
ATOM      9  C   UNL A   1      33.253  23.662  23.123  1.00  0.00     0.029 A 
ATOM     10  C   UNL A   1      33.139  24.371  25.406  1.00  0.00     0.042 A 
ATOM     11  C   UNL A   1      32.600  24.830  22.745  1.00  0.00     0.029 A 
ATOM     12  C   UNL A   1      32.071  25.742  23.687  1.00  0.00     0.050 A 
BRANCH   8  13
ATOM     13  N   UNL A   1      33.867  22.072  24.790  1.00  0.00    -0.279 N 
ATOM     14  H   UNL A   1      34.740  21.785  24.436  1.00  0.00     0.180 HD
BRANCH  13  15
ATOM     15  S   UNL A   1      33.017  20.965  25.721  1.00  0.00     0.265 S 
ATOM     16  O   UNL A   1      31.610  21.175  25.444  1.00  0.00    -0.201 OA
ATOM     17  O   UNL A   1      33.559  21.125  27.052  1.00  0.00    -0.201 OA
BRANCH  15  18
ATOM     18  C   UNL A   1      33.446  19.318  25.197  1.00  0.00     0.133 A 
ATOM     19  C   UNL A   1      32.978  16.947  25.020  1.00  0.00     0.120 A 
ATOM     20  C   UNL A   1      34.315  16.709  24.696  1.00  0.00     0.050 A 
ATOM     21  C   UNL A   1      32.531  18.255  25.236  1.00  0.00     0.072 A 
ATOM     22  C   UNL A   1      35.213  17.768  24.592  1.00  0.00     0.052 A 
ATOM     23  C   UNL A   1      34.774  19.071  24.827  1.00  0.00     0.139 A 
BRANCH  19  24
ATOM     24  O   UNL A   1      32.206  15.820  25.098  1.00  0.00    -0.497 OA
ATOM     25  C   UNL A   1      32.864  14.630  25.515  1.00  0.00     0.278 C 
ENDBRANCH  19  24
BRANCH  23  26
ATOM     26  O   UNL A   1      35.710  20.061  24.743  1.00  0.00    -0.495 OA
ATOM     27  C   UNL A   1      37.035  19.531  24.859  1.00  0.00     0.278 C 
ENDBRANCH  23  26
ENDBRANCH  15  18
ENDBRANCH  13  15
ENDBRANCH   8  13
BRANCH  12  28
ATOM     28  N   UNL A   1      31.199  26.707  23.201  1.00  0.00    -0.371 N 
ATOM     29  C   UNL A   1      31.621  27.720  22.230  1.00  0.00     0.117 C 
ATOM     30  C   UNL A   1      29.750  26.500  23.253  1.00  0.00     0.117 C 
ATOM     31  C   UNL A   1      31.029  29.066  22.661  1.00  0.00     0.025 C 
ATOM     32  C   UNL A   1      29.067  27.804  23.654  1.00  0.00     0.025 C 
ATOM     33  C   UNL A   1      29.494  28.980  22.761  1.00  0.00    -0.011 C 
ATOM     34  C   UNL A   1      28.903  30.283  23.297  1.00  0.00     0.008 C 
ENDBRANCH  12  28
ENDBRANCH   4   7
ENDBRANCH   2   3
ENDBRANCH   1   2
BRANCH   1  35
ATOM     35  C   UNL A   1      32.390  30.111  25.882  1.00  0.00     0.023 C 
BRANCH  35  36
ATOM     36  C   UNL A   1      32.518  30.736  27.265  1.00  0.00     0.116 C 
BRANCH  36  37
ATOM     37  N   UNL A   1      32.649  32.187  27.232  1.00  0.00    -0.352 N 
ATOM     38  C   UNL A   1      33.715  32.938  27.667  1.00  0.00     0.251 C 
ATOM     39  H   UNL A   1      31.888  32.686  26.856  1.00  0.00     0.163 HD
ATOM     40  O   UNL A   1      33.670  34.163  27.677  1.00  0.00    -0.269 OA
BRANCH  38  41
ATOM     41  C   UNL A   1      34.915  32.232  28.155  1.00  0.00     0.039 A 
ATOM     42  C   UNL A   1      36.144  32.898  28.159  1.00  0.00     0.014 A 
ATOM     43  C   UNL A   1      34.800  30.939  28.675  1.00  0.00     0.014 A 
ATOM     44  C   UNL A   1      37.253  32.287  28.745  1.00  0.00     0.010 A 
ATOM     45  C   UNL A   1      35.891  30.359  29.308  1.00  0.00     0.010 A 
ATOM     46  C   UNL A   1      37.126  31.027  29.350  1.00  0.00    -0.014 A 
BRANCH  46  47
ATOM     47  C   UNL A   1      38.265  30.370  30.037  1.00  0.00     0.031 A 
ATOM     48  C   UNL A   1      38.629  30.788  31.433  1.00  0.00     0.074 A 
ATOM     49  C   UNL A   1      39.037  29.496  29.363  1.00  0.00     0.049 A 
ATOM     50  N   UNL A   1      39.664  30.447  32.153  1.00  0.00    -0.248 NA
ATOM     51  C   UNL A   1      37.727  31.748  32.093  1.00  0.00     0.031 C 
ATOM     52  C   UNL A   1      38.827  29.069  27.978  1.00  0.00     0.029 A 
ATOM     53  N   UNL A   1      40.180  28.838  29.742  1.00  0.00    -0.354 N 
ATOM     54  C   UNL A   1      39.567  31.184  33.326  1.00  0.00     0.074 A 
ATOM     55  C   UNL A   1      38.383  32.006  33.216  1.00  0.00     0.031 C 
ATOM     56  C   UNL A   1      39.811  28.228  27.622  1.00  0.00     0.029 A 
ATOM     57  C   UNL A   1      40.735  28.073  28.742  1.00  0.00     0.049 A 
ATOM     58  H   UNL A   1      40.569  28.907  30.644  1.00  0.00     0.167 HD
ATOM     59  C   UNL A   1      40.376  31.156  34.411  1.00  0.00     0.034 A 
ATOM     60  C   UNL A   1      41.862  27.335  28.729  1.00  0.00     0.034 A 
ATOM     61  C   UNL A   1      41.508  30.284  34.546  1.00  0.00     0.049 A 
ATOM     62  C   UNL A   1      42.699  27.262  29.979  1.00  0.00     0.074 A 
ATOM     63  C   UNL A   1      42.339  30.114  35.638  1.00  0.00     0.029 A 
ATOM     64  N   UNL A   1      41.963  29.424  33.558  1.00  0.00    -0.354 N 
ATOM     65  N   UNL A   1      42.510  27.853  31.133  1.00  0.00    -0.248 NA
ATOM     66  C   UNL A   1      43.884  26.392  29.938  1.00  0.00     0.031 C 
ATOM     67  C   UNL A   1      43.295  29.145  35.313  1.00  0.00     0.029 A 
ATOM     68  C   UNL A   1      43.057  28.713  34.017  1.00  0.00     0.049 A 
ATOM     69  H   UNL A   1      41.566  29.333  32.662  1.00  0.00     0.167 HD
ATOM     70  C   UNL A   1      43.526  27.401  31.966  1.00  0.00     0.074 A 
ATOM     71  C   UNL A   1      44.322  26.473  31.187  1.00  0.00     0.031 C 
ATOM     72  C   UNL A   1      43.788  27.737  33.253  1.00  0.00     0.034 A 
BRANCH  59  73
ATOM     73  C   UNL A   1      40.015  32.046  35.569  1.00  0.00     0.023 A 
ATOM     74  C   UNL A   1      40.686  33.277  35.725  1.00  0.00     0.012 A 
ATOM     75  C   UNL A   1      38.993  31.696  36.472  1.00  0.00     0.148 A 
ATOM     76  C   UNL A   1      40.366  34.132  36.778  1.00  0.00     0.002 A 
ATOM     77  C   UNL A   1      38.655  32.570  37.498  1.00  0.00     0.091 A 
ATOM     78  F   UNL A   1      38.387  30.509  36.325  1.00  0.00    -0.205 F 
ATOM     79  C   UNL A   1      39.345  33.783  37.658  1.00  0.00     0.022 A 
BRANCH  77  80
ATOM     80  S   UNL A   1      37.308  32.235  38.638  1.00  0.00     0.127 S 
ATOM     81  O   UNL A   1      36.201  32.955  38.010  1.00  0.00    -0.237 OA
ATOM     82  O   UNL A   1      37.198  30.777  38.575  1.00  0.00    -0.237 OA
ATOM     83  O   UNL A   1      37.746  32.749  39.929  1.00  0.00    -0.744 OA
ENDBRANCH  77  80
ENDBRANCH  59  73
BRANCH  60  84
ATOM     84  C   UNL A   1      42.212  26.534  27.524  1.00  0.00     0.023 A 
ATOM     85  C   UNL A   1      42.894  27.162  26.463  1.00  0.00     0.012 A 
ATOM     86  C   UNL A   1      41.917  25.161  27.433  1.00  0.00     0.148 A 
ATOM     87  C   UNL A   1      43.254  26.442  25.322  1.00  0.00     0.002 A 
ATOM     88  C   UNL A   1      42.319  24.439  26.313  1.00  0.00     0.091 A 
ATOM     89  F   UNL A   1      41.252  24.583  28.444  1.00  0.00    -0.205 F 
ATOM     90  C   UNL A   1      42.977  25.081  25.252  1.00  0.00     0.022 A 
BRANCH  88  91
ATOM     91  S   UNL A   1      42.109  22.658  26.200  1.00  0.00     0.127 S 
ATOM     92  O   UNL A   1      40.656  22.527  26.205  1.00  0.00    -0.237 OA
ATOM     93  O   UNL A   1      42.752  22.351  24.920  1.00  0.00    -0.237 OA
ATOM     94  O   UNL A   1      42.806  22.116  27.360  1.00  0.00    -0.744 OA
ENDBRANCH  88  91
ENDBRANCH  60  84
BRANCH  72  95
ATOM     95  C   UNL A   1      44.959  27.075  33.926  1.00  0.00     0.023 A 
ATOM     96  C   UNL A   1      46.245  27.629  33.780  1.00  0.00     0.012 A 
ATOM     97  C   UNL A   1      44.769  25.975  34.784  1.00  0.00     0.148 A 
ATOM     98  C   UNL A   1      47.330  27.087  34.466  1.00  0.00     0.002 A 
ATOM     99  C   UNL A   1      45.848  25.464  35.496  1.00  0.00     0.091 A 
ATOM    100  F   UNL A   1      43.539  25.450  34.891  1.00  0.00    -0.205 F 
ATOM    101  C   UNL A   1      47.130  26.014  35.333  1.00  0.00     0.022 A 
BRANCH  99 102
ATOM    102  S   UNL A   1      45.659  24.143  36.699  1.00  0.00     0.127 S 
ATOM    103  O   UNL A   1      45.589  22.963  35.840  1.00  0.00    -0.237 OA
ATOM    104  O   UNL A   1      46.889  24.255  37.484  1.00  0.00    -0.237 OA
ATOM    105  O   UNL A   1      44.445  24.455  37.442  1.00  0.00    -0.744 OA
ENDBRANCH  99 102
ENDBRANCH  72  95
ENDBRANCH  46  47
ENDBRANCH  38  41
ENDBRANCH  36  37
ENDBRANCH  35  36
ENDBRANCH   1  35
TORSDOF 20
ENDMDL
MODEL 2
REMARK VINA RESULT:     -12.2      2.074      7.650
REMARK SMILES COc1ccc(OC)c(S(=O)(=O)Nc2ccc(N3CCC(C)CC3)c(C(=O)NCCCCNC(=O)c3ccc(-c4c5nc(c(-c6cccc(S(=O)(=O)[O-])c6F)c6ccc([nH]6)c(-c6cccc(S(=O)(=O)[O-])c6F)c6nc(c(-c7cccc(S(=O)(=O)[O-])c7F)c7ccc4[nH]7)C=C6)C=C5)cc3)c2)c1
REMARK SMILES IDX 30 1 29 2 28 3 26 4 27 5 25 7 14 8 15 9 99 10 16 11 17 12
REMARK SMILES IDX 13 13 10 15 11 16 12 17 9 18 3 19 4 20 100 21 5 22 6 23 2 24
REMARK SMILES IDX 1 25 7 26 8 27 18 28 19 29 24 30 20 31 23 32 21 33 22 34
REMARK SMILES IDX 31 35 32 36 33 37 34 38 35 40 36 41 37 42 98 43 38 44 97 45
REMARK SMILES IDX 39 46 40 47 41 48 91 49 42 50 96 51 90 52 92 53 43 54 95 55
REMARK SMILES IDX 89 56 88 57 44 59 76 60 56 61 75 62 57 63 60 64 74 65 93 66
REMARK SMILES IDX 58 67 59 68 73 70 94 71 61 72 45 73 46 74 54 75 47 76 49 77
REMARK SMILES IDX 55 78 48 79 50 80 51 81 52 82 53 83 77 84 78 85 86 86 79 87
REMARK SMILES IDX 81 88 87 89 80 90 82 91 83 92 84 93 85 94 62 95 63 96 71 97
REMARK SMILES IDX 64 98 66 99 72 100 65 101 67 102 68 103 69 104 70 105
REMARK H PARENT 28 6 13 14 33 39 92 58 60 69
REMARK Flexibility Score: inf
ROOT
ATOM      1  C   UNL A   1      32.553  30.000  27.078  1.00  0.00     0.023 C 
ENDROOT
BRANCH   1   2
ATOM      2  C   UNL A   1      31.832  29.123  26.049  1.00  0.00     0.116 C 
BRANCH   2   3
ATOM      3  N   UNL A   1      31.451  27.857  26.640  1.00  0.00    -0.352 N 
ATOM      4  C   UNL A   1      31.616  26.546  26.259  1.00  0.00     0.253 C 
ATOM      5  O   UNL A   1      30.932  25.739  26.885  1.00  0.00    -0.269 OA
ATOM      6  H   UNL A   1      30.975  27.955  27.496  1.00  0.00     0.163 HD
BRANCH   4   7
ATOM      7  C   UNL A   1      32.530  26.103  25.146  1.00  0.00     0.065 A 
ATOM      8  C   UNL A   1      34.412  24.682  24.493  1.00  0.00     0.050 A 
ATOM      9  C   UNL A   1      34.272  25.088  23.177  1.00  0.00     0.029 A 
ATOM     10  C   UNL A   1      33.641  25.297  25.476  1.00  0.00     0.042 A 
ATOM     11  C   UNL A   1      33.241  25.955  22.833  1.00  0.00     0.029 A 
ATOM     12  C   UNL A   1      32.290  26.414  23.773  1.00  0.00     0.050 A 
BRANCH   8  13
ATOM     13  N   UNL A   1      35.306  23.603  24.730  1.00  0.00    -0.279 N 
ATOM     14  H   UNL A   1      36.098  23.541  24.148  1.00  0.00     0.180 HD
BRANCH  13  15
ATOM     15  S   UNL A   1      35.129  22.426  25.912  1.00  0.00     0.265 S 
ATOM     16  O   UNL A   1      34.298  22.997  26.953  1.00  0.00    -0.201 OA
ATOM     17  O   UNL A   1      36.480  21.982  26.179  1.00  0.00    -0.201 OA
BRANCH  15  18
ATOM     18  C   UNL A   1      34.268  21.032  25.215  1.00  0.00     0.133 A 
ATOM     19  C   UNL A   1      34.232  18.783  24.311  1.00  0.00     0.120 A 
ATOM     20  C   UNL A   1      32.958  19.016  23.789  1.00  0.00     0.050 A 
ATOM     21  C   UNL A   1      34.876  19.777  25.056  1.00  0.00     0.072 A 
ATOM     22  C   UNL A   1      32.324  20.238  24.000  1.00  0.00     0.052 A 
ATOM     23  C   UNL A   1      32.973  21.237  24.726  1.00  0.00     0.139 A 
BRANCH  19  24
ATOM     24  O   UNL A   1      34.744  17.547  24.024  1.00  0.00    -0.497 OA
ATOM     25  C   UNL A   1      33.873  16.440  24.224  1.00  0.00     0.278 C 
ENDBRANCH  19  24
BRANCH  23  26
ATOM     26  O   UNL A   1      32.312  22.423  24.868  1.00  0.00    -0.495 OA
ATOM     27  C   UNL A   1      31.510  22.709  23.717  1.00  0.00     0.278 C 
ENDBRANCH  23  26
ENDBRANCH  15  18
ENDBRANCH  13  15
ENDBRANCH   8  13
BRANCH  12  28
ATOM     28  N   UNL A   1      31.155  27.032  23.264  1.00  0.00    -0.371 N 
ATOM     29  C   UNL A   1      31.233  28.171  22.347  1.00  0.00     0.117 C 
ATOM     30  C   UNL A   1      29.873  26.325  23.228  1.00  0.00     0.117 C 
ATOM     31  C   UNL A   1      30.184  29.201  22.779  1.00  0.00     0.025 C 
ATOM     32  C   UNL A   1      28.755  27.285  23.624  1.00  0.00     0.025 C 
ATOM     33  C   UNL A   1      28.777  28.575  22.789  1.00  0.00    -0.011 C 
ATOM     34  C   UNL A   1      27.740  29.561  23.325  1.00  0.00     0.008 C 
ENDBRANCH  12  28
ENDBRANCH   4   7
ENDBRANCH   2   3
ENDBRANCH   1   2
BRANCH   1  35
ATOM     35  C   UNL A   1      32.073  31.452  27.112  1.00  0.00     0.023 C 
BRANCH  35  36
ATOM     36  C   UNL A   1      33.187  32.477  27.280  1.00  0.00     0.116 C 
BRANCH  36  37
ATOM     37  N   UNL A   1      32.698  33.818  27.572  1.00  0.00    -0.352 N 
ATOM     38  C   UNL A   1      33.142  34.674  28.552  1.00  0.00     0.251 C 
ATOM     39  H   UNL A   1      31.966  34.149  27.002  1.00  0.00     0.163 HD
ATOM     40  O   UNL A   1      32.585  35.744  28.764  1.00  0.00    -0.269 OA
BRANCH  38  41
ATOM     41  C   UNL A   1      34.296  34.258  29.372  1.00  0.00     0.039 A 
ATOM     42  C   UNL A   1      34.075  33.507  30.529  1.00  0.00     0.014 A 
ATOM     43  C   UNL A   1      35.596  34.554  28.949  1.00  0.00     0.014 A 
ATOM     44  C   UNL A   1      35.166  32.995  31.234  1.00  0.00     0.010 A 
ATOM     45  C   UNL A   1      36.676  33.995  29.619  1.00  0.00     0.010 A 
ATOM     46  C   UNL A   1      36.471  33.210  30.766  1.00  0.00    -0.014 A 
BRANCH  46  47
ATOM     47  C   UNL A   1      37.653  32.632  31.450  1.00  0.00     0.031 A 
ATOM     48  C   UNL A   1      38.386  31.483  30.819  1.00  0.00     0.074 A 
ATOM     49  C   UNL A   1      37.985  33.058  32.684  1.00  0.00     0.049 A 
ATOM     50  N   UNL A   1      39.346  30.747  31.311  1.00  0.00    -0.248 NA
ATOM     51  C   UNL A   1      37.955  31.085  29.468  1.00  0.00     0.031 C 
ATOM     52  C   UNL A   1      37.300  34.117  33.429  1.00  0.00     0.029 A 
ATOM     53  N   UNL A   1      38.960  32.625  33.546  1.00  0.00    -0.354 N 
ATOM     54  C   UNL A   1      39.601  29.771  30.356  1.00  0.00     0.074 A 
ATOM     55  C   UNL A   1      38.682  29.995  29.263  1.00  0.00     0.031 C 
ATOM     56  C   UNL A   1      37.871  34.245  34.638  1.00  0.00     0.029 A 
ATOM     57  C   UNL A   1      38.946  33.264  34.764  1.00  0.00     0.049 A 
ATOM     58  H   UNL A   1      39.610  31.921  33.316  1.00  0.00     0.167 HD
ATOM     59  C   UNL A   1      40.536  28.793  30.376  1.00  0.00     0.034 A 
ATOM     60  C   UNL A   1      39.710  33.077  35.858  1.00  0.00     0.034 A 
ATOM     61  C   UNL A   1      41.495  28.620  31.431  1.00  0.00     0.049 A 
ATOM     62  C   UNL A   1      40.795  32.035  35.820  1.00  0.00     0.074 A 
ATOM     63  C   UNL A   1      42.541  27.718  31.505  1.00  0.00     0.029 A 
ATOM     64  N   UNL A   1      41.533  29.375  32.593  1.00  0.00    -0.354 N 
ATOM     65  N   UNL A   1      41.118  31.217  34.847  1.00  0.00    -0.248 NA
ATOM     66  C   UNL A   1      41.645  31.912  37.014  1.00  0.00     0.031 C 
ATOM     67  C   UNL A   1      43.216  27.932  32.712  1.00  0.00     0.029 A 
ATOM     68  C   UNL A   1      42.589  28.967  33.387  1.00  0.00     0.049 A 
ATOM     69  H   UNL A   1      40.901  30.095  32.819  1.00  0.00     0.167 HD
ATOM     70  C   UNL A   1      42.228  30.511  35.294  1.00  0.00     0.074 A 
ATOM     71  C   UNL A   1      42.532  31.007  36.622  1.00  0.00     0.031 C 
ATOM     72  C   UNL A   1      42.922  29.527  34.671  1.00  0.00     0.034 A 
BRANCH  59  73
ATOM     73  C   UNL A   1      40.613  27.882  29.181  1.00  0.00     0.023 A 
ATOM     74  C   UNL A   1      39.749  26.770  29.108  1.00  0.00     0.012 A 
ATOM     75  C   UNL A   1      41.498  28.142  28.118  1.00  0.00     0.148 A 
ATOM     76  C   UNL A   1      39.784  25.914  28.009  1.00  0.00     0.002 A 
ATOM     77  C   UNL A   1      41.502  27.305  27.008  1.00  0.00     0.091 A 
ATOM     78  F   UNL A   1      42.333  29.186  28.219  1.00  0.00    -0.205 F 
ATOM     79  C   UNL A   1      40.654  26.187  26.955  1.00  0.00     0.022 A 
BRANCH  77  80
ATOM     80  S   UNL A   1      42.540  27.617  25.575  1.00  0.00     0.127 S 
ATOM     81  O   UNL A   1      42.276  26.436  24.754  1.00  0.00    -0.237 OA
ATOM     82  O   UNL A   1      41.980  28.862  25.047  1.00  0.00    -0.237 OA
ATOM     83  O   UNL A   1      43.897  27.739  26.090  1.00  0.00    -0.744 OA
ENDBRANCH  77  80
ENDBRANCH  59  73
BRANCH  60  84
ATOM     84  C   UNL A   1      39.535  33.959  37.045  1.00  0.00     0.023 A 
ATOM     85  C   UNL A   1      39.950  35.303  36.963  1.00  0.00     0.012 A 
ATOM     86  C   UNL A   1      38.932  33.498  38.231  1.00  0.00     0.148 A 
ATOM     87  C   UNL A   1      39.790  36.165  38.048  1.00  0.00     0.002 A 
ATOM     88  C   UNL A   1      38.734  34.376  39.293  1.00  0.00     0.091 A 
ATOM     89  F   UNL A   1      38.559  32.212  38.299  1.00  0.00    -0.205 F 
ATOM     90  C   UNL A   1      39.173  35.706  39.207  1.00  0.00     0.022 A 
BRANCH  88  91
ATOM     91  S   UNL A   1      37.837  33.894  40.773  1.00  0.00     0.127 S 
ATOM     92  O   UNL A   1      38.777  32.977  41.409  1.00  0.00    -0.237 OA
ATOM     93  O   UNL A   1      37.665  35.176  41.461  1.00  0.00    -0.237 OA
ATOM     94  O   UNL A   1      36.593  33.306  40.293  1.00  0.00    -0.744 OA
ENDBRANCH  88  91
ENDBRANCH  60  84
BRANCH  72  95
ATOM     95  C   UNL A   1      44.106  28.940  35.389  1.00  0.00     0.023 A 
ATOM     96  C   UNL A   1      45.376  29.526  35.223  1.00  0.00     0.012 A 
ATOM     97  C   UNL A   1      43.942  27.882  36.304  1.00  0.00     0.148 A 
ATOM     98  C   UNL A   1      46.471  29.056  35.946  1.00  0.00     0.002 A 
ATOM     99  C   UNL A   1      45.030  27.444  37.050  1.00  0.00     0.091 A 
ATOM    100  F   UNL A   1      42.728  27.325  36.429  1.00  0.00    -0.205 F 
ATOM    101  C   UNL A   1      46.295  28.025  36.868  1.00  0.00     0.022 A 
BRANCH  99 102
ATOM    102  S   UNL A   1      44.871  26.185  38.321  1.00  0.00     0.127 S 
ATOM    103  O   UNL A   1      43.781  25.365  37.796  1.00  0.00    -0.237 OA
ATOM    104  O   UNL A   1      46.185  25.543  38.294  1.00  0.00    -0.237 OA
ATOM    105  O   UNL A   1      44.580  26.902  39.556  1.00  0.00    -0.744 OA
ENDBRANCH  99 102
ENDBRANCH  72  95
ENDBRANCH  46  47
ENDBRANCH  38  41
ENDBRANCH  36  37
ENDBRANCH  35  36
ENDBRANCH   1  35
TORSDOF 20
ENDMDL
MODEL 3
REMARK VINA RESULT:     -11.7      2.456      7.680
REMARK SMILES COc1ccc(OC)c(S(=O)(=O)Nc2ccc(N3CCC(C)CC3)c(C(=O)NCCCCNC(=O)c3ccc(-c4c5nc(c(-c6cccc(S(=O)(=O)[O-])c6F)c6ccc([nH]6)c(-c6cccc(S(=O)(=O)[O-])c6F)c6nc(c(-c7cccc(S(=O)(=O)[O-])c7F)c7ccc4[nH]7)C=C6)C=C5)cc3)c2)c1
REMARK SMILES IDX 30 1 29 2 28 3 26 4 27 5 25 7 14 8 15 9 99 10 16 11 17 12
REMARK SMILES IDX 13 13 10 15 11 16 12 17 9 18 3 19 4 20 100 21 5 22 6 23 2 24
REMARK SMILES IDX 1 25 7 26 8 27 18 28 19 29 24 30 20 31 23 32 21 33 22 34
REMARK SMILES IDX 31 35 32 36 33 37 34 38 35 40 36 41 37 42 98 43 38 44 97 45
REMARK SMILES IDX 39 46 40 47 41 48 91 49 42 50 96 51 90 52 92 53 43 54 95 55
REMARK SMILES IDX 89 56 88 57 44 59 76 60 56 61 75 62 57 63 60 64 74 65 93 66
REMARK SMILES IDX 58 67 59 68 73 70 94 71 61 72 45 73 46 74 54 75 47 76 49 77
REMARK SMILES IDX 55 78 48 79 50 80 51 81 52 82 53 83 77 84 78 85 86 86 79 87
REMARK SMILES IDX 81 88 87 89 80 90 82 91 83 92 84 93 85 94 62 95 63 96 71 97
REMARK SMILES IDX 64 98 66 99 72 100 65 101 67 102 68 103 69 104 70 105
REMARK H PARENT 28 6 13 14 33 39 92 58 60 69
REMARK Flexibility Score: inf
ROOT
ATOM      1  C   UNL A   1      34.205  30.827  27.599  1.00  0.00     0.023 C 
ENDROOT
BRANCH   1   2
ATOM      2  C   UNL A   1      33.799  29.643  26.717  1.00  0.00     0.116 C 
BRANCH   2   3
ATOM      3  N   UNL A   1      32.795  28.837  27.382  1.00  0.00    -0.352 N 
ATOM      4  C   UNL A   1      32.118  27.691  27.036  1.00  0.00     0.253 C 
ATOM      5  O   UNL A   1      31.146  27.435  27.743  1.00  0.00    -0.269 OA
ATOM      6  H   UNL A   1      32.545  29.183  28.269  1.00  0.00     0.163 HD
BRANCH   4   7
ATOM      7  C   UNL A   1      32.493  26.813  25.870  1.00  0.00     0.065 A 
ATOM      8  C   UNL A   1      33.672  24.803  25.124  1.00  0.00     0.050 A 
ATOM      9  C   UNL A   1      33.216  25.006  23.833  1.00  0.00     0.029 A 
ATOM     10  C   UNL A   1      33.427  25.777  26.088  1.00  0.00     0.042 A 
ATOM     11  C   UNL A   1      32.366  26.073  23.565  1.00  0.00     0.029 A 
ATOM     12  C   UNL A   1      31.906  26.949  24.576  1.00  0.00     0.050 A 
BRANCH   8  13
ATOM     13  N   UNL A   1      34.311  23.561  25.381  1.00  0.00    -0.279 N 
ATOM     14  H   UNL A   1      35.256  23.479  25.116  1.00  0.00     0.180 HD
BRANCH  13  15
ATOM     15  S   UNL A   1      33.598  22.220  26.094  1.00  0.00     0.265 S 
ATOM     16  O   UNL A   1      32.182  22.286  25.792  1.00  0.00    -0.201 OA
ATOM     17  O   UNL A   1      34.082  22.240  27.457  1.00  0.00    -0.201 OA
BRANCH  15  18
ATOM     18  C   UNL A   1      34.258  20.746  25.345  1.00  0.00     0.133 A 
ATOM     19  C   UNL A   1      34.028  18.460  24.574  1.00  0.00     0.120 A 
ATOM     20  C   UNL A   1      35.418  18.343  24.514  1.00  0.00     0.050 A 
ATOM     21  C   UNL A   1      33.443  19.673  24.955  1.00  0.00     0.072 A 
ATOM     22  C   UNL A   1      36.230  19.426  24.839  1.00  0.00     0.052 A 
ATOM     23  C   UNL A   1      35.649  20.630  25.238  1.00  0.00     0.139 A 
BRANCH  19  24
ATOM     24  O   UNL A   1      33.349  17.320  24.239  1.00  0.00    -0.497 OA
ATOM     25  C   UNL A   1      33.965  16.479  23.271  1.00  0.00     0.278 C 
ENDBRANCH  19  24
BRANCH  23  26
ATOM     26  O   UNL A   1      36.500  21.643  25.575  1.00  0.00    -0.495 OA
ATOM     27  C   UNL A   1      37.678  21.621  24.762  1.00  0.00     0.278 C 
ENDBRANCH  23  26
ENDBRANCH  15  18
ENDBRANCH  13  15
ENDBRANCH   8  13
BRANCH  12  28
ATOM     28  N   UNL A   1      30.849  27.785  24.244  1.00  0.00    -0.371 N 
ATOM     29  C   UNL A   1      29.453  27.347  24.325  1.00  0.00     0.117 C 
ATOM     30  C   UNL A   1      31.017  29.240  24.250  1.00  0.00     0.117 C 
ATOM     31  C   UNL A   1      28.724  27.849  23.074  1.00  0.00     0.025 C 
ATOM     32  C   UNL A   1      30.298  29.837  23.043  1.00  0.00     0.025 C 
ATOM     33  C   UNL A   1      28.833  29.382  22.959  1.00  0.00    -0.011 C 
ATOM     34  C   UNL A   1      28.206  29.881  21.658  1.00  0.00     0.008 C 
ENDBRANCH  12  28
ENDBRANCH   4   7
ENDBRANCH   2   3
ENDBRANCH   1   2
BRANCH   1  35
ATOM     35  C   UNL A   1      33.191  31.973  27.619  1.00  0.00     0.023 C 
BRANCH  35  36
ATOM     36  C   UNL A   1      33.795  33.350  27.383  1.00  0.00     0.116 C 
BRANCH  36  37
ATOM     37  N   UNL A   1      33.058  34.423  28.037  1.00  0.00    -0.352 N 
ATOM     38  C   UNL A   1      33.289  34.955  29.284  1.00  0.00     0.251 C 
ATOM     39  H   UNL A   1      32.310  34.811  27.529  1.00  0.00     0.163 HD
ATOM     40  O   UNL A   1      32.537  35.793  29.769  1.00  0.00    -0.269 OA
BRANCH  38  41
ATOM     41  C   UNL A   1      34.455  34.468  30.047  1.00  0.00     0.039 A 
ATOM     42  C   UNL A   1      34.247  33.647  31.158  1.00  0.00     0.014 A 
ATOM     43  C   UNL A   1      35.749  34.770  29.612  1.00  0.00     0.014 A 
ATOM     44  C   UNL A   1      35.345  33.072  31.801  1.00  0.00     0.010 A 
ATOM     45  C   UNL A   1      36.834  34.150  30.218  1.00  0.00     0.010 A 
ATOM     46  C   UNL A   1      36.642  33.296  31.316  1.00  0.00    -0.014 A 
BRANCH  46  47
ATOM     47  C   UNL A   1      37.829  32.656  31.932  1.00  0.00     0.031 A 
ATOM     48  C   UNL A   1      38.495  31.503  31.235  1.00  0.00     0.074 A 
ATOM     49  C   UNL A   1      38.226  33.028  33.164  1.00  0.00     0.049 A 
ATOM     50  N   UNL A   1      39.447  30.719  31.663  1.00  0.00    -0.248 NA
ATOM     51  C   UNL A   1      37.997  31.166  29.890  1.00  0.00     0.031 C 
ATOM     52  C   UNL A   1      37.610  34.084  33.970  1.00  0.00     0.029 A 
ATOM     53  N   UNL A   1      39.219  32.533  33.971  1.00  0.00    -0.354 N 
ATOM     54  C   UNL A   1      39.628  29.767  30.668  1.00  0.00     0.074 A 
ATOM     55  C   UNL A   1      38.675  30.059  29.621  1.00  0.00     0.031 C 
ATOM     56  C   UNL A   1      38.233  34.152  35.157  1.00  0.00     0.029 A 
ATOM     57  C   UNL A   1      39.276  33.132  35.208  1.00  0.00     0.049 A 
ATOM     58  H   UNL A   1      39.833  31.816  33.691  1.00  0.00     0.167 HD
ATOM     59  C   UNL A   1      40.529  28.757  30.617  1.00  0.00     0.034 A 
ATOM     60  C   UNL A   1      40.077  32.882  36.263  1.00  0.00     0.034 A 
ATOM     61  C   UNL A   1      41.522  28.517  31.626  1.00  0.00     0.049 A 
ATOM     62  C   UNL A   1      41.122  31.805  36.146  1.00  0.00     0.074 A 
ATOM     63  C   UNL A   1      42.537  27.577  31.628  1.00  0.00     0.029 A 
ATOM     64  N   UNL A   1      41.634  29.231  32.809  1.00  0.00    -0.354 N 
ATOM     65  N   UNL A   1      41.376  31.009  35.136  1.00  0.00    -0.248 NA
ATOM     66  C   UNL A   1      42.014  31.614  37.300  1.00  0.00     0.031 C 
ATOM     67  C   UNL A   1      43.268  27.727  32.812  1.00  0.00     0.029 A 
ATOM     68  C   UNL A   1      42.706  28.760  33.545  1.00  0.00     0.049 A 
ATOM     69  H   UNL A   1      41.037  29.964  33.084  1.00  0.00     0.167 HD
ATOM     70  C   UNL A   1      42.477  30.251  35.514  1.00  0.00     0.074 A 
ATOM     71  C   UNL A   1      42.852  30.692  36.843  1.00  0.00     0.031 C 
ATOM     72  C   UNL A   1      43.110  29.266  34.831  1.00  0.00     0.034 A 
BRANCH  59  73
ATOM     73  C   UNL A   1      40.525  27.884  29.392  1.00  0.00     0.023 A 
ATOM     74  C   UNL A   1      39.570  26.852  29.286  1.00  0.00     0.012 A 
ATOM     75  C   UNL A   1      41.425  28.106  28.332  1.00  0.00     0.148 A 
ATOM     76  C   UNL A   1      39.530  26.035  28.159  1.00  0.00     0.002 A 
ATOM     77  C   UNL A   1      41.355  27.310  27.195  1.00  0.00     0.091 A 
ATOM     78  F   UNL A   1      42.345  29.073  28.464  1.00  0.00    -0.205 F 
ATOM     79  C   UNL A   1      40.416  26.270  27.109  1.00  0.00     0.022 A 
BRANCH  77  80
ATOM     80  S   UNL A   1      42.411  27.583  25.767  1.00  0.00     0.127 S 
ATOM     81  O   UNL A   1      42.019  28.933  25.362  1.00  0.00    -0.237 OA
ATOM     82  O   UNL A   1      43.752  27.487  26.344  1.00  0.00    -0.237 OA
ATOM     83  O   UNL A   1      42.083  26.520  24.826  1.00  0.00    -0.744 OA
ENDBRANCH  77  80
ENDBRANCH  59  73
BRANCH  60  84
ATOM     84  C   UNL A   1      39.982  33.730  37.484  1.00  0.00     0.023 A 
ATOM     85  C   UNL A   1      39.001  33.427  38.449  1.00  0.00     0.012 A 
ATOM     86  C   UNL A   1      40.869  34.798  37.718  1.00  0.00     0.148 A 
ATOM     87  C   UNL A   1      38.890  34.188  39.614  1.00  0.00     0.002 A 
ATOM     88  C   UNL A   1      40.782  35.522  38.902  1.00  0.00     0.091 A 
ATOM     89  F   UNL A   1      41.785  35.083  36.781  1.00  0.00    -0.205 F 
ATOM     90  C   UNL A   1      39.786  35.227  39.846  1.00  0.00     0.022 A 
BRANCH  88  91
ATOM     91  S   UNL A   1      41.975  36.796  39.331  1.00  0.00     0.127 S 
ATOM     92  O   UNL A   1      42.987  36.029  40.049  1.00  0.00    -0.237 OA
ATOM     93  O   UNL A   1      42.391  37.286  38.015  1.00  0.00    -0.237 OA
ATOM     94  O   UNL A   1      41.230  37.770  40.119  1.00  0.00    -0.744 OA
ENDBRANCH  88  91
ENDBRANCH  60  84
BRANCH  72  95
ATOM     95  C   UNL A   1      44.300  28.615  35.480  1.00  0.00     0.023 A 
ATOM     96  C   UNL A   1      45.592  29.098  35.199  1.00  0.00     0.012 A 
ATOM     97  C   UNL A   1      44.132  27.602  36.444  1.00  0.00     0.148 A 
ATOM     98  C   UNL A   1      46.703  28.571  35.855  1.00  0.00     0.002 A 
ATOM     99  C   UNL A   1      45.239  27.108  37.123  1.00  0.00     0.091 A 
ATOM    100  F   UNL A   1      42.894  27.141  36.679  1.00  0.00    -0.205 F 
ATOM    101  C   UNL A   1      46.525  27.587  36.826  1.00  0.00     0.022 A 
BRANCH  99 102
ATOM    102  S   UNL A   1      45.088  25.905  38.449  1.00  0.00     0.127 S 
ATOM    103  O   UNL A   1      46.476  25.757  38.879  1.00  0.00    -0.237 OA
ATOM    104  O   UNL A   1      44.223  26.598  39.405  1.00  0.00    -0.237 OA
ATOM    105  O   UNL A   1      44.486  24.723  37.845  1.00  0.00    -0.744 OA
ENDBRANCH  99 102
ENDBRANCH  72  95
ENDBRANCH  46  47
ENDBRANCH  38  41
ENDBRANCH  36  37
ENDBRANCH  35  36
ENDBRANCH   1  35
TORSDOF 20
ENDMDL
