MODEL 1
REMARK VINA RESULT:     -12.6      0.000      0.000
REMARK SMILES Cc1ccc(NC(=O)Cn2c(CCC(=O)NCCCCNC(=O)c3ccc(-c4c5nc(c(-c6cccc(S(=O)(=O)[O-])c6F)c6ccc([nH]6)c(-c6cccc(S(=O)(=O)[O-])c6F)c6nc(c(-c7cccc(S(=O)(=O)[O-])c7F)c7ccc4[nH]7)C=C6)C=C5)cc3)ccc2-c2ccccc2)cc1
REMARK SMILES IDX 17 1 16 2 14 3 15 4 13 6 12 7 11 8 10 9 89 10 87 11 88 12
REMARK SMILES IDX 9 13 7 14 6 15 8 17 5 18 1 19 2 20 3 21 97 22 4 23 96 24
REMARK SMILES IDX 90 25 91 26 95 27 92 28 94 29 93 30 18 31 19 32 20 33 21 34
REMARK SMILES IDX 22 35 23 37 24 38 25 39 86 40 26 41 85 42 27 43 28 44 29 45
REMARK SMILES IDX 79 46 30 47 84 48 78 49 80 50 31 51 83 52 77 53 76 54 32 56
REMARK SMILES IDX 64 57 44 58 63 59 45 60 48 61 62 62 81 63 46 64 47 65 61 67
REMARK SMILES IDX 82 68 49 69 33 70 34 71 42 72 35 73 37 74 43 75 36 76 38 77
REMARK SMILES IDX 39 78 40 79 41 80 65 81 66 82 74 83 67 84 69 85 75 86 68 87
REMARK SMILES IDX 70 88 71 89 72 90 73 91 50 92 51 93 59 94 52 95 54 96 60 97
REMARK SMILES IDX 53 98 55 99 56 100 57 101 58 102
REMARK H PARENT 16 5 6 16 21 36 80 55 48 66
REMARK Flexibility Score: inf
ROOT
ATOM      1  C   UNL A   1      35.192  21.449  25.966  1.00  0.00     0.116 C 
ENDROOT
BRANCH   1   2
ATOM      2  N   UNL A   1      34.136  20.440  26.082  1.00  0.00    -0.356 N 
ATOM      3  C   UNL A   1      33.213  20.040  25.165  1.00  0.00     0.220 C 
ATOM      4  O   UNL A   1      32.498  19.062  25.408  1.00  0.00    -0.275 OA
ATOM      5  H   UNL A   1      34.086  19.984  26.953  1.00  0.00     0.163 HD
BRANCH   3   6
ATOM      6  C   UNL A   1      33.042  20.786  23.862  1.00  0.00     0.106 C 
BRANCH   6   7
ATOM      7  C   UNL A   1      31.750  21.598  23.892  1.00  0.00     0.064 C 
BRANCH   7   8
ATOM      8  C   UNL A   1      31.767  22.717  24.895  1.00  0.00     0.019 A 
ATOM      9  N   UNL A   1      32.532  23.877  24.897  1.00  0.00    -0.335 N 
ATOM     10  C   UNL A   1      32.065  24.702  25.936  1.00  0.00     0.049 A 
ATOM     11  C   UNL A   1      30.949  22.756  26.014  1.00  0.00     0.024 A 
ATOM     12  C   UNL A   1      31.131  23.986  26.657  1.00  0.00     0.029 A 
BRANCH   9  13
ATOM     13  C   UNL A   1      33.573  24.368  23.976  1.00  0.00     0.222 C 
BRANCH  13  14
ATOM     14  C   UNL A   1      33.345  24.529  22.493  1.00  0.00     0.244 C 
ATOM     15  N   UNL A   1      32.715  25.595  21.919  1.00  0.00    -0.325 N 
ATOM     16  H   UNL A   1      32.724  25.596  20.934  1.00  0.00     0.169 HD
ATOM     17  O   UNL A   1      33.675  23.610  21.729  1.00  0.00    -0.273 OA
BRANCH  15  18
ATOM     18  C   UNL A   1      32.059  26.686  22.496  1.00  0.00     0.041 A 
ATOM     19  C   UNL A   1      29.738  30.090  23.705  1.00  0.00     0.044 C 
ATOM     20  C   UNL A   1      30.557  28.875  23.394  1.00  0.00    -0.051 A 
ATOM     21  C   UNL A   1      31.928  29.004  23.152  1.00  0.00     0.005 A 
ATOM     22  C   UNL A   1      29.956  27.620  23.253  1.00  0.00     0.005 A 
ATOM     23  C   UNL A   1      32.676  27.913  22.710  1.00  0.00     0.026 A 
ATOM     24  C   UNL A   1      30.712  26.523  22.837  1.00  0.00     0.026 A 
ENDBRANCH  15  18
ENDBRANCH  13  14
ENDBRANCH   9  13
BRANCH  10  25
ATOM     25  C   UNL A   1      32.385  26.119  26.126  1.00  0.00    -0.002 A 
ATOM     26  C   UNL A   1      33.690  26.596  25.987  1.00  0.00     0.010 A 
ATOM     27  C   UNL A   1      31.393  26.991  26.588  1.00  0.00     0.010 A 
ATOM     28  C   UNL A   1      33.985  27.932  26.286  1.00  0.00     0.001 A 
ATOM     29  C   UNL A   1      31.679  28.326  26.875  1.00  0.00     0.001 A 
ATOM     30  C   UNL A   1      32.979  28.795  26.724  1.00  0.00     0.000 A 
ENDBRANCH  10  25
ENDBRANCH   7   8
ENDBRANCH   6   7
ENDBRANCH   3   6
ENDBRANCH   1   2
BRANCH   1  31
ATOM     31  C   UNL A   1      36.087  21.197  24.751  1.00  0.00     0.023 C 
BRANCH  31  32
ATOM     32  C   UNL A   1      37.501  20.693  25.099  1.00  0.00     0.023 C 
BRANCH  32  33
ATOM     33  C   UNL A   1      38.494  21.817  25.480  1.00  0.00     0.116 C 
BRANCH  33  34
ATOM     34  N   UNL A   1      39.425  21.397  26.531  1.00  0.00    -0.352 N 
ATOM     35  C   UNL A   1      40.292  22.094  27.342  1.00  0.00     0.251 C 
ATOM     36  H   UNL A   1      39.432  20.425  26.688  1.00  0.00     0.163 HD
ATOM     37  O   UNL A   1      41.146  21.451  27.960  1.00  0.00    -0.269 OA
BRANCH  35  38
ATOM     38  C   UNL A   1      40.290  23.582  27.489  1.00  0.00     0.039 A 
ATOM     39  C   UNL A   1      41.326  24.198  28.226  1.00  0.00     0.014 A 
ATOM     40  C   UNL A   1      39.270  24.390  27.005  1.00  0.00     0.014 A 
ATOM     41  C   UNL A   1      41.423  25.604  28.350  1.00  0.00     0.010 A 
ATOM     42  C   UNL A   1      39.349  25.787  27.160  1.00  0.00     0.010 A 
ATOM     43  C   UNL A   1      40.457  26.425  27.766  1.00  0.00    -0.014 A 
BRANCH  43  44
ATOM     44  C   UNL A   1      40.769  27.812  27.273  1.00  0.00     0.031 A 
ATOM     45  C   UNL A   1      40.013  28.807  28.047  1.00  0.00     0.074 A 
ATOM     46  C   UNL A   1      41.920  28.352  26.792  1.00  0.00     0.049 A 
ATOM     47  N   UNL A   1      40.587  29.367  29.057  1.00  0.00    -0.248 NA
ATOM     48  C   UNL A   1      38.588  29.034  27.919  1.00  0.00     0.031 C 
ATOM     49  C   UNL A   1      43.064  27.614  26.294  1.00  0.00     0.029 A 
ATOM     50  N   UNL A   1      42.384  29.694  26.922  1.00  0.00    -0.354 N 
ATOM     51  C   UNL A   1      39.605  29.982  29.771  1.00  0.00     0.074 A 
ATOM     52  C   UNL A   1      38.382  29.768  29.019  1.00  0.00     0.031 C 
ATOM     53  C   UNL A   1      44.139  28.426  26.327  1.00  0.00     0.029 A 
ATOM     54  C   UNL A   1      43.782  29.752  26.886  1.00  0.00     0.049 A 
ATOM     55  H   UNL A   1      41.796  30.478  27.023  1.00  0.00     0.167 HD
ATOM     56  C   UNL A   1      39.869  30.486  31.000  1.00  0.00     0.034 A 
ATOM     57  C   UNL A   1      44.602  30.385  27.782  1.00  0.00     0.034 A 
ATOM     58  C   UNL A   1      40.900  29.745  31.772  1.00  0.00     0.049 A 
ATOM     59  C   UNL A   1      44.880  29.344  28.799  1.00  0.00     0.074 A 
ATOM     60  C   UNL A   1      41.064  29.410  33.105  1.00  0.00     0.029 A 
ATOM     61  N   UNL A   1      41.954  29.097  31.136  1.00  0.00    -0.354 N 
ATOM     62  N   UNL A   1      43.965  28.943  29.617  1.00  0.00    -0.248 NA
ATOM     63  C   UNL A   1      46.189  28.748  28.969  1.00  0.00     0.031 C 
ATOM     64  C   UNL A   1      42.153  28.479  33.215  1.00  0.00     0.029 A 
ATOM     65  C   UNL A   1      42.677  28.239  31.953  1.00  0.00     0.049 A 
ATOM     66  H   UNL A   1      42.169  29.236  30.185  1.00  0.00     0.167 HD
ATOM     67  C   UNL A   1      44.544  28.028  30.453  1.00  0.00     0.074 A 
ATOM     68  C   UNL A   1      45.925  27.931  29.996  1.00  0.00     0.031 C 
ATOM     69  C   UNL A   1      43.805  27.424  31.427  1.00  0.00     0.034 A 
BRANCH  56  70
ATOM     70  C   UNL A   1      39.371  31.888  31.321  1.00  0.00     0.023 A 
ATOM     71  C   UNL A   1      39.671  32.896  30.382  1.00  0.00     0.012 A 
ATOM     72  C   UNL A   1      38.455  32.245  32.345  1.00  0.00     0.148 A 
ATOM     73  C   UNL A   1      39.080  34.167  30.438  1.00  0.00     0.002 A 
ATOM     74  C   UNL A   1      37.831  33.494  32.378  1.00  0.00     0.091 A 
ATOM     75  F   UNL A   1      38.155  31.379  33.311  1.00  0.00    -0.205 F 
ATOM     76  C   UNL A   1      38.147  34.463  31.427  1.00  0.00     0.022 A 
BRANCH  74  77
ATOM     77  S   UNL A   1      36.550  33.891  33.588  1.00  0.00     0.127 S 
ATOM     78  O   UNL A   1      35.527  32.885  33.304  1.00  0.00    -0.237 OA
ATOM     79  O   UNL A   1      37.253  33.710  34.857  1.00  0.00    -0.237 OA
ATOM     80  O   UNL A   1      36.131  35.263  33.316  1.00  0.00    -0.744 OA
ENDBRANCH  74  77
ENDBRANCH  56  70
BRANCH  57  81
ATOM     81  C   UNL A   1      44.680  31.792  28.336  1.00  0.00     0.023 A 
ATOM     82  C   UNL A   1      44.422  31.992  29.703  1.00  0.00     0.012 A 
ATOM     83  C   UNL A   1      44.678  32.956  27.506  1.00  0.00     0.148 A 
ATOM     84  C   UNL A   1      44.129  33.274  30.207  1.00  0.00     0.002 A 
ATOM     85  C   UNL A   1      44.347  34.216  28.002  1.00  0.00     0.091 A 
ATOM     86  F   UNL A   1      44.966  32.853  26.206  1.00  0.00    -0.205 F 
ATOM     87  C   UNL A   1      44.067  34.378  29.358  1.00  0.00     0.022 A 
BRANCH  85  88
ATOM     88  S   UNL A   1      44.083  35.625  26.899  1.00  0.00     0.127 S 
ATOM     89  O   UNL A   1      45.429  35.842  26.348  1.00  0.00    -0.237 OA
ATOM     90  O   UNL A   1      43.111  35.123  25.958  1.00  0.00    -0.237 OA
ATOM     91  O   UNL A   1      43.649  36.721  27.775  1.00  0.00    -0.744 OA
ENDBRANCH  85  88
ENDBRANCH  57  81
BRANCH  69  92
ATOM     92  C   UNL A   1      44.101  25.984  31.865  1.00  0.00     0.023 A 
ATOM     93  C   UNL A   1      43.985  24.865  31.002  1.00  0.00     0.012 A 
ATOM     94  C   UNL A   1      44.336  25.665  33.225  1.00  0.00     0.148 A 
ATOM     95  C   UNL A   1      44.132  23.538  31.418  1.00  0.00     0.002 A 
ATOM     96  C   UNL A   1      44.488  24.336  33.646  1.00  0.00     0.091 A 
ATOM     97  F   UNL A   1      44.335  26.643  34.139  1.00  0.00    -0.205 F 
ATOM     98  C   UNL A   1      44.391  23.272  32.745  1.00  0.00     0.022 A 
BRANCH  96  99
ATOM     99  S   UNL A   1      44.773  23.880  35.359  1.00  0.00     0.127 S 
ATOM    100  O   UNL A   1      43.522  24.288  35.995  1.00  0.00    -0.237 OA
ATOM    101  O   UNL A   1      44.964  22.435  35.257  1.00  0.00    -0.237 OA
ATOM    102  O   UNL A   1      45.949  24.625  35.790  1.00  0.00    -0.744 OA
ENDBRANCH  96  99
ENDBRANCH  69  92
ENDBRANCH  43  44
ENDBRANCH  35  38
ENDBRANCH  33  34
ENDBRANCH  32  33
ENDBRANCH  31  32
ENDBRANCH   1  31
TORSDOF 20
ENDMDL
MODEL 2
REMARK VINA RESULT:     -11.8      3.747      6.624
REMARK SMILES Cc1ccc(NC(=O)Cn2c(CCC(=O)NCCCCNC(=O)c3ccc(-c4c5nc(c(-c6cccc(S(=O)(=O)[O-])c6F)c6ccc([nH]6)c(-c6cccc(S(=O)(=O)[O-])c6F)c6nc(c(-c7cccc(S(=O)(=O)[O-])c7F)c7ccc4[nH]7)C=C6)C=C5)cc3)ccc2-c2ccccc2)cc1
REMARK SMILES IDX 17 1 16 2 14 3 15 4 13 6 12 7 11 8 10 9 89 10 87 11 88 12
REMARK SMILES IDX 9 13 7 14 6 15 8 17 5 18 1 19 2 20 3 21 97 22 4 23 96 24
REMARK SMILES IDX 90 25 91 26 95 27 92 28 94 29 93 30 18 31 19 32 20 33 21 34
REMARK SMILES IDX 22 35 23 37 24 38 25 39 86 40 26 41 85 42 27 43 28 44 29 45
REMARK SMILES IDX 79 46 30 47 84 48 78 49 80 50 31 51 83 52 77 53 76 54 32 56
REMARK SMILES IDX 64 57 44 58 63 59 45 60 48 61 62 62 81 63 46 64 47 65 61 67
REMARK SMILES IDX 82 68 49 69 33 70 34 71 42 72 35 73 37 74 43 75 36 76 38 77
REMARK SMILES IDX 39 78 40 79 41 80 65 81 66 82 74 83 67 84 69 85 75 86 68 87
REMARK SMILES IDX 70 88 71 89 72 90 73 91 50 92 51 93 59 94 52 95 54 96 60 97
REMARK SMILES IDX 53 98 55 99 56 100 57 101 58 102
REMARK H PARENT 16 5 6 16 21 36 80 55 48 66
REMARK Flexibility Score: inf
ROOT
ATOM      1  C   UNL A   1      32.556  28.798  23.707  1.00  0.00     0.116 C 
ENDROOT
BRANCH   1   2
ATOM      2  N   UNL A   1      31.646  29.247  22.650  1.00  0.00    -0.356 N 
ATOM      3  C   UNL A   1      30.295  29.113  22.553  1.00  0.00     0.220 C 
ATOM      4  O   UNL A   1      29.689  29.696  21.649  1.00  0.00    -0.275 OA
ATOM      5  H   UNL A   1      32.074  29.716  21.898  1.00  0.00     0.163 HD
BRANCH   3   6
ATOM      6  C   UNL A   1      29.531  28.247  23.528  1.00  0.00     0.106 C 
BRANCH   6   7
ATOM      7  C   UNL A   1      29.567  26.791  23.073  1.00  0.00     0.064 C 
BRANCH   7   8
ATOM      8  C   UNL A   1      29.916  25.828  24.172  1.00  0.00     0.019 A 
ATOM      9  N   UNL A   1      30.721  24.696  24.120  1.00  0.00    -0.335 N 
ATOM     10  C   UNL A   1      30.897  24.228  25.435  1.00  0.00     0.049 A 
ATOM     11  C   UNL A   1      29.472  25.961  25.479  1.00  0.00     0.024 A 
ATOM     12  C   UNL A   1      30.082  24.973  26.262  1.00  0.00     0.029 A 
BRANCH   9  13
ATOM     13  C   UNL A   1      31.446  24.057  23.006  1.00  0.00     0.222 C 
BRANCH  13  14
ATOM     14  C   UNL A   1      32.442  24.796  22.147  1.00  0.00     0.244 C 
ATOM     15  N   UNL A   1      33.796  24.736  22.307  1.00  0.00    -0.325 N 
ATOM     16  H   UNL A   1      34.313  25.203  21.611  1.00  0.00     0.169 HD
ATOM     17  O   UNL A   1      32.027  25.578  21.279  1.00  0.00    -0.273 OA
BRANCH  15  18
ATOM     18  C   UNL A   1      34.571  24.119  23.294  1.00  0.00     0.041 A 
ATOM     19  C   UNL A   1      37.398  22.669  26.183  1.00  0.00     0.044 C 
ATOM     20  C   UNL A   1      36.328  23.128  25.239  1.00  0.00    -0.051 A 
ATOM     21  C   UNL A   1      36.068  22.396  24.075  1.00  0.00     0.005 A 
ATOM     22  C   UNL A   1      35.645  24.329  25.454  1.00  0.00     0.005 A 
ATOM     23  C   UNL A   1      35.190  22.888  23.110  1.00  0.00     0.026 A 
ATOM     24  C   UNL A   1      34.745  24.806  24.499  1.00  0.00     0.026 A 
ENDBRANCH  15  18
ENDBRANCH  13  14
ENDBRANCH   9  13
BRANCH  10  25
ATOM     25  C   UNL A   1      31.885  23.241  25.876  1.00  0.00    -0.002 A 
ATOM     26  C   UNL A   1      32.109  22.063  25.160  1.00  0.00     0.010 A 
ATOM     27  C   UNL A   1      32.523  23.412  27.110  1.00  0.00     0.010 A 
ATOM     28  C   UNL A   1      32.976  21.087  25.667  1.00  0.00     0.001 A 
ATOM     29  C   UNL A   1      33.397  22.449  27.614  1.00  0.00     0.001 A 
ATOM     30  C   UNL A   1      33.622  21.283  26.889  1.00  0.00     0.000 A 
ENDBRANCH  10  25
ENDBRANCH   7   8
ENDBRANCH   6   7
ENDBRANCH   3   6
ENDBRANCH   1   2
BRANCH   1  31
ATOM     31  C   UNL A   1      32.495  29.708  24.934  1.00  0.00     0.023 C 
BRANCH  31  32
ATOM     32  C   UNL A   1      31.820  29.070  26.165  1.00  0.00     0.023 C 
BRANCH  32  33
ATOM     33  C   UNL A   1      32.765  28.883  27.375  1.00  0.00     0.116 C 
BRANCH  33  34
ATOM     34  N   UNL A   1      34.142  28.601  26.961  1.00  0.00    -0.352 N 
ATOM     35  C   UNL A   1      35.344  29.213  27.237  1.00  0.00     0.251 C 
ATOM     36  H   UNL A   1      34.224  27.818  26.369  1.00  0.00     0.163 HD
ATOM     37  O   UNL A   1      36.317  28.913  26.539  1.00  0.00    -0.269 OA
BRANCH  35  38
ATOM     38  C   UNL A   1      35.533  30.249  28.299  1.00  0.00     0.039 A 
ATOM     39  C   UNL A   1      36.388  29.965  29.387  1.00  0.00     0.014 A 
ATOM     40  C   UNL A   1      34.842  31.453  28.315  1.00  0.00     0.014 A 
ATOM     41  C   UNL A   1      36.664  30.922  30.391  1.00  0.00     0.010 A 
ATOM     42  C   UNL A   1      35.089  32.391  29.335  1.00  0.00     0.010 A 
ATOM     43  C   UNL A   1      36.056  32.177  30.348  1.00  0.00    -0.014 A 
BRANCH  43  44
ATOM     44  C   UNL A   1      36.713  33.412  30.901  1.00  0.00     0.031 A 
ATOM     45  C   UNL A   1      36.699  33.379  32.370  1.00  0.00     0.074 A 
ATOM     46  C   UNL A   1      37.765  34.144  30.447  1.00  0.00     0.049 A 
ATOM     47  N   UNL A   1      37.735  32.922  32.986  1.00  0.00    -0.248 NA
ATOM     48  C   UNL A   1      35.518  33.590  33.183  1.00  0.00     0.031 C 
ATOM     49  C   UNL A   1      38.304  34.119  29.102  1.00  0.00     0.029 A 
ATOM     50  N   UNL A   1      38.735  34.858  31.212  1.00  0.00    -0.354 N 
ATOM     51  C   UNL A   1      37.358  32.703  34.275  1.00  0.00     0.074 A 
ATOM     52  C   UNL A   1      35.979  33.150  34.359  1.00  0.00     0.031 C 
ATOM     53  C   UNL A   1      39.560  34.603  29.139  1.00  0.00     0.029 A 
ATOM     54  C   UNL A   1      39.952  34.949  30.527  1.00  0.00     0.049 A 
ATOM     55  H   UNL A   1      38.569  35.238  32.105  1.00  0.00     0.167 HD
ATOM     56  C   UNL A   1      38.175  32.031  35.120  1.00  0.00     0.034 A 
ATOM     57  C   UNL A   1      41.194  34.631  31.011  1.00  0.00     0.034 A 
ATOM     58  C   UNL A   1      39.018  30.989  34.480  1.00  0.00     0.049 A 
ATOM     59  C   UNL A   1      41.347  33.198  30.667  1.00  0.00     0.074 A 
ATOM     60  C   UNL A   1      39.452  29.726  34.846  1.00  0.00     0.029 A 
ATOM     61  N   UNL A   1      39.470  31.127  33.171  1.00  0.00    -0.354 N 
ATOM     62  N   UNL A   1      40.660  32.285  31.271  1.00  0.00    -0.248 NA
ATOM     63  C   UNL A   1      42.295  32.729  29.678  1.00  0.00     0.031 C 
ATOM     64  C   UNL A   1      40.059  29.099  33.705  1.00  0.00     0.029 A 
ATOM     65  C   UNL A   1      40.015  29.972  32.628  1.00  0.00     0.049 A 
ATOM     66  H   UNL A   1      39.407  31.974  32.672  1.00  0.00     0.167 HD
ATOM     67  C   UNL A   1      41.066  31.079  30.770  1.00  0.00     0.074 A 
ATOM     68  C   UNL A   1      42.073  31.412  29.770  1.00  0.00     0.031 C 
ATOM     69  C   UNL A   1      40.500  29.923  31.222  1.00  0.00     0.034 A 
BRANCH  56  70
ATOM     70  C   UNL A   1      38.399  32.609  36.511  1.00  0.00     0.023 A 
ATOM     71  C   UNL A   1      38.950  33.906  36.575  1.00  0.00     0.012 A 
ATOM     72  C   UNL A   1      37.913  32.080  37.734  1.00  0.00     0.148 A 
ATOM     73  C   UNL A   1      38.991  34.640  37.769  1.00  0.00     0.002 A 
ATOM     74  C   UNL A   1      37.911  32.825  38.915  1.00  0.00     0.091 A 
ATOM     75  F   UNL A   1      37.428  30.841  37.785  1.00  0.00    -0.205 F 
ATOM     76  C   UNL A   1      38.458  34.107  38.938  1.00  0.00     0.022 A 
BRANCH  74  77
ATOM     77  S   UNL A   1      37.150  32.209  40.434  1.00  0.00     0.127 S 
ATOM     78  O   UNL A   1      37.106  33.408  41.270  1.00  0.00    -0.237 OA
ATOM     79  O   UNL A   1      35.847  31.742  39.962  1.00  0.00    -0.237 OA
ATOM     80  O   UNL A   1      38.026  31.157  40.941  1.00  0.00    -0.744 OA
ENDBRANCH  74  77
ENDBRANCH  56  70
BRANCH  57  81
ATOM     81  C   UNL A   1      41.990  35.037  32.232  1.00  0.00     0.023 A 
ATOM     82  C   UNL A   1      41.427  34.831  33.503  1.00  0.00     0.012 A 
ATOM     83  C   UNL A   1      43.125  35.906  32.167  1.00  0.00     0.148 A 
ATOM     84  C   UNL A   1      41.934  35.491  34.638  1.00  0.00     0.002 A 
ATOM     85  C   UNL A   1      43.597  36.589  33.286  1.00  0.00     0.091 A 
ATOM     86  F   UNL A   1      43.747  36.110  31.003  1.00  0.00    -0.205 F 
ATOM     87  C   UNL A   1      42.999  36.386  34.528  1.00  0.00     0.022 A 
BRANCH  85  88
ATOM     88  S   UNL A   1      44.852  37.884  33.142  1.00  0.00     0.127 S 
ATOM     89  O   UNL A   1      45.970  37.162  32.518  1.00  0.00    -0.237 OA
ATOM     90  O   UNL A   1      44.210  38.864  32.299  1.00  0.00    -0.237 OA
ATOM     91  O   UNL A   1      45.143  38.290  34.523  1.00  0.00    -0.744 OA
ENDBRANCH  85  88
ENDBRANCH  57  81
BRANCH  69  92
ATOM     92  C   UNL A   1      40.329  28.712  30.297  1.00  0.00     0.023 A 
ATOM     93  C   UNL A   1      39.077  28.100  30.034  1.00  0.00     0.012 A 
ATOM     94  C   UNL A   1      41.451  28.013  29.787  1.00  0.00     0.148 A 
ATOM     95  C   UNL A   1      38.921  26.924  29.294  1.00  0.00     0.002 A 
ATOM     96  C   UNL A   1      41.299  26.837  29.040  1.00  0.00     0.091 A 
ATOM     97  F   UNL A   1      42.683  28.440  30.089  1.00  0.00    -0.205 F 
ATOM     98  C   UNL A   1      40.036  26.292  28.789  1.00  0.00     0.022 A 
BRANCH  96  99
ATOM     99  S   UNL A   1      42.689  25.908  28.386  1.00  0.00     0.127 S 
ATOM    100  O   UNL A   1      43.310  25.389  29.603  1.00  0.00    -0.237 OA
ATOM    101  O   UNL A   1      42.019  24.903  27.564  1.00  0.00    -0.237 OA
ATOM    102  O   UNL A   1      43.505  26.862  27.644  1.00  0.00    -0.744 OA
ENDBRANCH  96  99
ENDBRANCH  69  92
ENDBRANCH  43  44
ENDBRANCH  35  38
ENDBRANCH  33  34
ENDBRANCH  32  33
ENDBRANCH  31  32
ENDBRANCH   1  31
TORSDOF 20
ENDMDL
MODEL 3
REMARK VINA RESULT:     -11.8      1.606      2.523
REMARK SMILES Cc1ccc(NC(=O)Cn2c(CCC(=O)NCCCCNC(=O)c3ccc(-c4c5nc(c(-c6cccc(S(=O)(=O)[O-])c6F)c6ccc([nH]6)c(-c6cccc(S(=O)(=O)[O-])c6F)c6nc(c(-c7cccc(S(=O)(=O)[O-])c7F)c7ccc4[nH]7)C=C6)C=C5)cc3)ccc2-c2ccccc2)cc1
REMARK SMILES IDX 17 1 16 2 14 3 15 4 13 6 12 7 11 8 10 9 89 10 87 11 88 12
REMARK SMILES IDX 9 13 7 14 6 15 8 17 5 18 1 19 2 20 3 21 97 22 4 23 96 24
REMARK SMILES IDX 90 25 91 26 95 27 92 28 94 29 93 30 18 31 19 32 20 33 21 34
REMARK SMILES IDX 22 35 23 37 24 38 25 39 86 40 26 41 85 42 27 43 28 44 29 45
REMARK SMILES IDX 79 46 30 47 84 48 78 49 80 50 31 51 83 52 77 53 76 54 32 56
REMARK SMILES IDX 64 57 44 58 63 59 45 60 48 61 62 62 81 63 46 64 47 65 61 67
REMARK SMILES IDX 82 68 49 69 33 70 34 71 42 72 35 73 37 74 43 75 36 76 38 77
REMARK SMILES IDX 39 78 40 79 41 80 65 81 66 82 74 83 67 84 69 85 75 86 68 87
REMARK SMILES IDX 70 88 71 89 72 90 73 91 50 92 51 93 59 94 52 95 54 96 60 97
REMARK SMILES IDX 53 98 55 99 56 100 57 101 58 102
REMARK H PARENT 16 5 6 16 21 36 80 55 48 66
REMARK Flexibility Score: inf
ROOT
ATOM      1  C   UNL A   1      36.630  19.901  25.017  1.00  0.00     0.116 C 
ENDROOT
BRANCH   1   2
ATOM      2  N   UNL A   1      35.804  18.787  24.545  1.00  0.00    -0.356 N 
ATOM      3  C   UNL A   1      34.468  18.572  24.699  1.00  0.00     0.220 C 
ATOM      4  O   UNL A   1      33.929  17.640  24.093  1.00  0.00    -0.275 OA
ATOM      5  H   UNL A   1      36.285  18.090  24.043  1.00  0.00     0.163 HD
BRANCH   3   6
ATOM      6  C   UNL A   1      33.642  19.448  25.612  1.00  0.00     0.106 C 
BRANCH   6   7
ATOM      7  C   UNL A   1      32.253  19.657  25.017  1.00  0.00     0.064 C 
BRANCH   7   8
ATOM      8  C   UNL A   1      32.182  20.800  24.044  1.00  0.00     0.019 A 
ATOM      9  N   UNL A   1      32.137  22.165  24.301  1.00  0.00    -0.335 N 
ATOM     10  C   UNL A   1      32.266  22.842  23.074  1.00  0.00     0.049 A 
ATOM     11  C   UNL A   1      32.176  20.636  22.667  1.00  0.00     0.024 A 
ATOM     12  C   UNL A   1      32.231  21.899  22.066  1.00  0.00     0.029 A 
BRANCH   9  13
ATOM     13  C   UNL A   1      32.106  22.926  25.563  1.00  0.00     0.222 C 
BRANCH  13  14
ATOM     14  C   UNL A   1      30.824  23.399  26.204  1.00  0.00     0.244 C 
ATOM     15  N   UNL A   1      30.460  24.708  26.332  1.00  0.00    -0.325 N 
ATOM     16  H   UNL A   1      29.555  24.849  26.692  1.00  0.00     0.169 HD
ATOM     17  O   UNL A   1      30.069  22.566  26.727  1.00  0.00    -0.273 OA
BRANCH  15  18
ATOM     18  C   UNL A   1      31.159  25.882  26.035  1.00  0.00     0.041 A 
ATOM     19  C   UNL A   1      33.289  29.599  25.757  1.00  0.00     0.044 C 
ATOM     20  C   UNL A   1      32.596  28.271  25.755  1.00  0.00    -0.051 A 
ATOM     21  C   UNL A   1      31.275  28.178  25.305  1.00  0.00     0.005 A 
ATOM     22  C   UNL A   1      33.217  27.134  26.281  1.00  0.00     0.005 A 
ATOM     23  C   UNL A   1      30.562  26.987  25.440  1.00  0.00     0.026 A 
ATOM     24  C   UNL A   1      32.510  25.935  26.390  1.00  0.00     0.026 A 
ENDBRANCH  15  18
ENDBRANCH  13  14
ENDBRANCH   9  13
BRANCH  10  25
ATOM     25  C   UNL A   1      32.550  24.268  22.898  1.00  0.00    -0.002 A 
ATOM     26  C   UNL A   1      31.598  25.140  22.364  1.00  0.00     0.010 A 
ATOM     27  C   UNL A   1      33.842  24.746  23.143  1.00  0.00     0.010 A 
ATOM     28  C   UNL A   1      31.937  26.473  22.102  1.00  0.00     0.001 A 
ATOM     29  C   UNL A   1      34.181  26.076  22.896  1.00  0.00     0.001 A 
ATOM     30  C   UNL A   1      33.224  26.940  22.373  1.00  0.00     0.000 A 
ENDBRANCH  10  25
ENDBRANCH   7   8
ENDBRANCH   6   7
ENDBRANCH   3   6
ENDBRANCH   1   2
BRANCH   1  31
ATOM     31  C   UNL A   1      35.959  21.252  24.769  1.00  0.00     0.023 C 
BRANCH  31  32
ATOM     32  C   UNL A   1      36.915  22.355  24.273  1.00  0.00     0.023 C 
BRANCH  32  33
ATOM     33  C   UNL A   1      37.592  23.158  25.409  1.00  0.00     0.116 C 
BRANCH  33  34
ATOM     34  N   UNL A   1      38.427  22.310  26.263  1.00  0.00    -0.352 N 
ATOM     35  C   UNL A   1      39.616  22.532  26.922  1.00  0.00     0.251 C 
ATOM     36  H   UNL A   1      38.067  21.403  26.392  1.00  0.00     0.163 HD
ATOM     37  O   UNL A   1      40.224  21.550  27.358  1.00  0.00    -0.269 OA
BRANCH  35  38
ATOM     38  C   UNL A   1      40.235  23.881  27.103  1.00  0.00     0.039 A 
ATOM     39  C   UNL A   1      41.517  24.123  26.563  1.00  0.00     0.014 A 
ATOM     40  C   UNL A   1      39.646  24.890  27.853  1.00  0.00     0.014 A 
ATOM     41  C   UNL A   1      42.134  25.394  26.640  1.00  0.00     0.010 A 
ATOM     42  C   UNL A   1      40.277  26.144  27.960  1.00  0.00     0.010 A 
ATOM     43  C   UNL A   1      41.492  26.444  27.297  1.00  0.00    -0.014 A 
BRANCH  43  44
ATOM     44  C   UNL A   1      41.689  27.883  26.903  1.00  0.00     0.031 A 
ATOM     45  C   UNL A   1      40.605  28.711  27.451  1.00  0.00     0.074 A 
ATOM     46  C   UNL A   1      42.820  28.618  26.741  1.00  0.00     0.049 A 
ATOM     47  N   UNL A   1      40.798  29.310  28.576  1.00  0.00    -0.248 NA
ATOM     48  C   UNL A   1      39.244  28.714  26.954  1.00  0.00     0.031 C 
ATOM     49  C   UNL A   1      44.159  28.094  26.561  1.00  0.00     0.029 A 
ATOM     50  N   UNL A   1      43.007  30.011  26.988  1.00  0.00    -0.354 N 
ATOM     51  C   UNL A   1      39.577  29.730  29.008  1.00  0.00     0.074 A 
ATOM     52  C   UNL A   1      38.643  29.358  27.961  1.00  0.00     0.031 C 
ATOM     53  C   UNL A   1      45.040  29.064  26.875  1.00  0.00     0.029 A 
ATOM     54  C   UNL A   1      44.337  30.291  27.321  1.00  0.00     0.049 A 
ATOM     55  H   UNL A   1      42.293  30.686  26.931  1.00  0.00     0.167 HD
ATOM     56  C   UNL A   1      39.428  30.217  30.263  1.00  0.00     0.034 A 
ATOM     57  C   UNL A   1      44.782  31.007  28.401  1.00  0.00     0.034 A 
ATOM     58  C   UNL A   1      40.331  29.616  31.279  1.00  0.00     0.049 A 
ATOM     59  C   UNL A   1      44.954  29.981  29.455  1.00  0.00     0.074 A 
ATOM     60  C   UNL A   1      40.197  29.253  32.608  1.00  0.00     0.029 A 
ATOM     61  N   UNL A   1      41.605  29.172  30.942  1.00  0.00    -0.354 N 
ATOM     62  N   UNL A   1      43.937  29.405  30.004  1.00  0.00    -0.248 NA
ATOM     63  C   UNL A   1      46.254  29.593  29.962  1.00  0.00     0.031 C 
ATOM     64  C   UNL A   1      41.357  28.503  33.000  1.00  0.00     0.029 A 
ATOM     65  C   UNL A   1      42.222  28.404  31.920  1.00  0.00     0.049 A 
ATOM     66  H   UNL A   1      42.033  29.384  30.080  1.00  0.00     0.167 HD
ATOM     67  C   UNL A   1      44.423  28.558  30.962  1.00  0.00     0.074 A 
ATOM     68  C   UNL A   1      45.872  28.700  30.884  1.00  0.00     0.031 C 
ATOM     69  C   UNL A   1      43.566  27.802  31.708  1.00  0.00     0.034 A 
BRANCH  56  70
ATOM     70  C   UNL A   1      38.639  31.506  30.443  1.00  0.00     0.023 A 
ATOM     71  C   UNL A   1      39.339  32.711  30.223  1.00  0.00     0.012 A 
ATOM     72  C   UNL A   1      37.232  31.623  30.589  1.00  0.00     0.148 A 
ATOM     73  C   UNL A   1      38.684  33.947  30.128  1.00  0.00     0.002 A 
ATOM     74  C   UNL A   1      36.572  32.846  30.449  1.00  0.00     0.091 A 
ATOM     75  F   UNL A   1      36.493  30.549  30.857  1.00  0.00    -0.205 F 
ATOM     76  C   UNL A   1      37.298  34.015  30.226  1.00  0.00     0.022 A 
BRANCH  74  77
ATOM     77  S   UNL A   1      34.770  32.969  30.480  1.00  0.00     0.127 S 
ATOM     78  O   UNL A   1      34.554  34.412  30.391  1.00  0.00    -0.237 OA
ATOM     79  O   UNL A   1      34.386  32.216  29.287  1.00  0.00    -0.237 OA
ATOM     80  O   UNL A   1      34.334  32.374  31.740  1.00  0.00    -0.744 OA
ENDBRANCH  74  77
ENDBRANCH  56  70
BRANCH  57  81
ATOM     81  C   UNL A   1      44.481  32.383  28.956  1.00  0.00     0.023 A 
ATOM     82  C   UNL A   1      43.296  32.569  29.689  1.00  0.00     0.012 A 
ATOM     83  C   UNL A   1      45.152  33.565  28.511  1.00  0.00     0.148 A 
ATOM     84  C   UNL A   1      42.783  33.859  29.924  1.00  0.00     0.002 A 
ATOM     85  C   UNL A   1      44.617  34.837  28.710  1.00  0.00     0.091 A 
ATOM     86  F   UNL A   1      46.311  33.471  27.854  1.00  0.00    -0.205 F 
ATOM     87  C   UNL A   1      43.425  34.987  29.416  1.00  0.00     0.022 A 
BRANCH  85  88
ATOM     88  S   UNL A   1      45.330  36.296  27.913  1.00  0.00     0.127 S 
ATOM     89  O   UNL A   1      44.315  37.324  28.186  1.00  0.00    -0.237 OA
ATOM     90  O   UNL A   1      46.580  36.469  28.613  1.00  0.00    -0.237 OA
ATOM     91  O   UNL A   1      45.413  35.950  26.488  1.00  0.00    -0.744 OA
ENDBRANCH  85  88
ENDBRANCH  57  81
BRANCH  69  92
ATOM     92  C   UNL A   1      43.972  26.410  32.209  1.00  0.00     0.023 A 
ATOM     93  C   UNL A   1      44.197  25.306  31.349  1.00  0.00     0.012 A 
ATOM     94  C   UNL A   1      43.969  26.097  33.591  1.00  0.00     0.148 A 
ATOM     95  C   UNL A   1      44.446  24.004  31.797  1.00  0.00     0.002 A 
ATOM     96  C   UNL A   1      44.222  24.795  34.044  1.00  0.00     0.091 A 
ATOM     97  F   UNL A   1      43.640  27.045  34.477  1.00  0.00    -0.205 F 
ATOM     98  C   UNL A   1      44.465  23.748  33.150  1.00  0.00     0.022 A 
BRANCH  96  99
ATOM     99  S   UNL A   1      44.214  24.347  35.782  1.00  0.00     0.127 S 
ATOM    100  O   UNL A   1      42.799  24.472  36.123  1.00  0.00    -0.237 OA
ATOM    101  O   UNL A   1      44.715  22.975  35.741  1.00  0.00    -0.237 OA
ATOM    102  O   UNL A   1      45.090  25.299  36.453  1.00  0.00    -0.744 OA
ENDBRANCH  96  99
ENDBRANCH  69  92
ENDBRANCH  43  44
ENDBRANCH  35  38
ENDBRANCH  33  34
ENDBRANCH  32  33
ENDBRANCH  31  32
ENDBRANCH   1  31
TORSDOF 20
ENDMDL
