MODEL 1
REMARK VINA RESULT:      -9.3      0.000      0.000
REMARK SMILES O=C(COCCNc1nncs1)NCCCCNC(=O)c1ccc(-c2c3nc(c(-c4cccc(S(=O)(=O)[O-])c4F)c4ccc([nH]4)c(-c4cccc(S(=O)(=O)[O-])c4F)c4nc(c(-c5cccc(S(=O)(=O)[O-])c5F)c5ccc2[nH]5)C=C4)C=C3)cc1
REMARK SMILES IDX 14 1 13 2 1 3 2 4 3 6 4 7 5 8 6 9 7 10 8 12 9 13 12 14 10 15
REMARK SMILES IDX 11 16 15 17 16 18 17 19 18 20 19 21 20 23 21 24 22 25 83 26
REMARK SMILES IDX 23 27 82 28 24 29 25 30 26 31 76 32 27 33 81 34 75 35 77 36
REMARK SMILES IDX 28 37 80 38 74 39 73 40 29 42 61 43 41 44 60 45 42 46 45 47
REMARK SMILES IDX 59 48 78 49 43 50 44 51 58 53 79 54 46 55 30 56 31 57 39 58
REMARK SMILES IDX 32 59 34 60 40 61 33 62 35 63 36 64 37 65 38 66 62 67 63 68
REMARK SMILES IDX 71 69 64 70 66 71 72 72 65 73 67 74 68 75 69 76 70 77 47 78
REMARK SMILES IDX 48 79 56 80 49 81 51 82 57 83 50 84 52 85 53 86 54 87 55 88
REMARK H PARENT 13 5 7 11 18 22 77 41 45 52
REMARK Flexibility Score: inf
ROOT
ATOM      1  C   UNL A   1      42.647  18.456  26.085  1.00  0.00     0.116 C 
ENDROOT
BRANCH   1   2
ATOM      2  N   UNL A   1      43.434  19.288  25.202  1.00  0.00    -0.354 N 
ATOM      3  O   UNL A   1      45.383  18.072  25.366  1.00  0.00    -0.272 OA
ATOM      4  C   UNL A   1      44.749  19.013  24.901  1.00  0.00     0.245 C 
ATOM      5  H   UNL A   1      43.013  20.083  24.801  1.00  0.00     0.163 HD
BRANCH   4   6
ATOM      6  C   UNL A   1      45.369  19.996  23.899  1.00  0.00     0.260 C 
BRANCH   6   7
ATOM      7  O   UNL A   1      44.615  21.156  23.586  1.00  0.00    -0.370 OA
BRANCH   7   8
ATOM      8  C   UNL A   1      45.028  22.374  24.216  1.00  0.00     0.182 C 
BRANCH   8   9
ATOM      9  C   UNL A   1      43.898  23.367  24.541  1.00  0.00     0.143 C 
BRANCH   9  10
ATOM     10  N   UNL A   1      44.419  24.636  25.013  1.00  0.00    -0.358 N 
ATOM     11  H   UNL A   1      44.044  25.447  24.599  1.00  0.00     0.163 HD
BRANCH  10  12
ATOM     12  C   UNL A   1      45.365  24.823  25.960  1.00  0.00     0.205 A 
ATOM     13  N   UNL A   1      46.423  25.579  25.738  1.00  0.00    -0.121 NA
ATOM     14  S   UNL A   1      45.382  24.107  27.530  1.00  0.00    -0.083 S 
ATOM     15  N   UNL A   1      47.286  25.651  26.809  1.00  0.00    -0.145 NA
ATOM     16  C   UNL A   1      46.864  24.916  27.810  1.00  0.00     0.204 A 
ENDBRANCH  10  12
ENDBRANCH   9  10
ENDBRANCH   8   9
ENDBRANCH   7   8
ENDBRANCH   6   7
ENDBRANCH   4   6
ENDBRANCH   1   2
BRANCH   1  17
ATOM     17  C   UNL A   1      41.557  19.236  26.816  1.00  0.00     0.023 C 
BRANCH  17  18
ATOM     18  C   UNL A   1      42.025  20.543  27.463  1.00  0.00     0.023 C 
BRANCH  18  19
ATOM     19  C   UNL A   1      41.526  21.822  26.799  1.00  0.00     0.116 C 
BRANCH  19  20
ATOM     20  N   UNL A   1      40.151  21.723  26.336  1.00  0.00    -0.352 N 
ATOM     21  C   UNL A   1      39.154  22.673  26.359  1.00  0.00     0.251 C 
ATOM     22  H   UNL A   1      39.896  20.854  25.949  1.00  0.00     0.163 HD
ATOM     23  O   UNL A   1      38.010  22.364  26.048  1.00  0.00    -0.269 OA
BRANCH  21  24
ATOM     24  C   UNL A   1      39.458  24.059  26.787  1.00  0.00     0.039 A 
ATOM     25  C   UNL A   1      39.182  24.431  28.105  1.00  0.00     0.014 A 
ATOM     26  C   UNL A   1      40.017  24.984  25.902  1.00  0.00     0.014 A 
ATOM     27  C   UNL A   1      39.528  25.709  28.553  1.00  0.00     0.010 A 
ATOM     28  C   UNL A   1      40.432  26.229  26.371  1.00  0.00     0.010 A 
ATOM     29  C   UNL A   1      40.191  26.608  27.701  1.00  0.00    -0.014 A 
BRANCH  29  30
ATOM     30  C   UNL A   1      40.658  27.934  28.189  1.00  0.00     0.031 A 
ATOM     31  C   UNL A   1      42.130  28.246  28.264  1.00  0.00     0.074 A 
ATOM     32  C   UNL A   1      39.760  28.832  28.641  1.00  0.00     0.049 A 
ATOM     33  N   UNL A   1      42.722  29.321  28.715  1.00  0.00    -0.248 NA
ATOM     34  C   UNL A   1      43.058  27.204  27.795  1.00  0.00     0.031 C 
ATOM     35  C   UNL A   1      38.311  28.626  28.696  1.00  0.00     0.029 A 
ATOM     36  N   UNL A   1      39.934  30.088  29.171  1.00  0.00    -0.354 N 
ATOM     37  C   UNL A   1      44.087  29.077  28.615  1.00  0.00     0.074 A 
ATOM     38  C   UNL A   1      44.235  27.735  28.095  1.00  0.00     0.031 C 
ATOM     39  C   UNL A   1      37.729  29.715  29.224  1.00  0.00     0.029 A 
ATOM     40  C   UNL A   1      38.762  30.681  29.581  1.00  0.00     0.049 A 
ATOM     41  H   UNL A   1      40.814  30.522  29.249  1.00  0.00     0.167 HD
ATOM     42  C   UNL A   1      45.123  29.899  28.903  1.00  0.00     0.034 A 
ATOM     43  C   UNL A   1      38.543  31.864  30.191  1.00  0.00     0.034 A 
ATOM     44  C   UNL A   1      44.974  31.245  29.391  1.00  0.00     0.049 A 
ATOM     45  C   UNL A   1      39.709  32.770  30.478  1.00  0.00     0.074 A 
ATOM     46  C   UNL A   1      45.960  32.184  29.637  1.00  0.00     0.029 A 
ATOM     47  N   UNL A   1      43.767  31.841  29.720  1.00  0.00    -0.354 N 
ATOM     48  N   UNL A   1      40.983  32.578  30.235  1.00  0.00    -0.248 NA
ATOM     49  C   UNL A   1      39.406  34.071  31.091  1.00  0.00     0.031 C 
ATOM     50  C   UNL A   1      45.353  33.335  30.146  1.00  0.00     0.029 A 
ATOM     51  C   UNL A   1      43.983  33.129  30.178  1.00  0.00     0.049 A 
ATOM     52  H   UNL A   1      42.885  31.410  29.640  1.00  0.00     0.167 HD
ATOM     53  C   UNL A   1      41.627  33.745  30.628  1.00  0.00     0.074 A 
ATOM     54  C   UNL A   1      40.600  34.647  31.106  1.00  0.00     0.031 C 
ATOM     55  C   UNL A   1      42.951  34.038  30.606  1.00  0.00     0.034 A 
BRANCH  42  56
ATOM     56  C   UNL A   1      46.518  29.385  28.654  1.00  0.00     0.023 A 
ATOM     57  C   UNL A   1      47.166  29.689  27.438  1.00  0.00     0.012 A 
ATOM     58  C   UNL A   1      47.212  28.659  29.642  1.00  0.00     0.148 A 
ATOM     59  C   UNL A   1      48.466  29.247  27.195  1.00  0.00     0.002 A 
ATOM     60  C   UNL A   1      48.524  28.264  29.412  1.00  0.00     0.091 A 
ATOM     61  F   UNL A   1      46.574  28.365  30.784  1.00  0.00    -0.205 F 
ATOM     62  C   UNL A   1      49.147  28.545  28.185  1.00  0.00     0.022 A 
BRANCH  60  63
ATOM     63  S   UNL A   1      49.518  27.426  30.652  1.00  0.00     0.127 S 
ATOM     64  O   UNL A   1      49.459  28.372  31.765  1.00  0.00    -0.237 OA
ATOM     65  O   UNL A   1      48.764  26.190  30.863  1.00  0.00    -0.237 OA
ATOM     66  O   UNL A   1      50.835  27.244  30.059  1.00  0.00    -0.744 OA
ENDBRANCH  60  63
ENDBRANCH  42  56
BRANCH  43  67
ATOM     67  C   UNL A   1      37.153  32.281  30.532  1.00  0.00     0.023 A 
ATOM     68  C   UNL A   1      36.682  32.125  31.851  1.00  0.00     0.012 A 
ATOM     69  C   UNL A   1      36.301  32.844  29.561  1.00  0.00     0.148 A 
ATOM     70  C   UNL A   1      35.377  32.486  32.188  1.00  0.00     0.002 A 
ATOM     71  C   UNL A   1      35.023  33.256  29.918  1.00  0.00     0.091 A 
ATOM     72  F   UNL A   1      36.764  32.975  28.311  1.00  0.00    -0.205 F 
ATOM     73  C   UNL A   1      34.551  33.060  31.225  1.00  0.00     0.022 A 
BRANCH  71  74
ATOM     74  S   UNL A   1      33.939  34.123  28.778  1.00  0.00     0.127 S 
ATOM     75  O   UNL A   1      34.809  35.189  28.288  1.00  0.00    -0.237 OA
ATOM     76  O   UNL A   1      33.632  33.078  27.801  1.00  0.00    -0.237 OA
ATOM     77  O   UNL A   1      32.796  34.555  29.572  1.00  0.00    -0.744 OA
ENDBRANCH  71  74
ENDBRANCH  43  67
BRANCH  55  78
ATOM     78  C   UNL A   1      43.373  35.409  31.069  1.00  0.00     0.023 A 
ATOM     79  C   UNL A   1      43.632  36.423  30.125  1.00  0.00     0.012 A 
ATOM     80  C   UNL A   1      43.444  35.710  32.443  1.00  0.00     0.148 A 
ATOM     81  C   UNL A   1      43.990  37.706  30.544  1.00  0.00     0.002 A 
ATOM     82  C   UNL A   1      43.748  37.002  32.853  1.00  0.00     0.091 A 
ATOM     83  F   UNL A   1      43.210  34.727  33.325  1.00  0.00    -0.205 F 
ATOM     84  C   UNL A   1      44.035  37.997  31.905  1.00  0.00     0.022 A 
BRANCH  82  85
ATOM     85  S   UNL A   1      43.732  37.496  34.580  1.00  0.00     0.127 S 
ATOM     86  O   UNL A   1      44.825  36.693  35.129  1.00  0.00    -0.237 OA
ATOM     87  O   UNL A   1      44.013  38.929  34.494  1.00  0.00    -0.237 OA
ATOM     88  O   UNL A   1      42.405  37.167  35.082  1.00  0.00    -0.744 OA
ENDBRANCH  82  85
ENDBRANCH  55  78
ENDBRANCH  29  30
ENDBRANCH  21  24
ENDBRANCH  19  20
ENDBRANCH  18  19
ENDBRANCH  17  18
ENDBRANCH   1  17
TORSDOF 19
ENDMDL
MODEL 2
REMARK VINA RESULT:      -9.2      4.287      6.595
REMARK SMILES O=C(COCCNc1nncs1)NCCCCNC(=O)c1ccc(-c2c3nc(c(-c4cccc(S(=O)(=O)[O-])c4F)c4ccc([nH]4)c(-c4cccc(S(=O)(=O)[O-])c4F)c4nc(c(-c5cccc(S(=O)(=O)[O-])c5F)c5ccc2[nH]5)C=C4)C=C3)cc1
REMARK SMILES IDX 14 1 13 2 1 3 2 4 3 6 4 7 5 8 6 9 7 10 8 12 9 13 12 14 10 15
REMARK SMILES IDX 11 16 15 17 16 18 17 19 18 20 19 21 20 23 21 24 22 25 83 26
REMARK SMILES IDX 23 27 82 28 24 29 25 30 26 31 76 32 27 33 81 34 75 35 77 36
REMARK SMILES IDX 28 37 80 38 74 39 73 40 29 42 61 43 41 44 60 45 42 46 45 47
REMARK SMILES IDX 59 48 78 49 43 50 44 51 58 53 79 54 46 55 30 56 31 57 39 58
REMARK SMILES IDX 32 59 34 60 40 61 33 62 35 63 36 64 37 65 38 66 62 67 63 68
REMARK SMILES IDX 71 69 64 70 66 71 72 72 65 73 67 74 68 75 69 76 70 77 47 78
REMARK SMILES IDX 48 79 56 80 49 81 51 82 57 83 50 84 52 85 53 86 54 87 55 88
REMARK H PARENT 13 5 7 11 18 22 77 41 45 52
REMARK Flexibility Score: inf
ROOT
ATOM      1  C   UNL A   1      34.522  23.414  22.990  1.00  0.00     0.116 C 
ENDROOT
BRANCH   1   2
ATOM      2  N   UNL A   1      33.202  24.004  23.047  1.00  0.00    -0.354 N 
ATOM      3  O   UNL A   1      33.641  25.762  21.625  1.00  0.00    -0.272 OA
ATOM      4  C   UNL A   1      32.865  25.135  22.337  1.00  0.00     0.245 C 
ATOM      5  H   UNL A   1      32.519  23.581  23.616  1.00  0.00     0.163 HD
BRANCH   4   6
ATOM      6  C   UNL A   1      31.397  25.550  22.503  1.00  0.00     0.260 C 
BRANCH   6   7
ATOM      7  O   UNL A   1      30.599  24.761  23.371  1.00  0.00    -0.370 OA
BRANCH   7   8
ATOM      8  C   UNL A   1      29.949  25.452  24.443  1.00  0.00     0.182 C 
BRANCH   8   9
ATOM      9  C   UNL A   1      30.578  25.258  25.835  1.00  0.00     0.143 C 
BRANCH   9  10
ATOM     10  N   UNL A   1      30.743  26.520  26.530  1.00  0.00    -0.358 N 
ATOM     11  H   UNL A   1      29.935  26.903  26.944  1.00  0.00     0.163 HD
BRANCH  10  12
ATOM     12  C   UNL A   1      31.886  27.227  26.668  1.00  0.00     0.205 A 
ATOM     13  N   UNL A   1      31.990  28.205  27.547  1.00  0.00    -0.121 NA
ATOM     14  S   UNL A   1      33.325  27.019  25.739  1.00  0.00    -0.083 S 
ATOM     15  N   UNL A   1      33.222  28.821  27.547  1.00  0.00    -0.145 NA
ATOM     16  C   UNL A   1      34.012  28.302  26.638  1.00  0.00     0.204 A 
ENDBRANCH  10  12
ENDBRANCH   9  10
ENDBRANCH   8   9
ENDBRANCH   7   8
ENDBRANCH   6   7
ENDBRANCH   4   6
ENDBRANCH   1   2
BRANCH   1  17
ATOM     17  C   UNL A   1      34.852  22.586  24.230  1.00  0.00     0.023 C 
BRANCH  17  18
ATOM     18  C   UNL A   1      36.309  22.127  24.328  1.00  0.00     0.023 C 
BRANCH  18  19
ATOM     19  C   UNL A   1      36.857  21.975  25.744  1.00  0.00     0.116 C 
BRANCH  19  20
ATOM     20  N   UNL A   1      37.956  21.026  25.830  1.00  0.00    -0.352 N 
ATOM     21  C   UNL A   1      39.271  21.246  26.171  1.00  0.00     0.251 C 
ATOM     22  H   UNL A   1      37.726  20.093  25.614  1.00  0.00     0.163 HD
ATOM     23  O   UNL A   1      40.090  20.342  26.056  1.00  0.00    -0.269 OA
BRANCH  21  24
ATOM     24  C   UNL A   1      39.701  22.581  26.650  1.00  0.00     0.039 A 
ATOM     25  C   UNL A   1      40.694  22.656  27.631  1.00  0.00     0.014 A 
ATOM     26  C   UNL A   1      39.139  23.751  26.135  1.00  0.00     0.014 A 
ATOM     27  C   UNL A   1      41.169  23.903  28.045  1.00  0.00     0.010 A 
ATOM     28  C   UNL A   1      39.667  24.991  26.492  1.00  0.00     0.010 A 
ATOM     29  C   UNL A   1      40.687  25.083  27.452  1.00  0.00    -0.014 A 
BRANCH  29  30
ATOM     30  C   UNL A   1      41.252  26.412  27.807  1.00  0.00     0.031 A 
ATOM     31  C   UNL A   1      42.699  26.727  27.529  1.00  0.00     0.074 A 
ATOM     32  C   UNL A   1      40.484  27.313  28.454  1.00  0.00     0.049 A 
ATOM     33  N   UNL A   1      43.378  27.806  27.820  1.00  0.00    -0.248 NA
ATOM     34  C   UNL A   1      43.492  25.683  26.861  1.00  0.00     0.031 C 
ATOM     35  C   UNL A   1      39.090  27.105  28.851  1.00  0.00     0.029 A 
ATOM     36  N   UNL A   1      40.775  28.573  28.918  1.00  0.00    -0.354 N 
ATOM     37  C   UNL A   1      44.681  27.563  27.401  1.00  0.00     0.074 A 
ATOM     38  C   UNL A   1      44.705  26.218  26.869  1.00  0.00     0.031 C 
ATOM     39  C   UNL A   1      38.647  28.197  29.495  1.00  0.00     0.029 A 
ATOM     40  C   UNL A   1      39.732  29.167  29.590  1.00  0.00     0.049 A 
ATOM     41  H   UNL A   1      41.647  29.008  28.783  1.00  0.00     0.167 HD
ATOM     42  C   UNL A   1      45.754  28.389  27.430  1.00  0.00     0.034 A 
ATOM     43  C   UNL A   1      39.660  30.354  30.227  1.00  0.00     0.034 A 
ATOM     44  C   UNL A   1      45.720  29.738  27.930  1.00  0.00     0.049 A 
ATOM     45  C   UNL A   1      40.858  31.263  30.224  1.00  0.00     0.074 A 
ATOM     46  C   UNL A   1      46.734  30.680  27.929  1.00  0.00     0.029 A 
ATOM     47  N   UNL A   1      44.624  30.334  28.532  1.00  0.00    -0.354 N 
ATOM     48  N   UNL A   1      42.039  31.071  29.687  1.00  0.00    -0.248 NA
ATOM     49  C   UNL A   1      40.706  32.569  30.883  1.00  0.00     0.031 C 
ATOM     50  C   UNL A   1      46.260  31.834  28.560  1.00  0.00     0.029 A 
ATOM     51  C   UNL A   1      44.938  31.626  28.917  1.00  0.00     0.049 A 
ATOM     52  H   UNL A   1      43.749  29.902  28.666  1.00  0.00     0.167 HD
ATOM     53  C   UNL A   1      42.754  32.242  29.909  1.00  0.00     0.074 A 
ATOM     54  C   UNL A   1      41.867  33.146  30.610  1.00  0.00     0.031 C 
ATOM     55  C   UNL A   1      44.034  32.537  29.572  1.00  0.00     0.034 A 
BRANCH  42  56
ATOM     56  C   UNL A   1      47.051  27.875  26.860  1.00  0.00     0.023 A 
ATOM     57  C   UNL A   1      48.035  27.355  27.726  1.00  0.00     0.012 A 
ATOM     58  C   UNL A   1      47.273  27.847  25.469  1.00  0.00     0.148 A 
ATOM     59  C   UNL A   1      49.233  26.850  27.221  1.00  0.00     0.002 A 
ATOM     60  C   UNL A   1      48.448  27.297  24.971  1.00  0.00     0.091 A 
ATOM     61  F   UNL A   1      46.334  28.362  24.662  1.00  0.00    -0.205 F 
ATOM     62  C   UNL A   1      49.434  26.812  25.845  1.00  0.00     0.022 A 
BRANCH  60  63
ATOM     63  S   UNL A   1      48.770  27.127  23.212  1.00  0.00     0.127 S 
ATOM     64  O   UNL A   1      50.232  27.147  23.177  1.00  0.00    -0.237 OA
ATOM     65  O   UNL A   1      48.173  25.824  22.917  1.00  0.00    -0.237 OA
ATOM     66  O   UNL A   1      48.117  28.258  22.570  1.00  0.00    -0.744 OA
ENDBRANCH  60  63
ENDBRANCH  42  56
BRANCH  43  67
ATOM     67  C   UNL A   1      38.389  30.771  30.885  1.00  0.00     0.023 A 
ATOM     68  C   UNL A   1      38.189  30.495  32.253  1.00  0.00     0.012 A 
ATOM     69  C   UNL A   1      37.385  31.452  30.168  1.00  0.00     0.148 A 
ATOM     70  C   UNL A   1      36.997  30.856  32.884  1.00  0.00     0.002 A 
ATOM     71  C   UNL A   1      36.227  31.860  30.818  1.00  0.00     0.091 A 
ATOM     72  F   UNL A   1      37.591  31.696  28.867  1.00  0.00    -0.205 F 
ATOM     73  C   UNL A   1      36.021  31.546  32.170  1.00  0.00     0.022 A 
BRANCH  71  74
ATOM     74  S   UNL A   1      34.975  32.866  30.012  1.00  0.00     0.127 S 
ATOM     75  O   UNL A   1      34.059  33.143  31.114  1.00  0.00    -0.237 OA
ATOM     76  O   UNL A   1      35.761  34.014  29.557  1.00  0.00    -0.237 OA
ATOM     77  O   UNL A   1      34.440  32.042  28.936  1.00  0.00    -0.744 OA
ENDBRANCH  71  74
ENDBRANCH  43  67
BRANCH  55  78
ATOM     78  C   UNL A   1      44.550  33.912  29.912  1.00  0.00     0.023 A 
ATOM     79  C   UNL A   1      45.251  34.125  31.116  1.00  0.00     0.012 A 
ATOM     80  C   UNL A   1      44.399  34.977  29.002  1.00  0.00     0.148 A 
ATOM     81  C   UNL A   1      45.763  35.386  31.424  1.00  0.00     0.002 A 
ATOM     82  C   UNL A   1      44.958  36.215  29.290  1.00  0.00     0.091 A 
ATOM     83  F   UNL A   1      43.714  34.758  27.870  1.00  0.00    -0.205 F 
ATOM     84  C   UNL A   1      45.627  36.426  30.507  1.00  0.00     0.022 A 
BRANCH  82  85
ATOM     85  S   UNL A   1      44.921  37.585  28.129  1.00  0.00     0.127 S 
ATOM     86  O   UNL A   1      45.371  38.697  28.966  1.00  0.00    -0.237 OA
ATOM     87  O   UNL A   1      45.885  37.157  27.115  1.00  0.00    -0.237 OA
ATOM     88  O   UNL A   1      43.546  37.677  27.656  1.00  0.00    -0.744 OA
ENDBRANCH  82  85
ENDBRANCH  55  78
ENDBRANCH  29  30
ENDBRANCH  21  24
ENDBRANCH  19  20
ENDBRANCH  18  19
ENDBRANCH  17  18
ENDBRANCH   1  17
TORSDOF 19
ENDMDL
MODEL 3
REMARK VINA RESULT:      -9.2      3.653      5.985
REMARK SMILES O=C(COCCNc1nncs1)NCCCCNC(=O)c1ccc(-c2c3nc(c(-c4cccc(S(=O)(=O)[O-])c4F)c4ccc([nH]4)c(-c4cccc(S(=O)(=O)[O-])c4F)c4nc(c(-c5cccc(S(=O)(=O)[O-])c5F)c5ccc2[nH]5)C=C4)C=C3)cc1
REMARK SMILES IDX 14 1 13 2 1 3 2 4 3 6 4 7 5 8 6 9 7 10 8 12 9 13 12 14 10 15
REMARK SMILES IDX 11 16 15 17 16 18 17 19 18 20 19 21 20 23 21 24 22 25 83 26
REMARK SMILES IDX 23 27 82 28 24 29 25 30 26 31 76 32 27 33 81 34 75 35 77 36
REMARK SMILES IDX 28 37 80 38 74 39 73 40 29 42 61 43 41 44 60 45 42 46 45 47
REMARK SMILES IDX 59 48 78 49 43 50 44 51 58 53 79 54 46 55 30 56 31 57 39 58
REMARK SMILES IDX 32 59 34 60 40 61 33 62 35 63 36 64 37 65 38 66 62 67 63 68
REMARK SMILES IDX 71 69 64 70 66 71 72 72 65 73 67 74 68 75 69 76 70 77 47 78
REMARK SMILES IDX 48 79 56 80 49 81 51 82 57 83 50 84 52 85 53 86 54 87 55 88
REMARK H PARENT 13 5 7 11 18 22 77 41 45 52
REMARK Flexibility Score: inf
ROOT
ATOM      1  C   UNL A   1      34.326  22.316  24.896  1.00  0.00     0.116 C 
ENDROOT
BRANCH   1   2
ATOM      2  N   UNL A   1      33.057  23.007  24.827  1.00  0.00    -0.354 N 
ATOM      3  O   UNL A   1      32.564  22.871  27.073  1.00  0.00    -0.272 OA
ATOM      4  C   UNL A   1      32.280  23.243  25.940  1.00  0.00     0.245 C 
ATOM      5  H   UNL A   1      32.735  23.320  23.951  1.00  0.00     0.163 HD
BRANCH   4   6
ATOM      6  C   UNL A   1      31.005  24.041  25.641  1.00  0.00     0.260 C 
BRANCH   6   7
ATOM      7  O   UNL A   1      30.650  25.057  26.566  1.00  0.00    -0.370 OA
BRANCH   7   8
ATOM      8  C   UNL A   1      31.539  26.176  26.655  1.00  0.00     0.182 C 
BRANCH   8   9
ATOM      9  C   UNL A   1      31.509  27.143  25.457  1.00  0.00     0.143 C 
BRANCH   9  10
ATOM     10  N   UNL A   1      32.668  26.973  24.602  1.00  0.00    -0.358 N 
ATOM     11  H   UNL A   1      33.534  27.264  24.970  1.00  0.00     0.163 HD
BRANCH  10  12
ATOM     12  C   UNL A   1      32.686  26.456  23.353  1.00  0.00     0.205 A 
ATOM     13  N   UNL A   1      33.727  25.783  22.900  1.00  0.00    -0.121 NA
ATOM     14  S   UNL A   1      31.439  26.616  22.172  1.00  0.00    -0.083 S 
ATOM     15  N   UNL A   1      33.577  25.337  21.606  1.00  0.00    -0.145 NA
ATOM     16  C   UNL A   1      32.426  25.715  21.103  1.00  0.00     0.204 A 
ENDBRANCH  10  12
ENDBRANCH   9  10
ENDBRANCH   8   9
ENDBRANCH   7   8
ENDBRANCH   6   7
ENDBRANCH   4   6
ENDBRANCH   1   2
BRANCH   1  17
ATOM     17  C   UNL A   1      35.266  22.695  23.754  1.00  0.00     0.023 C 
BRANCH  17  18
ATOM     18  C   UNL A   1      36.670  23.122  24.190  1.00  0.00     0.023 C 
BRANCH  18  19
ATOM     19  C   UNL A   1      36.922  23.117  25.694  1.00  0.00     0.116 C 
BRANCH  19  20
ATOM     20  N   UNL A   1      38.030  22.260  26.084  1.00  0.00    -0.352 N 
ATOM     21  C   UNL A   1      39.255  22.604  26.609  1.00  0.00     0.251 C 
ATOM     22  H   UNL A   1      37.883  21.295  25.954  1.00  0.00     0.163 HD
ATOM     23  O   UNL A   1      40.121  21.749  26.749  1.00  0.00    -0.269 OA
BRANCH  21  24
ATOM     24  C   UNL A   1      39.535  24.012  26.979  1.00  0.00     0.039 A 
ATOM     25  C   UNL A   1      39.310  24.419  28.297  1.00  0.00     0.014 A 
ATOM     26  C   UNL A   1      40.022  24.924  26.040  1.00  0.00     0.014 A 
ATOM     27  C   UNL A   1      39.636  25.721  28.687  1.00  0.00     0.010 A 
ATOM     28  C   UNL A   1      40.420  26.196  26.449  1.00  0.00     0.010 A 
ATOM     29  C   UNL A   1      40.231  26.610  27.777  1.00  0.00    -0.014 A 
BRANCH  29  30
ATOM     30  C   UNL A   1      40.679  27.965  28.200  1.00  0.00     0.031 A 
ATOM     31  C   UNL A   1      42.144  28.310  28.232  1.00  0.00     0.074 A 
ATOM     32  C   UNL A   1      39.770  28.862  28.635  1.00  0.00     0.049 A 
ATOM     33  N   UNL A   1      42.722  29.415  28.626  1.00  0.00    -0.248 NA
ATOM     34  C   UNL A   1      43.085  27.269  27.786  1.00  0.00     0.031 C 
ATOM     35  C   UNL A   1      38.327  28.628  28.728  1.00  0.00     0.029 A 
ATOM     36  N   UNL A   1      39.928  30.142  29.108  1.00  0.00    -0.354 N 
ATOM     37  C   UNL A   1      44.090  29.195  28.507  1.00  0.00     0.074 A 
ATOM     38  C   UNL A   1      44.256  27.836  28.039  1.00  0.00     0.031 C 
ATOM     39  C   UNL A   1      37.734  29.725  29.223  1.00  0.00     0.029 A 
ATOM     40  C   UNL A   1      38.752  30.727  29.519  1.00  0.00     0.049 A 
ATOM     41  H   UNL A   1      40.800  30.597  29.151  1.00  0.00     0.167 HD
ATOM     42  C   UNL A   1      45.114  30.050  28.739  1.00  0.00     0.034 A 
ATOM     43  C   UNL A   1      38.520  31.929  30.085  1.00  0.00     0.034 A 
ATOM     44  C   UNL A   1      44.946  31.411  29.175  1.00  0.00     0.049 A 
ATOM     45  C   UNL A   1      39.672  32.870  30.310  1.00  0.00     0.074 A 
ATOM     46  C   UNL A   1      45.916  32.381  29.361  1.00  0.00     0.029 A 
ATOM     47  N   UNL A   1      43.733  31.995  29.505  1.00  0.00    -0.354 N 
ATOM     48  N   UNL A   1      40.944  32.694  30.048  1.00  0.00    -0.248 NA
ATOM     49  C   UNL A   1      39.353  34.189  30.876  1.00  0.00     0.031 C 
ATOM     50  C   UNL A   1      45.294  33.539  29.835  1.00  0.00     0.029 A 
ATOM     51  C   UNL A   1      43.930  33.305  29.905  1.00  0.00     0.049 A 
ATOM     52  H   UNL A   1      42.859  31.544  29.461  1.00  0.00     0.167 HD
ATOM     53  C   UNL A   1      41.571  33.890  30.380  1.00  0.00     0.074 A 
ATOM     54  C   UNL A   1      40.535  34.790  30.842  1.00  0.00     0.031 C 
ATOM     55  C   UNL A   1      42.887  34.210  30.318  1.00  0.00     0.034 A 
BRANCH  42  56
ATOM     56  C   UNL A   1      46.514  29.556  28.482  1.00  0.00     0.023 A 
ATOM     57  C   UNL A   1      47.112  29.779  27.224  1.00  0.00     0.012 A 
ATOM     58  C   UNL A   1      47.261  28.929  29.498  1.00  0.00     0.148 A 
ATOM     59  C   UNL A   1      48.416  29.354  26.970  1.00  0.00     0.002 A 
ATOM     60  C   UNL A   1      48.576  28.552  29.253  1.00  0.00     0.091 A 
ATOM     61  F   UNL A   1      46.671  28.709  30.682  1.00  0.00    -0.205 F 
ATOM     62  C   UNL A   1      49.150  28.751  27.987  1.00  0.00     0.022 A 
BRANCH  60  63
ATOM     63  S   UNL A   1      49.635  27.841  30.519  1.00  0.00     0.127 S 
ATOM     64  O   UNL A   1      50.880  27.637  29.780  1.00  0.00    -0.237 OA
ATOM     65  O   UNL A   1      49.685  28.914  31.513  1.00  0.00    -0.237 OA
ATOM     66  O   UNL A   1      48.970  26.625  30.965  1.00  0.00    -0.744 OA
ENDBRANCH  60  63
ENDBRANCH  42  56
BRANCH  43  67
ATOM     67  C   UNL A   1      37.128  32.330  30.438  1.00  0.00     0.023 A 
ATOM     68  C   UNL A   1      36.653  32.119  31.748  1.00  0.00     0.012 A 
ATOM     69  C   UNL A   1      36.280  32.933  29.489  1.00  0.00     0.148 A 
ATOM     70  C   UNL A   1      35.346  32.466  32.094  1.00  0.00     0.002 A 
ATOM     71  C   UNL A   1      35.000  33.330  29.857  1.00  0.00     0.091 A 
ATOM     72  F   UNL A   1      36.747  33.117  28.246  1.00  0.00    -0.205 F 
ATOM     73  C   UNL A   1      34.523  33.079  31.153  1.00  0.00     0.022 A 
BRANCH  71  74
ATOM     74  S   UNL A   1      33.919  34.243  28.750  1.00  0.00     0.127 S 
ATOM     75  O   UNL A   1      32.800  34.571  29.629  1.00  0.00    -0.237 OA
ATOM     76  O   UNL A   1      34.763  35.378  28.376  1.00  0.00    -0.237 OA
ATOM     77  O   UNL A   1      33.617  33.333  27.654  1.00  0.00    -0.744 OA
ENDBRANCH  71  74
ENDBRANCH  43  67
BRANCH  55  78
ATOM     78  C   UNL A   1      43.289  35.607  30.715  1.00  0.00     0.023 A 
ATOM     79  C   UNL A   1      43.709  35.873  32.033  1.00  0.00     0.012 A 
ATOM     80  C   UNL A   1      43.317  36.642  29.759  1.00  0.00     0.148 A 
ATOM     81  C   UNL A   1      44.116  37.156  32.402  1.00  0.00     0.002 A 
ATOM     82  C   UNL A   1      43.774  37.903  30.119  1.00  0.00     0.091 A 
ATOM     83  F   UNL A   1      42.897  36.373  28.514  1.00  0.00    -0.205 F 
ATOM     84  C   UNL A   1      44.161  38.165  31.443  1.00  0.00     0.022 A 
BRANCH  82  85
ATOM     85  S   UNL A   1      43.961  39.237  28.932  1.00  0.00     0.127 S 
ATOM     86  O   UNL A   1      44.481  40.314  29.774  1.00  0.00    -0.237 OA
ATOM     87  O   UNL A   1      44.930  38.679  27.989  1.00  0.00    -0.237 OA
ATOM     88  O   UNL A   1      42.635  39.469  28.373  1.00  0.00    -0.744 OA
ENDBRANCH  82  85
ENDBRANCH  55  78
ENDBRANCH  29  30
ENDBRANCH  21  24
ENDBRANCH  19  20
ENDBRANCH  18  19
ENDBRANCH  17  18
ENDBRANCH   1  17
TORSDOF 19
ENDMDL
