MODEL 1
REMARK VINA RESULT:     -11.7      0.000      0.000
REMARK SMILES C[C@H](CNS(=O)(=O)c1ccc(C(=O)NCCCCNC(=O)c2ccc(-c3c4nc(c(-c5cccc(S(=O)(=O)[O-])c5F)c5ccc([nH]5)c(-c5cccc(S(=O)(=O)[O-])c5F)c5nc(c(-c6cccc(S(=O)(=O)[O-])c6F)c6ccc3[nH]6)C=C5)C=C4)cc2)o1)c1ccccc1
REMARK SMILES IDX 15 1 14 2 12 3 13 4 11 6 8 7 9 8 85 9 10 10 5 11 6 12 7 13
REMARK SMILES IDX 4 14 3 16 2 17 1 18 86 19 87 20 91 21 88 22 90 23 89 24
REMARK SMILES IDX 16 25 17 26 18 27 19 28 20 29 21 31 22 32 23 33 84 34 24 35
REMARK SMILES IDX 83 36 25 37 26 38 27 39 77 40 28 41 82 42 76 43 78 44 29 45
REMARK SMILES IDX 81 46 75 47 74 48 30 50 62 51 42 52 61 53 43 54 46 55 60 56
REMARK SMILES IDX 79 57 44 58 45 59 59 61 80 62 47 63 31 64 32 65 40 66 33 67
REMARK SMILES IDX 35 68 41 69 34 70 36 71 37 72 38 73 39 74 63 75 64 76 72 77
REMARK SMILES IDX 65 78 67 79 73 80 66 81 68 82 69 83 70 84 71 85 48 86 49 87
REMARK SMILES IDX 57 88 50 89 52 90 58 91 51 92 53 93 54 94 55 95 56 96
REMARK H PARENT 14 5 4 15 19 30 78 49 46 60
REMARK Flexibility Score: inf
ROOT
ATOM      1  C   UNL A   1      35.911  21.519  24.817  1.00  0.00     0.116 C 
ENDROOT
BRANCH   1   2
ATOM      2  N   UNL A   1      34.531  21.132  25.023  1.00  0.00    -0.349 N 
ATOM      3  C   UNL A   1      33.355  21.843  24.969  1.00  0.00     0.287 C 
ATOM      4  O   UNL A   1      32.335  21.187  25.198  1.00  0.00    -0.266 OA
ATOM      5  H   UNL A   1      34.413  20.181  25.245  1.00  0.00     0.163 HD
BRANCH   3   6
ATOM      6  C   UNL A   1      33.310  23.265  24.659  1.00  0.00     0.193 A 
ATOM      7  C   UNL A   1      33.218  24.951  23.174  1.00  0.00     0.234 A 
ATOM      8  C   UNL A   1      33.287  25.508  24.441  1.00  0.00     0.065 A 
ATOM      9  O   UNL A   1      33.258  23.585  23.321  1.00  0.00    -0.438 OA
ATOM     10  C   UNL A   1      33.290  24.446  25.377  1.00  0.00     0.058 A 
BRANCH   7  11
ATOM     11  S   UNL A   1      33.037  25.731  21.570  1.00  0.00     0.274 S 
ATOM     12  O   UNL A   1      33.081  24.666  20.585  1.00  0.00    -0.204 OA
ATOM     13  O   UNL A   1      33.948  26.844  21.552  1.00  0.00    -0.204 OA
BRANCH  11  14
ATOM     14  N   UNL A   1      31.465  26.386  21.499  1.00  0.00    -0.208 NA
ATOM     15  H   UNL A   1      31.273  26.640  20.531  1.00  0.00     0.141 HD
BRANCH  14  16
ATOM     16  C   UNL A   1      31.238  27.587  22.342  1.00  0.00     0.107 C 
BRANCH  16  17
ATOM     17  C   UNL A   1      29.836  27.599  23.023  1.00  0.00     0.031 C 
ATOM     18  C   UNL A   1      29.839  26.787  24.334  1.00  0.00     0.014 C 
BRANCH  17  19
ATOM     19  C   UNL A   1      29.163  28.973  23.126  1.00  0.00    -0.044 A 
ATOM     20  C   UNL A   1      29.829  30.078  23.687  1.00  0.00     0.004 A 
ATOM     21  C   UNL A   1      27.803  29.146  22.806  1.00  0.00     0.004 A 
ATOM     22  C   UNL A   1      29.180  31.302  23.883  1.00  0.00     0.000 A 
ATOM     23  C   UNL A   1      27.158  30.374  22.982  1.00  0.00     0.000 A 
ATOM     24  C   UNL A   1      27.846  31.452  23.523  1.00  0.00     0.000 A 
ENDBRANCH  17  19
ENDBRANCH  16  17
ENDBRANCH  14  16
ENDBRANCH  11  14
ENDBRANCH   7  11
ENDBRANCH   3   6
ENDBRANCH   1   2
BRANCH   1  25
ATOM     25  C   UNL A   1      36.863  20.343  25.036  1.00  0.00     0.023 C 
BRANCH  25  26
ATOM     26  C   UNL A   1      38.349  20.701  24.883  1.00  0.00     0.023 C 
BRANCH  26  27
ATOM     27  C   UNL A   1      39.200  20.512  26.140  1.00  0.00     0.116 C 
BRANCH  27  28
ATOM     28  N   UNL A   1      40.154  19.418  26.031  1.00  0.00    -0.352 N 
ATOM     29  C   UNL A   1      41.526  19.472  26.108  1.00  0.00     0.251 C 
ATOM     30  H   UNL A   1      39.767  18.525  25.883  1.00  0.00     0.163 HD
ATOM     31  O   UNL A   1      42.192  18.464  25.891  1.00  0.00    -0.269 OA
BRANCH  29  32
ATOM     32  C   UNL A   1      42.191  20.757  26.405  1.00  0.00     0.039 A 
ATOM     33  C   UNL A   1      42.522  21.602  25.342  1.00  0.00     0.014 A 
ATOM     34  C   UNL A   1      42.473  21.134  27.720  1.00  0.00     0.014 A 
ATOM     35  C   UNL A   1      43.075  22.859  25.602  1.00  0.00     0.010 A 
ATOM     36  C   UNL A   1      42.977  22.407  27.980  1.00  0.00     0.010 A 
ATOM     37  C   UNL A   1      43.277  23.281  26.925  1.00  0.00    -0.014 A 
BRANCH  37  38
ATOM     38  C   UNL A   1      43.778  24.643  27.233  1.00  0.00     0.031 A 
ATOM     39  C   UNL A   1      42.836  25.698  27.741  1.00  0.00     0.074 A 
ATOM     40  C   UNL A   1      45.057  24.956  26.953  1.00  0.00     0.049 A 
ATOM     41  N   UNL A   1      43.071  26.960  27.987  1.00  0.00    -0.248 NA
ATOM     42  C   UNL A   1      41.442  25.288  27.979  1.00  0.00     0.031 C 
ATOM     43  C   UNL A   1      46.045  24.040  26.379  1.00  0.00     0.029 A 
ATOM     44  N   UNL A   1      45.739  26.140  27.082  1.00  0.00    -0.354 N 
ATOM     45  C   UNL A   1      41.851  27.505  28.368  1.00  0.00     0.074 A 
ATOM     46  C   UNL A   1      40.873  26.440  28.302  1.00  0.00     0.031 C 
ATOM     47  C   UNL A   1      47.204  24.697  26.202  1.00  0.00     0.029 A 
ATOM     48  C   UNL A   1      47.038  26.081  26.631  1.00  0.00     0.049 A 
ATOM     49  H   UNL A   1      45.337  26.954  27.461  1.00  0.00     0.167 HD
ATOM     50  C   UNL A   1      41.575  28.769  28.767  1.00  0.00     0.034 A 
ATOM     51  C   UNL A   1      47.986  27.037  26.572  1.00  0.00     0.034 A 
ATOM     52  C   UNL A   1      42.561  29.808  28.895  1.00  0.00     0.049 A 
ATOM     53  C   UNL A   1      47.672  28.412  27.093  1.00  0.00     0.074 A 
ATOM     54  C   UNL A   1      42.399  31.094  29.380  1.00  0.00     0.029 A 
ATOM     55  N   UNL A   1      43.894  29.679  28.540  1.00  0.00    -0.354 N 
ATOM     56  N   UNL A   1      46.553  28.864  27.605  1.00  0.00    -0.248 NA
ATOM     57  C   UNL A   1      48.760  29.401  27.063  1.00  0.00     0.031 C 
ATOM     58  C   UNL A   1      43.638  31.741  29.324  1.00  0.00     0.029 A 
ATOM     59  C   UNL A   1      44.569  30.858  28.800  1.00  0.00     0.049 A 
ATOM     60  H   UNL A   1      44.301  28.866  28.160  1.00  0.00     0.167 HD
ATOM     61  C   UNL A   1      46.810  30.175  27.988  1.00  0.00     0.074 A 
ATOM     62  C   UNL A   1      48.197  30.440  27.666  1.00  0.00     0.031 C 
ATOM     63  C   UNL A   1      45.967  31.083  28.537  1.00  0.00     0.034 A 
BRANCH  50  64
ATOM     64  C   UNL A   1      40.159  29.076  29.173  1.00  0.00     0.023 A 
ATOM     65  C   UNL A   1      39.216  29.397  28.177  1.00  0.00     0.012 A 
ATOM     66  C   UNL A   1      39.750  29.002  30.518  1.00  0.00     0.148 A 
ATOM     67  C   UNL A   1      37.891  29.667  28.514  1.00  0.00     0.002 A 
ATOM     68  C   UNL A   1      38.418  29.239  30.844  1.00  0.00     0.091 A 
ATOM     69  F   UNL A   1      40.668  28.725  31.455  1.00  0.00    -0.205 F 
ATOM     70  C   UNL A   1      37.490  29.578  29.845  1.00  0.00     0.022 A 
BRANCH  68  71
ATOM     71  S   UNL A   1      37.802  29.086  32.524  1.00  0.00     0.127 S 
ATOM     72  O   UNL A   1      38.758  29.906  33.266  1.00  0.00    -0.237 OA
ATOM     73  O   UNL A   1      36.459  29.660  32.421  1.00  0.00    -0.237 OA
ATOM     74  O   UNL A   1      37.824  27.661  32.822  1.00  0.00    -0.744 OA
ENDBRANCH  68  71
ENDBRANCH  50  64
BRANCH  51  75
ATOM     75  C   UNL A   1      49.351  26.692  26.090  1.00  0.00     0.023 A 
ATOM     76  C   UNL A   1      50.176  25.880  26.893  1.00  0.00     0.012 A 
ATOM     77  C   UNL A   1      49.822  27.116  24.832  1.00  0.00     0.148 A 
ATOM     78  C   UNL A   1      51.453  25.517  26.464  1.00  0.00     0.002 A 
ATOM     79  C   UNL A   1      51.077  26.709  24.390  1.00  0.00     0.091 A 
ATOM     80  F   UNL A   1      49.033  27.904  24.088  1.00  0.00    -0.205 F 
ATOM     81  C   UNL A   1      51.899  25.920  25.210  1.00  0.00     0.022 A 
BRANCH  79  82
ATOM     82  S   UNL A   1      51.662  27.081  22.732  1.00  0.00     0.127 S 
ATOM     83  O   UNL A   1      50.517  26.694  21.914  1.00  0.00    -0.237 OA
ATOM     84  O   UNL A   1      51.910  28.522  22.804  1.00  0.00    -0.237 OA
ATOM     85  O   UNL A   1      52.869  26.280  22.569  1.00  0.00    -0.744 OA
ENDBRANCH  79  82
ENDBRANCH  51  75
BRANCH  63  86
ATOM     86  C   UNL A   1      46.520  32.447  28.850  1.00  0.00     0.023 A 
ATOM     87  C   UNL A   1      47.035  32.704  30.134  1.00  0.00     0.012 A 
ATOM     88  C   UNL A   1      46.611  33.438  27.854  1.00  0.00     0.148 A 
ATOM     89  C   UNL A   1      47.616  33.936  30.430  1.00  0.00     0.002 A 
ATOM     90  C   UNL A   1      47.224  34.651  28.144  1.00  0.00     0.091 A 
ATOM     91  F   UNL A   1      46.092  33.182  26.643  1.00  0.00    -0.205 F 
ATOM     92  C   UNL A   1      47.722  34.905  29.433  1.00  0.00     0.022 A 
BRANCH  90  93
ATOM     93  S   UNL A   1      47.474  35.912  26.888  1.00  0.00     0.127 S 
ATOM     94  O   UNL A   1      48.079  36.992  27.664  1.00  0.00    -0.237 OA
ATOM     95  O   UNL A   1      48.383  35.252  25.951  1.00  0.00    -0.237 OA
ATOM     96  O   UNL A   1      46.151  36.186  26.343  1.00  0.00    -0.744 OA
ENDBRANCH  90  93
ENDBRANCH  63  86
ENDBRANCH  37  38
ENDBRANCH  29  32
ENDBRANCH  27  28
ENDBRANCH  26  27
ENDBRANCH  25  26
ENDBRANCH   1  25
TORSDOF 19
ENDMDL
MODEL 2
REMARK VINA RESULT:     -11.6      2.561      7.716
REMARK SMILES C[C@H](CNS(=O)(=O)c1ccc(C(=O)NCCCCNC(=O)c2ccc(-c3c4nc(c(-c5cccc(S(=O)(=O)[O-])c5F)c5ccc([nH]5)c(-c5cccc(S(=O)(=O)[O-])c5F)c5nc(c(-c6cccc(S(=O)(=O)[O-])c6F)c6ccc3[nH]6)C=C5)C=C4)cc2)o1)c1ccccc1
REMARK SMILES IDX 15 1 14 2 12 3 13 4 11 6 8 7 9 8 85 9 10 10 5 11 6 12 7 13
REMARK SMILES IDX 4 14 3 16 2 17 1 18 86 19 87 20 91 21 88 22 90 23 89 24
REMARK SMILES IDX 16 25 17 26 18 27 19 28 20 29 21 31 22 32 23 33 84 34 24 35
REMARK SMILES IDX 83 36 25 37 26 38 27 39 77 40 28 41 82 42 76 43 78 44 29 45
REMARK SMILES IDX 81 46 75 47 74 48 30 50 62 51 42 52 61 53 43 54 46 55 60 56
REMARK SMILES IDX 79 57 44 58 45 59 59 61 80 62 47 63 31 64 32 65 40 66 33 67
REMARK SMILES IDX 35 68 41 69 34 70 36 71 37 72 38 73 39 74 63 75 64 76 72 77
REMARK SMILES IDX 65 78 67 79 73 80 66 81 68 82 69 83 70 84 71 85 48 86 49 87
REMARK SMILES IDX 57 88 50 89 52 90 58 91 51 92 53 93 54 94 55 95 56 96
REMARK H PARENT 14 5 4 15 19 30 78 49 46 60
REMARK Flexibility Score: inf
ROOT
ATOM      1  C   UNL A   1      36.649  21.619  25.604  1.00  0.00     0.116 C 
ENDROOT
BRANCH   1   2
ATOM      2  N   UNL A   1      35.547  21.629  26.542  1.00  0.00    -0.349 N 
ATOM      3  C   UNL A   1      34.186  21.711  26.368  1.00  0.00     0.287 C 
ATOM      4  O   UNL A   1      33.521  21.686  27.407  1.00  0.00    -0.266 OA
ATOM      5  H   UNL A   1      35.826  21.565  27.484  1.00  0.00     0.163 HD
BRANCH   3   6
ATOM      6  C   UNL A   1      33.568  21.814  25.053  1.00  0.00     0.193 A 
ATOM      7  C   UNL A   1      33.084  22.986  23.195  1.00  0.00     0.234 A 
ATOM      8  C   UNL A   1      32.502  21.734  23.068  1.00  0.00     0.065 A 
ATOM      9  O   UNL A   1      33.709  23.028  24.419  1.00  0.00    -0.438 OA
ATOM     10  C   UNL A   1      32.854  20.980  24.213  1.00  0.00     0.058 A 
BRANCH   7  11
ATOM     11  S   UNL A   1      33.154  24.357  22.042  1.00  0.00     0.274 S 
ATOM     12  O   UNL A   1      33.310  23.778  20.720  1.00  0.00    -0.204 OA
ATOM     13  O   UNL A   1      34.088  25.303  22.590  1.00  0.00    -0.204 OA
BRANCH  11  14
ATOM     14  N   UNL A   1      31.626  25.112  22.059  1.00  0.00    -0.208 NA
ATOM     15  H   UNL A   1      31.319  25.224  21.093  1.00  0.00     0.141 HD
BRANCH  14  16
ATOM     16  C   UNL A   1      31.584  26.445  22.711  1.00  0.00     0.107 C 
BRANCH  16  17
ATOM     17  C   UNL A   1      30.630  26.493  23.942  1.00  0.00     0.031 C 
ATOM     18  C   UNL A   1      30.310  25.078  24.463  1.00  0.00     0.014 C 
BRANCH  17  19
ATOM     19  C   UNL A   1      31.007  27.503  25.032  1.00  0.00    -0.044 A 
ATOM     20  C   UNL A   1      31.306  28.843  24.721  1.00  0.00     0.004 A 
ATOM     21  C   UNL A   1      31.219  27.098  26.363  1.00  0.00     0.004 A 
ATOM     22  C   UNL A   1      31.757  29.738  25.698  1.00  0.00     0.000 A 
ATOM     23  C   UNL A   1      31.651  27.995  27.345  1.00  0.00     0.000 A 
ATOM     24  C   UNL A   1      31.922  29.316  27.012  1.00  0.00     0.000 A 
ENDBRANCH  17  19
ENDBRANCH  16  17
ENDBRANCH  14  16
ENDBRANCH  11  14
ENDBRANCH   7  11
ENDBRANCH   3   6
ENDBRANCH   1   2
BRANCH   1  25
ATOM     25  C   UNL A   1      36.778  20.267  24.902  1.00  0.00     0.023 C 
BRANCH  25  26
ATOM     26  C   UNL A   1      38.200  19.685  24.915  1.00  0.00     0.023 C 
BRANCH  26  27
ATOM     27  C   UNL A   1      39.162  20.333  25.913  1.00  0.00     0.116 C 
BRANCH  27  28
ATOM     28  N   UNL A   1      40.405  19.594  26.077  1.00  0.00    -0.352 N 
ATOM     29  C   UNL A   1      41.646  20.077  26.419  1.00  0.00     0.251 C 
ATOM     30  H   UNL A   1      40.351  18.623  25.922  1.00  0.00     0.163 HD
ATOM     31  O   UNL A   1      42.618  19.328  26.415  1.00  0.00    -0.269 OA
BRANCH  29  32
ATOM     32  C   UNL A   1      41.808  21.509  26.745  1.00  0.00     0.039 A 
ATOM     33  C   UNL A   1      41.887  21.886  28.088  1.00  0.00     0.014 A 
ATOM     34  C   UNL A   1      41.897  22.471  25.735  1.00  0.00     0.014 A 
ATOM     35  C   UNL A   1      42.125  23.223  28.420  1.00  0.00     0.010 A 
ATOM     36  C   UNL A   1      42.184  23.793  26.066  1.00  0.00     0.010 A 
ATOM     37  C   UNL A   1      42.306  24.180  27.409  1.00  0.00    -0.014 A 
BRANCH  37  38
ATOM     38  C   UNL A   1      42.648  25.587  27.730  1.00  0.00     0.031 A 
ATOM     39  C   UNL A   1      44.071  26.061  27.629  1.00  0.00     0.074 A 
ATOM     40  C   UNL A   1      41.694  26.405  28.214  1.00  0.00     0.049 A 
ATOM     41  N   UNL A   1      44.573  27.226  27.943  1.00  0.00    -0.248 NA
ATOM     42  C   UNL A   1      45.062  25.092  27.134  1.00  0.00     0.031 C 
ATOM     43  C   UNL A   1      40.295  26.034  28.436  1.00  0.00     0.029 A 
ATOM     44  N   UNL A   1      41.763  27.709  28.638  1.00  0.00    -0.354 N 
ATOM     45  C   UNL A   1      45.940  27.120  27.725  1.00  0.00     0.074 A 
ATOM     46  C   UNL A   1      46.192  25.769  27.269  1.00  0.00     0.031 C 
ATOM     47  C   UNL A   1      39.639  27.084  28.959  1.00  0.00     0.029 A 
ATOM     48  C   UNL A   1      40.571  28.194  29.126  1.00  0.00     0.049 A 
ATOM     49  H   UNL A   1      42.586  28.245  28.598  1.00  0.00     0.167 HD
ATOM     50  C   UNL A   1      46.897  28.068  27.862  1.00  0.00     0.034 A 
ATOM     51  C   UNL A   1      40.266  29.398  29.648  1.00  0.00     0.034 A 
ATOM     52  C   UNL A   1      46.635  29.427  28.252  1.00  0.00     0.049 A 
ATOM     53  C   UNL A   1      41.332  30.457  29.717  1.00  0.00     0.074 A 
ATOM     54  C   UNL A   1      47.521  30.488  28.328  1.00  0.00     0.029 A 
ATOM     55  N   UNL A   1      45.393  29.916  28.626  1.00  0.00    -0.354 N 
ATOM     56  N   UNL A   1      42.589  30.386  29.349  1.00  0.00    -0.248 NA
ATOM     57  C   UNL A   1      40.933  31.772  30.238  1.00  0.00     0.031 C 
ATOM     58  C   UNL A   1      46.812  31.620  28.743  1.00  0.00     0.029 A 
ATOM     59  C   UNL A   1      45.486  31.263  28.929  1.00  0.00     0.049 A 
ATOM     60  H   UNL A   1      44.566  29.383  28.669  1.00  0.00     0.167 HD
ATOM     61  C   UNL A   1      43.121  31.652  29.562  1.00  0.00     0.074 A 
ATOM     62  C   UNL A   1      42.045  32.477  30.073  1.00  0.00     0.031 C 
ATOM     63  C   UNL A   1      44.390  32.086  29.371  1.00  0.00     0.034 A 
BRANCH  50  64
ATOM     64  C   UNL A   1      48.309  27.688  27.508  1.00  0.00     0.023 A 
ATOM     65  C   UNL A   1      48.712  27.734  26.159  1.00  0.00     0.012 A 
ATOM     66  C   UNL A   1      49.244  27.336  28.499  1.00  0.00     0.148 A 
ATOM     67  C   UNL A   1      50.018  27.409  25.796  1.00  0.00     0.002 A 
ATOM     68  C   UNL A   1      50.554  27.046  28.134  1.00  0.00     0.091 A 
ATOM     69  F   UNL A   1      48.834  27.268  29.774  1.00  0.00    -0.205 F 
ATOM     70  C   UNL A   1      50.941  27.075  26.783  1.00  0.00     0.022 A 
BRANCH  68  71
ATOM     71  S   UNL A   1      51.825  26.666  29.347  1.00  0.00     0.127 S 
ATOM     72  O   UNL A   1      52.956  26.315  28.490  1.00  0.00    -0.237 OA
ATOM     73  O   UNL A   1      51.971  27.938  30.057  1.00  0.00    -0.237 OA
ATOM     74  O   UNL A   1      51.283  25.584  30.157  1.00  0.00    -0.744 OA
ENDBRANCH  68  71
ENDBRANCH  50  64
BRANCH  51  75
ATOM     75  C   UNL A   1      38.864  29.693  30.052  1.00  0.00     0.023 A 
ATOM     76  C   UNL A   1      38.452  29.386  31.364  1.00  0.00     0.012 A 
ATOM     77  C   UNL A   1      37.955  30.312  29.174  1.00  0.00     0.148 A 
ATOM     78  C   UNL A   1      37.153  29.669  31.786  1.00  0.00     0.002 A 
ATOM     79  C   UNL A   1      36.676  30.635  29.617  1.00  0.00     0.091 A 
ATOM     80  F   UNL A   1      38.356  30.580  27.924  1.00  0.00    -0.205 F 
ATOM     81  C   UNL A   1      36.269  30.303  30.919  1.00  0.00     0.022 A 
BRANCH  79  82
ATOM     82  S   UNL A   1      35.529  31.572  28.598  1.00  0.00     0.127 S 
ATOM     83  O   UNL A   1      34.504  31.949  29.567  1.00  0.00    -0.237 OA
ATOM     84  O   UNL A   1      36.364  32.677  28.123  1.00  0.00    -0.237 OA
ATOM     85  O   UNL A   1      35.116  30.649  27.550  1.00  0.00    -0.744 OA
ENDBRANCH  79  82
ENDBRANCH  51  75
BRANCH  63  86
ATOM     86  C   UNL A   1      44.691  33.524  29.693  1.00  0.00     0.023 A 
ATOM     87  C   UNL A   1      45.157  33.861  30.977  1.00  0.00     0.012 A 
ATOM     88  C   UNL A   1      44.597  34.523  28.704  1.00  0.00     0.148 A 
ATOM     89  C   UNL A   1      45.509  35.176  31.281  1.00  0.00     0.002 A 
ATOM     90  C   UNL A   1      44.985  35.824  29.002  1.00  0.00     0.091 A 
ATOM     91  F   UNL A   1      44.128  34.186  27.493  1.00  0.00    -0.205 F 
ATOM     92  C   UNL A   1      45.435  36.154  30.291  1.00  0.00     0.022 A 
BRANCH  90  93
ATOM     93  S   UNL A   1      44.998  37.118  27.755  1.00  0.00     0.127 S 
ATOM     94  O   UNL A   1      45.477  38.267  28.520  1.00  0.00    -0.237 OA
ATOM     95  O   UNL A   1      45.949  36.601  26.770  1.00  0.00    -0.237 OA
ATOM     96  O   UNL A   1      43.627  37.206  27.270  1.00  0.00    -0.744 OA
ENDBRANCH  90  93
ENDBRANCH  63  86
ENDBRANCH  37  38
ENDBRANCH  29  32
ENDBRANCH  27  28
ENDBRANCH  26  27
ENDBRANCH  25  26
ENDBRANCH   1  25
TORSDOF 19
ENDMDL
MODEL 3
REMARK VINA RESULT:     -11.5      1.894      7.803
REMARK SMILES C[C@H](CNS(=O)(=O)c1ccc(C(=O)NCCCCNC(=O)c2ccc(-c3c4nc(c(-c5cccc(S(=O)(=O)[O-])c5F)c5ccc([nH]5)c(-c5cccc(S(=O)(=O)[O-])c5F)c5nc(c(-c6cccc(S(=O)(=O)[O-])c6F)c6ccc3[nH]6)C=C5)C=C4)cc2)o1)c1ccccc1
REMARK SMILES IDX 15 1 14 2 12 3 13 4 11 6 8 7 9 8 85 9 10 10 5 11 6 12 7 13
REMARK SMILES IDX 4 14 3 16 2 17 1 18 86 19 87 20 91 21 88 22 90 23 89 24
REMARK SMILES IDX 16 25 17 26 18 27 19 28 20 29 21 31 22 32 23 33 84 34 24 35
REMARK SMILES IDX 83 36 25 37 26 38 27 39 77 40 28 41 82 42 76 43 78 44 29 45
REMARK SMILES IDX 81 46 75 47 74 48 30 50 62 51 42 52 61 53 43 54 46 55 60 56
REMARK SMILES IDX 79 57 44 58 45 59 59 61 80 62 47 63 31 64 32 65 40 66 33 67
REMARK SMILES IDX 35 68 41 69 34 70 36 71 37 72 38 73 39 74 63 75 64 76 72 77
REMARK SMILES IDX 65 78 67 79 73 80 66 81 68 82 69 83 70 84 71 85 48 86 49 87
REMARK SMILES IDX 57 88 50 89 52 90 58 91 51 92 53 93 54 94 55 95 56 96
REMARK H PARENT 14 5 4 15 19 30 78 49 46 60
REMARK Flexibility Score: inf
ROOT
ATOM      1  C   UNL A   1      36.633  21.982  25.753  1.00  0.00     0.116 C 
ENDROOT
BRANCH   1   2
ATOM      2  N   UNL A   1      35.530  21.740  26.659  1.00  0.00    -0.349 N 
ATOM      3  C   UNL A   1      34.169  21.691  26.465  1.00  0.00     0.287 C 
ATOM      4  O   UNL A   1      33.503  21.451  27.476  1.00  0.00    -0.266 OA
ATOM      5  H   UNL A   1      35.806  21.581  27.589  1.00  0.00     0.163 HD
BRANCH   3   6
ATOM      6  C   UNL A   1      33.554  21.901  25.162  1.00  0.00     0.193 A 
ATOM      7  C   UNL A   1      33.024  23.235  23.430  1.00  0.00     0.234 A 
ATOM      8  C   UNL A   1      32.503  21.977  23.169  1.00  0.00     0.065 A 
ATOM      9  O   UNL A   1      33.640  23.179  24.658  1.00  0.00    -0.438 OA
ATOM     10  C   UNL A   1      32.884  21.126  24.234  1.00  0.00     0.058 A 
BRANCH   7  11
ATOM     11  S   UNL A   1      33.035  24.720  22.426  1.00  0.00     0.274 S 
ATOM     12  O   UNL A   1      33.384  24.305  21.079  1.00  0.00    -0.204 OA
ATOM     13  O   UNL A   1      33.791  25.701  23.156  1.00  0.00    -0.204 OA
BRANCH  11  14
ATOM     14  N   UNL A   1      31.431  25.293  22.352  1.00  0.00    -0.208 NA
ATOM     15  H   UNL A   1      31.073  25.108  21.416  1.00  0.00     0.141 HD
BRANCH  14  16
ATOM     16  C   UNL A   1      31.262  26.742  22.628  1.00  0.00     0.107 C 
BRANCH  16  17
ATOM     17  C   UNL A   1      30.399  27.024  23.895  1.00  0.00     0.031 C 
ATOM     18  C   UNL A   1      29.671  25.754  24.377  1.00  0.00     0.014 C 
BRANCH  17  19
ATOM     19  C   UNL A   1      31.096  27.819  25.006  1.00  0.00    -0.044 A 
ATOM     20  C   UNL A   1      31.173  27.329  26.324  1.00  0.00     0.004 A 
ATOM     21  C   UNL A   1      31.552  29.133  24.790  1.00  0.00     0.004 A 
ATOM     22  C   UNL A   1      31.709  28.100  27.361  1.00  0.00     0.000 A 
ATOM     23  C   UNL A   1      32.107  29.897  25.821  1.00  0.00     0.000 A 
ATOM     24  C   UNL A   1      32.184  29.382  27.108  1.00  0.00     0.000 A 
ENDBRANCH  17  19
ENDBRANCH  16  17
ENDBRANCH  14  16
ENDBRANCH  11  14
ENDBRANCH   7  11
ENDBRANCH   3   6
ENDBRANCH   1   2
BRANCH   1  25
ATOM     25  C   UNL A   1      36.730  20.894  24.683  1.00  0.00     0.023 C 
BRANCH  25  26
ATOM     26  C   UNL A   1      38.052  20.111  24.701  1.00  0.00     0.023 C 
BRANCH  26  27
ATOM     27  C   UNL A   1      39.074  20.579  25.739  1.00  0.00     0.116 C 
BRANCH  27  28
ATOM     28  N   UNL A   1      40.080  19.574  26.050  1.00  0.00    -0.352 N 
ATOM     29  C   UNL A   1      41.376  19.766  26.469  1.00  0.00     0.251 C 
ATOM     30  H   UNL A   1      39.798  18.637  25.945  1.00  0.00     0.163 HD
ATOM     31  O   UNL A   1      42.130  18.805  26.589  1.00  0.00    -0.269 OA
BRANCH  29  32
ATOM     32  C   UNL A   1      41.866  21.136  26.728  1.00  0.00     0.039 A 
ATOM     33  C   UNL A   1      42.054  21.996  25.643  1.00  0.00     0.014 A 
ATOM     34  C   UNL A   1      42.122  21.574  28.029  1.00  0.00     0.014 A 
ATOM     35  C   UNL A   1      42.434  23.322  25.867  1.00  0.00     0.010 A 
ATOM     36  C   UNL A   1      42.452  22.909  28.255  1.00  0.00     0.010 A 
ATOM     37  C   UNL A   1      42.606  23.795  27.178  1.00  0.00    -0.014 A 
BRANCH  37  38
ATOM     38  C   UNL A   1      42.922  25.219  27.450  1.00  0.00     0.031 A 
ATOM     39  C   UNL A   1      44.303  25.751  27.183  1.00  0.00     0.074 A 
ATOM     40  C   UNL A   1      41.997  26.001  28.036  1.00  0.00     0.049 A 
ATOM     41  N   UNL A   1      44.788  26.938  27.431  1.00  0.00    -0.248 NA
ATOM     42  C   UNL A   1      45.271  24.818  26.582  1.00  0.00     0.031 C 
ATOM     43  C   UNL A   1      40.649  25.574  28.420  1.00  0.00     0.029 A 
ATOM     44  N   UNL A   1      42.058  27.311  28.443  1.00  0.00    -0.354 N 
ATOM     45  C   UNL A   1      46.124  26.887  27.057  1.00  0.00     0.074 A 
ATOM     46  C   UNL A   1      46.380  25.544  26.583  1.00  0.00     0.031 C 
ATOM     47  C   UNL A   1      40.014  26.601  29.010  1.00  0.00     0.029 A 
ATOM     48  C   UNL A   1      40.911  27.750  29.062  1.00  0.00     0.049 A 
ATOM     49  H   UNL A   1      42.848  27.880  28.304  1.00  0.00     0.167 HD
ATOM     50  C   UNL A   1      47.049  27.876  27.078  1.00  0.00     0.034 A 
ATOM     51  C   UNL A   1      40.617  28.947  29.609  1.00  0.00     0.034 A 
ATOM     52  C   UNL A   1      46.776  29.227  27.488  1.00  0.00     0.049 A 
ATOM     53  C   UNL A   1      41.638  30.049  29.549  1.00  0.00     0.074 A 
ATOM     54  C   UNL A   1      47.619  30.324  27.455  1.00  0.00     0.029 A 
ATOM     55  N   UNL A   1      45.565  29.667  28.000  1.00  0.00    -0.354 N 
ATOM     56  N   UNL A   1      42.845  30.027  29.039  1.00  0.00    -0.248 NA
ATOM     57  C   UNL A   1      41.245  31.352  30.105  1.00  0.00     0.031 C 
ATOM     58  C   UNL A   1      46.915  31.430  27.944  1.00  0.00     0.029 A 
ATOM     59  C   UNL A   1      45.635  31.019  28.283  1.00  0.00     0.049 A 
ATOM     60  H   UNL A   1      44.772  29.100  28.141  1.00  0.00     0.167 HD
ATOM     61  C   UNL A   1      43.344  31.316  29.182  1.00  0.00     0.074 A 
ATOM     62  C   UNL A   1      42.300  32.101  29.810  1.00  0.00     0.031 C 
ATOM     63  C   UNL A   1      44.563  31.801  28.844  1.00  0.00     0.034 A 
BRANCH  50  64
ATOM     64  C   UNL A   1      48.425  27.552  26.565  1.00  0.00     0.023 A 
ATOM     65  C   UNL A   1      49.403  27.095  27.472  1.00  0.00     0.012 A 
ATOM     66  C   UNL A   1      48.740  27.648  25.197  1.00  0.00     0.148 A 
ATOM     67  C   UNL A   1      50.683  26.765  27.029  1.00  0.00     0.002 A 
ATOM     68  C   UNL A   1      50.009  27.285  24.757  1.00  0.00     0.091 A 
ATOM     69  F   UNL A   1      47.807  28.113  24.354  1.00  0.00    -0.205 F 
ATOM     70  C   UNL A   1      50.983  26.850  25.672  1.00  0.00     0.022 A 
BRANCH  68  71
ATOM     71  S   UNL A   1      50.462  27.304  23.018  1.00  0.00     0.127 S 
ATOM     72  O   UNL A   1      49.425  26.457  22.434  1.00  0.00    -0.237 OA
ATOM     73  O   UNL A   1      50.349  28.724  22.680  1.00  0.00    -0.237 OA
ATOM     74  O   UNL A   1      51.819  26.779  22.960  1.00  0.00    -0.744 OA
ENDBRANCH  68  71
ENDBRANCH  50  64
BRANCH  51  75
ATOM     75  C   UNL A   1      39.259  29.187  30.170  1.00  0.00     0.023 A 
ATOM     76  C   UNL A   1      38.924  28.619  31.415  1.00  0.00     0.012 A 
ATOM     77  C   UNL A   1      38.320  30.003  29.513  1.00  0.00     0.148 A 
ATOM     78  C   UNL A   1      37.670  28.840  31.984  1.00  0.00     0.002 A 
ATOM     79  C   UNL A   1      37.089  30.260  30.110  1.00  0.00     0.091 A 
ATOM     80  F   UNL A   1      38.646  30.521  28.321  1.00  0.00    -0.205 F 
ATOM     81  C   UNL A   1      36.757  29.669  31.339  1.00  0.00     0.022 A 
BRANCH  79  82
ATOM     82  S   UNL A   1      35.917  31.423  29.400  1.00  0.00     0.127 S 
ATOM     83  O   UNL A   1      34.967  31.598  30.494  1.00  0.00    -0.237 OA
ATOM     84  O   UNL A   1      36.761  32.587  29.124  1.00  0.00    -0.237 OA
ATOM     85  O   UNL A   1      35.408  30.764  28.205  1.00  0.00    -0.744 OA
ENDBRANCH  79  82
ENDBRANCH  51  75
BRANCH  63  86
ATOM     86  C   UNL A   1      44.837  33.254  29.121  1.00  0.00     0.023 A 
ATOM     87  C   UNL A   1      45.393  33.627  30.359  1.00  0.00     0.012 A 
ATOM     88  C   UNL A   1      44.629  34.232  28.129  1.00  0.00     0.148 A 
ATOM     89  C   UNL A   1      45.721  34.958  30.615  1.00  0.00     0.002 A 
ATOM     90  C   UNL A   1      44.992  35.551  28.378  1.00  0.00     0.091 A 
ATOM     91  F   UNL A   1      44.075  33.860  26.966  1.00  0.00    -0.205 F 
ATOM     92  C   UNL A   1      45.533  35.917  29.621  1.00  0.00     0.022 A 
BRANCH  90  93
ATOM     93  S   UNL A   1      44.859  36.824  27.116  1.00  0.00     0.127 S 
ATOM     94  O   UNL A   1      45.310  38.011  27.840  1.00  0.00    -0.237 OA
ATOM     95  O   UNL A   1      45.783  36.350  26.086  1.00  0.00    -0.237 OA
ATOM     96  O   UNL A   1      43.460  36.823  26.708  1.00  0.00    -0.744 OA
ENDBRANCH  90  93
ENDBRANCH  63  86
ENDBRANCH  37  38
ENDBRANCH  29  32
ENDBRANCH  27  28
ENDBRANCH  26  27
ENDBRANCH  25  26
ENDBRANCH   1  25
TORSDOF 19
ENDMDL
