MODEL 1
REMARK VINA RESULT:     -11.2      0.000      0.000
REMARK SMILES CCSc1nc(CC(=O)N[C@@H](C(=O)NCCCCNC(=O)c2ccc(-c3c4nc(c(-c5cccc(S(=O)(=O)[O-])c5F)c5ccc([nH]5)c(-c5cccc(S(=O)(=O)[O-])c5F)c5nc(c(-c6cccc(S(=O)(=O)[O-])c6F)c6ccc3[nH]6)C=C5)C=C4)cc2)C2=C(C)N=N[C@@H]2C)cs1
REMARK SMILES IDX 15 1 14 2 12 3 13 4 11 6 10 7 8 8 9 9 7 11 6 12 4 13 5 14
REMARK SMILES IDX 93 15 92 16 3 17 2 18 1 19 85 20 86 21 90 22 87 23 88 24
REMARK SMILES IDX 89 25 91 26 16 27 17 28 18 29 19 30 20 31 21 33 22 34 23 35
REMARK SMILES IDX 84 36 24 37 83 38 25 39 26 40 27 41 77 42 28 43 82 44 76 45
REMARK SMILES IDX 78 46 29 47 81 48 75 49 74 50 30 52 62 53 42 54 61 55 43 56
REMARK SMILES IDX 46 57 60 58 79 59 44 60 45 61 59 63 80 64 47 65 31 66 32 67
REMARK SMILES IDX 40 68 33 69 35 70 41 71 34 72 36 73 37 74 38 75 39 76 63 77
REMARK SMILES IDX 64 78 72 79 65 80 67 81 73 82 66 83 68 84 69 85 70 86 71 87
REMARK SMILES IDX 48 88 49 89 57 90 50 91 52 92 58 93 51 94 53 95 54 96 55 97
REMARK SMILES IDX 56 98
REMARK H PARENT 14 5 10 10 19 32 78 51 46 62
REMARK Flexibility Score: inf
ROOT
ATOM      1  C   UNL A   1      36.072  23.661  25.549  1.00  0.00     0.116 C 
ENDROOT
BRANCH   1   2
ATOM      2  N   UNL A   1      35.533  22.964  26.693  1.00  0.00    -0.354 N 
ATOM      3  C   UNL A   1      34.340  22.297  26.789  1.00  0.00     0.247 C 
ATOM      4  O   UNL A   1      34.362  21.273  27.482  1.00  0.00    -0.272 OA
ATOM      5  H   UNL A   1      36.091  22.968  27.503  1.00  0.00     0.163 HD
BRANCH   3   6
ATOM      6  C   UNL A   1      33.024  22.742  26.028  1.00  0.00     0.202 C 
BRANCH   6   7
ATOM      7  N   UNL A   1      31.806  22.666  26.834  1.00  0.00    -0.340 N 
ATOM      8  C   UNL A   1      30.613  23.316  26.680  1.00  0.00     0.226 C 
ATOM      9  O   UNL A   1      29.782  23.219  27.587  1.00  0.00    -0.275 OA
ATOM     10  H   UNL A   1      31.852  22.055  27.605  1.00  0.00     0.164 HD
BRANCH   8  11
ATOM     11  C   UNL A   1      30.301  24.129  25.434  1.00  0.00     0.157 C 
BRANCH  11  12
ATOM     12  C   UNL A   1      30.887  25.502  25.436  1.00  0.00     0.062 A 
ATOM     13  C   UNL A   1      31.267  27.465  24.471  1.00  0.00     0.150 A 
ATOM     14  N   UNL A   1      30.787  26.258  24.274  1.00  0.00    -0.234 NA
ATOM     15  S   UNL A   1      31.921  27.754  26.026  1.00  0.00    -0.116 S 
ATOM     16  C   UNL A   1      31.506  26.154  26.489  1.00  0.00     0.092 A 
BRANCH  13  17
ATOM     17  S   UNL A   1      31.126  28.691  23.235  1.00  0.00    -0.096 SA
BRANCH  17  18
ATOM     18  C   UNL A   1      32.859  28.916  22.741  1.00  0.00     0.074 C 
ATOM     19  C   UNL A   1      33.551  27.583  22.511  1.00  0.00     0.016 C 
ENDBRANCH  17  18
ENDBRANCH  13  17
ENDBRANCH  11  12
ENDBRANCH   8  11
ENDBRANCH   6   7
BRANCH   6  20
ATOM     20  C   UNL A   1      32.769  21.919  24.783  1.00  0.00     0.011 C 
ATOM     21  C   UNL A   1      32.673  20.590  24.616  1.00  0.00     0.064 C 
ATOM     22  C   UNL A   1      32.462  22.480  23.423  1.00  0.00     0.156 C 
ATOM     23  C   UNL A   1      32.847  19.482  25.592  1.00  0.00     0.069 C 
ATOM     24  N   UNL A   1      32.353  20.233  23.330  1.00  0.00    -0.160 NA
ATOM     25  N   UNL A   1      32.209  21.255  22.612  1.00  0.00    -0.181 NA
ATOM     26  C   UNL A   1      33.605  23.237  22.760  1.00  0.00     0.040 C 
ENDBRANCH   6  20
ENDBRANCH   3   6
ENDBRANCH   1   2
BRANCH   1  27
ATOM     27  C   UNL A   1      36.726  22.768  24.507  1.00  0.00     0.023 C 
BRANCH  27  28
ATOM     28  C   UNL A   1      37.246  21.434  25.035  1.00  0.00     0.023 C 
BRANCH  28  29
ATOM     29  C   UNL A   1      38.601  21.472  25.742  1.00  0.00     0.116 C 
BRANCH  29  30
ATOM     30  N   UNL A   1      39.304  20.195  25.762  1.00  0.00    -0.352 N 
ATOM     31  C   UNL A   1      40.624  19.944  26.083  1.00  0.00     0.251 C 
ATOM     32  H   UNL A   1      38.768  19.408  25.513  1.00  0.00     0.163 HD
ATOM     33  O   UNL A   1      41.085  18.821  26.001  1.00  0.00    -0.269 OA
BRANCH  31  34
ATOM     34  C   UNL A   1      41.480  21.085  26.481  1.00  0.00     0.039 A 
ATOM     35  C   UNL A   1      42.008  21.909  25.484  1.00  0.00     0.014 A 
ATOM     36  C   UNL A   1      41.657  21.396  27.831  1.00  0.00     0.014 A 
ATOM     37  C   UNL A   1      42.616  23.115  25.842  1.00  0.00     0.010 A 
ATOM     38  C   UNL A   1      42.205  22.625  28.181  1.00  0.00     0.010 A 
ATOM     39  C   UNL A   1      42.659  23.510  27.190  1.00  0.00    -0.014 A 
BRANCH  39  40
ATOM     40  C   UNL A   1      43.076  24.881  27.584  1.00  0.00     0.031 A 
ATOM     41  C   UNL A   1      42.071  25.867  28.102  1.00  0.00     0.074 A 
ATOM     42  C   UNL A   1      44.343  25.274  27.340  1.00  0.00     0.049 A 
ATOM     43  N   UNL A   1      42.233  27.132  28.388  1.00  0.00    -0.248 NA
ATOM     44  C   UNL A   1      40.698  25.375  28.301  1.00  0.00     0.031 C 
ATOM     45  C   UNL A   1      45.394  24.435  26.758  1.00  0.00     0.029 A 
ATOM     46  N   UNL A   1      44.953  26.493  27.512  1.00  0.00    -0.354 N 
ATOM     47  C   UNL A   1      40.982  27.598  28.768  1.00  0.00     0.074 A 
ATOM     48  C   UNL A   1      40.064  26.485  28.652  1.00  0.00     0.031 C 
ATOM     49  C   UNL A   1      46.512  25.162  26.616  1.00  0.00     0.029 A 
ATOM     50  C   UNL A   1      46.254  26.527  27.065  1.00  0.00     0.049 A 
ATOM     51  H   UNL A   1      44.502  27.268  27.918  1.00  0.00     0.167 HD
ATOM     52  C   UNL A   1      40.634  28.832  29.203  1.00  0.00     0.034 A 
ATOM     53  C   UNL A   1      47.137  27.543  27.005  1.00  0.00     0.034 A 
ATOM     54  C   UNL A   1      41.557  29.923  29.364  1.00  0.00     0.049 A 
ATOM     55  C   UNL A   1      46.729  28.901  27.508  1.00  0.00     0.074 A 
ATOM     56  C   UNL A   1      41.325  31.172  29.912  1.00  0.00     0.029 A 
ATOM     57  N   UNL A   1      42.885  29.902  28.966  1.00  0.00    -0.354 N 
ATOM     58  N   UNL A   1      45.589  29.272  28.037  1.00  0.00    -0.248 NA
ATOM     59  C   UNL A   1      47.734  29.971  27.429  1.00  0.00     0.031 C 
ATOM     60  C   UNL A   1      42.508  31.914  29.829  1.00  0.00     0.029 A 
ATOM     61  C   UNL A   1      43.479  31.123  29.236  1.00  0.00     0.049 A 
ATOM     62  H   UNL A   1      43.338  29.132  28.553  1.00  0.00     0.167 HD
ATOM     63  C   UNL A   1      45.744  30.613  28.372  1.00  0.00     0.074 A 
ATOM     64  C   UNL A   1      47.097  30.981  28.010  1.00  0.00     0.031 C 
ATOM     65  C   UNL A   1      44.839  31.467  28.909  1.00  0.00     0.034 A 
BRANCH  52  66
ATOM     66  C   UNL A   1      39.201  29.051  29.604  1.00  0.00     0.023 A 
ATOM     67  C   UNL A   1      38.801  28.740  30.920  1.00  0.00     0.012 A 
ATOM     68  C   UNL A   1      38.268  29.610  28.711  1.00  0.00     0.148 A 
ATOM     69  C   UNL A   1      37.488  28.957  31.333  1.00  0.00     0.002 A 
ATOM     70  C   UNL A   1      36.969  29.857  29.140  1.00  0.00     0.091 A 
ATOM     71  F   UNL A   1      38.661  29.873  27.456  1.00  0.00    -0.205 F 
ATOM     72  C   UNL A   1      36.575  29.525  30.447  1.00  0.00     0.022 A 
BRANCH  70  73
ATOM     73  S   UNL A   1      35.742  30.645  28.090  1.00  0.00     0.127 S 
ATOM     74  O   UNL A   1      36.464  31.831  27.633  1.00  0.00    -0.237 OA
ATOM     75  O   UNL A   1      35.519  29.631  27.058  1.00  0.00    -0.237 OA
ATOM     76  O   UNL A   1      34.591  30.898  28.946  1.00  0.00    -0.744 OA
ENDBRANCH  70  73
ENDBRANCH  52  66
BRANCH  53  77
ATOM     77  C   UNL A   1      48.515  27.298  26.497  1.00  0.00     0.023 A 
ATOM     78  C   UNL A   1      49.474  26.732  27.359  1.00  0.00     0.012 A 
ATOM     79  C   UNL A   1      48.870  27.573  25.161  1.00  0.00     0.148 A 
ATOM     80  C   UNL A   1      50.766  26.463  26.907  1.00  0.00     0.002 A 
ATOM     81  C   UNL A   1      50.143  27.254  24.703  1.00  0.00     0.091 A 
ATOM     82  F   UNL A   1      47.950  28.130  24.361  1.00  0.00    -0.205 F 
ATOM     83  C   UNL A   1      51.098  26.712  25.578  1.00  0.00     0.022 A 
BRANCH  81  84
ATOM     84  S   UNL A   1      50.604  27.414  22.974  1.00  0.00     0.127 S 
ATOM     85  O   UNL A   1      50.641  28.863  22.806  1.00  0.00    -0.237 OA
ATOM     86  O   UNL A   1      51.911  26.755  22.943  1.00  0.00    -0.237 OA
ATOM     87  O   UNL A   1      49.567  26.710  22.230  1.00  0.00    -0.744 OA
ENDBRANCH  81  84
ENDBRANCH  53  77
BRANCH  65  88
ATOM     88  C   UNL A   1      45.272  32.891  29.137  1.00  0.00     0.023 A 
ATOM     89  C   UNL A   1      45.835  33.248  30.379  1.00  0.00     0.012 A 
ATOM     90  C   UNL A   1      45.202  33.848  28.106  1.00  0.00     0.148 A 
ATOM     91  C   UNL A   1      46.304  34.542  30.597  1.00  0.00     0.002 A 
ATOM     92  C   UNL A   1      45.710  35.124  28.318  1.00  0.00     0.091 A 
ATOM     93  F   UNL A   1      44.647  33.490  26.939  1.00  0.00    -0.205 F 
ATOM     94  C   UNL A   1      46.253  35.476  29.565  1.00  0.00     0.022 A 
BRANCH  92  95
ATOM     95  S   UNL A   1      45.766  36.369  27.023  1.00  0.00     0.127 S 
ATOM     96  O   UNL A   1      46.759  37.303  27.549  1.00  0.00    -0.237 OA
ATOM     97  O   UNL A   1      46.210  35.593  25.865  1.00  0.00    -0.237 OA
ATOM     98  O   UNL A   1      44.412  36.895  26.914  1.00  0.00    -0.744 OA
ENDBRANCH  92  95
ENDBRANCH  65  88
ENDBRANCH  39  40
ENDBRANCH  31  34
ENDBRANCH  29  30
ENDBRANCH  28  29
ENDBRANCH  27  28
ENDBRANCH   1  27
TORSDOF 20
ENDMDL
MODEL 2
REMARK VINA RESULT:     -11.1      1.453      7.515
REMARK SMILES CCSc1nc(CC(=O)N[C@@H](C(=O)NCCCCNC(=O)c2ccc(-c3c4nc(c(-c5cccc(S(=O)(=O)[O-])c5F)c5ccc([nH]5)c(-c5cccc(S(=O)(=O)[O-])c5F)c5nc(c(-c6cccc(S(=O)(=O)[O-])c6F)c6ccc3[nH]6)C=C5)C=C4)cc2)C2=C(C)N=N[C@@H]2C)cs1
REMARK SMILES IDX 15 1 14 2 12 3 13 4 11 6 10 7 8 8 9 9 7 11 6 12 4 13 5 14
REMARK SMILES IDX 93 15 92 16 3 17 2 18 1 19 85 20 86 21 90 22 87 23 88 24
REMARK SMILES IDX 89 25 91 26 16 27 17 28 18 29 19 30 20 31 21 33 22 34 23 35
REMARK SMILES IDX 84 36 24 37 83 38 25 39 26 40 27 41 77 42 28 43 82 44 76 45
REMARK SMILES IDX 78 46 29 47 81 48 75 49 74 50 30 52 62 53 42 54 61 55 43 56
REMARK SMILES IDX 46 57 60 58 79 59 44 60 45 61 59 63 80 64 47 65 31 66 32 67
REMARK SMILES IDX 40 68 33 69 35 70 41 71 34 72 36 73 37 74 38 75 39 76 63 77
REMARK SMILES IDX 64 78 72 79 65 80 67 81 73 82 66 83 68 84 69 85 70 86 71 87
REMARK SMILES IDX 48 88 49 89 57 90 50 91 52 92 58 93 51 94 53 95 54 96 55 97
REMARK SMILES IDX 56 98
REMARK H PARENT 14 5 10 10 19 32 78 51 46 62
REMARK Flexibility Score: inf
ROOT
ATOM      1  C   UNL A   1      35.904  20.297  25.318  1.00  0.00     0.116 C 
ENDROOT
BRANCH   1   2
ATOM      2  N   UNL A   1      34.641  19.598  25.332  1.00  0.00    -0.354 N 
ATOM      3  C   UNL A   1      33.407  20.078  24.982  1.00  0.00     0.247 C 
ATOM      4  O   UNL A   1      32.666  19.267  24.414  1.00  0.00    -0.272 OA
ATOM      5  H   UNL A   1      34.670  18.660  25.629  1.00  0.00     0.163 HD
BRANCH   3   6
ATOM      6  C   UNL A   1      32.952  21.578  25.216  1.00  0.00     0.202 C 
BRANCH   6   7
ATOM      7  N   UNL A   1      31.540  21.734  25.561  1.00  0.00    -0.340 N 
ATOM      8  C   UNL A   1      30.915  22.724  26.266  1.00  0.00     0.226 C 
ATOM      9  O   UNL A   1      29.733  22.554  26.576  1.00  0.00    -0.275 OA
ATOM     10  H   UNL A   1      30.948  21.015  25.236  1.00  0.00     0.164 HD
BRANCH   8  11
ATOM     11  C   UNL A   1      31.637  24.004  26.656  1.00  0.00     0.157 C 
BRANCH  11  12
ATOM     12  C   UNL A   1      31.227  25.203  25.869  1.00  0.00     0.062 A 
ATOM     13  C   UNL A   1      31.234  27.393  25.500  1.00  0.00     0.150 A 
ATOM     14  N   UNL A   1      31.588  26.456  26.351  1.00  0.00    -0.234 NA
ATOM     15  S   UNL A   1      30.399  26.847  24.109  1.00  0.00    -0.116 S 
ATOM     16  C   UNL A   1      30.545  25.230  24.665  1.00  0.00     0.092 A 
BRANCH  13  17
ATOM     17  S   UNL A   1      31.701  29.055  25.761  1.00  0.00    -0.096 SA
BRANCH  17  18
ATOM     18  C   UNL A   1      33.505  28.965  25.566  1.00  0.00     0.074 C 
ATOM     19  C   UNL A   1      33.892  28.259  24.278  1.00  0.00     0.016 C 
ENDBRANCH  17  18
ENDBRANCH  13  17
ENDBRANCH  11  12
ENDBRANCH   8  11
ENDBRANCH   6   7
BRANCH   6  20
ATOM     20  C   UNL A   1      33.200  22.453  24.006  1.00  0.00     0.011 C 
ATOM     21  C   UNL A   1      32.750  22.351  22.745  1.00  0.00     0.064 C 
ATOM     22  C   UNL A   1      33.975  23.740  24.013  1.00  0.00     0.156 C 
ATOM     23  C   UNL A   1      31.906  21.307  22.104  1.00  0.00     0.069 C 
ATOM     24  N   UNL A   1      33.142  23.399  21.949  1.00  0.00    -0.160 NA
ATOM     25  N   UNL A   1      33.825  24.221  22.610  1.00  0.00    -0.181 NA
ATOM     26  C   UNL A   1      35.465  23.600  24.290  1.00  0.00     0.040 C 
ENDBRANCH   6  20
ENDBRANCH   3   6
ENDBRANCH   1   2
BRANCH   1  27
ATOM     27  C   UNL A   1      37.011  19.601  24.542  1.00  0.00     0.023 C 
BRANCH  27  28
ATOM     28  C   UNL A   1      38.169  19.084  25.392  1.00  0.00     0.023 C 
BRANCH  28  29
ATOM     29  C   UNL A   1      39.364  20.024  25.544  1.00  0.00     0.116 C 
BRANCH  29  30
ATOM     30  N   UNL A   1      40.537  19.411  26.156  1.00  0.00    -0.352 N 
ATOM     31  C   UNL A   1      41.532  20.011  26.903  1.00  0.00     0.251 C 
ATOM     32  H   UNL A   1      40.633  18.441  26.017  1.00  0.00     0.163 HD
ATOM     33  O   UNL A   1      42.485  19.370  27.305  1.00  0.00    -0.269 OA
BRANCH  31  34
ATOM     34  C   UNL A   1      41.437  21.466  27.160  1.00  0.00     0.039 A 
ATOM     35  C   UNL A   1      41.670  21.937  28.454  1.00  0.00     0.014 A 
ATOM     36  C   UNL A   1      41.233  22.356  26.103  1.00  0.00     0.014 A 
ATOM     37  C   UNL A   1      41.816  23.310  28.668  1.00  0.00     0.010 A 
ATOM     38  C   UNL A   1      41.441  23.716  26.307  1.00  0.00     0.010 A 
ATOM     39  C   UNL A   1      41.768  24.202  27.583  1.00  0.00    -0.014 A 
BRANCH  39  40
ATOM     40  C   UNL A   1      42.154  25.629  27.734  1.00  0.00     0.031 A 
ATOM     41  C   UNL A   1      43.538  26.088  27.375  1.00  0.00     0.074 A 
ATOM     42  C   UNL A   1      41.293  26.481  28.326  1.00  0.00     0.049 A 
ATOM     43  N   UNL A   1      44.082  27.264  27.544  1.00  0.00    -0.248 NA
ATOM     44  C   UNL A   1      44.435  25.089  26.773  1.00  0.00     0.031 C 
ATOM     45  C   UNL A   1      39.950  26.136  28.799  1.00  0.00     0.029 A 
ATOM     46  N   UNL A   1      41.433  27.803  28.670  1.00  0.00    -0.354 N 
ATOM     47  C   UNL A   1      45.392  27.143  27.101  1.00  0.00     0.074 A 
ATOM     48  C   UNL A   1      45.569  25.769  26.680  1.00  0.00     0.031 C 
ATOM     49  C   UNL A   1      39.394  27.213  29.375  1.00  0.00     0.029 A 
ATOM     50  C   UNL A   1      40.349  28.317  29.345  1.00  0.00     0.049 A 
ATOM     51  H   UNL A   1      42.234  28.334  28.455  1.00  0.00     0.167 HD
ATOM     52  C   UNL A   1      46.352  28.094  27.025  1.00  0.00     0.034 A 
ATOM     53  C   UNL A   1      40.148  29.531  29.892  1.00  0.00     0.034 A 
ATOM     54  C   UNL A   1      46.160  29.470  27.398  1.00  0.00     0.049 A 
ATOM     55  C   UNL A   1      41.225  30.575  29.779  1.00  0.00     0.074 A 
ATOM     56  C   UNL A   1      47.032  30.533  27.243  1.00  0.00     0.029 A 
ATOM     57  N   UNL A   1      45.024  29.971  28.013  1.00  0.00    -0.354 N 
ATOM     58  N   UNL A   1      42.392  30.490  29.189  1.00  0.00    -0.248 NA
ATOM     59  C   UNL A   1      40.950  31.886  30.385  1.00  0.00     0.031 C 
ATOM     60  C   UNL A   1      46.429  31.675  27.781  1.00  0.00     0.029 A 
ATOM     61  C   UNL A   1      45.179  31.324  28.265  1.00  0.00     0.049 A 
ATOM     62  H   UNL A   1      44.223  29.444  28.238  1.00  0.00     0.167 HD
ATOM     63  C   UNL A   1      42.984  31.740  29.336  1.00  0.00     0.074 A 
ATOM     64  C   UNL A   1      42.035  32.571  30.046  1.00  0.00     0.031 C 
ATOM     65  C   UNL A   1      44.212  32.153  28.937  1.00  0.00     0.034 A 
BRANCH  52  66
ATOM     66  C   UNL A   1      47.683  27.696  26.449  1.00  0.00     0.023 A 
ATOM     67  C   UNL A   1      48.704  27.256  27.317  1.00  0.00     0.012 A 
ATOM     68  C   UNL A   1      47.910  27.699  25.060  1.00  0.00     0.148 A 
ATOM     69  C   UNL A   1      49.939  26.853  26.813  1.00  0.00     0.002 A 
ATOM     70  C   UNL A   1      49.132  27.262  24.563  1.00  0.00     0.091 A 
ATOM     71  F   UNL A   1      46.937  28.147  24.253  1.00  0.00    -0.205 F 
ATOM     72  C   UNL A   1      50.150  26.846  25.437  1.00  0.00     0.022 A 
BRANCH  70  73
ATOM     73  S   UNL A   1      49.472  27.156  22.801  1.00  0.00     0.127 S 
ATOM     74  O   UNL A   1      50.877  26.753  22.796  1.00  0.00    -0.237 OA
ATOM     75  O   UNL A   1      48.538  26.116  22.366  1.00  0.00    -0.237 OA
ATOM     76  O   UNL A   1      49.194  28.479  22.263  1.00  0.00    -0.744 OA
ENDBRANCH  70  73
ENDBRANCH  52  66
BRANCH  53  77
ATOM     77  C   UNL A   1      38.847  29.842  30.547  1.00  0.00     0.023 A 
ATOM     78  C   UNL A   1      38.602  29.363  31.849  1.00  0.00     0.012 A 
ATOM     79  C   UNL A   1      37.874  30.642  29.916  1.00  0.00     0.148 A 
ATOM     80  C   UNL A   1      37.406  29.660  32.503  1.00  0.00     0.002 A 
ATOM     81  C   UNL A   1      36.707  30.977  30.593  1.00  0.00     0.091 A 
ATOM     82  F   UNL A   1      38.116  31.072  28.669  1.00  0.00    -0.205 F 
ATOM     83  C   UNL A   1      36.465  30.475  31.881  1.00  0.00     0.022 A 
BRANCH  81  84
ATOM     84  S   UNL A   1      35.510  32.135  29.918  1.00  0.00     0.127 S 
ATOM     85  O   UNL A   1      36.337  33.311  29.668  1.00  0.00    -0.237 OA
ATOM     86  O   UNL A   1      35.051  31.435  28.716  1.00  0.00    -0.237 OA
ATOM     87  O   UNL A   1      34.488  32.279  30.947  1.00  0.00    -0.744 OA
ENDBRANCH  81  84
ENDBRANCH  53  77
BRANCH  65  88
ATOM     88  C   UNL A   1      44.612  33.568  29.261  1.00  0.00     0.023 A 
ATOM     89  C   UNL A   1      45.312  33.828  30.456  1.00  0.00     0.012 A 
ATOM     90  C   UNL A   1      44.375  34.618  28.354  1.00  0.00     0.148 A 
ATOM     91  C   UNL A   1      45.752  35.116  30.753  1.00  0.00     0.002 A 
ATOM     92  C   UNL A   1      44.852  35.892  28.638  1.00  0.00     0.091 A 
ATOM     93  F   UNL A   1      43.691  34.351  27.231  1.00  0.00    -0.205 F 
ATOM     94  C   UNL A   1      45.534  36.145  29.840  1.00  0.00     0.022 A 
BRANCH  92  95
ATOM     95  S   UNL A   1      44.694  37.262  27.485  1.00  0.00     0.127 S 
ATOM     96  O   UNL A   1      45.714  36.934  26.491  1.00  0.00    -0.237 OA
ATOM     97  O   UNL A   1      43.316  37.117  27.018  1.00  0.00    -0.237 OA
ATOM     98  O   UNL A   1      44.946  38.469  28.261  1.00  0.00    -0.744 OA
ENDBRANCH  92  95
ENDBRANCH  65  88
ENDBRANCH  39  40
ENDBRANCH  31  34
ENDBRANCH  29  30
ENDBRANCH  28  29
ENDBRANCH  27  28
ENDBRANCH   1  27
TORSDOF 20
ENDMDL
MODEL 3
REMARK VINA RESULT:     -11.1      1.071      7.478
REMARK SMILES CCSc1nc(CC(=O)N[C@@H](C(=O)NCCCCNC(=O)c2ccc(-c3c4nc(c(-c5cccc(S(=O)(=O)[O-])c5F)c5ccc([nH]5)c(-c5cccc(S(=O)(=O)[O-])c5F)c5nc(c(-c6cccc(S(=O)(=O)[O-])c6F)c6ccc3[nH]6)C=C5)C=C4)cc2)C2=C(C)N=N[C@@H]2C)cs1
REMARK SMILES IDX 15 1 14 2 12 3 13 4 11 6 10 7 8 8 9 9 7 11 6 12 4 13 5 14
REMARK SMILES IDX 93 15 92 16 3 17 2 18 1 19 85 20 86 21 90 22 87 23 88 24
REMARK SMILES IDX 89 25 91 26 16 27 17 28 18 29 19 30 20 31 21 33 22 34 23 35
REMARK SMILES IDX 84 36 24 37 83 38 25 39 26 40 27 41 77 42 28 43 82 44 76 45
REMARK SMILES IDX 78 46 29 47 81 48 75 49 74 50 30 52 62 53 42 54 61 55 43 56
REMARK SMILES IDX 46 57 60 58 79 59 44 60 45 61 59 63 80 64 47 65 31 66 32 67
REMARK SMILES IDX 40 68 33 69 35 70 41 71 34 72 36 73 37 74 38 75 39 76 63 77
REMARK SMILES IDX 64 78 72 79 65 80 67 81 73 82 66 83 68 84 69 85 70 86 71 87
REMARK SMILES IDX 48 88 49 89 57 90 50 91 52 92 58 93 51 94 53 95 54 96 55 97
REMARK SMILES IDX 56 98
REMARK H PARENT 14 5 10 10 19 32 78 51 46 62
REMARK Flexibility Score: inf
ROOT
ATOM      1  C   UNL A   1      36.677  22.792  25.644  1.00  0.00     0.116 C 
ENDROOT
BRANCH   1   2
ATOM      2  N   UNL A   1      35.810  22.104  26.571  1.00  0.00    -0.354 N 
ATOM      3  C   UNL A   1      34.443  22.034  26.553  1.00  0.00     0.247 C 
ATOM      4  O   UNL A   1      33.964  20.953  26.916  1.00  0.00    -0.272 OA
ATOM      5  H   UNL A   1      36.257  21.626  27.305  1.00  0.00     0.163 HD
BRANCH   3   6
ATOM      6  C   UNL A   1      33.511  23.213  26.049  1.00  0.00     0.202 C 
BRANCH   6   7
ATOM      7  N   UNL A   1      32.089  23.022  26.331  1.00  0.00    -0.340 N 
ATOM      8  C   UNL A   1      31.146  23.928  26.726  1.00  0.00     0.226 C 
ATOM      9  O   UNL A   1      30.040  23.498  27.067  1.00  0.00    -0.275 OA
ATOM     10  H   UNL A   1      31.761  22.099  26.219  1.00  0.00     0.164 HD
BRANCH   8  11
ATOM     11  C   UNL A   1      31.430  25.421  26.744  1.00  0.00     0.157 C 
BRANCH  11  12
ATOM     12  C   UNL A   1      30.942  26.152  25.538  1.00  0.00     0.062 A 
ATOM     13  C   UNL A   1      30.673  28.015  24.359  1.00  0.00     0.150 A 
ATOM     14  N   UNL A   1      31.061  27.537  25.520  1.00  0.00    -0.234 NA
ATOM     15  S   UNL A   1      30.089  26.856  23.243  1.00  0.00    -0.116 S 
ATOM     16  C   UNL A   1      30.403  25.611  24.383  1.00  0.00     0.092 A 
BRANCH  13  17
ATOM     17  S   UNL A   1      30.863  29.710  23.986  1.00  0.00    -0.096 SA
BRANCH  17  18
ATOM     18  C   UNL A   1      29.234  30.119  23.294  1.00  0.00     0.074 C 
ATOM     19  C   UNL A   1      29.297  30.297  21.787  1.00  0.00     0.016 C 
ENDBRANCH  17  18
ENDBRANCH  13  17
ENDBRANCH  11  12
ENDBRANCH   8  11
ENDBRANCH   6   7
BRANCH   6  20
ATOM     20  C   UNL A   1      33.628  23.446  24.559  1.00  0.00     0.011 C 
ATOM     21  C   UNL A   1      33.901  24.562  23.865  1.00  0.00     0.064 C 
ATOM     22  C   UNL A   1      33.546  22.375  23.507  1.00  0.00     0.156 C 
ATOM     23  C   UNL A   1      34.120  25.957  24.332  1.00  0.00     0.069 C 
ATOM     24  N   UNL A   1      33.997  24.344  22.513  1.00  0.00    -0.160 NA
ATOM     25  N   UNL A   1      33.819  23.129  22.250  1.00  0.00    -0.181 NA
ATOM     26  C   UNL A   1      32.183  21.715  23.357  1.00  0.00     0.040 C 
ENDBRANCH   6  20
ENDBRANCH   3   6
ENDBRANCH   1   2
BRANCH   1  27
ATOM     27  C   UNL A   1      37.269  21.915  24.552  1.00  0.00     0.023 C 
BRANCH  27  28
ATOM     28  C   UNL A   1      37.939  20.635  25.045  1.00  0.00     0.023 C 
BRANCH  28  29
ATOM     29  C   UNL A   1      39.223  20.815  25.853  1.00  0.00     0.116 C 
BRANCH  29  30
ATOM     30  N   UNL A   1      40.061  19.624  25.924  1.00  0.00    -0.352 N 
ATOM     31  C   UNL A   1      41.418  19.538  26.170  1.00  0.00     0.251 C 
ATOM     32  H   UNL A   1      39.599  18.767  25.777  1.00  0.00     0.163 HD
ATOM     33  O   UNL A   1      41.991  18.465  26.145  1.00  0.00    -0.269 OA
BRANCH  31  34
ATOM     34  C   UNL A   1      42.168  20.791  26.414  1.00  0.00     0.039 A 
ATOM     35  C   UNL A   1      42.603  21.539  25.317  1.00  0.00     0.014 A 
ATOM     36  C   UNL A   1      42.333  21.270  27.715  1.00  0.00     0.014 A 
ATOM     37  C   UNL A   1      43.100  22.829  25.521  1.00  0.00     0.010 A 
ATOM     38  C   UNL A   1      42.769  22.577  27.910  1.00  0.00     0.010 A 
ATOM     39  C   UNL A   1      43.124  23.379  26.814  1.00  0.00    -0.014 A 
BRANCH  39  40
ATOM     40  C   UNL A   1      43.417  24.819  27.039  1.00  0.00     0.031 A 
ATOM     41  C   UNL A   1      44.791  25.368  26.788  1.00  0.00     0.074 A 
ATOM     42  C   UNL A   1      42.472  25.599  27.602  1.00  0.00     0.049 A 
ATOM     43  N   UNL A   1      45.255  26.565  27.033  1.00  0.00    -0.248 NA
ATOM     44  C   UNL A   1      45.782  24.444  26.212  1.00  0.00     0.031 C 
ATOM     45  C   UNL A   1      41.123  25.161  27.973  1.00  0.00     0.029 A 
ATOM     46  N   UNL A   1      42.512  26.912  28.001  1.00  0.00    -0.354 N 
ATOM     47  C   UNL A   1      46.595  26.534  26.674  1.00  0.00     0.074 A 
ATOM     48  C   UNL A   1      46.878  25.190  26.218  1.00  0.00     0.031 C 
ATOM     49  C   UNL A   1      40.470  26.182  28.549  1.00  0.00     0.029 A 
ATOM     50  C   UNL A   1      41.359  27.338  28.619  1.00  0.00     0.049 A 
ATOM     51  H   UNL A   1      43.293  27.495  27.857  1.00  0.00     0.167 HD
ATOM     52  C   UNL A   1      47.501  27.540  26.694  1.00  0.00     0.034 A 
ATOM     53  C   UNL A   1      41.053  28.517  29.194  1.00  0.00     0.034 A 
ATOM     54  C   UNL A   1      47.205  28.887  27.101  1.00  0.00     0.049 A 
ATOM     55  C   UNL A   1      42.073  29.623  29.189  1.00  0.00     0.074 A 
ATOM     56  C   UNL A   1      48.022  30.002  27.041  1.00  0.00     0.029 A 
ATOM     57  N   UNL A   1      46.005  29.301  27.657  1.00  0.00    -0.354 N 
ATOM     58  N   UNL A   1      43.278  29.626  28.675  1.00  0.00    -0.248 NA
ATOM     59  C   UNL A   1      41.684  30.892  29.820  1.00  0.00     0.031 C 
ATOM     60  C   UNL A   1      47.321  31.088  27.578  1.00  0.00     0.029 A 
ATOM     61  C   UNL A   1      46.065  30.649  27.966  1.00  0.00     0.049 A 
ATOM     62  H   UNL A   1      45.224  28.721  27.810  1.00  0.00     0.167 HD
ATOM     63  C   UNL A   1      43.786  30.901  28.903  1.00  0.00     0.074 A 
ATOM     64  C   UNL A   1      42.746  31.650  29.578  1.00  0.00     0.031 C 
ATOM     65  C   UNL A   1      45.010  31.396  28.600  1.00  0.00     0.034 A 
BRANCH  52  66
ATOM     66  C   UNL A   1      48.887  27.239  26.194  1.00  0.00     0.023 A 
ATOM     67  C   UNL A   1      49.816  26.633  27.065  1.00  0.00     0.012 A 
ATOM     68  C   UNL A   1      49.256  27.498  24.860  1.00  0.00     0.148 A 
ATOM     69  C   UNL A   1      51.099  26.314  26.624  1.00  0.00     0.002 A 
ATOM     70  C   UNL A   1      50.526  27.145  24.418  1.00  0.00     0.091 A 
ATOM     71  F   UNL A   1      48.368  28.101  24.056  1.00  0.00    -0.205 F 
ATOM     72  C   UNL A   1      51.450  26.561  25.300  1.00  0.00     0.022 A 
BRANCH  70  73
ATOM     73  S   UNL A   1      51.046  27.365  22.712  1.00  0.00     0.127 S 
ATOM     74  O   UNL A   1      49.973  26.688  21.987  1.00  0.00    -0.237 OA
ATOM     75  O   UNL A   1      51.051  28.822  22.574  1.00  0.00    -0.237 OA
ATOM     76  O   UNL A   1      52.360  26.745  22.616  1.00  0.00    -0.744 OA
ENDBRANCH  70  73
ENDBRANCH  52  66
BRANCH  53  77
ATOM     77  C   UNL A   1      39.697  28.729  29.773  1.00  0.00     0.023 A 
ATOM     78  C   UNL A   1      39.438  28.304  31.090  1.00  0.00     0.012 A 
ATOM     79  C   UNL A   1      38.681  29.388  29.052  1.00  0.00     0.148 A 
ATOM     80  C   UNL A   1      38.188  28.513  31.672  1.00  0.00     0.002 A 
ATOM     81  C   UNL A   1      37.455  29.639  29.656  1.00  0.00     0.091 A 
ATOM     82  F   UNL A   1      38.939  29.768  27.792  1.00  0.00    -0.205 F 
ATOM     83  C   UNL A   1      37.201  29.190  30.961  1.00  0.00     0.022 A 
BRANCH  81  84
ATOM     84  S   UNL A   1      36.182  30.626  28.860  1.00  0.00     0.127 S 
ATOM     85  O   UNL A   1      35.590  29.663  27.936  1.00  0.00    -0.237 OA
ATOM     86  O   UNL A   1      35.331  30.999  29.992  1.00  0.00    -0.237 OA
ATOM     87  O   UNL A   1      36.885  31.748  28.251  1.00  0.00    -0.744 OA
ENDBRANCH  81  84
ENDBRANCH  53  77
BRANCH  65  88
ATOM     88  C   UNL A   1      45.306  32.818  28.999  1.00  0.00     0.023 A 
ATOM     89  C   UNL A   1      45.934  33.069  30.236  1.00  0.00     0.012 A 
ATOM     90  C   UNL A   1      45.044  33.890  28.125  1.00  0.00     0.148 A 
ATOM     91  C   UNL A   1      46.279  34.368  30.604  1.00  0.00     0.002 A 
ATOM     92  C   UNL A   1      45.428  35.177  28.481  1.00  0.00     0.091 A 
ATOM     93  F   UNL A   1      44.430  33.630  26.961  1.00  0.00    -0.205 F 
ATOM     94  C   UNL A   1      46.037  35.419  29.723  1.00  0.00     0.022 A 
BRANCH  92  95
ATOM     95  S   UNL A   1      45.235  36.583  27.378  1.00  0.00     0.127 S 
ATOM     96  O   UNL A   1      45.746  37.679  28.200  1.00  0.00    -0.237 OA
ATOM     97  O   UNL A   1      46.092  36.213  26.251  1.00  0.00    -0.237 OA
ATOM     98  O   UNL A   1      43.815  36.651  27.060  1.00  0.00    -0.744 OA
ENDBRANCH  92  95
ENDBRANCH  65  88
ENDBRANCH  39  40
ENDBRANCH  31  34
ENDBRANCH  29  30
ENDBRANCH  28  29
ENDBRANCH  27  28
ENDBRANCH   1  27
TORSDOF 20
ENDMDL
