MODEL 1
REMARK VINA RESULT:     -13.5      0.000      0.000
REMARK SMILES Cc1ccc(-c2csc(NC(=O)[C@H]3[C@@H](C(=O)NCCCCNC(=O)c4ccc(-c5c6nc(c(-c7cccc(S(=O)(=O)[O-])c7F)c7ccc([nH]7)c(-c7cccc(S(=O)(=O)[O-])c7F)c7nc(c(-c8cccc(S(=O)(=O)[O-])c8F)c8ccc5[nH]8)C=C7)C=C6)cc4)[C@H]4C=C[C@@H]3C4)c2C(=O)NC2CC2)cc1
REMARK SMILES IDX 19 1 18 2 17 3 15 4 16 5 14 7 13 8 91 9 88 10 90 11 92 12
REMARK SMILES IDX 89 13 11 14 10 15 12 17 9 18 6 19 7 20 93 21 8 22 5 23 1 24
REMARK SMILES IDX 2 25 3 26 101 27 4 28 100 29 94 30 95 31 96 32 97 34 98 35
REMARK SMILES IDX 99 36 20 37 21 38 22 39 23 40 24 42 25 43 26 44 87 45 27 46
REMARK SMILES IDX 86 47 28 48 29 49 30 50 80 51 31 52 85 53 79 54 81 55 32 56
REMARK SMILES IDX 84 57 78 58 77 59 33 61 65 62 45 63 64 64 46 65 49 66 63 67
REMARK SMILES IDX 82 68 47 69 48 70 62 72 83 73 50 74 34 75 35 76 43 77 36 78
REMARK SMILES IDX 38 79 44 80 37 81 39 82 40 83 41 84 42 85 66 86 67 87 75 88
REMARK SMILES IDX 68 89 70 90 76 91 69 92 71 93 72 94 73 95 74 96 51 97 52 98
REMARK SMILES IDX 60 99 53 100 55 101 61 102 54 103 56 104 57 105 58 106
REMARK SMILES IDX 59 107
REMARK H PARENT 17 6 10 16 96 33 22 41 81 60 49 71
REMARK Flexibility Score: inf
ROOT
ATOM      1  C   UNL A   1      32.583  30.071  27.259  1.00  0.00     0.023 C 
ENDROOT
BRANCH   1   2
ATOM      2  C   UNL A   1      31.576  30.318  26.128  1.00  0.00     0.116 C 
BRANCH   2   3
ATOM      3  N   UNL A   1      32.145  30.021  24.825  1.00  0.00    -0.356 N 
ATOM      4  C   UNL A   1      32.140  28.871  24.090  1.00  0.00     0.224 C 
ATOM      5  O   UNL A   1      32.821  28.844  23.064  1.00  0.00    -0.275 OA
ATOM      6  H   UNL A   1      32.613  30.775  24.400  1.00  0.00     0.163 HD
BRANCH   4   7
ATOM      7  C   UNL A   1      31.200  27.739  24.496  1.00  0.00     0.098 C 
ATOM      8  C   UNL A   1      31.793  26.378  25.029  1.00  0.00     0.099 C 
ATOM      9  C   UNL A   1      31.230  25.373  23.983  1.00  0.00     0.025 C 
ATOM     10  C   UNL A   1      30.372  27.295  23.251  1.00  0.00     0.025 C 
ATOM     11  C   UNL A   1      31.829  25.623  22.627  1.00  0.00    -0.027 C 
ATOM     12  C   UNL A   1      29.829  25.958  23.743  1.00  0.00     0.017 C 
ATOM     13  C   UNL A   1      31.289  26.762  22.171  1.00  0.00    -0.027 C 
BRANCH   8  14
ATOM     14  C   UNL A   1      33.287  26.408  25.352  1.00  0.00     0.229 C 
ATOM     15  N   UNL A   1      34.074  25.295  25.286  1.00  0.00    -0.317 N 
ATOM     16  H   UNL A   1      35.028  25.473  25.117  1.00  0.00     0.170 HD
ATOM     17  O   UNL A   1      33.820  27.445  25.766  1.00  0.00    -0.274 OA
BRANCH  15  18
ATOM     18  C   UNL A   1      33.746  23.961  25.419  1.00  0.00     0.108 A 
ATOM     19  C   UNL A   1      33.520  21.674  25.088  1.00  0.00     0.007 A 
ATOM     20  C   UNL A   1      32.619  21.932  26.109  1.00  0.00     0.076 A 
ATOM     21  C   UNL A   1      34.265  22.874  24.704  1.00  0.00     0.082 A 
ATOM     22  S   UNL A   1      32.773  23.498  26.732  1.00  0.00    -0.125 S 
BRANCH  19  23
ATOM     23  C   UNL A   1      33.593  20.282  24.656  1.00  0.00    -0.017 A 
ATOM     24  C   UNL A   1      33.318  16.043  24.055  1.00  0.00     0.044 C 
ATOM     25  C   UNL A   1      33.474  17.534  24.086  1.00  0.00    -0.051 A 
ATOM     26  C   UNL A   1      32.350  18.337  23.885  1.00  0.00     0.004 A 
ATOM     27  C   UNL A   1      34.688  18.137  24.456  1.00  0.00     0.004 A 
ATOM     28  C   UNL A   1      32.421  19.702  24.139  1.00  0.00     0.009 A 
ATOM     29  C   UNL A   1      34.752  19.512  24.740  1.00  0.00     0.009 A 
ENDBRANCH  19  23
BRANCH  21  30
ATOM     30  C   UNL A   1      35.231  23.169  23.631  1.00  0.00     0.255 C 
ATOM     31  O   UNL A   1      34.820  23.656  22.569  1.00  0.00    -0.269 OA
ATOM     32  N   UNL A   1      36.604  23.111  23.692  1.00  0.00    -0.349 N 
ATOM     33  H   UNL A   1      36.999  23.458  22.860  1.00  0.00     0.164 HD
BRANCH  32  34
ATOM     34  C   UNL A   1      37.622  22.699  24.590  1.00  0.00     0.082 C 
ATOM     35  C   UNL A   1      37.475  22.245  25.995  1.00  0.00     0.027 C 
ATOM     36  C   UNL A   1      37.745  21.243  24.901  1.00  0.00     0.027 C 
ENDBRANCH  32  34
ENDBRANCH  21  30
ENDBRANCH  15  18
ENDBRANCH   8  14
ENDBRANCH   4   7
ENDBRANCH   2   3
ENDBRANCH   1   2
BRANCH   1  37
ATOM     37  C   UNL A   1      33.985  30.643  27.016  1.00  0.00     0.023 C 
BRANCH  37  38
ATOM     38  C   UNL A   1      34.579  31.395  28.198  1.00  0.00     0.116 C 
BRANCH  38  39
ATOM     39  N   UNL A   1      34.157  32.778  28.311  1.00  0.00    -0.352 N 
ATOM     40  C   UNL A   1      34.574  33.747  29.208  1.00  0.00     0.251 C 
ATOM     41  H   UNL A   1      33.479  33.069  27.658  1.00  0.00     0.163 HD
ATOM     42  O   UNL A   1      33.864  34.744  29.355  1.00  0.00    -0.269 OA
BRANCH  40  43
ATOM     43  C   UNL A   1      35.911  33.661  29.856  1.00  0.00     0.039 A 
ATOM     44  C   UNL A   1      37.032  33.989  29.079  1.00  0.00     0.014 A 
ATOM     45  C   UNL A   1      36.092  33.037  31.086  1.00  0.00     0.014 A 
ATOM     46  C   UNL A   1      38.277  33.441  29.387  1.00  0.00     0.010 A 
ATOM     47  C   UNL A   1      37.289  32.411  31.343  1.00  0.00     0.010 A 
ATOM     48  C   UNL A   1      38.353  32.552  30.449  1.00  0.00    -0.014 A 
BRANCH  48  49
ATOM     49  C   UNL A   1      39.470  31.667  30.721  1.00  0.00     0.031 A 
ATOM     50  C   UNL A   1      39.565  30.368  30.037  1.00  0.00     0.074 A 
ATOM     51  C   UNL A   1      40.539  32.203  31.353  1.00  0.00     0.049 A 
ATOM     52  N   UNL A   1      40.359  29.421  30.399  1.00  0.00    -0.248 NA
ATOM     53  C   UNL A   1      38.755  30.041  28.869  1.00  0.00     0.031 C 
ATOM     54  C   UNL A   1      41.919  31.745  31.293  1.00  0.00     0.029 A 
ATOM     55  N   UNL A   1      40.554  33.209  32.326  1.00  0.00    -0.354 N 
ATOM     56  C   UNL A   1      40.395  28.512  29.364  1.00  0.00     0.074 A 
ATOM     57  C   UNL A   1      39.317  28.893  28.479  1.00  0.00     0.031 C 
ATOM     58  C   UNL A   1      42.587  32.252  32.340  1.00  0.00     0.029 A 
ATOM     59  C   UNL A   1      41.607  32.891  33.201  1.00  0.00     0.049 A 
ATOM     60  H   UNL A   1      39.950  33.984  32.384  1.00  0.00     0.167 HD
ATOM     61  C   UNL A   1      41.447  27.651  29.268  1.00  0.00     0.034 A 
ATOM     62  C   UNL A   1      41.433  32.626  34.529  1.00  0.00     0.034 A 
ATOM     63  C   UNL A   1      42.400  27.866  30.363  1.00  0.00     0.049 A 
ATOM     64  C   UNL A   1      41.898  31.233  34.921  1.00  0.00     0.074 A 
ATOM     65  C   UNL A   1      43.573  28.601  30.451  1.00  0.00     0.029 A 
ATOM     66  N   UNL A   1      42.036  27.551  31.665  1.00  0.00    -0.354 N 
ATOM     67  N   UNL A   1      42.289  30.326  34.068  1.00  0.00    -0.248 NA
ATOM     68  C   UNL A   1      41.939  30.740  36.294  1.00  0.00     0.031 C 
ATOM     69  C   UNL A   1      43.880  28.779  31.824  1.00  0.00     0.029 A 
ATOM     70  C   UNL A   1      42.907  28.137  32.573  1.00  0.00     0.049 A 
ATOM     71  H   UNL A   1      41.267  26.989  31.911  1.00  0.00     0.167 HD
ATOM     72  C   UNL A   1      42.491  29.129  34.707  1.00  0.00     0.074 A 
ATOM     73  C   UNL A   1      42.340  29.468  36.113  1.00  0.00     0.031 C 
ATOM     74  C   UNL A   1      42.701  27.968  34.008  1.00  0.00     0.034 A 
BRANCH  61  75
ATOM     75  C   UNL A   1      41.790  26.882  28.007  1.00  0.00     0.023 A 
ATOM     76  C   UNL A   1      41.755  27.592  26.785  1.00  0.00     0.012 A 
ATOM     77  C   UNL A   1      42.100  25.506  27.922  1.00  0.00     0.148 A 
ATOM     78  C   UNL A   1      41.914  26.966  25.545  1.00  0.00     0.002 A 
ATOM     79  C   UNL A   1      42.197  24.867  26.680  1.00  0.00     0.091 A 
ATOM     80  F   UNL A   1      42.366  24.820  29.041  1.00  0.00    -0.205 F 
ATOM     81  C   UNL A   1      42.100  25.596  25.490  1.00  0.00     0.022 A 
BRANCH  79  82
ATOM     82  S   UNL A   1      42.345  23.079  26.514  1.00  0.00     0.127 S 
ATOM     83  O   UNL A   1      42.473  22.911  25.064  1.00  0.00    -0.237 OA
ATOM     84  O   UNL A   1      43.565  22.791  27.265  1.00  0.00    -0.237 OA
ATOM     85  O   UNL A   1      41.114  22.525  27.064  1.00  0.00    -0.744 OA
ENDBRANCH  79  82
ENDBRANCH  61  75
BRANCH  62  86
ATOM     86  C   UNL A   1      40.286  33.367  35.133  1.00  0.00     0.023 A 
ATOM     87  C   UNL A   1      39.011  32.764  35.011  1.00  0.00     0.012 A 
ATOM     88  C   UNL A   1      40.491  34.328  36.139  1.00  0.00     0.148 A 
ATOM     89  C   UNL A   1      38.018  32.990  35.967  1.00  0.00     0.002 A 
ATOM     90  C   UNL A   1      39.496  34.545  37.090  1.00  0.00     0.091 A 
ATOM     91  F   UNL A   1      41.681  34.938  36.209  1.00  0.00    -0.205 F 
ATOM     92  C   UNL A   1      38.277  33.846  37.030  1.00  0.00     0.022 A 
BRANCH  90  93
ATOM     93  S   UNL A   1      39.775  35.605  38.516  1.00  0.00     0.127 S 
ATOM     94  O   UNL A   1      41.156  35.282  38.855  1.00  0.00    -0.237 OA
ATOM     95  O   UNL A   1      39.577  36.942  37.957  1.00  0.00    -0.237 OA
ATOM     96  O   UNL A   1      38.761  35.206  39.480  1.00  0.00    -0.744 OA
ENDBRANCH  90  93
ENDBRANCH  62  86
BRANCH  74  97
ATOM     97  C   UNL A   1      42.723  26.557  34.581  1.00  0.00     0.023 A 
ATOM     98  C   UNL A   1      41.659  26.022  35.328  1.00  0.00     0.012 A 
ATOM     99  C   UNL A   1      43.779  25.657  34.260  1.00  0.00     0.148 A 
ATOM    100  C   UNL A   1      41.655  24.693  35.775  1.00  0.00     0.002 A 
ATOM    101  C   UNL A   1      43.712  24.309  34.602  1.00  0.00     0.091 A 
ATOM    102  F   UNL A   1      44.881  26.106  33.643  1.00  0.00    -0.205 F 
ATOM    103  C   UNL A   1      42.668  23.828  35.389  1.00  0.00     0.022 A 
BRANCH 101 104
ATOM    104  S   UNL A   1      44.872  23.119  33.907  1.00  0.00     0.127 S 
ATOM    105  O   UNL A   1      44.371  21.856  34.445  1.00  0.00    -0.237 OA
ATOM    106  O   UNL A   1      44.670  23.289  32.467  1.00  0.00    -0.237 OA
ATOM    107  O   UNL A   1      46.180  23.551  34.379  1.00  0.00    -0.744 OA
ENDBRANCH 101 104
ENDBRANCH  74  97
ENDBRANCH  48  49
ENDBRANCH  40  43
ENDBRANCH  38  39
ENDBRANCH  37  38
ENDBRANCH   1  37
TORSDOF 19
ENDMDL
MODEL 2
REMARK VINA RESULT:     -13.4      2.475      3.308
REMARK SMILES Cc1ccc(-c2csc(NC(=O)[C@H]3[C@@H](C(=O)NCCCCNC(=O)c4ccc(-c5c6nc(c(-c7cccc(S(=O)(=O)[O-])c7F)c7ccc([nH]7)c(-c7cccc(S(=O)(=O)[O-])c7F)c7nc(c(-c8cccc(S(=O)(=O)[O-])c8F)c8ccc5[nH]8)C=C7)C=C6)cc4)[C@H]4C=C[C@@H]3C4)c2C(=O)NC2CC2)cc1
REMARK SMILES IDX 19 1 18 2 17 3 15 4 16 5 14 7 13 8 91 9 88 10 90 11 92 12
REMARK SMILES IDX 89 13 11 14 10 15 12 17 9 18 6 19 7 20 93 21 8 22 5 23 1 24
REMARK SMILES IDX 2 25 3 26 101 27 4 28 100 29 94 30 95 31 96 32 97 34 98 35
REMARK SMILES IDX 99 36 20 37 21 38 22 39 23 40 24 42 25 43 26 44 87 45 27 46
REMARK SMILES IDX 86 47 28 48 29 49 30 50 80 51 31 52 85 53 79 54 81 55 32 56
REMARK SMILES IDX 84 57 78 58 77 59 33 61 65 62 45 63 64 64 46 65 49 66 63 67
REMARK SMILES IDX 82 68 47 69 48 70 62 72 83 73 50 74 34 75 35 76 43 77 36 78
REMARK SMILES IDX 38 79 44 80 37 81 39 82 40 83 41 84 42 85 66 86 67 87 75 88
REMARK SMILES IDX 68 89 70 90 76 91 69 92 71 93 72 94 73 95 74 96 51 97 52 98
REMARK SMILES IDX 60 99 53 100 55 101 61 102 54 103 56 104 57 105 58 106
REMARK SMILES IDX 59 107
REMARK H PARENT 17 6 10 16 96 33 22 41 81 60 49 71
REMARK Flexibility Score: inf
ROOT
ATOM      1  C   UNL A   1      33.184  30.663  27.328  1.00  0.00     0.023 C 
ENDROOT
BRANCH   1   2
ATOM      2  C   UNL A   1      31.938  30.260  26.526  1.00  0.00     0.116 C 
BRANCH   2   3
ATOM      3  N   UNL A   1      32.231  30.115  25.111  1.00  0.00    -0.356 N 
ATOM      4  C   UNL A   1      32.006  29.078  24.254  1.00  0.00     0.224 C 
ATOM      5  O   UNL A   1      32.480  29.157  23.121  1.00  0.00    -0.275 OA
ATOM      6  H   UNL A   1      32.666  30.898  24.700  1.00  0.00     0.163 HD
BRANCH   4   7
ATOM      7  C   UNL A   1      31.079  27.947  24.691  1.00  0.00     0.098 C 
ATOM      8  C   UNL A   1      31.683  26.551  25.107  1.00  0.00     0.099 C 
ATOM      9  C   UNL A   1      31.006  25.607  24.072  1.00  0.00     0.025 C 
ATOM     10  C   UNL A   1      30.133  27.579  23.507  1.00  0.00     0.025 C 
ATOM     11  C   UNL A   1      31.488  25.909  22.681  1.00  0.00    -0.027 C 
ATOM     12  C   UNL A   1      29.603  26.231  23.985  1.00  0.00     0.017 C 
ATOM     13  C   UNL A   1      30.938  27.078  22.327  1.00  0.00    -0.027 C 
BRANCH   8  14
ATOM     14  C   UNL A   1      33.201  26.536  25.297  1.00  0.00     0.229 C 
ATOM     15  N   UNL A   1      33.944  25.398  25.171  1.00  0.00    -0.317 N 
ATOM     16  H   UNL A   1      34.884  25.545  24.916  1.00  0.00     0.170 HD
ATOM     17  O   UNL A   1      33.800  27.557  25.653  1.00  0.00    -0.274 OA
BRANCH  15  18
ATOM     18  C   UNL A   1      33.588  24.076  25.342  1.00  0.00     0.108 A 
ATOM     19  C   UNL A   1      33.339  21.780  25.096  1.00  0.00     0.007 A 
ATOM     20  C   UNL A   1      32.396  22.094  26.062  1.00  0.00     0.076 A 
ATOM     21  C   UNL A   1      34.121  22.953  24.697  1.00  0.00     0.082 A 
ATOM     22  S   UNL A   1      32.547  23.682  26.626  1.00  0.00    -0.125 S 
BRANCH  19  23
ATOM     23  C   UNL A   1      33.409  20.371  24.725  1.00  0.00    -0.017 A 
ATOM     24  C   UNL A   1      34.100  16.501  23.009  1.00  0.00     0.044 C 
ATOM     25  C   UNL A   1      33.801  17.761  23.764  1.00  0.00    -0.051 A 
ATOM     26  C   UNL A   1      34.846  18.435  24.396  1.00  0.00     0.004 A 
ATOM     27  C   UNL A   1      32.528  18.355  23.725  1.00  0.00     0.004 A 
ATOM     28  C   UNL A   1      34.640  19.716  24.899  1.00  0.00     0.009 A 
ATOM     29  C   UNL A   1      32.327  19.659  24.207  1.00  0.00     0.009 A 
ENDBRANCH  19  23
BRANCH  21  30
ATOM     30  C   UNL A   1      35.140  23.188  23.661  1.00  0.00     0.255 C 
ATOM     31  O   UNL A   1      34.801  23.718  22.594  1.00  0.00    -0.269 OA
ATOM     32  N   UNL A   1      36.502  23.027  23.763  1.00  0.00    -0.349 N 
ATOM     33  H   UNL A   1      36.949  23.354  22.949  1.00  0.00     0.164 HD
BRANCH  32  34
ATOM     34  C   UNL A   1      37.457  22.530  24.686  1.00  0.00     0.082 C 
ATOM     35  C   UNL A   1      37.988  23.194  25.902  1.00  0.00     0.027 C 
ATOM     36  C   UNL A   1      36.978  22.081  26.029  1.00  0.00     0.027 C 
ENDBRANCH  32  34
ENDBRANCH  21  30
ENDBRANCH  15  18
ENDBRANCH   8  14
ENDBRANCH   4   7
ENDBRANCH   2   3
ENDBRANCH   1   2
BRANCH   1  37
ATOM     37  C   UNL A   1      33.288  32.156  27.658  1.00  0.00     0.023 C 
BRANCH  37  38
ATOM     38  C   UNL A   1      34.701  32.650  27.932  1.00  0.00     0.116 C 
BRANCH  38  39
ATOM     39  N   UNL A   1      35.044  32.755  29.337  1.00  0.00    -0.352 N 
ATOM     40  C   UNL A   1      35.647  31.819  30.160  1.00  0.00     0.251 C 
ATOM     41  H   UNL A   1      34.817  33.612  29.766  1.00  0.00     0.163 HD
ATOM     42  O   UNL A   1      35.547  31.969  31.379  1.00  0.00    -0.269 OA
BRANCH  40  43
ATOM     43  C   UNL A   1      36.517  30.753  29.592  1.00  0.00     0.039 A 
ATOM     44  C   UNL A   1      36.580  29.532  30.280  1.00  0.00     0.014 A 
ATOM     45  C   UNL A   1      37.435  31.015  28.580  1.00  0.00     0.014 A 
ATOM     46  C   UNL A   1      37.711  28.725  30.162  1.00  0.00     0.010 A 
ATOM     47  C   UNL A   1      38.596  30.280  28.531  1.00  0.00     0.010 A 
ATOM     48  C   UNL A   1      38.762  29.183  29.381  1.00  0.00    -0.014 A 
BRANCH  48  49
ATOM     49  C   UNL A   1      40.107  28.641  29.385  1.00  0.00     0.031 A 
ATOM     50  C   UNL A   1      40.327  27.214  29.105  1.00  0.00     0.074 A 
ATOM     51  C   UNL A   1      41.127  29.527  29.335  1.00  0.00     0.049 A 
ATOM     52  N   UNL A   1      41.434  26.598  29.341  1.00  0.00    -0.248 NA
ATOM     53  C   UNL A   1      39.293  26.364  28.525  1.00  0.00     0.031 C 
ATOM     54  C   UNL A   1      42.471  29.298  28.825  1.00  0.00     0.029 A 
ATOM     55  N   UNL A   1      41.188  30.808  29.897  1.00  0.00    -0.354 N 
ATOM     56  C   UNL A   1      41.368  25.392  28.678  1.00  0.00     0.074 A 
ATOM     57  C   UNL A   1      39.990  25.254  28.263  1.00  0.00     0.031 C 
ATOM     58  C   UNL A   1      43.284  30.248  29.311  1.00  0.00     0.029 A 
ATOM     59  C   UNL A   1      42.523  30.996  30.296  1.00  0.00     0.049 A 
ATOM     60  H   UNL A   1      40.447  31.448  29.992  1.00  0.00     0.167 HD
ATOM     61  C   UNL A   1      42.522  24.728  28.384  1.00  0.00     0.034 A 
ATOM     62  C   UNL A   1      42.903  31.208  31.591  1.00  0.00     0.034 A 
ATOM     63  C   UNL A   1      43.691  25.470  28.871  1.00  0.00     0.049 A 
ATOM     64  C   UNL A   1      43.853  30.143  32.111  1.00  0.00     0.074 A 
ATOM     65  C   UNL A   1      44.559  26.358  28.253  1.00  0.00     0.029 A 
ATOM     66  N   UNL A   1      43.906  25.597  30.236  1.00  0.00    -0.354 N 
ATOM     67  N   UNL A   1      44.167  29.059  31.455  1.00  0.00    -0.248 NA
ATOM     68  C   UNL A   1      44.506  30.195  33.416  1.00  0.00     0.031 C 
ATOM     69  C   UNL A   1      45.256  27.068  29.263  1.00  0.00     0.029 A 
ATOM     70  C   UNL A   1      44.830  26.600  30.495  1.00  0.00     0.049 A 
ATOM     71  H   UNL A   1      43.465  25.052  30.926  1.00  0.00     0.167 HD
ATOM     72  C   UNL A   1      44.911  28.223  32.247  1.00  0.00     0.074 A 
ATOM     73  C   UNL A   1      45.166  29.022  33.435  1.00  0.00     0.031 C 
ATOM     74  C   UNL A   1      45.191  26.935  31.869  1.00  0.00     0.034 A 
BRANCH  61  75
ATOM     75  C   UNL A   1      42.612  23.616  27.357  1.00  0.00     0.023 A 
ATOM     76  C   UNL A   1      41.643  22.590  27.425  1.00  0.00     0.012 A 
ATOM     77  C   UNL A   1      43.602  23.475  26.358  1.00  0.00     0.148 A 
ATOM     78  C   UNL A   1      41.701  21.443  26.628  1.00  0.00     0.002 A 
ATOM     79  C   UNL A   1      43.698  22.301  25.603  1.00  0.00     0.091 A 
ATOM     80  F   UNL A   1      44.417  24.503  26.088  1.00  0.00    -0.205 F 
ATOM     81  C   UNL A   1      42.750  21.282  25.740  1.00  0.00     0.022 A 
BRANCH  79  82
ATOM     82  S   UNL A   1      45.079  21.967  24.494  1.00  0.00     0.127 S 
ATOM     83  O   UNL A   1      45.030  23.113  23.582  1.00  0.00    -0.237 OA
ATOM     84  O   UNL A   1      46.222  21.966  25.403  1.00  0.00    -0.237 OA
ATOM     85  O   UNL A   1      44.776  20.693  23.854  1.00  0.00    -0.744 OA
ENDBRANCH  79  82
ENDBRANCH  61  75
BRANCH  62  86
ATOM     86  C   UNL A   1      41.875  31.932  32.396  1.00  0.00     0.023 A 
ATOM     87  C   UNL A   1      41.549  33.244  31.971  1.00  0.00     0.012 A 
ATOM     88  C   UNL A   1      40.962  31.234  33.206  1.00  0.00     0.148 A 
ATOM     89  C   UNL A   1      40.283  33.780  32.209  1.00  0.00     0.002 A 
ATOM     90  C   UNL A   1      39.699  31.776  33.436  1.00  0.00     0.091 A 
ATOM     91  F   UNL A   1      41.303  30.019  33.653  1.00  0.00    -0.205 F 
ATOM     92  C   UNL A   1      39.343  33.027  32.904  1.00  0.00     0.022 A 
BRANCH  90  93
ATOM     93  S   UNL A   1      38.419  30.843  34.289  1.00  0.00     0.127 S 
ATOM     94  O   UNL A   1      38.992  30.714  35.624  1.00  0.00    -0.237 OA
ATOM     95  O   UNL A   1      37.265  31.736  34.200  1.00  0.00    -0.237 OA
ATOM     96  O   UNL A   1      38.281  29.614  33.521  1.00  0.00    -0.744 OA
ENDBRANCH  90  93
ENDBRANCH  62  86
BRANCH  74  97
ATOM     97  C   UNL A   1      45.813  25.850  32.739  1.00  0.00     0.023 A 
ATOM     98  C   UNL A   1      47.203  25.708  32.902  1.00  0.00     0.012 A 
ATOM     99  C   UNL A   1      44.997  25.009  33.547  1.00  0.00     0.148 A 
ATOM    100  C   UNL A   1      47.758  24.761  33.772  1.00  0.00     0.002 A 
ATOM    101  C   UNL A   1      45.553  24.157  34.499  1.00  0.00     0.091 A 
ATOM    102  F   UNL A   1      43.667  25.002  33.383  1.00  0.00    -0.205 F 
ATOM    103  C   UNL A   1      46.935  24.004  34.592  1.00  0.00     0.022 A 
BRANCH 101 104
ATOM    104  S   UNL A   1      44.522  23.357  35.740  1.00  0.00     0.127 S 
ATOM    105  O   UNL A   1      45.394  22.284  36.214  1.00  0.00    -0.237 OA
ATOM    106  O   UNL A   1      44.302  24.434  36.707  1.00  0.00    -0.237 OA
ATOM    107  O   UNL A   1      43.323  22.947  35.023  1.00  0.00    -0.744 OA
ENDBRANCH 101 104
ENDBRANCH  74  97
ENDBRANCH  48  49
ENDBRANCH  40  43
ENDBRANCH  38  39
ENDBRANCH  37  38
ENDBRANCH   1  37
TORSDOF 19
ENDMDL
MODEL 3
REMARK VINA RESULT:     -13.2      3.679     10.113
REMARK SMILES Cc1ccc(-c2csc(NC(=O)[C@H]3[C@@H](C(=O)NCCCCNC(=O)c4ccc(-c5c6nc(c(-c7cccc(S(=O)(=O)[O-])c7F)c7ccc([nH]7)c(-c7cccc(S(=O)(=O)[O-])c7F)c7nc(c(-c8cccc(S(=O)(=O)[O-])c8F)c8ccc5[nH]8)C=C7)C=C6)cc4)[C@H]4C=C[C@@H]3C4)c2C(=O)NC2CC2)cc1
REMARK SMILES IDX 19 1 18 2 17 3 15 4 16 5 14 7 13 8 91 9 88 10 90 11 92 12
REMARK SMILES IDX 89 13 11 14 10 15 12 17 9 18 6 19 7 20 93 21 8 22 5 23 1 24
REMARK SMILES IDX 2 25 3 26 101 27 4 28 100 29 94 30 95 31 96 32 97 34 98 35
REMARK SMILES IDX 99 36 20 37 21 38 22 39 23 40 24 42 25 43 26 44 87 45 27 46
REMARK SMILES IDX 86 47 28 48 29 49 30 50 80 51 31 52 85 53 79 54 81 55 32 56
REMARK SMILES IDX 84 57 78 58 77 59 33 61 65 62 45 63 64 64 46 65 49 66 63 67
REMARK SMILES IDX 82 68 47 69 48 70 62 72 83 73 50 74 34 75 35 76 43 77 36 78
REMARK SMILES IDX 38 79 44 80 37 81 39 82 40 83 41 84 42 85 66 86 67 87 75 88
REMARK SMILES IDX 68 89 70 90 76 91 69 92 71 93 72 94 73 95 74 96 51 97 52 98
REMARK SMILES IDX 60 99 53 100 55 101 61 102 54 103 56 104 57 105 58 106
REMARK SMILES IDX 59 107
REMARK H PARENT 17 6 10 16 96 33 22 41 81 60 49 71
REMARK Flexibility Score: inf
ROOT
ATOM      1  C   UNL A   1      37.829  20.541  25.289  1.00  0.00     0.023 C 
ENDROOT
BRANCH   1   2
ATOM      2  C   UNL A   1      36.408  20.442  24.719  1.00  0.00     0.116 C 
BRANCH   2   3
ATOM      3  N   UNL A   1      35.400  20.599  25.753  1.00  0.00    -0.356 N 
ATOM      4  C   UNL A   1      34.207  21.261  25.742  1.00  0.00     0.224 C 
ATOM      5  O   UNL A   1      33.596  21.357  26.808  1.00  0.00    -0.275 OA
ATOM      6  H   UNL A   1      35.613  20.154  26.605  1.00  0.00     0.163 HD
BRANCH   4   7
ATOM      7  C   UNL A   1      33.631  21.726  24.408  1.00  0.00     0.098 C 
ATOM      8  C   UNL A   1      33.531  23.267  24.088  1.00  0.00     0.099 C 
ATOM      9  C   UNL A   1      31.999  23.434  23.876  1.00  0.00     0.025 C 
ATOM     10  C   UNL A   1      32.150  21.250  24.300  1.00  0.00     0.025 C 
ATOM     11  C   UNL A   1      31.254  23.191  25.159  1.00  0.00    -0.027 C 
ATOM     12  C   UNL A   1      31.663  22.122  23.147  1.00  0.00     0.017 C 
ATOM     13  C   UNL A   1      31.316  21.874  25.398  1.00  0.00    -0.027 C 
BRANCH   8  14
ATOM     14  C   UNL A   1      34.285  24.177  25.060  1.00  0.00     0.229 C 
ATOM     15  N   UNL A   1      33.888  25.455  25.324  1.00  0.00    -0.317 N 
ATOM     16  H   UNL A   1      34.163  25.800  26.205  1.00  0.00     0.170 HD
ATOM     17  O   UNL A   1      35.340  23.800  25.583  1.00  0.00    -0.274 OA
BRANCH  15  18
ATOM     18  C   UNL A   1      33.162  26.342  24.555  1.00  0.00     0.108 A 
ATOM     19  C   UNL A   1      31.583  27.865  23.794  1.00  0.00     0.007 A 
ATOM     20  C   UNL A   1      32.252  27.504  22.634  1.00  0.00     0.076 A 
ATOM     21  C   UNL A   1      32.164  27.229  24.978  1.00  0.00     0.082 A 
ATOM     22  S   UNL A   1      33.642  26.589  22.944  1.00  0.00    -0.125 S 
BRANCH  19  23
ATOM     23  C   UNL A   1      30.506  28.833  23.618  1.00  0.00    -0.017 A 
ATOM     24  C   UNL A   1      27.652  31.763  22.324  1.00  0.00     0.044 C 
ATOM     25  C   UNL A   1      28.529  30.702  22.918  1.00  0.00    -0.051 A 
ATOM     26  C   UNL A   1      28.493  29.415  22.379  1.00  0.00     0.004 A 
ATOM     27  C   UNL A   1      29.487  31.007  23.899  1.00  0.00     0.004 A 
ATOM     28  C   UNL A   1      29.455  28.482  22.751  1.00  0.00     0.009 A 
ATOM     29  C   UNL A   1      30.477  30.074  24.253  1.00  0.00     0.009 A 
ENDBRANCH  19  23
BRANCH  21  30
ATOM     30  C   UNL A   1      31.779  27.185  26.398  1.00  0.00     0.255 C 
ATOM     31  O   UNL A   1      31.033  26.278  26.791  1.00  0.00    -0.269 OA
ATOM     32  N   UNL A   1      32.261  27.959  27.429  1.00  0.00    -0.349 N 
ATOM     33  H   UNL A   1      31.901  27.646  28.290  1.00  0.00     0.164 HD
BRANCH  32  34
ATOM     34  C   UNL A   1      33.118  29.072  27.625  1.00  0.00     0.082 C 
ATOM     35  C   UNL A   1      34.006  29.729  26.635  1.00  0.00     0.027 C 
ATOM     36  C   UNL A   1      32.713  30.388  27.043  1.00  0.00     0.027 C 
ENDBRANCH  32  34
ENDBRANCH  21  30
ENDBRANCH  15  18
ENDBRANCH   8  14
ENDBRANCH   4   7
ENDBRANCH   2   3
ENDBRANCH   1   2
BRANCH   1  37
ATOM     37  C   UNL A   1      38.187  21.896  25.909  1.00  0.00     0.023 C 
BRANCH  37  38
ATOM     38  C   UNL A   1      39.662  22.262  25.832  1.00  0.00     0.116 C 
BRANCH  38  39
ATOM     39  N   UNL A   1      40.375  22.176  27.093  1.00  0.00    -0.352 N 
ATOM     40  C   UNL A   1      40.927  23.192  27.854  1.00  0.00     0.251 C 
ATOM     41  H   UNL A   1      40.480  21.267  27.458  1.00  0.00     0.163 HD
ATOM     42  O   UNL A   1      41.769  22.888  28.701  1.00  0.00    -0.269 OA
BRANCH  40  43
ATOM     43  C   UNL A   1      40.410  24.584  27.757  1.00  0.00     0.039 A 
ATOM     44  C   UNL A   1      41.112  25.482  26.940  1.00  0.00     0.014 A 
ATOM     45  C   UNL A   1      39.438  25.069  28.626  1.00  0.00     0.014 A 
ATOM     46  C   UNL A   1      41.054  26.851  27.199  1.00  0.00     0.010 A 
ATOM     47  C   UNL A   1      39.449  26.403  28.956  1.00  0.00     0.010 A 
ATOM     48  C   UNL A   1      40.316  27.277  28.294  1.00  0.00    -0.014 A 
BRANCH  48  49
ATOM     49  C   UNL A   1      40.386  28.598  28.889  1.00  0.00     0.031 A 
ATOM     50  C   UNL A   1      39.322  29.580  28.630  1.00  0.00     0.074 A 
ATOM     51  C   UNL A   1      41.261  28.769  29.906  1.00  0.00     0.049 A 
ATOM     52  N   UNL A   1      39.425  30.837  28.892  1.00  0.00    -0.248 NA
ATOM     53  C   UNL A   1      38.038  29.204  28.048  1.00  0.00     0.031 C 
ATOM     54  C   UNL A   1      41.187  29.752  30.976  1.00  0.00     0.029 A 
ATOM     55  N   UNL A   1      42.509  28.161  30.084  1.00  0.00    -0.354 N 
ATOM     56  C   UNL A   1      38.155  31.367  28.810  1.00  0.00     0.074 A 
ATOM     57  C   UNL A   1      37.346  30.338  28.197  1.00  0.00     0.031 C 
ATOM     58  C   UNL A   1      42.403  29.878  31.529  1.00  0.00     0.029 A 
ATOM     59  C   UNL A   1      43.327  29.122  30.701  1.00  0.00     0.049 A 
ATOM     60  H   UNL A   1      42.762  27.244  29.829  1.00  0.00     0.167 HD
ATOM     61  C   UNL A   1      37.882  32.544  29.441  1.00  0.00     0.034 A 
ATOM     62  C   UNL A   1      44.469  29.618  30.139  1.00  0.00     0.034 A 
ATOM     63  C   UNL A   1      39.074  33.061  30.125  1.00  0.00     0.049 A 
ATOM     64  C   UNL A   1      44.419  31.123  29.928  1.00  0.00     0.074 A 
ATOM     65  C   UNL A   1      39.515  32.964  31.436  1.00  0.00     0.029 A 
ATOM     66  N   UNL A   1      40.155  33.510  29.379  1.00  0.00    -0.354 N 
ATOM     67  N   UNL A   1      43.356  31.854  30.123  1.00  0.00    -0.248 NA
ATOM     68  C   UNL A   1      45.548  31.921  29.459  1.00  0.00     0.031 C 
ATOM     69  C   UNL A   1      40.892  33.301  31.463  1.00  0.00     0.029 A 
ATOM     70  C   UNL A   1      41.287  33.622  30.175  1.00  0.00     0.049 A 
ATOM     71  H   UNL A   1      40.124  33.720  28.418  1.00  0.00     0.167 HD
ATOM     72  C   UNL A   1      43.577  33.138  29.695  1.00  0.00     0.074 A 
ATOM     73  C   UNL A   1      44.994  33.145  29.369  1.00  0.00     0.031 C 
ATOM     74  C   UNL A   1      42.557  34.049  29.597  1.00  0.00     0.034 A 
BRANCH  61  75
ATOM     75  C   UNL A   1      36.477  33.029  29.740  1.00  0.00     0.023 A 
ATOM     76  C   UNL A   1      35.668  33.392  28.640  1.00  0.00     0.012 A 
ATOM     77  C   UNL A   1      35.904  33.200  31.020  1.00  0.00     0.148 A 
ATOM     78  C   UNL A   1      34.410  33.983  28.790  1.00  0.00     0.002 A 
ATOM     79  C   UNL A   1      34.672  33.848  31.175  1.00  0.00     0.091 A 
ATOM     80  F   UNL A   1      36.516  32.679  32.092  1.00  0.00    -0.205 F 
ATOM     81  C   UNL A   1      33.926  34.244  30.060  1.00  0.00     0.022 A 
BRANCH  79  82
ATOM     82  S   UNL A   1      34.012  34.310  32.787  1.00  0.00     0.127 S 
ATOM     83  O   UNL A   1      33.093  35.400  32.445  1.00  0.00    -0.237 OA
ATOM     84  O   UNL A   1      33.355  33.082  33.225  1.00  0.00    -0.237 OA
ATOM     85  O   UNL A   1      35.159  34.736  33.580  1.00  0.00    -0.744 OA
ENDBRANCH  79  82
ENDBRANCH  61  75
BRANCH  62  86
ATOM     86  C   UNL A   1      45.169  28.635  29.261  1.00  0.00     0.023 A 
ATOM     87  C   UNL A   1      45.618  27.444  29.882  1.00  0.00     0.012 A 
ATOM     88  C   UNL A   1      44.992  28.650  27.867  1.00  0.00     0.148 A 
ATOM     89  C   UNL A   1      45.729  26.256  29.156  1.00  0.00     0.002 A 
ATOM     90  C   UNL A   1      45.101  27.459  27.151  1.00  0.00     0.091 A 
ATOM     91  F   UNL A   1      44.626  29.797  27.280  1.00  0.00    -0.205 F 
ATOM     92  C   UNL A   1      45.427  26.255  27.799  1.00  0.00     0.022 A 
BRANCH  90  93
ATOM     93  S   UNL A   1      44.685  27.374  25.403  1.00  0.00     0.127 S 
ATOM     94  O   UNL A   1      45.744  28.184  24.811  1.00  0.00    -0.237 OA
ATOM     95  O   UNL A   1      44.781  25.941  25.126  1.00  0.00    -0.237 OA
ATOM     96  O   UNL A   1      43.335  27.908  25.316  1.00  0.00    -0.744 OA
ENDBRANCH  90  93
ENDBRANCH  62  86
BRANCH  74  97
ATOM     97  C   UNL A   1      42.628  35.422  28.941  1.00  0.00     0.023 A 
ATOM     98  C   UNL A   1      41.899  35.752  27.784  1.00  0.00     0.012 A 
ATOM     99  C   UNL A   1      43.337  36.489  29.562  1.00  0.00     0.148 A 
ATOM    100  C   UNL A   1      41.907  37.044  27.242  1.00  0.00     0.002 A 
ATOM    101  C   UNL A   1      43.242  37.796  29.088  1.00  0.00     0.091 A 
ATOM    102  F   UNL A   1      44.140  36.245  30.606  1.00  0.00    -0.205 F 
ATOM    103  C   UNL A   1      42.555  38.073  27.908  1.00  0.00     0.022 A 
BRANCH 101 104
ATOM    104  S   UNL A   1      43.855  39.180  30.062  1.00  0.00     0.127 S 
ATOM    105  O   UNL A   1      45.202  39.357  29.525  1.00  0.00    -0.237 OA
ATOM    106  O   UNL A   1      42.917  40.249  29.714  1.00  0.00    -0.237 OA
ATOM    107  O   UNL A   1      43.763  38.735  31.446  1.00  0.00    -0.744 OA
ENDBRANCH 101 104
ENDBRANCH  74  97
ENDBRANCH  48  49
ENDBRANCH  40  43
ENDBRANCH  38  39
ENDBRANCH  37  38
ENDBRANCH   1  37
TORSDOF 19
ENDMDL
