MODEL 1
REMARK VINA RESULT:     -12.1      0.000      0.000
REMARK SMILES CS(=O)(=O)N1C[C@@H]2CN(C(=O)c3ccco3)C[C@]2(C(=O)NCCCCNC(=O)c2ccc(-c3c4nc(c(-c5cccc(S(=O)(=O)[O-])c5F)c5ccc([nH]5)c(-c5cccc(S(=O)(=O)[O-])c5F)c5nc(c(-c6cccc(S(=O)(=O)[O-])c6F)c6ccc3[nH]6)C=C5)C=C4)cc2)C1
REMARK SMILES IDX 24 1 23 2 22 3 21 4 19 5 20 6 18 8 5 9 6 10 92 11 7 12 8 13
REMARK SMILES IDX 17 14 9 15 2 16 1 17 3 18 4 19 10 20 11 21 12 22 13 23 16 24
REMARK SMILES IDX 14 25 15 26 25 27 26 28 27 29 28 31 29 32 30 33 91 34 31 35
REMARK SMILES IDX 90 36 32 37 33 38 34 39 84 40 35 41 89 42 83 43 85 44 36 45
REMARK SMILES IDX 88 46 82 47 81 48 37 50 69 51 49 52 68 53 50 54 53 55 67 56
REMARK SMILES IDX 86 57 51 58 52 59 66 61 87 62 54 63 38 64 39 65 47 66 40 67
REMARK SMILES IDX 42 68 48 69 41 70 43 71 44 72 45 73 46 74 70 75 71 76 79 77
REMARK SMILES IDX 72 78 74 79 80 80 73 81 75 82 76 83 77 84 78 85 55 86 56 87
REMARK SMILES IDX 64 88 57 89 59 90 65 91 58 92 60 93 61 94 62 95 63 96
REMARK H PARENT 21 7 26 30 85 49 53 60
REMARK Flexibility Score: inf
ROOT
ATOM      1  C   UNL A   1      32.352  30.964  26.586  1.00  0.00     0.023 C 
ENDROOT
BRANCH   1   2
ATOM      2  C   UNL A   1      32.261  29.512  27.022  1.00  0.00     0.023 C 
BRANCH   2   3
ATOM      3  C   UNL A   1      33.339  28.605  26.450  1.00  0.00     0.116 C 
BRANCH   3   4
ATOM      4  N   UNL A   1      33.765  29.128  25.169  1.00  0.00    -0.356 N 
ATOM      5  C   UNL A   1      33.506  28.552  23.947  1.00  0.00     0.229 C 
ATOM      6  O   UNL A   1      34.203  28.857  22.980  1.00  0.00    -0.274 OA
ATOM      7  H   UNL A   1      34.284  29.964  25.174  1.00  0.00     0.163 HD
BRANCH   5   8
ATOM      8  C   UNL A   1      32.290  27.587  23.898  1.00  0.00     0.086 C 
ATOM      9  N   UNL A   1      30.032  28.695  23.674  1.00  0.00    -0.201 NA
ATOM     10  C   UNL A   1      29.817  27.266  23.536  1.00  0.00     0.108 C 
ATOM     11  C   UNL A   1      31.498  28.911  23.402  1.00  0.00     0.121 C 
ATOM     12  C   UNL A   1      31.183  26.757  23.137  1.00  0.00     0.042 C 
ATOM     13  C   UNL A   1      31.338  25.306  23.534  1.00  0.00     0.126 C 
ATOM     14  C   UNL A   1      33.350  26.480  23.342  1.00  0.00     0.138 C 
ATOM     15  N   UNL A   1      32.749  25.191  23.708  1.00  0.00    -0.334 N 
BRANCH   9  16
ATOM     16  S   UNL A   1      29.018  29.768  22.846  1.00  0.00     0.211 S 
ATOM     17  C   UNL A   1      27.414  29.009  23.000  1.00  0.00     0.176 C 
ATOM     18  O   UNL A   1      29.396  29.727  21.446  1.00  0.00    -0.213 OA
ATOM     19  O   UNL A   1      29.004  31.008  23.584  1.00  0.00    -0.213 OA
ENDBRANCH   9  16
BRANCH  15  20
ATOM     20  C   UNL A   1      33.231  24.084  24.409  1.00  0.00     0.289 C 
ATOM     21  O   UNL A   1      32.473  23.506  25.197  1.00  0.00    -0.265 OA
BRANCH  20  22
ATOM     22  C   UNL A   1      34.621  23.694  24.324  1.00  0.00     0.191 A 
ATOM     23  C   UNL A   1      35.224  22.819  23.432  1.00  0.00     0.056 A 
ATOM     24  O   UNL A   1      35.574  24.243  25.136  1.00  0.00    -0.459 OA
ATOM     25  C   UNL A   1      36.605  22.811  23.733  1.00  0.00     0.043 A 
ATOM     26  C   UNL A   1      36.773  23.718  24.751  1.00  0.00     0.196 A 
ENDBRANCH  20  22
ENDBRANCH  15  20
ENDBRANCH   5   8
ENDBRANCH   3   4
ENDBRANCH   2   3
ENDBRANCH   1   2
BRANCH   1  27
ATOM     27  C   UNL A   1      33.217  31.786  27.513  1.00  0.00     0.116 C 
BRANCH  27  28
ATOM     28  N   UNL A   1      32.787  33.181  27.599  1.00  0.00    -0.352 N 
ATOM     29  C   UNL A   1      33.230  34.166  28.445  1.00  0.00     0.251 C 
ATOM     30  H   UNL A   1      32.085  33.450  26.962  1.00  0.00     0.163 HD
ATOM     31  O   UNL A   1      32.672  35.258  28.474  1.00  0.00    -0.269 OA
BRANCH  29  32
ATOM     32  C   UNL A   1      34.352  33.858  29.348  1.00  0.00     0.039 A 
ATOM     33  C   UNL A   1      34.114  33.098  30.493  1.00  0.00     0.014 A 
ATOM     34  C   UNL A   1      35.651  34.216  28.985  1.00  0.00     0.014 A 
ATOM     35  C   UNL A   1      35.199  32.625  31.228  1.00  0.00     0.010 A 
ATOM     36  C   UNL A   1      36.722  33.623  29.630  1.00  0.00     0.010 A 
ATOM     37  C   UNL A   1      36.511  32.840  30.772  1.00  0.00    -0.014 A 
BRANCH  37  38
ATOM     38  C   UNL A   1      37.683  32.266  31.473  1.00  0.00     0.031 A 
ATOM     39  C   UNL A   1      38.482  31.171  30.818  1.00  0.00     0.074 A 
ATOM     40  C   UNL A   1      37.965  32.657  32.733  1.00  0.00     0.049 A 
ATOM     41  N   UNL A   1      39.497  30.499  31.291  1.00  0.00    -0.248 NA
ATOM     42  C   UNL A   1      38.058  30.742  29.473  1.00  0.00     0.031 C 
ATOM     43  C   UNL A   1      37.196  33.631  33.513  1.00  0.00     0.029 A 
ATOM     44  N   UNL A   1      38.962  32.263  33.588  1.00  0.00    -0.354 N 
ATOM     45  C   UNL A   1      39.797  29.543  30.329  1.00  0.00     0.074 A 
ATOM     46  C   UNL A   1      38.826  29.684  29.270  1.00  0.00     0.031 C 
ATOM     47  C   UNL A   1      37.760  33.771  34.722  1.00  0.00     0.029 A 
ATOM     48  C   UNL A   1      38.905  32.872  34.820  1.00  0.00     0.049 A 
ATOM     49  H   UNL A   1      39.653  31.605  33.344  1.00  0.00     0.167 HD
ATOM     50  C   UNL A   1      40.812  28.650  30.308  1.00  0.00     0.034 A 
ATOM     51  C   UNL A   1      39.684  32.718  35.907  1.00  0.00     0.034 A 
ATOM     52  C   UNL A   1      41.806  28.553  31.340  1.00  0.00     0.049 A 
ATOM     53  C   UNL A   1      40.846  31.765  35.837  1.00  0.00     0.074 A 
ATOM     54  C   UNL A   1      42.942  27.768  31.367  1.00  0.00     0.029 A 
ATOM     55  N   UNL A   1      41.774  29.258  32.534  1.00  0.00    -0.354 N 
ATOM     56  N   UNL A   1      41.220  30.995  34.843  1.00  0.00    -0.248 NA
ATOM     57  C   UNL A   1      41.713  31.686  37.019  1.00  0.00     0.031 C 
ATOM     58  C   UNL A   1      43.578  27.966  32.597  1.00  0.00     0.029 A 
ATOM     59  C   UNL A   1      42.861  28.910  33.316  1.00  0.00     0.049 A 
ATOM     60  H   UNL A   1      41.080  29.909  32.788  1.00  0.00     0.167 HD
ATOM     61  C   UNL A   1      42.383  30.364  35.268  1.00  0.00     0.074 A 
ATOM     62  C   UNL A   1      42.663  30.862  36.600  1.00  0.00     0.031 C 
ATOM     63  C   UNL A   1      43.144  29.446  34.623  1.00  0.00     0.034 A 
BRANCH  50  64
ATOM     64  C   UNL A   1      40.920  27.739  29.113  1.00  0.00     0.023 A 
ATOM     65  C   UNL A   1      40.181  26.538  29.074  1.00  0.00     0.012 A 
ATOM     66  C   UNL A   1      41.724  28.090  28.013  1.00  0.00     0.148 A 
ATOM     67  C   UNL A   1      40.272  25.682  27.978  1.00  0.00     0.002 A 
ATOM     68  C   UNL A   1      41.768  27.258  26.901  1.00  0.00     0.091 A 
ATOM     69  F   UNL A   1      42.439  29.222  28.079  1.00  0.00    -0.205 F 
ATOM     70  C   UNL A   1      41.056  26.047  26.888  1.00  0.00     0.022 A 
BRANCH  68  71
ATOM     71  S   UNL A   1      42.679  27.680  25.412  1.00  0.00     0.127 S 
ATOM     72  O   UNL A   1      42.477  26.485  24.595  1.00  0.00    -0.237 OA
ATOM     73  O   UNL A   1      41.965  28.867  24.943  1.00  0.00    -0.237 OA
ATOM     74  O   UNL A   1      44.051  27.923  25.834  1.00  0.00    -0.744 OA
ENDBRANCH  68  71
ENDBRANCH  50  64
BRANCH  51  75
ATOM     75  C   UNL A   1      39.421  33.524  37.132  1.00  0.00     0.023 A 
ATOM     76  C   UNL A   1      39.932  34.833  37.229  1.00  0.00     0.012 A 
ATOM     77  C   UNL A   1      38.636  33.014  38.185  1.00  0.00     0.148 A 
ATOM     78  C   UNL A   1      39.696  35.607  38.367  1.00  0.00     0.002 A 
ATOM     79  C   UNL A   1      38.356  33.810  39.288  1.00  0.00     0.091 A 
ATOM     80  F   UNL A   1      38.164  31.764  38.075  1.00  0.00    -0.205 F 
ATOM     81  C   UNL A   1      38.900  35.099  39.390  1.00  0.00     0.022 A 
BRANCH  79  82
ATOM     82  S   UNL A   1      37.230  33.293  40.589  1.00  0.00     0.127 S 
ATOM     83  O   UNL A   1      38.021  32.280  41.284  1.00  0.00    -0.237 OA
ATOM     84  O   UNL A   1      37.036  34.539  41.330  1.00  0.00    -0.237 OA
ATOM     85  O   UNL A   1      36.038  32.807  39.909  1.00  0.00    -0.744 OA
ENDBRANCH  79  82
ENDBRANCH  51  75
BRANCH  63  86
ATOM     86  C   UNL A   1      44.375  28.943  35.327  1.00  0.00     0.023 A 
ATOM     87  C   UNL A   1      45.620  29.565  35.102  1.00  0.00     0.012 A 
ATOM     88  C   UNL A   1      44.283  27.899  36.268  1.00  0.00     0.148 A 
ATOM     89  C   UNL A   1      46.760  29.128  35.775  1.00  0.00     0.002 A 
ATOM     90  C   UNL A   1      45.411  27.507  36.976  1.00  0.00     0.091 A 
ATOM     91  F   UNL A   1      43.092  27.312  36.456  1.00  0.00    -0.205 F 
ATOM     92  C   UNL A   1      46.653  28.110  36.719  1.00  0.00     0.022 A 
BRANCH  90  93
ATOM     93  S   UNL A   1      45.349  26.277  38.283  1.00  0.00     0.127 S 
ATOM     94  O   UNL A   1      44.348  26.850  39.181  1.00  0.00    -0.237 OA
ATOM     95  O   UNL A   1      44.912  25.081  37.562  1.00  0.00    -0.237 OA
ATOM     96  O   UNL A   1      46.699  26.196  38.825  1.00  0.00    -0.744 OA
ENDBRANCH  90  93
ENDBRANCH  63  86
ENDBRANCH  37  38
ENDBRANCH  29  32
ENDBRANCH  27  28
ENDBRANCH   1  27
TORSDOF 17
ENDMDL
MODEL 2
REMARK VINA RESULT:     -12.0      5.807     11.698
REMARK SMILES CS(=O)(=O)N1C[C@@H]2CN(C(=O)c3ccco3)C[C@]2(C(=O)NCCCCNC(=O)c2ccc(-c3c4nc(c(-c5cccc(S(=O)(=O)[O-])c5F)c5ccc([nH]5)c(-c5cccc(S(=O)(=O)[O-])c5F)c5nc(c(-c6cccc(S(=O)(=O)[O-])c6F)c6ccc3[nH]6)C=C5)C=C4)cc2)C1
REMARK SMILES IDX 24 1 23 2 22 3 21 4 19 5 20 6 18 8 5 9 6 10 92 11 7 12 8 13
REMARK SMILES IDX 17 14 9 15 2 16 1 17 3 18 4 19 10 20 11 21 12 22 13 23 16 24
REMARK SMILES IDX 14 25 15 26 25 27 26 28 27 29 28 31 29 32 30 33 91 34 31 35
REMARK SMILES IDX 90 36 32 37 33 38 34 39 84 40 35 41 89 42 83 43 85 44 36 45
REMARK SMILES IDX 88 46 82 47 81 48 37 50 69 51 49 52 68 53 50 54 53 55 67 56
REMARK SMILES IDX 86 57 51 58 52 59 66 61 87 62 54 63 38 64 39 65 47 66 40 67
REMARK SMILES IDX 42 68 48 69 41 70 43 71 44 72 45 73 46 74 70 75 71 76 79 77
REMARK SMILES IDX 72 78 74 79 80 80 73 81 75 82 76 83 77 84 78 85 55 86 56 87
REMARK SMILES IDX 64 88 57 89 59 90 65 91 58 92 60 93 61 94 62 95 63 96
REMARK H PARENT 21 7 26 30 85 49 53 60
REMARK Flexibility Score: inf
ROOT
ATOM      1  C   UNL A   1      37.702  21.021  25.157  1.00  0.00     0.023 C 
ENDROOT
BRANCH   1   2
ATOM      2  C   UNL A   1      37.183  22.284  24.492  1.00  0.00     0.023 C 
BRANCH   2   3
ATOM      3  C   UNL A   1      36.443  23.235  25.420  1.00  0.00     0.116 C 
BRANCH   3   4
ATOM      4  N   UNL A   1      35.920  22.488  26.544  1.00  0.00    -0.356 N 
ATOM      5  C   UNL A   1      34.589  22.237  26.785  1.00  0.00     0.229 C 
ATOM      6  O   UNL A   1      34.233  21.927  27.920  1.00  0.00    -0.274 OA
ATOM      7  H   UNL A   1      36.571  22.130  27.189  1.00  0.00     0.163 HD
BRANCH   5   8
ATOM      8  C   UNL A   1      33.651  22.320  25.549  1.00  0.00     0.086 C 
ATOM      9  N   UNL A   1      33.417  20.189  24.217  1.00  0.00    -0.201 NA
ATOM     10  C   UNL A   1      32.450  21.130  23.680  1.00  0.00     0.108 C 
ATOM     11  C   UNL A   1      33.764  20.704  25.589  1.00  0.00     0.121 C 
ATOM     12  C   UNL A   1      32.268  22.109  24.817  1.00  0.00     0.042 C 
ATOM     13  C   UNL A   1      31.816  23.451  24.286  1.00  0.00     0.126 C 
ATOM     14  C   UNL A   1      32.922  23.544  26.343  1.00  0.00     0.138 C 
ATOM     15  N   UNL A   1      32.310  24.349  25.278  1.00  0.00    -0.334 N 
BRANCH   9  16
ATOM     16  S   UNL A   1      33.066  18.532  24.178  1.00  0.00     0.211 S 
ATOM     17  C   UNL A   1      32.315  18.316  22.578  1.00  0.00     0.176 C 
ATOM     18  O   UNL A   1      32.050  18.281  25.183  1.00  0.00    -0.213 OA
ATOM     19  O   UNL A   1      34.323  17.823  24.188  1.00  0.00    -0.213 OA
ENDBRANCH   9  16
BRANCH  15  20
ATOM     20  C   UNL A   1      32.384  25.704  24.951  1.00  0.00     0.289 C 
ATOM     21  O   UNL A   1      32.574  26.020  23.771  1.00  0.00    -0.265 OA
BRANCH  20  22
ATOM     22  C   UNL A   1      32.370  26.722  25.978  1.00  0.00     0.191 A 
ATOM     23  C   UNL A   1      33.304  27.716  26.228  1.00  0.00     0.056 A 
ATOM     24  O   UNL A   1      31.316  26.865  26.837  1.00  0.00    -0.459 OA
ATOM     25  C   UNL A   1      32.813  28.483  27.309  1.00  0.00     0.043 A 
ATOM     26  C   UNL A   1      31.585  27.948  27.620  1.00  0.00     0.196 A 
ENDBRANCH  20  22
ENDBRANCH  15  20
ENDBRANCH   5   8
ENDBRANCH   3   4
ENDBRANCH   2   3
ENDBRANCH   1   2
BRANCH   1  27
ATOM     27  C   UNL A   1      39.043  21.234  25.820  1.00  0.00     0.116 C 
BRANCH  27  28
ATOM     28  N   UNL A   1      39.817  19.999  25.940  1.00  0.00    -0.352 N 
ATOM     29  C   UNL A   1      41.162  19.846  26.159  1.00  0.00     0.251 C 
ATOM     30  H   UNL A   1      39.301  19.164  25.853  1.00  0.00     0.163 HD
ATOM     31  O   UNL A   1      41.679  18.735  26.106  1.00  0.00    -0.269 OA
BRANCH  29  32
ATOM     32  C   UNL A   1      41.971  21.053  26.405  1.00  0.00     0.039 A 
ATOM     33  C   UNL A   1      42.328  21.863  25.327  1.00  0.00     0.014 A 
ATOM     34  C   UNL A   1      42.259  21.438  27.715  1.00  0.00     0.014 A 
ATOM     35  C   UNL A   1      42.902  23.107  25.578  1.00  0.00     0.010 A 
ATOM     36  C   UNL A   1      42.689  22.729  27.961  1.00  0.00     0.010 A 
ATOM     37  C   UNL A   1      43.038  23.572  26.897  1.00  0.00    -0.014 A 
BRANCH  37  38
ATOM     38  C   UNL A   1      43.549  24.929  27.196  1.00  0.00     0.031 A 
ATOM     39  C   UNL A   1      42.614  25.975  27.743  1.00  0.00     0.074 A 
ATOM     40  C   UNL A   1      44.821  25.247  26.883  1.00  0.00     0.049 A 
ATOM     41  N   UNL A   1      42.851  27.231  28.009  1.00  0.00    -0.248 NA
ATOM     42  C   UNL A   1      41.217  25.570  27.980  1.00  0.00     0.031 C 
ATOM     43  C   UNL A   1      45.790  24.350  26.247  1.00  0.00     0.029 A 
ATOM     44  N   UNL A   1      45.511  26.423  27.034  1.00  0.00    -0.354 N 
ATOM     45  C   UNL A   1      41.631  27.773  28.393  1.00  0.00     0.074 A 
ATOM     46  C   UNL A   1      40.645  26.725  28.276  1.00  0.00     0.031 C 
ATOM     47  C   UNL A   1      46.951  25.001  26.081  1.00  0.00     0.029 A 
ATOM     48  C   UNL A   1      46.801  26.370  26.560  1.00  0.00     0.049 A 
ATOM     49  H   UNL A   1      45.119  27.229  27.443  1.00  0.00     0.167 HD
ATOM     50  C   UNL A   1      41.361  29.020  28.840  1.00  0.00     0.034 A 
ATOM     51  C   UNL A   1      47.753  27.322  26.512  1.00  0.00     0.034 A 
ATOM     52  C   UNL A   1      42.358  30.039  29.005  1.00  0.00     0.049 A 
ATOM     53  C   UNL A   1      47.446  28.683  27.074  1.00  0.00     0.074 A 
ATOM     54  C   UNL A   1      42.217  31.297  29.559  1.00  0.00     0.029 A 
ATOM     55  N   UNL A   1      43.681  29.920  28.606  1.00  0.00    -0.354 N 
ATOM     56  N   UNL A   1      46.329  29.124  27.601  1.00  0.00    -0.248 NA
ATOM     57  C   UNL A   1      48.538  29.665  27.071  1.00  0.00     0.031 C 
ATOM     58  C   UNL A   1      43.447  31.956  29.457  1.00  0.00     0.029 A 
ATOM     59  C   UNL A   1      44.364  31.090  28.882  1.00  0.00     0.049 A 
ATOM     60  H   UNL A   1      44.075  29.120  28.188  1.00  0.00     0.167 HD
ATOM     61  C   UNL A   1      46.592  30.422  28.020  1.00  0.00     0.074 A 
ATOM     62  C   UNL A   1      47.982  30.686  27.707  1.00  0.00     0.031 C 
ATOM     63  C   UNL A   1      45.757  31.321  28.599  1.00  0.00     0.034 A 
BRANCH  50  64
ATOM     64  C   UNL A   1      39.937  29.334  29.220  1.00  0.00     0.023 A 
ATOM     65  C   UNL A   1      38.984  29.610  28.217  1.00  0.00     0.012 A 
ATOM     66  C   UNL A   1      39.533  29.318  30.568  1.00  0.00     0.148 A 
ATOM     67  C   UNL A   1      37.664  29.906  28.551  1.00  0.00     0.002 A 
ATOM     68  C   UNL A   1      38.203  29.561  30.891  1.00  0.00     0.091 A 
ATOM     69  F   UNL A   1      40.457  29.080  31.509  1.00  0.00    -0.205 F 
ATOM     70  C   UNL A   1      37.272  29.870  29.886  1.00  0.00     0.022 A 
BRANCH  68  71
ATOM     71  S   UNL A   1      37.580  29.455  32.571  1.00  0.00     0.127 S 
ATOM     72  O   UNL A   1      38.485  30.359  33.278  1.00  0.00    -0.237 OA
ATOM     73  O   UNL A   1      36.213  29.955  32.422  1.00  0.00    -0.237 OA
ATOM     74  O   UNL A   1      37.677  28.053  32.949  1.00  0.00    -0.744 OA
ENDBRANCH  68  71
ENDBRANCH  50  64
BRANCH  51  75
ATOM     75  C   UNL A   1      49.099  27.001  25.959  1.00  0.00     0.023 A 
ATOM     76  C   UNL A   1      50.009  26.252  26.729  1.00  0.00     0.012 A 
ATOM     77  C   UNL A   1      49.467  27.404  24.660  1.00  0.00     0.148 A 
ATOM     78  C   UNL A   1      51.275  25.938  26.230  1.00  0.00     0.002 A 
ATOM     79  C   UNL A   1      50.705  27.038  24.147  1.00  0.00     0.091 A 
ATOM     80  F   UNL A   1      48.588  28.121  23.947  1.00  0.00    -0.205 F 
ATOM     81  C   UNL A   1      51.618  26.322  24.937  1.00  0.00     0.022 A 
BRANCH  79  82
ATOM     82  S   UNL A   1      51.179  27.369  22.447  1.00  0.00     0.127 S 
ATOM     83  O   UNL A   1      50.160  26.634  21.703  1.00  0.00    -0.237 OA
ATOM     84  O   UNL A   1      51.060  28.826  22.381  1.00  0.00    -0.237 OA
ATOM     85  O   UNL A   1      52.542  26.872  22.313  1.00  0.00    -0.744 OA
ENDBRANCH  79  82
ENDBRANCH  51  75
BRANCH  63  86
ATOM     86  C   UNL A   1      46.328  32.664  28.968  1.00  0.00     0.023 A 
ATOM     87  C   UNL A   1      46.975  32.838  30.207  1.00  0.00     0.012 A 
ATOM     88  C   UNL A   1      46.285  33.733  28.052  1.00  0.00     0.148 A 
ATOM     89  C   UNL A   1      47.537  34.069  30.545  1.00  0.00     0.002 A 
ATOM     90  C   UNL A   1      46.895  34.939  28.372  1.00  0.00     0.091 A 
ATOM     91  F   UNL A   1      45.652  33.550  26.885  1.00  0.00    -0.205 F 
ATOM     92  C   UNL A   1      47.508  35.113  29.623  1.00  0.00     0.022 A 
BRANCH  90  93
ATOM     93  S   UNL A   1      46.998  36.304  27.209  1.00  0.00     0.127 S 
ATOM     94  O   UNL A   1      47.662  35.672  26.069  1.00  0.00    -0.237 OA
ATOM     95  O   UNL A   1      45.589  36.631  26.991  1.00  0.00    -0.237 OA
ATOM     96  O   UNL A   1      47.765  37.346  27.879  1.00  0.00    -0.744 OA
ENDBRANCH  90  93
ENDBRANCH  63  86
ENDBRANCH  37  38
ENDBRANCH  29  32
ENDBRANCH  27  28
ENDBRANCH   1  27
TORSDOF 17
ENDMDL
MODEL 3
REMARK VINA RESULT:     -12.0      1.992      7.850
REMARK SMILES CS(=O)(=O)N1C[C@@H]2CN(C(=O)c3ccco3)C[C@]2(C(=O)NCCCCNC(=O)c2ccc(-c3c4nc(c(-c5cccc(S(=O)(=O)[O-])c5F)c5ccc([nH]5)c(-c5cccc(S(=O)(=O)[O-])c5F)c5nc(c(-c6cccc(S(=O)(=O)[O-])c6F)c6ccc3[nH]6)C=C5)C=C4)cc2)C1
REMARK SMILES IDX 24 1 23 2 22 3 21 4 19 5 20 6 18 8 5 9 6 10 92 11 7 12 8 13
REMARK SMILES IDX 17 14 9 15 2 16 1 17 3 18 4 19 10 20 11 21 12 22 13 23 16 24
REMARK SMILES IDX 14 25 15 26 25 27 26 28 27 29 28 31 29 32 30 33 91 34 31 35
REMARK SMILES IDX 90 36 32 37 33 38 34 39 84 40 35 41 89 42 83 43 85 44 36 45
REMARK SMILES IDX 88 46 82 47 81 48 37 50 69 51 49 52 68 53 50 54 53 55 67 56
REMARK SMILES IDX 86 57 51 58 52 59 66 61 87 62 54 63 38 64 39 65 47 66 40 67
REMARK SMILES IDX 42 68 48 69 41 70 43 71 44 72 45 73 46 74 70 75 71 76 79 77
REMARK SMILES IDX 72 78 74 79 80 80 73 81 75 82 76 83 77 84 78 85 55 86 56 87
REMARK SMILES IDX 64 88 57 89 59 90 65 91 58 92 60 93 61 94 62 95 63 96
REMARK H PARENT 21 7 26 30 85 49 53 60
REMARK Flexibility Score: inf
ROOT
ATOM      1  C   UNL A   1      32.000  30.712  26.422  1.00  0.00     0.023 C 
ENDROOT
BRANCH   1   2
ATOM      2  C   UNL A   1      31.798  29.207  26.426  1.00  0.00     0.023 C 
BRANCH   2   3
ATOM      3  C   UNL A   1      33.004  28.400  25.970  1.00  0.00     0.116 C 
BRANCH   3   4
ATOM      4  N   UNL A   1      33.613  29.061  24.836  1.00  0.00    -0.356 N 
ATOM      5  C   UNL A   1      33.587  28.604  23.538  1.00  0.00     0.229 C 
ATOM      6  O   UNL A   1      34.420  29.024  22.737  1.00  0.00    -0.274 OA
ATOM      7  H   UNL A   1      34.085  29.907  25.007  1.00  0.00     0.163 HD
BRANCH   5   8
ATOM      8  C   UNL A   1      32.441  27.614  23.193  1.00  0.00     0.086 C 
ATOM      9  N   UNL A   1      30.112  28.587  23.246  1.00  0.00    -0.201 NA
ATOM     10  C   UNL A   1      29.997  27.245  22.704  1.00  0.00     0.108 C 
ATOM     11  C   UNL A   1      31.559  28.968  23.076  1.00  0.00     0.121 C 
ATOM     12  C   UNL A   1      31.395  26.963  22.206  1.00  0.00     0.042 C 
ATOM     13  C   UNL A   1      31.650  25.472  22.178  1.00  0.00     0.126 C 
ATOM     14  C   UNL A   1      33.576  26.783  22.368  1.00  0.00     0.138 C 
ATOM     15  N   UNL A   1      33.066  25.406  22.341  1.00  0.00    -0.334 N 
BRANCH   9  16
ATOM     16  S   UNL A   1      29.026  29.782  22.735  1.00  0.00     0.211 S 
ATOM     17  C   UNL A   1      27.438  29.012  22.971  1.00  0.00     0.176 C 
ATOM     18  O   UNL A   1      29.223  29.964  21.309  1.00  0.00    -0.213 OA
ATOM     19  O   UNL A   1      29.134  30.888  23.655  1.00  0.00    -0.213 OA
ENDBRANCH   9  16
BRANCH  15  20
ATOM     20  C   UNL A   1      33.622  24.181  22.711  1.00  0.00     0.289 C 
ATOM     21  O   UNL A   1      33.613  23.254  21.893  1.00  0.00    -0.265 OA
BRANCH  20  22
ATOM     22  C   UNL A   1      34.084  23.948  24.061  1.00  0.00     0.191 A 
ATOM     23  C   UNL A   1      35.369  24.064  24.572  1.00  0.00     0.056 A 
ATOM     24  O   UNL A   1      33.221  23.630  25.073  1.00  0.00    -0.459 OA
ATOM     25  C   UNL A   1      35.291  23.775  25.953  1.00  0.00     0.043 A 
ATOM     26  C   UNL A   1      33.961  23.552  26.216  1.00  0.00     0.196 A 
ENDBRANCH  20  22
ENDBRANCH  15  20
ENDBRANCH   5   8
ENDBRANCH   3   4
ENDBRANCH   2   3
ENDBRANCH   1   2
BRANCH   1  27
ATOM     27  C   UNL A   1      32.899  31.172  27.545  1.00  0.00     0.116 C 
BRANCH  27  28
ATOM     28  N   UNL A   1      33.119  32.618  27.539  1.00  0.00    -0.352 N 
ATOM     29  C   UNL A   1      34.244  33.318  27.894  1.00  0.00     0.251 C 
ATOM     30  H   UNL A   1      32.355  33.163  27.237  1.00  0.00     0.163 HD
ATOM     31  O   UNL A   1      34.222  34.542  27.953  1.00  0.00    -0.269 OA
BRANCH  29  32
ATOM     32  C   UNL A   1      35.454  32.558  28.252  1.00  0.00     0.039 A 
ATOM     33  C   UNL A   1      36.672  33.229  28.361  1.00  0.00     0.014 A 
ATOM     34  C   UNL A   1      35.347  31.211  28.602  1.00  0.00     0.014 A 
ATOM     35  C   UNL A   1      37.766  32.561  28.905  1.00  0.00     0.010 A 
ATOM     36  C   UNL A   1      36.390  30.602  29.276  1.00  0.00     0.010 A 
ATOM     37  C   UNL A   1      37.619  31.260  29.416  1.00  0.00    -0.014 A 
BRANCH  37  38
ATOM     38  C   UNL A   1      38.734  30.559  30.093  1.00  0.00     0.031 A 
ATOM     39  C   UNL A   1      39.077  30.903  31.517  1.00  0.00     0.074 A 
ATOM     40  C   UNL A   1      39.497  29.690  29.397  1.00  0.00     0.049 A 
ATOM     41  N   UNL A   1      40.051  30.450  32.261  1.00  0.00    -0.248 NA
ATOM     42  C   UNL A   1      38.247  31.924  32.181  1.00  0.00     0.031 C 
ATOM     43  C   UNL A   1      39.330  29.359  27.980  1.00  0.00     0.029 A 
ATOM     44  N   UNL A   1      40.583  28.947  29.784  1.00  0.00    -0.354 N 
ATOM     45  C   UNL A   1      39.979  31.162  33.451  1.00  0.00     0.074 A 
ATOM     46  C   UNL A   1      38.902  32.114  33.314  1.00  0.00     0.031 C 
ATOM     47  C   UNL A   1      40.266  28.466  27.623  1.00  0.00     0.029 A 
ATOM     48  C   UNL A   1      41.122  28.190  28.770  1.00  0.00     0.049 A 
ATOM     49  H   UNL A   1      40.942  28.955  30.701  1.00  0.00     0.167 HD
ATOM     50  C   UNL A   1      40.717  31.013  34.574  1.00  0.00     0.034 A 
ATOM     51  C   UNL A   1      42.191  27.372  28.766  1.00  0.00     0.034 A 
ATOM     52  C   UNL A   1      41.750  30.026  34.721  1.00  0.00     0.049 A 
ATOM     53  C   UNL A   1      42.958  27.174  30.045  1.00  0.00     0.074 A 
ATOM     54  C   UNL A   1      42.481  29.710  35.850  1.00  0.00     0.029 A 
ATOM     55  N   UNL A   1      42.206  29.205  33.702  1.00  0.00    -0.354 N 
ATOM     56  N   UNL A   1      42.761  27.728  31.218  1.00  0.00    -0.248 NA
ATOM     57  C   UNL A   1      44.069  26.214  30.014  1.00  0.00     0.031 C 
ATOM     58  C   UNL A   1      43.410  28.723  35.503  1.00  0.00     0.029 A 
ATOM     59  C   UNL A   1      43.225  28.394  34.169  1.00  0.00     0.049 A 
ATOM     60  H   UNL A   1      41.857  29.200  32.781  1.00  0.00     0.167 HD
ATOM     61  C   UNL A   1      43.700  27.162  32.070  1.00  0.00     0.074 A 
ATOM     62  C   UNL A   1      44.450  26.203  31.283  1.00  0.00     0.031 C 
ATOM     63  C   UNL A   1      43.933  27.419  33.381  1.00  0.00     0.034 A 
BRANCH  50  64
ATOM     64  C   UNL A   1      40.404  31.911  35.743  1.00  0.00     0.023 A 
ATOM     65  C   UNL A   1      41.270  32.977  36.065  1.00  0.00     0.012 A 
ATOM     66  C   UNL A   1      39.232  31.723  36.499  1.00  0.00     0.148 A 
ATOM     67  C   UNL A   1      40.997  33.814  37.145  1.00  0.00     0.002 A 
ATOM     68  C   UNL A   1      38.938  32.594  37.541  1.00  0.00     0.091 A 
ATOM     69  F   UNL A   1      38.434  30.690  36.195  1.00  0.00    -0.205 F 
ATOM     70  C   UNL A   1      39.826  33.630  37.875  1.00  0.00     0.022 A 
BRANCH  68  71
ATOM     71  S   UNL A   1      37.415  32.495  38.486  1.00  0.00     0.127 S 
ATOM     72  O   UNL A   1      36.470  33.159  37.591  1.00  0.00    -0.237 OA
ATOM     73  O   UNL A   1      37.226  31.049  38.608  1.00  0.00    -0.237 OA
ATOM     74  O   UNL A   1      37.675  33.182  39.742  1.00  0.00    -0.744 OA
ENDBRANCH  68  71
ENDBRANCH  50  64
BRANCH  51  75
ATOM     75  C   UNL A   1      42.563  26.638  27.524  1.00  0.00     0.023 A 
ATOM     76  C   UNL A   1      43.287  27.300  26.513  1.00  0.00     0.012 A 
ATOM     77  C   UNL A   1      42.235  25.279  27.355  1.00  0.00     0.148 A 
ATOM     78  C   UNL A   1      43.649  26.631  25.342  1.00  0.00     0.002 A 
ATOM     79  C   UNL A   1      42.649  24.604  26.213  1.00  0.00     0.091 A 
ATOM     80  F   UNL A   1      41.541  24.670  28.326  1.00  0.00    -0.205 F 
ATOM     81  C   UNL A   1      43.338  25.282  25.197  1.00  0.00     0.022 A 
BRANCH  79  82
ATOM     82  S   UNL A   1      42.414  22.835  26.002  1.00  0.00     0.127 S 
ATOM     83  O   UNL A   1      42.977  22.616  24.672  1.00  0.00    -0.237 OA
ATOM     84  O   UNL A   1      43.208  22.294  27.106  1.00  0.00    -0.237 OA
ATOM     85  O   UNL A   1      40.981  22.610  26.127  1.00  0.00    -0.744 OA
ENDBRANCH  79  82
ENDBRANCH  51  75
BRANCH  63  86
ATOM     86  C   UNL A   1      45.018  26.630  34.064  1.00  0.00     0.023 A 
ATOM     87  C   UNL A   1      46.358  27.058  33.984  1.00  0.00     0.012 A 
ATOM     88  C   UNL A   1      44.695  25.503  34.845  1.00  0.00     0.148 A 
ATOM     89  C   UNL A   1      47.365  26.352  34.641  1.00  0.00     0.002 A 
ATOM     90  C   UNL A   1      45.696  24.838  35.542  1.00  0.00     0.091 A 
ATOM     91  F   UNL A   1      43.416  25.104  34.895  1.00  0.00    -0.205 F 
ATOM     92  C   UNL A   1      47.033  25.253  35.429  1.00  0.00     0.022 A 
BRANCH  90  93
ATOM     93  S   UNL A   1      45.349  23.478  36.661  1.00  0.00     0.127 S 
ATOM     94  O   UNL A   1      44.556  24.140  37.696  1.00  0.00    -0.237 OA
ATOM     95  O   UNL A   1      44.595  22.559  35.808  1.00  0.00    -0.237 OA
ATOM     96  O   UNL A   1      46.645  22.973  37.096  1.00  0.00    -0.744 OA
ENDBRANCH  90  93
ENDBRANCH  63  86
ENDBRANCH  37  38
ENDBRANCH  29  32
ENDBRANCH  27  28
ENDBRANCH   1  27
TORSDOF 17
ENDMDL
