MODEL 1
REMARK VINA RESULT:     -12.9      0.000      0.000
REMARK SMILES Cc1c(CCC(=O)N2CCC(C(=O)NCCCCNC(=O)c3ccc(-c4c5nc(c(-c6cccc(S(=O)(=O)[O-])c6F)c6ccc([nH]6)c(-c6cccc(S(=O)(=O)[O-])c6F)c6nc(c(-c7cccc(S(=O)(=O)[O-])c7F)c7ccc4[nH]7)C=C6)C=C5)cc3)CC2)c(=O)oc2cc3oc4c(c3cc12)CCCC4
REMARK SMILES IDX 16 1 15 2 14 3 12 4 13 5 11 7 6 8 7 9 8 10 9 11 86 12 10 13
REMARK SMILES IDX 85 14 5 15 4 16 3 17 1 18 2 19 98 20 87 21 90 22 97 23 88 24
REMARK SMILES IDX 89 25 91 26 96 27 92 28 95 29 93 30 94 31 99 32 102 33
REMARK SMILES IDX 100 34 101 35 17 36 18 37 19 38 20 39 21 41 22 42 23 43
REMARK SMILES IDX 84 44 24 45 83 46 25 47 26 48 27 49 77 50 28 51 82 52 76 53
REMARK SMILES IDX 78 54 29 55 81 56 75 57 74 58 30 60 62 61 42 62 61 63 43 64
REMARK SMILES IDX 46 65 60 66 79 67 44 68 45 69 59 71 80 72 47 73 31 74 32 75
REMARK SMILES IDX 40 76 33 77 35 78 41 79 34 80 36 81 37 82 38 83 39 84 63 85
REMARK SMILES IDX 64 86 72 87 65 88 67 89 73 90 66 91 68 92 69 93 70 94 71 95
REMARK SMILES IDX 48 96 49 97 57 98 50 99 52 100 58 101 51 102 53 103 54 104
REMARK SMILES IDX 55 105 56 106
REMARK H PARENT 14 6 19 40 78 59 46 70
REMARK Flexibility Score: inf
ROOT
ATOM      1  C   UNL A   1      44.826  27.369  28.069  1.00  0.00     0.023 C 
ENDROOT
BRANCH   1   2
ATOM      2  C   UNL A   1      43.776  26.909  29.067  1.00  0.00     0.116 C 
BRANCH   2   3
ATOM      3  N   UNL A   1      44.151  25.628  29.637  1.00  0.00    -0.356 N 
ATOM      4  C   UNL A   1      43.781  24.367  29.311  1.00  0.00     0.223 C 
ATOM      5  O   UNL A   1      44.193  23.447  30.024  1.00  0.00    -0.275 OA
ATOM      6  H   UNL A   1      44.782  25.686  30.391  1.00  0.00     0.163 HD
BRANCH   4   7
ATOM      7  C   UNL A   1      43.092  24.056  27.993  1.00  0.00     0.082 C 
ATOM      8  C   UNL A   1      40.769  21.246  26.288  1.00  0.00     0.222 C 
ATOM      9  O   UNL A   1      41.434  20.211  26.238  1.00  0.00    -0.275 OA
ATOM     10  N   UNL A   1      41.366  22.509  26.252  1.00  0.00    -0.343 N 
ATOM     11  C   UNL A   1      42.769  22.724  25.821  1.00  0.00     0.120 C 
ATOM     12  C   UNL A   1      40.863  23.562  27.100  1.00  0.00     0.120 C 
ATOM     13  C   UNL A   1      43.756  23.172  26.939  1.00  0.00     0.035 C 
ATOM     14  C   UNL A   1      41.736  23.478  28.336  1.00  0.00     0.035 C 
BRANCH   8  15
ATOM     15  C   UNL A   1      39.218  21.175  26.277  1.00  0.00     0.105 C 
BRANCH  15  16
ATOM     16  C   UNL A   1      38.431  21.917  25.164  1.00  0.00     0.053 C 
BRANCH  16  17
ATOM     17  C   UNL A   1      36.997  22.240  25.544  1.00  0.00     0.042 A 
ATOM     18  C   UNL A   1      37.487  24.493  26.595  1.00  0.00     0.046 C 
ATOM     19  C   UNL A   1      36.608  23.446  25.975  1.00  0.00    -0.030 A 
ATOM     20  C   UNL A   1      35.193  23.730  25.816  1.00  0.00     0.022 A 
ATOM     21  C   UNL A   1      35.942  21.165  25.584  1.00  0.00     0.339 A 
ATOM     22  C   UNL A   1      34.283  22.809  26.268  1.00  0.00     0.142 A 
ATOM     23  C   UNL A   1      34.720  24.859  25.183  1.00  0.00     0.024 A 
ATOM     24  O   UNL A   1      36.162  20.038  25.154  1.00  0.00    -0.246 OA
ATOM     25  O   UNL A   1      34.738  21.472  26.288  1.00  0.00    -0.422 OA
ATOM     26  C   UNL A   1      32.974  23.197  26.619  1.00  0.00     0.095 A 
ATOM     27  C   UNL A   1      33.467  25.326  25.523  1.00  0.00     0.025 A 
ATOM     28  C   UNL A   1      32.678  24.548  26.356  1.00  0.00     0.138 A 
ATOM     29  C   UNL A   1      32.896  26.602  25.401  1.00  0.00     0.001 A 
ATOM     30  O   UNL A   1      31.714  25.367  26.908  1.00  0.00    -0.461 OA
ATOM     31  C   UNL A   1      31.985  26.624  26.431  1.00  0.00     0.108 A 
ATOM     32  C   UNL A   1      33.480  27.856  24.843  1.00  0.00     0.040 C 
ATOM     33  C   UNL A   1      31.794  27.850  27.254  1.00  0.00     0.076 C 
ATOM     34  C   UNL A   1      33.891  28.802  25.987  1.00  0.00     0.005 C 
ATOM     35  C   UNL A   1      33.199  28.525  27.352  1.00  0.00     0.008 C 
ENDBRANCH  16  17
ENDBRANCH  15  16
ENDBRANCH   8  15
ENDBRANCH   4   7
ENDBRANCH   2   3
ENDBRANCH   1   2
BRANCH   1  36
ATOM     36  C   UNL A   1      44.546  28.762  27.510  1.00  0.00     0.023 C 
BRANCH  36  37
ATOM     37  C   UNL A   1      43.153  28.904  26.896  1.00  0.00     0.116 C 
BRANCH  37  38
ATOM     38  N   UNL A   1      42.822  27.843  25.956  1.00  0.00    -0.352 N 
ATOM     39  C   UNL A   1      41.624  27.153  25.838  1.00  0.00     0.251 C 
ATOM     40  H   UNL A   1      43.535  27.582  25.328  1.00  0.00     0.163 HD
ATOM     41  O   UNL A   1      41.475  26.263  25.034  1.00  0.00    -0.269 OA
BRANCH  39  42
ATOM     42  C   UNL A   1      40.549  27.556  26.770  1.00  0.00     0.039 A 
ATOM     43  C   UNL A   1      40.039  28.852  26.667  1.00  0.00     0.014 A 
ATOM     44  C   UNL A   1      40.304  26.758  27.890  1.00  0.00     0.014 A 
ATOM     45  C   UNL A   1      39.455  29.428  27.783  1.00  0.00     0.010 A 
ATOM     46  C   UNL A   1      39.669  27.325  28.991  1.00  0.00     0.010 A 
ATOM     47  C   UNL A   1      39.324  28.682  28.963  1.00  0.00    -0.014 A 
BRANCH  47  48
ATOM     48  C   UNL A   1      38.822  29.413  30.134  1.00  0.00     0.031 A 
ATOM     49  C   UNL A   1      39.294  28.845  31.427  1.00  0.00     0.074 A 
ATOM     50  C   UNL A   1      38.548  30.733  30.072  1.00  0.00     0.049 A 
ATOM     51  N   UNL A   1      40.456  29.125  31.936  1.00  0.00    -0.248 NA
ATOM     52  C   UNL A   1      38.618  27.716  32.064  1.00  0.00     0.031 C 
ATOM     53  C   UNL A   1      39.327  31.712  29.300  1.00  0.00     0.029 A 
ATOM     54  N   UNL A   1      37.710  31.503  30.847  1.00  0.00    -0.354 N 
ATOM     55  C   UNL A   1      40.711  28.173  32.905  1.00  0.00     0.074 A 
ATOM     56  C   UNL A   1      39.538  27.328  32.961  1.00  0.00     0.031 C 
ATOM     57  C   UNL A   1      39.062  32.946  29.773  1.00  0.00     0.029 A 
ATOM     58  C   UNL A   1      37.992  32.865  30.761  1.00  0.00     0.049 A 
ATOM     59  H   UNL A   1      36.989  31.130  31.404  1.00  0.00     0.167 HD
ATOM     60  C   UNL A   1      41.877  28.124  33.601  1.00  0.00     0.034 A 
ATOM     61  C   UNL A   1      37.779  33.757  31.767  1.00  0.00     0.034 A 
ATOM     62  C   UNL A   1      42.817  29.164  33.298  1.00  0.00     0.049 A 
ATOM     63  C   UNL A   1      38.927  33.428  32.686  1.00  0.00     0.074 A 
ATOM     64  C   UNL A   1      43.923  29.311  32.492  1.00  0.00     0.029 A 
ATOM     65  N   UNL A   1      42.586  30.415  33.821  1.00  0.00    -0.354 N 
ATOM     66  N   UNL A   1      40.164  33.823  32.519  1.00  0.00    -0.248 NA
ATOM     67  C   UNL A   1      38.775  32.290  33.595  1.00  0.00     0.031 C 
ATOM     68  C   UNL A   1      44.039  30.716  32.248  1.00  0.00     0.029 A 
ATOM     69  C   UNL A   1      42.964  31.339  32.880  1.00  0.00     0.049 A 
ATOM     70  H   UNL A   1      42.217  30.612  34.712  1.00  0.00     0.167 HD
ATOM     71  C   UNL A   1      40.952  32.781  33.019  1.00  0.00     0.074 A 
ATOM     72  C   UNL A   1      40.036  31.897  33.711  1.00  0.00     0.031 C 
ATOM     73  C   UNL A   1      42.261  32.590  32.679  1.00  0.00     0.034 A 
BRANCH  60  74
ATOM     74  C   UNL A   1      42.132  27.195  34.723  1.00  0.00     0.023 A 
ATOM     75  C   UNL A   1      41.562  27.538  35.965  1.00  0.00     0.012 A 
ATOM     76  C   UNL A   1      43.023  26.111  34.644  1.00  0.00     0.148 A 
ATOM     77  C   UNL A   1      41.903  26.849  37.123  1.00  0.00     0.002 A 
ATOM     78  C   UNL A   1      43.355  25.419  35.807  1.00  0.00     0.091 A 
ATOM     79  F   UNL A   1      43.564  25.806  33.457  1.00  0.00    -0.205 F 
ATOM     80  C   UNL A   1      42.805  25.794  37.047  1.00  0.00     0.022 A 
BRANCH  78  81
ATOM     81  S   UNL A   1      44.497  24.032  35.826  1.00  0.00     0.127 S 
ATOM     82  O   UNL A   1      44.711  23.833  37.258  1.00  0.00    -0.237 OA
ATOM     83  O   UNL A   1      43.714  22.980  35.175  1.00  0.00    -0.237 OA
ATOM     84  O   UNL A   1      45.660  24.468  35.065  1.00  0.00    -0.744 OA
ENDBRANCH  78  81
ENDBRANCH  60  74
BRANCH  61  85
ATOM     85  C   UNL A   1      36.339  33.888  32.158  1.00  0.00     0.023 A 
ATOM     86  C   UNL A   1      36.014  33.436  33.463  1.00  0.00     0.012 A 
ATOM     87  C   UNL A   1      35.303  34.451  31.395  1.00  0.00     0.148 A 
ATOM     88  C   UNL A   1      34.752  33.635  34.025  1.00  0.00     0.002 A 
ATOM     89  C   UNL A   1      34.062  34.706  31.979  1.00  0.00     0.091 A 
ATOM     90  F   UNL A   1      35.521  34.742  30.108  1.00  0.00    -0.205 F 
ATOM     91  C   UNL A   1      33.783  34.301  33.292  1.00  0.00     0.022 A 
BRANCH  89  92
ATOM     92  S   UNL A   1      32.782  35.655  31.145  1.00  0.00     0.127 S 
ATOM     93  O   UNL A   1      31.701  35.646  32.128  1.00  0.00    -0.237 OA
ATOM     94  O   UNL A   1      33.450  36.944  30.972  1.00  0.00    -0.237 OA
ATOM     95  O   UNL A   1      32.498  34.934  29.911  1.00  0.00    -0.744 OA
ENDBRANCH  89  92
ENDBRANCH  61  85
BRANCH  73  96
ATOM     96  C   UNL A   1      42.905  33.680  31.877  1.00  0.00     0.023 A 
ATOM     97  C   UNL A   1      43.416  34.803  32.554  1.00  0.00     0.012 A 
ATOM     98  C   UNL A   1      43.083  33.581  30.482  1.00  0.00     0.148 A 
ATOM     99  C   UNL A   1      44.117  35.793  31.868  1.00  0.00     0.002 A 
ATOM    100  C   UNL A   1      43.824  34.547  29.809  1.00  0.00     0.091 A 
ATOM    101  F   UNL A   1      42.542  32.540  29.832  1.00  0.00    -0.205 F 
ATOM    102  C   UNL A   1      44.338  35.656  30.500  1.00  0.00     0.022 A 
BRANCH 100 103
ATOM    103  S   UNL A   1      44.231  34.422  28.064  1.00  0.00     0.127 S 
ATOM    104  O   UNL A   1      43.401  35.476  27.478  1.00  0.00    -0.237 OA
ATOM    105  O   UNL A   1      45.665  34.710  28.068  1.00  0.00    -0.237 OA
ATOM    106  O   UNL A   1      43.876  33.070  27.653  1.00  0.00    -0.744 OA
ENDBRANCH 100 103
ENDBRANCH  73  96
ENDBRANCH  47  48
ENDBRANCH  39  42
ENDBRANCH  37  38
ENDBRANCH  36  37
ENDBRANCH   1  36
TORSDOF 17
ENDMDL
MODEL 2
REMARK VINA RESULT:     -12.6      1.810      2.756
REMARK SMILES Cc1c(CCC(=O)N2CCC(C(=O)NCCCCNC(=O)c3ccc(-c4c5nc(c(-c6cccc(S(=O)(=O)[O-])c6F)c6ccc([nH]6)c(-c6cccc(S(=O)(=O)[O-])c6F)c6nc(c(-c7cccc(S(=O)(=O)[O-])c7F)c7ccc4[nH]7)C=C6)C=C5)cc3)CC2)c(=O)oc2cc3oc4c(c3cc12)CCCC4
REMARK SMILES IDX 16 1 15 2 14 3 12 4 13 5 11 7 6 8 7 9 8 10 9 11 86 12 10 13
REMARK SMILES IDX 85 14 5 15 4 16 3 17 1 18 2 19 98 20 87 21 90 22 97 23 88 24
REMARK SMILES IDX 89 25 91 26 96 27 92 28 95 29 93 30 94 31 99 32 102 33
REMARK SMILES IDX 100 34 101 35 17 36 18 37 19 38 20 39 21 41 22 42 23 43
REMARK SMILES IDX 84 44 24 45 83 46 25 47 26 48 27 49 77 50 28 51 82 52 76 53
REMARK SMILES IDX 78 54 29 55 81 56 75 57 74 58 30 60 62 61 42 62 61 63 43 64
REMARK SMILES IDX 46 65 60 66 79 67 44 68 45 69 59 71 80 72 47 73 31 74 32 75
REMARK SMILES IDX 40 76 33 77 35 78 41 79 34 80 36 81 37 82 38 83 39 84 63 85
REMARK SMILES IDX 64 86 72 87 65 88 67 89 73 90 66 91 68 92 69 93 70 94 71 95
REMARK SMILES IDX 48 96 49 97 57 98 50 99 52 100 58 101 51 102 53 103 54 104
REMARK SMILES IDX 55 105 56 106
REMARK H PARENT 14 6 19 40 78 59 46 70
REMARK Flexibility Score: inf
ROOT
ATOM      1  C   UNL A   1      44.996  27.860  28.312  1.00  0.00     0.023 C 
ENDROOT
BRANCH   1   2
ATOM      2  C   UNL A   1      43.901  27.591  29.332  1.00  0.00     0.116 C 
BRANCH   2   3
ATOM      3  N   UNL A   1      44.272  26.481  30.189  1.00  0.00    -0.356 N 
ATOM      4  C   UNL A   1      44.278  25.146  29.963  1.00  0.00     0.223 C 
ATOM      5  O   UNL A   1      44.567  24.406  30.908  1.00  0.00    -0.275 OA
ATOM      6  H   UNL A   1      44.571  26.743  31.089  1.00  0.00     0.163 HD
BRANCH   4   7
ATOM      7  C   UNL A   1      44.173  24.576  28.558  1.00  0.00     0.082 C 
ATOM      8  C   UNL A   1      42.388  21.584  26.543  1.00  0.00     0.222 C 
ATOM      9  O   UNL A   1      42.844  20.530  26.987  1.00  0.00    -0.275 OA
ATOM     10  N   UNL A   1      43.131  22.768  26.546  1.00  0.00    -0.343 N 
ATOM     11  C   UNL A   1      44.598  22.796  26.757  1.00  0.00     0.120 C 
ATOM     12  C   UNL A   1      42.485  24.016  26.871  1.00  0.00     0.120 C 
ATOM     13  C   UNL A   1      45.076  23.436  28.094  1.00  0.00     0.035 C 
ATOM     14  C   UNL A   1      42.728  24.172  28.358  1.00  0.00     0.035 C 
BRANCH   8  15
ATOM     15  C   UNL A   1      40.997  21.601  25.853  1.00  0.00     0.105 C 
BRANCH  15  16
ATOM     16  C   UNL A   1      39.716  21.630  26.727  1.00  0.00     0.053 C 
BRANCH  16  17
ATOM     17  C   UNL A   1      38.472  22.065  25.972  1.00  0.00     0.042 A 
ATOM     18  C   UNL A   1      38.066  19.853  24.805  1.00  0.00     0.046 C 
ATOM     19  C   UNL A   1      37.680  21.211  25.314  1.00  0.00    -0.030 A 
ATOM     20  C   UNL A   1      36.323  21.679  25.087  1.00  0.00     0.022 A 
ATOM     21  C   UNL A   1      38.132  23.524  25.807  1.00  0.00     0.339 A 
ATOM     22  C   UNL A   1      36.142  22.926  24.542  1.00  0.00     0.142 A 
ATOM     23  C   UNL A   1      35.208  20.952  25.442  1.00  0.00     0.024 A 
ATOM     24  O   UNL A   1      38.747  24.396  26.413  1.00  0.00    -0.246 OA
ATOM     25  O   UNL A   1      37.177  23.851  24.799  1.00  0.00    -0.422 OA
ATOM     26  C   UNL A   1      34.963  23.241  23.838  1.00  0.00     0.095 A 
ATOM     27  C   UNL A   1      34.034  21.172  24.751  1.00  0.00     0.025 A 
ATOM     28  C   UNL A   1      33.986  22.227  23.852  1.00  0.00     0.138 A 
ATOM     29  C   UNL A   1      32.905  20.359  24.573  1.00  0.00     0.001 A 
ATOM     30  O   UNL A   1      32.938  21.994  22.986  1.00  0.00    -0.461 OA
ATOM     31  C   UNL A   1      32.420  20.780  23.357  1.00  0.00     0.108 A 
ATOM     32  C   UNL A   1      32.625  18.991  25.098  1.00  0.00     0.040 C 
ATOM     33  C   UNL A   1      31.888  19.802  22.368  1.00  0.00     0.076 C 
ATOM     34  C   UNL A   1      32.818  17.947  23.983  1.00  0.00     0.005 C 
ATOM     35  C   UNL A   1      32.751  18.510  22.534  1.00  0.00     0.008 C 
ENDBRANCH  16  17
ENDBRANCH  15  16
ENDBRANCH   8  15
ENDBRANCH   4   7
ENDBRANCH   2   3
ENDBRANCH   1   2
BRANCH   1  36
ATOM     36  C   UNL A   1      44.690  29.054  27.411  1.00  0.00     0.023 C 
BRANCH  36  37
ATOM     37  C   UNL A   1      43.218  29.158  27.014  1.00  0.00     0.116 C 
BRANCH  37  38
ATOM     38  N   UNL A   1      42.817  28.181  26.011  1.00  0.00    -0.352 N 
ATOM     39  C   UNL A   1      41.605  27.515  25.909  1.00  0.00     0.251 C 
ATOM     40  H   UNL A   1      43.488  27.967  25.322  1.00  0.00     0.163 HD
ATOM     41  O   UNL A   1      41.396  26.695  25.046  1.00  0.00    -0.269 OA
BRANCH  39  42
ATOM     42  C   UNL A   1      40.593  27.848  26.935  1.00  0.00     0.039 A 
ATOM     43  C   UNL A   1      39.969  29.096  26.862  1.00  0.00     0.014 A 
ATOM     44  C   UNL A   1      40.521  27.058  28.084  1.00  0.00     0.014 A 
ATOM     45  C   UNL A   1      39.447  29.647  28.021  1.00  0.00     0.010 A 
ATOM     46  C   UNL A   1      39.948  27.596  29.232  1.00  0.00     0.010 A 
ATOM     47  C   UNL A   1      39.490  28.919  29.218  1.00  0.00    -0.014 A 
BRANCH  47  48
ATOM     48  C   UNL A   1      39.041  29.632  30.421  1.00  0.00     0.031 A 
ATOM     49  C   UNL A   1      39.522  29.011  31.686  1.00  0.00     0.074 A 
ATOM     50  C   UNL A   1      38.812  30.963  30.404  1.00  0.00     0.049 A 
ATOM     51  N   UNL A   1      40.705  29.235  32.174  1.00  0.00    -0.248 NA
ATOM     52  C   UNL A   1      38.822  27.887  32.307  1.00  0.00     0.031 C 
ATOM     53  C   UNL A   1      39.607  31.936  29.641  1.00  0.00     0.029 A 
ATOM     54  N   UNL A   1      38.020  31.737  31.220  1.00  0.00    -0.354 N 
ATOM     55  C   UNL A   1      40.948  28.247  33.109  1.00  0.00     0.074 A 
ATOM     56  C   UNL A   1      39.748  27.442  33.169  1.00  0.00     0.031 C 
ATOM     57  C   UNL A   1      39.396  33.164  30.156  1.00  0.00     0.029 A 
ATOM     58  C   UNL A   1      38.347  33.091  31.166  1.00  0.00     0.049 A 
ATOM     59  H   UNL A   1      37.299  31.374  31.783  1.00  0.00     0.167 HD
ATOM     60  C   UNL A   1      42.128  28.137  33.776  1.00  0.00     0.034 A 
ATOM     61  C   UNL A   1      38.190  33.960  32.203  1.00  0.00     0.034 A 
ATOM     62  C   UNL A   1      43.096  29.153  33.479  1.00  0.00     0.049 A 
ATOM     63  C   UNL A   1      39.346  33.564  33.084  1.00  0.00     0.074 A 
ATOM     64  C   UNL A   1      44.188  29.285  32.652  1.00  0.00     0.029 A 
ATOM     65  N   UNL A   1      42.922  30.395  34.044  1.00  0.00    -0.354 N 
ATOM     66  N   UNL A   1      40.592  33.921  32.898  1.00  0.00    -0.248 NA
ATOM     67  C   UNL A   1      39.176  32.407  33.963  1.00  0.00     0.031 C 
ATOM     68  C   UNL A   1      44.348  30.692  32.445  1.00  0.00     0.029 A 
ATOM     69  C   UNL A   1      43.311  31.333  33.120  1.00  0.00     0.049 A 
ATOM     70  H   UNL A   1      42.581  30.579  34.948  1.00  0.00     0.167 HD
ATOM     71  C   UNL A   1      41.354  32.839  33.349  1.00  0.00     0.074 A 
ATOM     72  C   UNL A   1      40.424  31.967  34.037  1.00  0.00     0.031 C 
ATOM     73  C   UNL A   1      42.647  32.613  32.972  1.00  0.00     0.034 A 
BRANCH  60  74
ATOM     74  C   UNL A   1      42.376  27.167  34.864  1.00  0.00     0.023 A 
ATOM     75  C   UNL A   1      41.892  27.517  36.140  1.00  0.00     0.012 A 
ATOM     76  C   UNL A   1      43.189  26.030  34.718  1.00  0.00     0.148 A 
ATOM     77  C   UNL A   1      42.243  26.780  37.265  1.00  0.00     0.002 A 
ATOM     78  C   UNL A   1      43.531  25.291  35.849  1.00  0.00     0.091 A 
ATOM     79  F   UNL A   1      43.649  25.719  33.498  1.00  0.00    -0.205 F 
ATOM     80  C   UNL A   1      43.068  25.671  37.121  1.00  0.00     0.022 A 
BRANCH  78  81
ATOM     81  S   UNL A   1      44.579  23.833  35.781  1.00  0.00     0.127 S 
ATOM     82  O   UNL A   1      44.845  23.583  37.196  1.00  0.00    -0.237 OA
ATOM     83  O   UNL A   1      43.698  22.850  35.145  1.00  0.00    -0.237 OA
ATOM     84  O   UNL A   1      45.731  24.212  34.975  1.00  0.00    -0.744 OA
ENDBRANCH  78  81
ENDBRANCH  60  74
BRANCH  61  85
ATOM     85  C   UNL A   1      36.764  34.129  32.631  1.00  0.00     0.023 A 
ATOM     86  C   UNL A   1      36.520  33.982  34.022  1.00  0.00     0.012 A 
ATOM     87  C   UNL A   1      35.669  34.463  31.817  1.00  0.00     0.148 A 
ATOM     88  C   UNL A   1      35.278  34.263  34.592  1.00  0.00     0.002 A 
ATOM     89  C   UNL A   1      34.446  34.804  32.395  1.00  0.00     0.091 A 
ATOM     90  F   UNL A   1      35.815  34.454  30.489  1.00  0.00    -0.205 F 
ATOM     91  C   UNL A   1      34.246  34.707  33.780  1.00  0.00     0.022 A 
BRANCH  89  92
ATOM     92  S   UNL A   1      33.087  35.490  31.436  1.00  0.00     0.127 S 
ATOM     93  O   UNL A   1      33.049  34.600  30.277  1.00  0.00    -0.237 OA
ATOM     94  O   UNL A   1      31.973  35.337  32.369  1.00  0.00    -0.237 OA
ATOM     95  O   UNL A   1      33.467  36.865  31.143  1.00  0.00    -0.744 OA
ENDBRANCH  89  92
ENDBRANCH  61  85
BRANCH  73  96
ATOM     96  C   UNL A   1      43.311  33.703  32.186  1.00  0.00     0.023 A 
ATOM     97  C   UNL A   1      43.975  34.728  32.884  1.00  0.00     0.012 A 
ATOM     98  C   UNL A   1      43.356  33.692  30.777  1.00  0.00     0.148 A 
ATOM     99  C   UNL A   1      44.695  35.707  32.202  1.00  0.00     0.002 A 
ATOM    100  C   UNL A   1      44.116  34.642  30.103  1.00  0.00     0.091 A 
ATOM    101  F   UNL A   1      42.672  32.748  30.114  1.00  0.00    -0.205 F 
ATOM    102  C   UNL A   1      44.783  35.652  30.813  1.00  0.00     0.022 A 
BRANCH 100 103
ATOM    103  S   UNL A   1      44.356  34.612  28.322  1.00  0.00     0.127 S 
ATOM    104  O   UNL A   1      44.961  33.296  28.115  1.00  0.00    -0.237 OA
ATOM    105  O   UNL A   1      42.984  34.734  27.831  1.00  0.00    -0.237 OA
ATOM    106  O   UNL A   1      45.226  35.737  28.005  1.00  0.00    -0.744 OA
ENDBRANCH 100 103
ENDBRANCH  73  96
ENDBRANCH  47  48
ENDBRANCH  39  42
ENDBRANCH  37  38
ENDBRANCH  36  37
ENDBRANCH   1  36
TORSDOF 17
ENDMDL
MODEL 3
REMARK VINA RESULT:     -12.1      4.182     11.867
REMARK SMILES Cc1c(CCC(=O)N2CCC(C(=O)NCCCCNC(=O)c3ccc(-c4c5nc(c(-c6cccc(S(=O)(=O)[O-])c6F)c6ccc([nH]6)c(-c6cccc(S(=O)(=O)[O-])c6F)c6nc(c(-c7cccc(S(=O)(=O)[O-])c7F)c7ccc4[nH]7)C=C6)C=C5)cc3)CC2)c(=O)oc2cc3oc4c(c3cc12)CCCC4
REMARK SMILES IDX 16 1 15 2 14 3 12 4 13 5 11 7 6 8 7 9 8 10 9 11 86 12 10 13
REMARK SMILES IDX 85 14 5 15 4 16 3 17 1 18 2 19 98 20 87 21 90 22 97 23 88 24
REMARK SMILES IDX 89 25 91 26 96 27 92 28 95 29 93 30 94 31 99 32 102 33
REMARK SMILES IDX 100 34 101 35 17 36 18 37 19 38 20 39 21 41 22 42 23 43
REMARK SMILES IDX 84 44 24 45 83 46 25 47 26 48 27 49 77 50 28 51 82 52 76 53
REMARK SMILES IDX 78 54 29 55 81 56 75 57 74 58 30 60 62 61 42 62 61 63 43 64
REMARK SMILES IDX 46 65 60 66 79 67 44 68 45 69 59 71 80 72 47 73 31 74 32 75
REMARK SMILES IDX 40 76 33 77 35 78 41 79 34 80 36 81 37 82 38 83 39 84 63 85
REMARK SMILES IDX 64 86 72 87 65 88 67 89 73 90 66 91 68 92 69 93 70 94 71 95
REMARK SMILES IDX 48 96 49 97 57 98 50 99 52 100 58 101 51 102 53 103 54 104
REMARK SMILES IDX 55 105 56 106
REMARK H PARENT 14 6 19 40 78 59 46 70
REMARK Flexibility Score: inf
ROOT
ATOM      1  C   UNL A   1      41.844  28.177  36.248  1.00  0.00     0.023 C 
ENDROOT
BRANCH   1   2
ATOM      2  C   UNL A   1      41.346  29.546  35.813  1.00  0.00     0.116 C 
BRANCH   2   3
ATOM      3  N   UNL A   1      39.921  29.666  36.062  1.00  0.00    -0.356 N 
ATOM      4  C   UNL A   1      39.130  30.757  36.194  1.00  0.00     0.223 C 
ATOM      5  O   UNL A   1      37.945  30.573  36.489  1.00  0.00    -0.275 OA
ATOM      6  H   UNL A   1      39.449  28.807  36.151  1.00  0.00     0.163 HD
BRANCH   4   7
ATOM      7  C   UNL A   1      39.600  32.137  35.767  1.00  0.00     0.082 C 
ATOM      8  C   UNL A   1      42.176  33.893  33.221  1.00  0.00     0.222 C 
ATOM      9  O   UNL A   1      43.309  33.565  33.573  1.00  0.00    -0.275 OA
ATOM     10  N   UNL A   1      41.118  33.986  34.131  1.00  0.00    -0.343 N 
ATOM     11  C   UNL A   1      41.323  34.034  35.598  1.00  0.00     0.120 C 
ATOM     12  C   UNL A   1      39.807  33.519  33.753  1.00  0.00     0.120 C 
ATOM     13  C   UNL A   1      40.836  32.783  36.388  1.00  0.00     0.035 C 
ATOM     14  C   UNL A   1      39.771  32.093  34.264  1.00  0.00     0.035 C 
BRANCH   8  15
ATOM     15  C   UNL A   1      41.912  34.329  31.755  1.00  0.00     0.105 C 
BRANCH  15  16
ATOM     16  C   UNL A   1      42.932  33.943  30.651  1.00  0.00     0.053 C 
BRANCH  16  17
ATOM     17  C   UNL A   1      43.664  35.132  30.054  1.00  0.00     0.042 A 
ATOM     18  C   UNL A   1      42.030  35.544  28.162  1.00  0.00     0.046 C 
ATOM     19  C   UNL A   1      43.137  35.915  29.106  1.00  0.00    -0.030 A 
ATOM     20  C   UNL A   1      43.719  37.242  29.009  1.00  0.00     0.022 A 
ATOM     21  C   UNL A   1      45.102  35.417  30.406  1.00  0.00     0.339 A 
ATOM     22  C   UNL A   1      45.084  37.357  28.936  1.00  0.00     0.142 A 
ATOM     23  C   UNL A   1      42.967  38.397  29.040  1.00  0.00     0.024 A 
ATOM     24  O   UNL A   1      45.673  34.808  31.304  1.00  0.00    -0.246 OA
ATOM     25  O   UNL A   1      45.809  36.309  29.544  1.00  0.00    -0.422 OA
ATOM     26  C   UNL A   1      45.684  38.487  28.346  1.00  0.00     0.095 A 
ATOM     27  C   UNL A   1      43.472  39.525  28.429  1.00  0.00     0.025 A 
ATOM     28  C   UNL A   1      44.778  39.494  27.963  1.00  0.00     0.138 A 
ATOM     29  C   UNL A   1      42.828  40.669  27.930  1.00  0.00     0.001 A 
ATOM     30  O   UNL A   1      44.916  40.502  27.031  1.00  0.00    -0.461 OA
ATOM     31  C   UNL A   1      43.675  41.076  26.926  1.00  0.00     0.108 A 
ATOM     32  C   UNL A   1      41.378  41.017  27.925  1.00  0.00     0.040 C 
ATOM     33  C   UNL A   1      43.136  41.585  25.635  1.00  0.00     0.076 C 
ATOM     34  C   UNL A   1      40.788  40.799  26.518  1.00  0.00     0.005 C 
ATOM     35  C   UNL A   1      41.830  40.773  25.363  1.00  0.00     0.008 C 
ENDBRANCH  16  17
ENDBRANCH  15  16
ENDBRANCH   8  15
ENDBRANCH   4   7
ENDBRANCH   2   3
ENDBRANCH   1   2
BRANCH   1  36
ATOM     36  C   UNL A   1      42.686  27.483  35.180  1.00  0.00     0.023 C 
BRANCH  36  37
ATOM     37  C   UNL A   1      42.412  25.983  35.066  1.00  0.00     0.116 C 
BRANCH  37  38
ATOM     38  N   UNL A   1      43.258  25.171  35.930  1.00  0.00    -0.352 N 
ATOM     39  C   UNL A   1      44.517  24.661  35.652  1.00  0.00     0.251 C 
ATOM     40  H   UNL A   1      42.891  24.959  36.819  1.00  0.00     0.163 HD
ATOM     41  O   UNL A   1      45.115  23.969  36.443  1.00  0.00    -0.269 OA
BRANCH  39  42
ATOM     42  C   UNL A   1      45.074  24.995  34.324  1.00  0.00     0.039 A 
ATOM     43  C   UNL A   1      45.964  26.067  34.233  1.00  0.00     0.014 A 
ATOM     44  C   UNL A   1      44.473  24.442  33.190  1.00  0.00     0.014 A 
ATOM     45  C   UNL A   1      46.090  26.726  33.021  1.00  0.00     0.010 A 
ATOM     46  C   UNL A   1      44.645  25.077  31.964  1.00  0.00     0.010 A 
ATOM     47  C   UNL A   1      45.384  26.265  31.902  1.00  0.00    -0.014 A 
BRANCH  47  48
ATOM     48  C   UNL A   1      45.469  27.102  30.697  1.00  0.00     0.031 A 
ATOM     49  C   UNL A   1      45.480  26.314  29.434  1.00  0.00     0.074 A 
ATOM     50  C   UNL A   1      44.953  28.350  30.673  1.00  0.00     0.049 A 
ATOM     51  N   UNL A   1      44.396  25.872  28.871  1.00  0.00    -0.248 NA
ATOM     52  C   UNL A   1      46.711  25.733  28.900  1.00  0.00     0.031 C 
ATOM     53  C   UNL A   1      43.712  28.753  31.349  1.00  0.00     0.029 A 
ATOM     54  N   UNL A   1      45.267  29.424  29.872  1.00  0.00    -0.354 N 
ATOM     55  C   UNL A   1      44.780  24.901  27.965  1.00  0.00     0.074 A 
ATOM     56  C   UNL A   1      46.225  24.859  28.005  1.00  0.00     0.031 C 
ATOM     57  C   UNL A   1      43.274  29.903  30.798  1.00  0.00     0.029 A 
ATOM     58  C   UNL A   1      44.268  30.395  29.852  1.00  0.00     0.049 A 
ATOM     59  H   UNL A   1      46.109  29.498  29.366  1.00  0.00     0.167 HD
ATOM     60  C   UNL A   1      43.889  24.177  27.238  1.00  0.00     0.034 A 
ATOM     61  C   UNL A   1      44.012  31.210  28.791  1.00  0.00     0.034 A 
ATOM     62  C   UNL A   1      42.511  24.522  27.438  1.00  0.00     0.049 A 
ATOM     63  C   UNL A   1      43.307  30.255  27.863  1.00  0.00     0.074 A 
ATOM     64  C   UNL A   1      41.461  24.056  28.196  1.00  0.00     0.029 A 
ATOM     65  N   UNL A   1      42.037  25.663  26.834  1.00  0.00    -0.354 N 
ATOM     66  N   UNL A   1      42.052  29.894  27.964  1.00  0.00    -0.248 NA
ATOM     67  C   UNL A   1      44.127  29.362  27.043  1.00  0.00     0.031 C 
ATOM     68  C   UNL A   1      40.565  25.162  28.337  1.00  0.00     0.029 A 
ATOM     69  C   UNL A   1      41.147  26.254  27.695  1.00  0.00     0.049 A 
ATOM     70  H   UNL A   1      42.290  25.996  25.943  1.00  0.00     0.167 HD
ATOM     71  C   UNL A   1      42.015  28.570  27.515  1.00  0.00     0.074 A 
ATOM     72  C   UNL A   1      43.311  28.324  26.917  1.00  0.00     0.031 C 
ATOM     73  C   UNL A   1      41.017  27.692  27.828  1.00  0.00     0.034 A 
BRANCH  60  74
ATOM     74  C   UNL A   1      44.270  23.219  26.178  1.00  0.00     0.023 A 
ATOM     75  C   UNL A   1      44.849  23.766  25.016  1.00  0.00     0.012 A 
ATOM     76  C   UNL A   1      43.940  21.854  26.213  1.00  0.00     0.148 A 
ATOM     77  C   UNL A   1      45.057  22.984  23.885  1.00  0.00     0.002 A 
ATOM     78  C   UNL A   1      44.158  21.074  25.078  1.00  0.00     0.091 A 
ATOM     79  F   UNL A   1      43.380  21.354  27.323  1.00  0.00    -0.205 F 
ATOM     80  C   UNL A   1      44.705  21.640  23.913  1.00  0.00     0.022 A 
BRANCH  78  81
ATOM     81  S   UNL A   1      43.755  19.324  25.004  1.00  0.00     0.127 S 
ATOM     82  O   UNL A   1      42.324  19.329  25.297  1.00  0.00    -0.237 OA
ATOM     83  O   UNL A   1      44.092  18.989  23.619  1.00  0.00    -0.237 OA
ATOM     84  O   UNL A   1      44.605  18.682  25.997  1.00  0.00    -0.744 OA
ENDBRANCH  78  81
ENDBRANCH  60  74
BRANCH  61  85
ATOM     85  C   UNL A   1      45.156  32.110  28.437  1.00  0.00     0.023 A 
ATOM     86  C   UNL A   1      46.344  31.917  29.189  1.00  0.00     0.012 A 
ATOM     87  C   UNL A   1      45.188  33.077  27.419  1.00  0.00     0.148 A 
ATOM     88  C   UNL A   1      47.537  32.568  28.872  1.00  0.00     0.002 A 
ATOM     89  C   UNL A   1      46.395  33.679  27.063  1.00  0.00     0.091 A 
ATOM     90  F   UNL A   1      44.053  33.407  26.794  1.00  0.00    -0.205 F 
ATOM     91  C   UNL A   1      47.570  33.428  27.786  1.00  0.00     0.022 A 
BRANCH  89  92
ATOM     92  S   UNL A   1      46.558  34.723  25.608  1.00  0.00     0.127 S 
ATOM     93  O   UNL A   1      46.204  36.041  26.133  1.00  0.00    -0.237 OA
ATOM     94  O   UNL A   1      47.972  34.545  25.285  1.00  0.00    -0.237 OA
ATOM     95  O   UNL A   1      45.625  34.181  24.628  1.00  0.00    -0.744 OA
ENDBRANCH  89  92
ENDBRANCH  61  85
BRANCH  73  96
ATOM     96  C   UNL A   1      39.822  28.264  28.530  1.00  0.00     0.023 A 
ATOM     97  C   UNL A   1      38.761  28.764  27.754  1.00  0.00     0.012 A 
ATOM     98  C   UNL A   1      39.698  28.247  29.934  1.00  0.00     0.148 A 
ATOM     99  C   UNL A   1      37.585  29.210  28.355  1.00  0.00     0.002 A 
ATOM    100  C   UNL A   1      38.505  28.648  30.527  1.00  0.00     0.091 A 
ATOM    101  F   UNL A   1      40.736  27.826  30.672  1.00  0.00    -0.205 F 
ATOM    102  C   UNL A   1      37.450  29.134  29.739  1.00  0.00     0.022 A 
BRANCH 100 103
ATOM    103  S   UNL A   1      38.202  28.516  32.293  1.00  0.00     0.127 S 
ATOM    104  O   UNL A   1      36.883  29.136  32.426  1.00  0.00    -0.237 OA
ATOM    105  O   UNL A   1      38.215  27.066  32.492  1.00  0.00    -0.237 OA
ATOM    106  O   UNL A   1      39.282  29.238  32.952  1.00  0.00    -0.744 OA
ENDBRANCH 100 103
ENDBRANCH  73  96
ENDBRANCH  47  48
ENDBRANCH  39  42
ENDBRANCH  37  38
ENDBRANCH  36  37
ENDBRANCH   1  36
TORSDOF 17
ENDMDL
