MODEL 1
REMARK VINA RESULT:     -11.9      0.000      0.000
REMARK SMILES C[C@](NC(=O)[C@](C)([NH3+])C(F)(F)F)(C(=O)NCCCCNC(=O)c1ccc(-c2c3nc(c(-c4cccc(S(=O)(=O)[O-])c4F)c4ccc([nH]4)c(-c4cccc(S(=O)(=O)[O-])c4F)c4nc(c(-c5cccc(S(=O)(=O)[O-])c5F)c5ccc2[nH]5)C=C4)C=C3)cc1)c1ccccc1
REMARK SMILES IDX 17 1 16 2 15 3 13 4 14 5 2 7 1 8 86 9 87 10 91 11 88 12
REMARK SMILES IDX 90 13 89 14 3 15 4 16 5 18 6 19 7 20 8 21 9 25 10 26 11 27
REMARK SMILES IDX 12 28 18 29 19 30 20 31 21 32 22 34 23 35 24 36 85 37 25 38
REMARK SMILES IDX 84 39 26 40 27 41 28 42 78 43 29 44 83 45 77 46 79 47 30 48
REMARK SMILES IDX 82 49 76 50 75 51 31 53 63 54 43 55 62 56 44 57 47 58 61 59
REMARK SMILES IDX 80 60 45 61 46 62 60 64 81 65 48 66 32 67 33 68 41 69 34 70
REMARK SMILES IDX 36 71 42 72 35 73 37 74 38 75 39 76 40 77 64 78 65 79 73 80
REMARK SMILES IDX 66 81 68 82 74 83 67 84 69 85 70 86 71 87 72 88 49 89 50 90
REMARK SMILES IDX 58 91 51 92 53 93 59 94 52 95 54 96 55 97 56 98 57 99
REMARK H PARENT 15 6 3 17 8 22 8 23 8 24 20 33 79 52 47 63
REMARK Flexibility Score: inf
ROOT
ATOM      1  C   UNL A   1      30.905  28.006  24.712  1.00  0.00     0.023 C 
ENDROOT
BRANCH   1   2
ATOM      2  C   UNL A   1      30.927  27.023  23.547  1.00  0.00     0.116 C 
BRANCH   2   3
ATOM      3  N   UNL A   1      32.227  26.914  22.910  1.00  0.00    -0.354 N 
ATOM      4  C   UNL A   1      33.144  25.899  22.847  1.00  0.00     0.250 C 
ATOM      5  O   UNL A   1      34.028  26.070  22.001  1.00  0.00    -0.272 OA
ATOM      6  H   UNL A   1      32.502  27.728  22.430  1.00  0.00     0.163 HD
BRANCH   4   7
ATOM      7  C   UNL A   1      33.039  24.595  23.733  1.00  0.00     0.142 C 
ATOM      8  C   UNL A   1      32.327  23.494  22.900  1.00  0.00     0.051 C 
BRANCH   7   9
ATOM      9  C   UNL A   1      34.372  23.944  24.153  1.00  0.00    -0.013 A 
ATOM     10  C   UNL A   1      35.201  24.541  25.119  1.00  0.00     0.007 A 
ATOM     11  C   UNL A   1      34.799  22.714  23.617  1.00  0.00     0.007 A 
ATOM     12  C   UNL A   1      36.494  24.061  25.355  1.00  0.00     0.000 A 
ATOM     13  C   UNL A   1      36.077  22.214  23.876  1.00  0.00     0.000 A 
ATOM     14  C   UNL A   1      36.942  22.916  24.706  1.00  0.00     0.000 A 
ENDBRANCH   7   9
BRANCH   7  15
ATOM     15  N   UNL A   1      32.184  24.937  24.909  1.00  0.00    -0.332 N 
ATOM     16  C   UNL A   1      31.669  24.330  26.009  1.00  0.00     0.291 C 
ATOM     17  H   UNL A   1      31.915  25.884  24.878  1.00  0.00     0.165 HD
ATOM     18  O   UNL A   1      31.027  25.129  26.711  1.00  0.00    -0.267 OA
BRANCH  16  19
ATOM     19  C   UNL A   1      31.626  22.811  26.365  1.00  0.00     0.267 C 
ATOM     20  C   UNL A   1      31.607  21.813  25.213  1.00  0.00     0.100 C 
BRANCH  19  21
ATOM     21  N   UNL A   1      30.409  22.578  27.231  1.00  0.00    -0.337 N 
ATOM     22  H   UNL A   1      30.647  21.938  27.988  1.00  0.00     0.345 HD
ATOM     23  H   UNL A   1      29.662  22.175  26.667  1.00  0.00     0.345 HD
ATOM     24  H   UNL A   1      30.096  23.467  27.624  1.00  0.00     0.345 HD
ENDBRANCH  19  21
BRANCH  19  25
ATOM     25  C   UNL A   1      32.940  22.549  27.169  1.00  0.00     0.453 C 
ATOM     26  F   UNL A   1      32.663  22.059  28.407  1.00  0.00    -0.164 F 
ATOM     27  F   UNL A   1      33.734  21.644  26.555  1.00  0.00    -0.164 F 
ATOM     28  F   UNL A   1      33.661  23.677  27.372  1.00  0.00    -0.164 F 
ENDBRANCH  19  25
ENDBRANCH  16  19
ENDBRANCH   7  15
ENDBRANCH   4   7
ENDBRANCH   2   3
ENDBRANCH   1   2
BRANCH   1  29
ATOM     29  C   UNL A   1      31.670  29.314  24.501  1.00  0.00     0.023 C 
BRANCH  29  30
ATOM     30  C   UNL A   1      32.537  29.786  25.666  1.00  0.00     0.116 C 
BRANCH  30  31
ATOM     31  N   UNL A   1      32.179  31.108  26.155  1.00  0.00    -0.352 N 
ATOM     32  C   UNL A   1      32.807  31.905  27.087  1.00  0.00     0.251 C 
ATOM     33  H   UNL A   1      31.364  31.493  25.759  1.00  0.00     0.163 HD
ATOM     34  O   UNL A   1      32.276  32.949  27.444  1.00  0.00    -0.269 OA
BRANCH  32  35
ATOM     35  C   UNL A   1      34.102  31.491  27.680  1.00  0.00     0.039 A 
ATOM     36  C   UNL A   1      35.073  32.468  27.920  1.00  0.00     0.014 A 
ATOM     37  C   UNL A   1      34.363  30.158  27.999  1.00  0.00     0.014 A 
ATOM     38  C   UNL A   1      36.273  32.118  28.548  1.00  0.00     0.010 A 
ATOM     39  C   UNL A   1      35.524  29.825  28.697  1.00  0.00     0.010 A 
ATOM     40  C   UNL A   1      36.492  30.800  28.981  1.00  0.00    -0.014 A 
BRANCH  40  41
ATOM     41  C   UNL A   1      37.710  30.432  29.753  1.00  0.00     0.031 A 
ATOM     42  C   UNL A   1      38.712  29.460  29.185  1.00  0.00     0.074 A 
ATOM     43  C   UNL A   1      37.875  30.905  31.005  1.00  0.00     0.049 A 
ATOM     44  N   UNL A   1      39.794  28.975  29.737  1.00  0.00    -0.248 NA
ATOM     45  C   UNL A   1      38.450  28.947  27.830  1.00  0.00     0.031 C 
ATOM     46  C   UNL A   1      36.942  31.791  31.704  1.00  0.00     0.029 A 
ATOM     47  N   UNL A   1      38.871  30.684  31.925  1.00  0.00    -0.354 N 
ATOM     48  C   UNL A   1      40.324  28.079  28.815  1.00  0.00     0.074 A 
ATOM     49  C   UNL A   1      39.424  28.060  27.684  1.00  0.00     0.031 C 
ATOM     50  C   UNL A   1      37.407  32.038  32.938  1.00  0.00     0.029 A 
ATOM     51  C   UNL A   1      38.652  31.303  33.135  1.00  0.00     0.049 A 
ATOM     52  H   UNL A   1      39.667  30.135  31.737  1.00  0.00     0.167 HD
ATOM     53  C   UNL A   1      41.469  27.358  28.889  1.00  0.00     0.034 A 
ATOM     54  C   UNL A   1      39.363  31.270  34.280  1.00  0.00     0.034 A 
ATOM     55  C   UNL A   1      42.380  27.400  30.003  1.00  0.00     0.049 A 
ATOM     56  C   UNL A   1      40.643  30.481  34.329  1.00  0.00     0.074 A 
ATOM     57  C   UNL A   1      43.603  26.767  30.136  1.00  0.00     0.029 A 
ATOM     58  N   UNL A   1      42.163  28.103  31.178  1.00  0.00    -0.354 N 
ATOM     59  N   UNL A   1      41.203  29.760  33.388  1.00  0.00    -0.248 NA
ATOM     60  C   UNL A   1      41.408  30.529  35.583  1.00  0.00     0.031 C 
ATOM     61  C   UNL A   1      44.112  27.061  31.406  1.00  0.00     0.029 A 
ATOM     62  C   UNL A   1      43.224  27.910  32.047  1.00  0.00     0.049 A 
ATOM     63  H   UNL A   1      41.372  28.657  31.367  1.00  0.00     0.167 HD
ATOM     64  C   UNL A   1      42.402  29.300  33.924  1.00  0.00     0.074 A 
ATOM     65  C   UNL A   1      42.496  29.843  35.262  1.00  0.00     0.031 C 
ATOM     66  C   UNL A   1      43.333  28.493  33.360  1.00  0.00     0.034 A 
BRANCH  53  67
ATOM     67  C   UNL A   1      41.829  26.493  27.709  1.00  0.00     0.023 A 
ATOM     68  C   UNL A   1      42.553  27.048  26.633  1.00  0.00     0.012 A 
ATOM     69  C   UNL A   1      41.507  25.122  27.687  1.00  0.00     0.148 A 
ATOM     70  C   UNL A   1      42.917  26.264  25.539  1.00  0.00     0.002 A 
ATOM     71  C   UNL A   1      41.916  24.335  26.616  1.00  0.00     0.091 A 
ATOM     72  F   UNL A   1      40.805  24.614  28.709  1.00  0.00    -0.205 F 
ATOM     73  C   UNL A   1      42.608  24.908  25.536  1.00  0.00     0.022 A 
BRANCH  71  74
ATOM     74  S   UNL A   1      41.640  22.562  26.551  1.00  0.00     0.127 S 
ATOM     75  O   UNL A   1      42.325  22.202  25.310  1.00  0.00    -0.237 OA
ATOM     76  O   UNL A   1      42.308  22.103  27.769  1.00  0.00    -0.237 OA
ATOM     77  O   UNL A   1      40.196  22.378  26.542  1.00  0.00    -0.744 OA
ENDBRANCH  71  74
ENDBRANCH  53  67
BRANCH  54  78
ATOM     78  C   UNL A   1      38.901  32.048  35.466  1.00  0.00     0.023 A 
ATOM     79  C   UNL A   1      39.067  33.446  35.489  1.00  0.00     0.012 A 
ATOM     80  C   UNL A   1      38.285  31.411  36.560  1.00  0.00     0.148 A 
ATOM     81  C   UNL A   1      38.660  34.193  36.597  1.00  0.00     0.002 A 
ATOM     82  C   UNL A   1      37.830  32.166  37.634  1.00  0.00     0.091 A 
ATOM     83  F   UNL A   1      38.146  30.078  36.523  1.00  0.00    -0.205 F 
ATOM     84  C   UNL A   1      38.033  33.555  37.664  1.00  0.00     0.022 A 
BRANCH  82  85
ATOM     85  S   UNL A   1      36.895  31.449  38.990  1.00  0.00     0.127 S 
ATOM     86  O   UNL A   1      35.716  32.309  39.026  1.00  0.00    -0.237 OA
ATOM     87  O   UNL A   1      36.654  30.091  38.503  1.00  0.00    -0.237 OA
ATOM     88  O   UNL A   1      37.769  31.524  40.153  1.00  0.00    -0.744 OA
ENDBRANCH  82  85
ENDBRANCH  54  78
BRANCH  66  89
ATOM     89  C   UNL A   1      44.567  28.177  34.166  1.00  0.00     0.023 A 
ATOM     90  C   UNL A   1      45.675  29.048  34.133  1.00  0.00     0.012 A 
ATOM     91  C   UNL A   1      44.598  27.052  35.014  1.00  0.00     0.148 A 
ATOM     92  C   UNL A   1      46.808  28.782  34.901  1.00  0.00     0.002 A 
ATOM     93  C   UNL A   1      45.708  26.824  35.817  1.00  0.00     0.091 A 
ATOM     94  F   UNL A   1      43.541  26.226  35.019  1.00  0.00    -0.205 F 
ATOM     95  C   UNL A   1      46.820  27.679  35.752  1.00  0.00     0.022 A 
BRANCH  93  96
ATOM     96  S   UNL A   1      45.774  25.486  37.014  1.00  0.00     0.127 S 
ATOM     97  O   UNL A   1      47.156  25.574  37.486  1.00  0.00    -0.237 OA
ATOM     98  O   UNL A   1      44.768  25.898  37.994  1.00  0.00    -0.237 OA
ATOM     99  O   UNL A   1      45.443  24.272  36.281  1.00  0.00    -0.744 OA
ENDBRANCH  93  96
ENDBRANCH  66  89
ENDBRANCH  40  41
ENDBRANCH  32  35
ENDBRANCH  30  31
ENDBRANCH  29  30
ENDBRANCH   1  29
TORSDOF 19
ENDMDL
MODEL 2
REMARK VINA RESULT:     -11.8      6.007     10.719
REMARK SMILES C[C@](NC(=O)[C@](C)([NH3+])C(F)(F)F)(C(=O)NCCCCNC(=O)c1ccc(-c2c3nc(c(-c4cccc(S(=O)(=O)[O-])c4F)c4ccc([nH]4)c(-c4cccc(S(=O)(=O)[O-])c4F)c4nc(c(-c5cccc(S(=O)(=O)[O-])c5F)c5ccc2[nH]5)C=C4)C=C3)cc1)c1ccccc1
REMARK SMILES IDX 17 1 16 2 15 3 13 4 14 5 2 7 1 8 86 9 87 10 91 11 88 12
REMARK SMILES IDX 90 13 89 14 3 15 4 16 5 18 6 19 7 20 8 21 9 25 10 26 11 27
REMARK SMILES IDX 12 28 18 29 19 30 20 31 21 32 22 34 23 35 24 36 85 37 25 38
REMARK SMILES IDX 84 39 26 40 27 41 28 42 78 43 29 44 83 45 77 46 79 47 30 48
REMARK SMILES IDX 82 49 76 50 75 51 31 53 63 54 43 55 62 56 44 57 47 58 61 59
REMARK SMILES IDX 80 60 45 61 46 62 60 64 81 65 48 66 32 67 33 68 41 69 34 70
REMARK SMILES IDX 36 71 42 72 35 73 37 74 38 75 39 76 40 77 64 78 65 79 73 80
REMARK SMILES IDX 66 81 68 82 74 83 67 84 69 85 70 86 71 87 72 88 49 89 50 90
REMARK SMILES IDX 58 91 51 92 53 93 59 94 52 95 54 96 55 97 56 98 57 99
REMARK H PARENT 15 6 3 17 8 22 8 23 8 24 20 33 79 52 47 63
REMARK Flexibility Score: inf
ROOT
ATOM      1  C   UNL A   1      36.998  20.878  24.350  1.00  0.00     0.023 C 
ENDROOT
BRANCH   1   2
ATOM      2  C   UNL A   1      36.349  22.141  24.906  1.00  0.00     0.116 C 
BRANCH   2   3
ATOM      3  N   UNL A   1      35.544  21.901  26.090  1.00  0.00    -0.354 N 
ATOM      4  C   UNL A   1      34.291  21.382  26.267  1.00  0.00     0.250 C 
ATOM      5  O   UNL A   1      34.027  21.088  27.438  1.00  0.00    -0.272 OA
ATOM      6  H   UNL A   1      35.987  22.164  26.930  1.00  0.00     0.163 HD
BRANCH   4   7
ATOM      7  C   UNL A   1      33.296  21.119  25.067  1.00  0.00     0.142 C 
ATOM      8  C   UNL A   1      33.605  22.145  23.943  1.00  0.00     0.051 C 
BRANCH   7   9
ATOM      9  C   UNL A   1      33.412  19.750  24.369  1.00  0.00    -0.013 A 
ATOM     10  C   UNL A   1      32.527  19.379  23.342  1.00  0.00     0.007 A 
ATOM     11  C   UNL A   1      34.425  18.830  24.702  1.00  0.00     0.007 A 
ATOM     12  C   UNL A   1      32.505  18.071  22.846  1.00  0.00     0.000 A 
ATOM     13  C   UNL A   1      34.426  17.533  24.185  1.00  0.00     0.000 A 
ATOM     14  C   UNL A   1      33.435  17.139  23.295  1.00  0.00     0.000 A 
ENDBRANCH   7   9
BRANCH   7  15
ATOM     15  N   UNL A   1      31.917  21.372  25.585  1.00  0.00    -0.332 N 
ATOM     16  C   UNL A   1      31.094  22.424  25.827  1.00  0.00     0.291 C 
ATOM     17  H   UNL A   1      31.474  20.524  25.818  1.00  0.00     0.165 HD
ATOM     18  O   UNL A   1      29.984  22.048  26.241  1.00  0.00    -0.267 OA
BRANCH  16  19
ATOM     19  C   UNL A   1      31.424  23.950  25.833  1.00  0.00     0.267 C 
ATOM     20  C   UNL A   1      32.872  24.362  26.071  1.00  0.00     0.100 C 
BRANCH  19  21
ATOM     21  N   UNL A   1      30.553  24.602  26.883  1.00  0.00    -0.337 N 
ATOM     22  H   UNL A   1      30.804  25.586  26.971  1.00  0.00     0.345 HD
ATOM     23  H   UNL A   1      30.691  24.134  27.779  1.00  0.00     0.345 HD
ATOM     24  H   UNL A   1      29.573  24.525  26.607  1.00  0.00     0.345 HD
ENDBRANCH  19  21
BRANCH  19  25
ATOM     25  C   UNL A   1      31.041  24.451  24.404  1.00  0.00     0.453 C 
ATOM     26  F   UNL A   1      30.000  25.324  24.457  1.00  0.00    -0.164 F 
ATOM     27  F   UNL A   1      32.067  25.094  23.804  1.00  0.00    -0.164 F 
ATOM     28  F   UNL A   1      30.638  23.445  23.589  1.00  0.00    -0.164 F 
ENDBRANCH  19  25
ENDBRANCH  16  19
ENDBRANCH   7  15
ENDBRANCH   4   7
ENDBRANCH   2   3
ENDBRANCH   1   2
BRANCH   1  29
ATOM     29  C   UNL A   1      37.757  20.014  25.359  1.00  0.00     0.023 C 
BRANCH  29  30
ATOM     30  C   UNL A   1      39.168  20.475  25.718  1.00  0.00     0.116 C 
BRANCH  30  31
ATOM     31  N   UNL A   1      40.121  19.382  25.835  1.00  0.00    -0.352 N 
ATOM     32  C   UNL A   1      41.471  19.413  26.105  1.00  0.00     0.251 C 
ATOM     33  H   UNL A   1      39.743  18.482  25.700  1.00  0.00     0.163 HD
ATOM     34  O   UNL A   1      42.122  18.377  26.048  1.00  0.00    -0.269 OA
BRANCH  32  35
ATOM     35  C   UNL A   1      42.143  20.693  26.433  1.00  0.00     0.039 A 
ATOM     36  C   UNL A   1      42.637  21.480  25.388  1.00  0.00     0.014 A 
ATOM     37  C   UNL A   1      42.289  21.121  27.754  1.00  0.00     0.014 A 
ATOM     38  C   UNL A   1      43.206  22.728  25.663  1.00  0.00     0.010 A 
ATOM     39  C   UNL A   1      42.784  22.398  28.020  1.00  0.00     0.010 A 
ATOM     40  C   UNL A   1      43.247  23.217  26.979  1.00  0.00    -0.014 A 
BRANCH  40  41
ATOM     41  C   UNL A   1      43.743  24.587  27.280  1.00  0.00     0.031 A 
ATOM     42  C   UNL A   1      42.798  25.655  27.765  1.00  0.00     0.074 A 
ATOM     43  C   UNL A   1      45.034  24.898  27.036  1.00  0.00     0.049 A 
ATOM     44  N   UNL A   1      43.038  26.916  28.016  1.00  0.00    -0.248 NA
ATOM     45  C   UNL A   1      41.394  25.261  27.969  1.00  0.00     0.031 C 
ATOM     46  C   UNL A   1      46.036  23.980  26.492  1.00  0.00     0.029 A 
ATOM     47  N   UNL A   1      45.715  26.081  27.184  1.00  0.00    -0.354 N 
ATOM     48  C   UNL A   1      41.816  27.474  28.376  1.00  0.00     0.074 A 
ATOM     49  C   UNL A   1      40.829  26.421  28.274  1.00  0.00     0.031 C 
ATOM     50  C   UNL A   1      47.202  24.630  26.353  1.00  0.00     0.029 A 
ATOM     51  C   UNL A   1      47.025  26.020  26.762  1.00  0.00     0.049 A 
ATOM     52  H   UNL A   1      45.307  26.896  27.556  1.00  0.00     0.167 HD
ATOM     53  C   UNL A   1      41.542  28.737  28.781  1.00  0.00     0.034 A 
ATOM     54  C   UNL A   1      47.972  26.976  26.696  1.00  0.00     0.034 A 
ATOM     55  C   UNL A   1      42.529  29.776  28.911  1.00  0.00     0.049 A 
ATOM     56  C   UNL A   1      47.649  28.366  27.175  1.00  0.00     0.074 A 
ATOM     57  C   UNL A   1      42.363  31.065  29.388  1.00  0.00     0.029 A 
ATOM     58  N   UNL A   1      43.862  29.652  28.551  1.00  0.00    -0.354 N 
ATOM     59  N   UNL A   1      46.522  28.831  27.655  1.00  0.00    -0.248 NA
ATOM     60  C   UNL A   1      48.737  29.353  27.135  1.00  0.00     0.031 C 
ATOM     61  C   UNL A   1      43.589  31.730  29.287  1.00  0.00     0.029 A 
ATOM     62  C   UNL A   1      44.528  30.844  28.784  1.00  0.00     0.049 A 
ATOM     63  H   UNL A   1      44.274  28.838  28.184  1.00  0.00     0.167 HD
ATOM     64  C   UNL A   1      46.775  30.151  28.010  1.00  0.00     0.074 A 
ATOM     65  C   UNL A   1      48.169  30.405  27.709  1.00  0.00     0.031 C 
ATOM     66  C   UNL A   1      45.927  31.073  28.528  1.00  0.00     0.034 A 
BRANCH  53  67
ATOM     67  C   UNL A   1      40.119  29.057  29.162  1.00  0.00     0.023 A 
ATOM     68  C   UNL A   1      39.169  29.316  28.153  1.00  0.00     0.012 A 
ATOM     69  C   UNL A   1      39.706  29.044  30.510  1.00  0.00     0.148 A 
ATOM     70  C   UNL A   1      37.842  29.594  28.478  1.00  0.00     0.002 A 
ATOM     71  C   UNL A   1      38.372  29.274  30.823  1.00  0.00     0.091 A 
ATOM     72  F   UNL A   1      40.626  28.813  31.458  1.00  0.00    -0.205 F 
ATOM     73  C   UNL A   1      37.442  29.563  29.811  1.00  0.00     0.022 A 
BRANCH  71  74
ATOM     74  S   UNL A   1      37.737  29.176  32.500  1.00  0.00     0.127 S 
ATOM     75  O   UNL A   1      37.843  27.743  32.772  1.00  0.00    -0.237 OA
ATOM     76  O   UNL A   1      38.687  30.008  33.238  1.00  0.00    -0.237 OA
ATOM     77  O   UNL A   1      36.380  29.701  32.449  1.00  0.00    -0.744 OA
ENDBRANCH  71  74
ENDBRANCH  53  67
BRANCH  54  78
ATOM     78  C   UNL A   1      49.337  26.640  26.196  1.00  0.00     0.023 A 
ATOM     79  C   UNL A   1      50.193  25.850  26.987  1.00  0.00     0.012 A 
ATOM     80  C   UNL A   1      49.781  27.085  24.936  1.00  0.00     0.148 A 
ATOM     81  C   UNL A   1      51.481  25.539  26.548  1.00  0.00     0.002 A 
ATOM     82  C   UNL A   1      51.043  26.724  24.480  1.00  0.00     0.091 A 
ATOM     83  F   UNL A   1      48.954  27.844  24.204  1.00  0.00    -0.205 F 
ATOM     84  C   UNL A   1      51.902  25.966  25.291  1.00  0.00     0.022 A 
BRANCH  82  85
ATOM     85  S   UNL A   1      51.618  27.116  22.824  1.00  0.00     0.127 S 
ATOM     86  O   UNL A   1      51.855  28.554  22.925  1.00  0.00    -0.237 OA
ATOM     87  O   UNL A   1      52.826  26.297  22.724  1.00  0.00    -0.237 OA
ATOM     88  O   UNL A   1      50.542  26.714  21.928  1.00  0.00    -0.744 OA
ENDBRANCH  82  85
ENDBRANCH  54  78
BRANCH  66  89
ATOM     89  C   UNL A   1      46.484  32.436  28.850  1.00  0.00     0.023 A 
ATOM     90  C   UNL A   1      47.118  32.665  30.088  1.00  0.00     0.012 A 
ATOM     91  C   UNL A   1      46.442  33.470  27.894  1.00  0.00     0.148 A 
ATOM     92  C   UNL A   1      47.667  33.913  30.383  1.00  0.00     0.002 A 
ATOM     93  C   UNL A   1      47.039  34.693  28.174  1.00  0.00     0.091 A 
ATOM     94  F   UNL A   1      45.820  33.238  26.729  1.00  0.00    -0.205 F 
ATOM     95  C   UNL A   1      47.639  34.921  29.422  1.00  0.00     0.022 A 
BRANCH  93  96
ATOM     96  S   UNL A   1      47.138  36.017  26.963  1.00  0.00     0.127 S 
ATOM     97  O   UNL A   1      47.562  37.146  27.790  1.00  0.00    -0.237 OA
ATOM     98  O   UNL A   1      48.160  35.518  26.043  1.00  0.00    -0.237 OA
ATOM     99  O   UNL A   1      45.807  36.135  26.384  1.00  0.00    -0.744 OA
ENDBRANCH  93  96
ENDBRANCH  66  89
ENDBRANCH  40  41
ENDBRANCH  32  35
ENDBRANCH  30  31
ENDBRANCH  29  30
ENDBRANCH   1  29
TORSDOF 19
ENDMDL
MODEL 3
REMARK VINA RESULT:     -11.8      5.271      9.959
REMARK SMILES C[C@](NC(=O)[C@](C)([NH3+])C(F)(F)F)(C(=O)NCCCCNC(=O)c1ccc(-c2c3nc(c(-c4cccc(S(=O)(=O)[O-])c4F)c4ccc([nH]4)c(-c4cccc(S(=O)(=O)[O-])c4F)c4nc(c(-c5cccc(S(=O)(=O)[O-])c5F)c5ccc2[nH]5)C=C4)C=C3)cc1)c1ccccc1
REMARK SMILES IDX 17 1 16 2 15 3 13 4 14 5 2 7 1 8 86 9 87 10 91 11 88 12
REMARK SMILES IDX 90 13 89 14 3 15 4 16 5 18 6 19 7 20 8 21 9 25 10 26 11 27
REMARK SMILES IDX 12 28 18 29 19 30 20 31 21 32 22 34 23 35 24 36 85 37 25 38
REMARK SMILES IDX 84 39 26 40 27 41 28 42 78 43 29 44 83 45 77 46 79 47 30 48
REMARK SMILES IDX 82 49 76 50 75 51 31 53 63 54 43 55 62 56 44 57 47 58 61 59
REMARK SMILES IDX 80 60 45 61 46 62 60 64 81 65 48 66 32 67 33 68 41 69 34 70
REMARK SMILES IDX 36 71 42 72 35 73 37 74 38 75 39 76 40 77 64 78 65 79 73 80
REMARK SMILES IDX 66 81 68 82 74 83 67 84 69 85 70 86 71 87 72 88 49 89 50 90
REMARK SMILES IDX 58 91 51 92 53 93 59 94 52 95 54 96 55 97 56 98 57 99
REMARK H PARENT 15 6 3 17 8 22 8 23 8 24 20 33 79 52 47 63
REMARK Flexibility Score: inf
ROOT
ATOM      1  C   UNL A   1      34.269  22.287  24.895  1.00  0.00     0.023 C 
ENDROOT
BRANCH   1   2
ATOM      2  C   UNL A   1      34.271  23.359  25.980  1.00  0.00     0.116 C 
BRANCH   2   3
ATOM      3  N   UNL A   1      33.029  23.418  26.731  1.00  0.00    -0.354 N 
ATOM      4  C   UNL A   1      31.913  24.202  26.611  1.00  0.00     0.250 C 
ATOM      5  O   UNL A   1      30.944  23.801  27.264  1.00  0.00    -0.272 OA
ATOM      6  H   UNL A   1      32.981  22.768  27.469  1.00  0.00     0.163 HD
BRANCH   4   7
ATOM      7  C   UNL A   1      31.853  25.469  25.668  1.00  0.00     0.142 C 
ATOM      8  C   UNL A   1      30.369  25.722  25.285  1.00  0.00     0.051 C 
BRANCH   7   9
ATOM      9  C   UNL A   1      32.314  26.804  26.286  1.00  0.00    -0.013 A 
ATOM     10  C   UNL A   1      31.392  27.697  26.859  1.00  0.00     0.007 A 
ATOM     11  C   UNL A   1      33.672  27.170  26.333  1.00  0.00     0.007 A 
ATOM     12  C   UNL A   1      31.779  28.987  27.238  1.00  0.00     0.000 A 
ATOM     13  C   UNL A   1      34.066  28.446  26.741  1.00  0.00     0.000 A 
ATOM     14  C   UNL A   1      33.112  29.371  27.147  1.00  0.00     0.000 A 
ENDBRANCH   7   9
BRANCH   7  15
ATOM     15  N   UNL A   1      32.618  25.125  24.432  1.00  0.00    -0.332 N 
ATOM     16  C   UNL A   1      32.914  25.677  23.227  1.00  0.00     0.291 C 
ATOM     17  H   UNL A   1      33.031  24.235  24.517  1.00  0.00     0.165 HD
ATOM     18  O   UNL A   1      33.659  24.939  22.559  1.00  0.00    -0.267 OA
BRANCH  16  19
ATOM     19  C   UNL A   1      32.310  26.948  22.553  1.00  0.00     0.267 C 
ATOM     20  C   UNL A   1      31.018  27.512  23.131  1.00  0.00     0.100 C 
BRANCH  19  21
ATOM     21  N   UNL A   1      32.091  26.630  21.091  1.00  0.00    -0.337 N 
ATOM     22  H   UNL A   1      31.928  27.494  20.575  1.00  0.00     0.345 HD
ATOM     23  H   UNL A   1      31.282  26.018  20.993  1.00  0.00     0.345 HD
ATOM     24  H   UNL A   1      32.919  26.163  20.717  1.00  0.00     0.345 HD
ENDBRANCH  19  21
BRANCH  19  25
ATOM     25  C   UNL A   1      33.402  28.052  22.724  1.00  0.00     0.453 C 
ATOM     26  F   UNL A   1      34.351  27.663  23.617  1.00  0.00    -0.164 F 
ATOM     27  F   UNL A   1      34.037  28.316  21.561  1.00  0.00    -0.164 F 
ATOM     28  F   UNL A   1      32.898  29.214  23.205  1.00  0.00    -0.164 F 
ENDBRANCH  19  25
ENDBRANCH  16  19
ENDBRANCH   7  15
ENDBRANCH   4   7
ENDBRANCH   2   3
ENDBRANCH   1   2
BRANCH   1  29
ATOM     29  C   UNL A   1      35.346  21.207  25.017  1.00  0.00     0.023 C 
BRANCH  29  30
ATOM     30  C   UNL A   1      36.782  21.699  25.178  1.00  0.00     0.116 C 
BRANCH  30  31
ATOM     31  N   UNL A   1      37.734  20.629  25.433  1.00  0.00    -0.352 N 
ATOM     32  C   UNL A   1      39.003  20.685  25.968  1.00  0.00     0.251 C 
ATOM     33  H   UNL A   1      37.426  19.727  25.186  1.00  0.00     0.163 HD
ATOM     34  O   UNL A   1      39.691  19.672  25.995  1.00  0.00    -0.269 OA
BRANCH  32  35
ATOM     35  C   UNL A   1      39.547  21.965  26.480  1.00  0.00     0.039 A 
ATOM     36  C   UNL A   1      40.609  21.928  27.389  1.00  0.00     0.014 A 
ATOM     37  C   UNL A   1      39.023  23.194  26.075  1.00  0.00     0.014 A 
ATOM     38  C   UNL A   1      41.192  23.121  27.830  1.00  0.00     0.010 A 
ATOM     39  C   UNL A   1      39.655  24.378  26.452  1.00  0.00     0.010 A 
ATOM     40  C   UNL A   1      40.748  24.357  27.332  1.00  0.00    -0.014 A 
BRANCH  40  41
ATOM     41  C   UNL A   1      41.428  25.628  27.699  1.00  0.00     0.031 A 
ATOM     42  C   UNL A   1      40.680  26.715  28.425  1.00  0.00     0.074 A 
ATOM     43  C   UNL A   1      42.700  25.843  27.303  1.00  0.00     0.049 A 
ATOM     44  N   UNL A   1      41.088  27.910  28.769  1.00  0.00    -0.248 NA
ATOM     45  C   UNL A   1      39.281  26.434  28.790  1.00  0.00     0.031 C 
ATOM     46  C   UNL A   1      43.513  24.905  26.526  1.00  0.00     0.029 A 
ATOM     47  N   UNL A   1      43.522  26.930  27.473  1.00  0.00    -0.354 N 
ATOM     48  C   UNL A   1      39.995  28.533  29.360  1.00  0.00     0.074 A 
ATOM     49  C   UNL A   1      38.894  27.598  29.294  1.00  0.00     0.031 C 
ATOM     50  C   UNL A   1      44.714  25.455  26.287  1.00  0.00     0.029 A 
ATOM     51  C   UNL A   1      44.747  26.796  26.860  1.00  0.00     0.049 A 
ATOM     52  H   UNL A   1      43.259  27.730  27.984  1.00  0.00     0.167 HD
ATOM     53  C   UNL A   1      39.918  29.759  29.930  1.00  0.00     0.034 A 
ATOM     54  C   UNL A   1      45.777  27.660  26.757  1.00  0.00     0.034 A 
ATOM     55  C   UNL A   1      41.023  30.678  30.022  1.00  0.00     0.049 A 
ATOM     56  C   UNL A   1      45.676  29.007  27.420  1.00  0.00     0.074 A 
ATOM     57  C   UNL A   1      41.065  31.911  30.650  1.00  0.00     0.029 A 
ATOM     58  N   UNL A   1      42.273  30.473  29.460  1.00  0.00    -0.354 N 
ATOM     59  N   UNL A   1      44.682  29.516  28.105  1.00  0.00    -0.248 NA
ATOM     60  C   UNL A   1      46.851  29.885  27.325  1.00  0.00     0.031 C 
ATOM     61  C   UNL A   1      42.332  32.465  30.441  1.00  0.00     0.029 A 
ATOM     62  C   UNL A   1      43.091  31.561  29.717  1.00  0.00     0.049 A 
ATOM     63  H   UNL A   1      42.540  29.673  28.954  1.00  0.00     0.167 HD
ATOM     64  C   UNL A   1      45.124  30.755  28.555  1.00  0.00     0.074 A 
ATOM     65  C   UNL A   1      46.484  30.910  28.082  1.00  0.00     0.031 C 
ATOM     66  C   UNL A   1      44.460  31.685  29.284  1.00  0.00     0.034 A 
BRANCH  53  67
ATOM     67  C   UNL A   1      38.604  30.165  30.546  1.00  0.00     0.023 A 
ATOM     68  C   UNL A   1      38.280  29.729  31.847  1.00  0.00     0.012 A 
ATOM     69  C   UNL A   1      37.717  31.023  29.867  1.00  0.00     0.148 A 
ATOM     70  C   UNL A   1      37.079  30.107  32.447  1.00  0.00     0.002 A 
ATOM     71  C   UNL A   1      36.544  31.435  30.490  1.00  0.00     0.091 A 
ATOM     72  F   UNL A   1      38.032  31.415  28.624  1.00  0.00    -0.205 F 
ATOM     73  C   UNL A   1      36.218  30.967  31.774  1.00  0.00     0.022 A 
BRANCH  71  74
ATOM     74  S   UNL A   1      35.407  32.607  29.743  1.00  0.00     0.127 S 
ATOM     75  O   UNL A   1      34.368  32.703  30.768  1.00  0.00    -0.237 OA
ATOM     76  O   UNL A   1      36.241  33.801  29.607  1.00  0.00    -0.237 OA
ATOM     77  O   UNL A   1      34.985  32.013  28.483  1.00  0.00    -0.744 OA
ENDBRANCH  71  74
ENDBRANCH  53  67
BRANCH  54  78
ATOM     78  C   UNL A   1      47.017  27.259  26.031  1.00  0.00     0.023 A 
ATOM     79  C   UNL A   1      47.140  27.540  24.656  1.00  0.00     0.012 A 
ATOM     80  C   UNL A   1      48.077  26.618  26.698  1.00  0.00     0.148 A 
ATOM     81  C   UNL A   1      48.282  27.156  23.951  1.00  0.00     0.002 A 
ATOM     82  C   UNL A   1      49.236  26.291  26.004  1.00  0.00     0.091 A 
ATOM     83  F   UNL A   1      47.936  26.351  28.004  1.00  0.00    -0.205 F 
ATOM     84  C   UNL A   1      49.334  26.542  24.627  1.00  0.00     0.022 A 
BRANCH  82  85
ATOM     85  S   UNL A   1      50.690  25.619  26.817  1.00  0.00     0.127 S 
ATOM     86  O   UNL A   1      51.081  26.724  27.689  1.00  0.00    -0.237 OA
ATOM     87  O   UNL A   1      50.136  24.454  27.507  1.00  0.00    -0.237 OA
ATOM     88  O   UNL A   1      51.624  25.296  25.747  1.00  0.00    -0.744 OA
ENDBRANCH  82  85
ENDBRANCH  54  78
BRANCH  66  89
ATOM     89  C   UNL A   1      45.202  32.942  29.663  1.00  0.00     0.023 A 
ATOM     90  C   UNL A   1      45.967  32.981  30.846  1.00  0.00     0.012 A 
ATOM     91  C   UNL A   1      45.199  34.060  28.805  1.00  0.00     0.148 A 
ATOM     92  C   UNL A   1      46.685  34.127  31.188  1.00  0.00     0.002 A 
ATOM     93  C   UNL A   1      45.960  35.177  29.125  1.00  0.00     0.091 A 
ATOM     94  F   UNL A   1      44.452  34.009  27.692  1.00  0.00    -0.205 F 
ATOM     95  C   UNL A   1      46.691  35.218  30.322  1.00  0.00     0.022 A 
BRANCH  93  96
ATOM     96  S   UNL A   1      46.108  36.590  28.025  1.00  0.00     0.127 S 
ATOM     97  O   UNL A   1      46.597  37.626  28.934  1.00  0.00    -0.237 OA
ATOM     98  O   UNL A   1      47.092  36.120  27.050  1.00  0.00    -0.237 OA
ATOM     99  O   UNL A   1      44.777  36.818  27.479  1.00  0.00    -0.744 OA
ENDBRANCH  93  96
ENDBRANCH  66  89
ENDBRANCH  40  41
ENDBRANCH  32  35
ENDBRANCH  30  31
ENDBRANCH  29  30
ENDBRANCH   1  29
TORSDOF 19
ENDMDL
