MODEL 1
REMARK VINA RESULT:      -9.6      0.000      0.000
REMARK SMILES CCN(Cc1c(C)nn(CC)c1C)C(=O)Cn1ccc(C(=O)NCCCCNC(=O)c2ccc(-c3c4nc(c(-c5cccc(S(=O)(=O)[O-])c5F)c5ccc([nH]5)c(-c5cccc(S(=O)(=O)[O-])c5F)c5nc(c(-c6cccc(S(=O)(=O)[O-])c6F)c6ccc3[nH]6)C=C5)C=C4)cc2)n1
REMARK SMILES IDX 24 1 23 2 21 3 22 4 20 6 17 7 18 8 94 9 19 10 16 11 14 12
REMARK SMILES IDX 15 13 3 14 2 15 1 16 4 17 5 18 6 19 12 20 7 21 8 22 9 23
REMARK SMILES IDX 13 24 10 25 11 26 25 27 26 28 27 29 28 30 29 31 30 33 31 34
REMARK SMILES IDX 32 35 93 36 33 37 92 38 34 39 35 40 36 41 86 42 37 43 91 44
REMARK SMILES IDX 85 45 87 46 38 47 90 48 84 49 83 50 39 52 71 53 51 54 70 55
REMARK SMILES IDX 52 56 55 57 69 58 88 59 53 60 54 61 68 63 89 64 56 65 40 66
REMARK SMILES IDX 41 67 49 68 42 69 44 70 50 71 43 72 45 73 46 74 47 75 48 76
REMARK SMILES IDX 72 77 73 78 81 79 74 80 76 81 82 82 75 83 77 84 78 85 79 86
REMARK SMILES IDX 80 87 57 88 58 89 66 90 59 91 61 92 67 93 60 94 62 95 63 96
REMARK SMILES IDX 64 97 65 98
REMARK H PARENT 23 5 28 32 87 51 55 62
REMARK Flexibility Score: inf
ROOT
ATOM      1  C   UNL A   1      33.021  35.446  29.450  1.00  0.00     0.116 C 
ENDROOT
BRANCH   1   2
ATOM      2  N   UNL A   1      32.879  36.627  30.269  1.00  0.00    -0.351 N 
ATOM      3  C   UNL A   1      33.277  36.884  31.575  1.00  0.00     0.271 C 
ATOM      4  O   UNL A   1      32.956  37.987  32.029  1.00  0.00    -0.267 OA
ATOM      5  H   UNL A   1      32.420  37.377  29.827  1.00  0.00     0.163 HD
BRANCH   3   6
ATOM      6  C   UNL A   1      33.951  35.886  32.457  1.00  0.00     0.150 A 
ATOM      7  N   UNL A   1      35.456  34.793  33.547  1.00  0.00    -0.263 N 
ATOM      8  C   UNL A   1      34.383  33.944  33.494  1.00  0.00     0.110 A 
ATOM      9  N   UNL A   1      35.180  35.994  32.998  1.00  0.00    -0.167 NA
ATOM     10  C   UNL A   1      33.396  34.623  32.818  1.00  0.00     0.056 A 
BRANCH   7  11
ATOM     11  C   UNL A   1      36.834  34.366  33.794  1.00  0.00     0.244 C 
BRANCH  11  12
ATOM     12  C   UNL A   1      37.623  33.891  32.599  1.00  0.00     0.244 C 
ATOM     13  O   UNL A   1      37.932  34.726  31.736  1.00  0.00    -0.273 OA
BRANCH  12  14
ATOM     14  N   UNL A   1      38.058  32.571  32.490  1.00  0.00    -0.337 N 
BRANCH  14  15
ATOM     15  C   UNL A   1      37.174  31.554  33.081  1.00  0.00     0.116 C 
ATOM     16  C   UNL A   1      36.103  31.053  32.110  1.00  0.00     0.027 C 
ENDBRANCH  14  15
BRANCH  14  17
ATOM     17  C   UNL A   1      39.435  32.153  32.210  1.00  0.00     0.159 C 
BRANCH  17  18
ATOM     18  C   UNL A   1      40.511  32.889  32.959  1.00  0.00     0.015 A 
ATOM     19  C   UNL A   1      40.727  32.804  34.366  1.00  0.00     0.065 A 
ATOM     20  C   UNL A   1      41.416  33.875  32.550  1.00  0.00     0.041 A 
ATOM     21  C   UNL A   1      40.006  31.969  35.358  1.00  0.00     0.069 C 
ATOM     22  N   UNL A   1      41.694  33.625  34.786  1.00  0.00    -0.178 NA
ATOM     23  N   UNL A   1      42.079  34.278  33.683  1.00  0.00    -0.270 N 
ATOM     24  C   UNL A   1      41.744  34.505  31.242  1.00  0.00     0.067 C 
BRANCH  23  25
ATOM     25  C   UNL A   1      43.103  35.303  33.791  1.00  0.00     0.141 C 
ATOM     26  C   UNL A   1      44.261  34.882  34.678  1.00  0.00     0.029 C 
ENDBRANCH  23  25
ENDBRANCH  17  18
ENDBRANCH  14  17
ENDBRANCH  12  14
ENDBRANCH  11  12
ENDBRANCH   7  11
ENDBRANCH   3   6
ENDBRANCH   1   2
BRANCH   1  27
ATOM     27  C   UNL A   1      34.426  35.191  28.884  1.00  0.00     0.023 C 
BRANCH  27  28
ATOM     28  C   UNL A   1      35.252  34.085  29.542  1.00  0.00     0.023 C 
BRANCH  28  29
ATOM     29  C   UNL A   1      35.964  33.157  28.567  1.00  0.00     0.116 C 
BRANCH  29  30
ATOM     30  N   UNL A   1      35.134  32.054  28.080  1.00  0.00    -0.352 N 
ATOM     31  C   UNL A   1      35.532  30.737  27.892  1.00  0.00     0.251 C 
ATOM     32  H   UNL A   1      34.197  32.268  27.864  1.00  0.00     0.163 HD
ATOM     33  O   UNL A   1      34.926  29.989  27.149  1.00  0.00    -0.269 OA
BRANCH  31  34
ATOM     34  C   UNL A   1      36.718  30.265  28.636  1.00  0.00     0.039 A 
ATOM     35  C   UNL A   1      36.736  29.013  29.259  1.00  0.00     0.014 A 
ATOM     36  C   UNL A   1      37.844  31.085  28.640  1.00  0.00     0.014 A 
ATOM     37  C   UNL A   1      37.935  28.551  29.797  1.00  0.00     0.010 A 
ATOM     38  C   UNL A   1      39.051  30.578  29.055  1.00  0.00     0.010 A 
ATOM     39  C   UNL A   1      39.099  29.328  29.665  1.00  0.00    -0.014 A 
BRANCH  39  40
ATOM     40  C   UNL A   1      40.411  28.763  29.982  1.00  0.00     0.031 A 
ATOM     41  C   UNL A   1      40.788  28.906  31.418  1.00  0.00     0.074 A 
ATOM     42  C   UNL A   1      41.092  27.969  29.126  1.00  0.00     0.049 A 
ATOM     43  N   UNL A   1      41.733  29.633  31.918  1.00  0.00    -0.248 NA
ATOM     44  C   UNL A   1      39.898  28.319  32.435  1.00  0.00     0.031 C 
ATOM     45  C   UNL A   1      40.642  27.502  27.807  1.00  0.00     0.029 A 
ATOM     46  N   UNL A   1      42.251  27.272  29.305  1.00  0.00    -0.354 N 
ATOM     47  C   UNL A   1      41.729  29.356  33.285  1.00  0.00     0.074 A 
ATOM     48  C   UNL A   1      40.445  28.775  33.563  1.00  0.00     0.031 C 
ATOM     49  C   UNL A   1      41.358  26.418  27.443  1.00  0.00     0.029 A 
ATOM     50  C   UNL A   1      42.418  26.213  28.411  1.00  0.00     0.049 A 
ATOM     51  H   UNL A   1      42.910  27.495  30.003  1.00  0.00     0.167 HD
ATOM     52  C   UNL A   1      42.894  29.322  33.991  1.00  0.00     0.034 A 
ATOM     53  C   UNL A   1      43.325  25.206  28.484  1.00  0.00     0.034 A 
ATOM     54  C   UNL A   1      43.960  29.945  33.240  1.00  0.00     0.049 A 
ATOM     55  C   UNL A   1      44.399  25.652  29.394  1.00  0.00     0.074 A 
ATOM     56  C   UNL A   1      44.180  31.181  32.666  1.00  0.00     0.029 A 
ATOM     57  N   UNL A   1      44.857  29.087  32.655  1.00  0.00    -0.354 N 
ATOM     58  N   UNL A   1      45.225  26.618  29.113  1.00  0.00    -0.248 NA
ATOM     59  C   UNL A   1      44.302  25.295  30.797  1.00  0.00     0.031 C 
ATOM     60  C   UNL A   1      44.895  30.909  31.461  1.00  0.00     0.029 A 
ATOM     61  C   UNL A   1      45.147  29.537  31.400  1.00  0.00     0.049 A 
ATOM     62  H   UNL A   1      45.232  28.278  33.073  1.00  0.00     0.167 HD
ATOM     63  C   UNL A   1      45.354  27.305  30.310  1.00  0.00     0.074 A 
ATOM     64  C   UNL A   1      44.889  26.368  31.333  1.00  0.00     0.031 C 
ATOM     65  C   UNL A   1      45.528  28.659  30.316  1.00  0.00     0.034 A 
BRANCH  52  66
ATOM     66  C   UNL A   1      43.220  28.340  35.115  1.00  0.00     0.023 A 
ATOM     67  C   UNL A   1      43.787  28.893  36.291  1.00  0.00     0.012 A 
ATOM     68  C   UNL A   1      43.300  26.935  34.983  1.00  0.00     0.148 A 
ATOM     69  C   UNL A   1      44.493  28.112  37.212  1.00  0.00     0.002 A 
ATOM     70  C   UNL A   1      43.942  26.153  35.938  1.00  0.00     0.091 A 
ATOM     71  F   UNL A   1      42.860  26.330  33.881  1.00  0.00    -0.205 F 
ATOM     72  C   UNL A   1      44.576  26.740  37.033  1.00  0.00     0.022 A 
BRANCH  70  73
ATOM     73  S   UNL A   1      44.044  24.362  35.784  1.00  0.00     0.127 S 
ATOM     74  O   UNL A   1      44.864  24.221  34.585  1.00  0.00    -0.237 OA
ATOM     75  O   UNL A   1      44.704  23.996  37.037  1.00  0.00    -0.237 OA
ATOM     76  O   UNL A   1      42.668  23.892  35.673  1.00  0.00    -0.744 OA
ENDBRANCH  70  73
ENDBRANCH  52  66
BRANCH  53  77
ATOM     77  C   UNL A   1      43.259  23.801  28.015  1.00  0.00     0.023 A 
ATOM     78  C   UNL A   1      42.199  22.974  28.444  1.00  0.00     0.012 A 
ATOM     79  C   UNL A   1      44.044  23.363  26.927  1.00  0.00     0.148 A 
ATOM     80  C   UNL A   1      41.901  21.776  27.782  1.00  0.00     0.002 A 
ATOM     81  C   UNL A   1      43.748  22.168  26.276  1.00  0.00     0.091 A 
ATOM     82  F   UNL A   1      45.018  24.163  26.472  1.00  0.00    -0.205 F 
ATOM     83  C   UNL A   1      42.668  21.379  26.691  1.00  0.00     0.022 A 
BRANCH  81  84
ATOM     84  S   UNL A   1      44.672  21.607  24.840  1.00  0.00     0.127 S 
ATOM     85  O   UNL A   1      44.115  20.272  24.624  1.00  0.00    -0.237 OA
ATOM     86  O   UNL A   1      44.296  22.598  23.834  1.00  0.00    -0.237 OA
ATOM     87  O   UNL A   1      46.072  21.616  25.244  1.00  0.00    -0.744 OA
ENDBRANCH  81  84
ENDBRANCH  53  77
BRANCH  65  88
ATOM     88  C   UNL A   1      45.949  29.321  29.029  1.00  0.00     0.023 A 
ATOM     89  C   UNL A   1      45.036  29.788  28.061  1.00  0.00     0.012 A 
ATOM     90  C   UNL A   1      47.316  29.589  28.857  1.00  0.00     0.148 A 
ATOM     91  C   UNL A   1      45.486  30.475  26.929  1.00  0.00     0.002 A 
ATOM     92  C   UNL A   1      47.754  30.316  27.759  1.00  0.00     0.091 A 
ATOM     93  F   UNL A   1      48.174  29.136  29.786  1.00  0.00    -0.205 F 
ATOM     94  C   UNL A   1      46.844  30.750  26.785  1.00  0.00     0.022 A 
BRANCH  92  95
ATOM     95  S   UNL A   1      49.475  30.791  27.597  1.00  0.00     0.127 S 
ATOM     96  O   UNL A   1      49.453  31.613  26.389  1.00  0.00    -0.237 OA
ATOM     97  O   UNL A   1      49.719  31.530  28.837  1.00  0.00    -0.237 OA
ATOM     98  O   UNL A   1      50.222  29.543  27.497  1.00  0.00    -0.744 OA
ENDBRANCH  92  95
ENDBRANCH  65  88
ENDBRANCH  39  40
ENDBRANCH  31  34
ENDBRANCH  29  30
ENDBRANCH  28  29
ENDBRANCH  27  28
ENDBRANCH   1  27
TORSDOF 21
ENDMDL
MODEL 2
REMARK VINA RESULT:      -9.4      1.597      2.003
REMARK SMILES CCN(Cc1c(C)nn(CC)c1C)C(=O)Cn1ccc(C(=O)NCCCCNC(=O)c2ccc(-c3c4nc(c(-c5cccc(S(=O)(=O)[O-])c5F)c5ccc([nH]5)c(-c5cccc(S(=O)(=O)[O-])c5F)c5nc(c(-c6cccc(S(=O)(=O)[O-])c6F)c6ccc3[nH]6)C=C5)C=C4)cc2)n1
REMARK SMILES IDX 24 1 23 2 21 3 22 4 20 6 17 7 18 8 94 9 19 10 16 11 14 12
REMARK SMILES IDX 15 13 3 14 2 15 1 16 4 17 5 18 6 19 12 20 7 21 8 22 9 23
REMARK SMILES IDX 13 24 10 25 11 26 25 27 26 28 27 29 28 30 29 31 30 33 31 34
REMARK SMILES IDX 32 35 93 36 33 37 92 38 34 39 35 40 36 41 86 42 37 43 91 44
REMARK SMILES IDX 85 45 87 46 38 47 90 48 84 49 83 50 39 52 71 53 51 54 70 55
REMARK SMILES IDX 52 56 55 57 69 58 88 59 53 60 54 61 68 63 89 64 56 65 40 66
REMARK SMILES IDX 41 67 49 68 42 69 44 70 50 71 43 72 45 73 46 74 47 75 48 76
REMARK SMILES IDX 72 77 73 78 81 79 74 80 76 81 82 82 75 83 77 84 78 85 79 86
REMARK SMILES IDX 80 87 57 88 58 89 66 90 59 91 61 92 67 93 60 94 62 95 63 96
REMARK SMILES IDX 64 97 65 98
REMARK H PARENT 23 5 28 32 87 51 55 62
REMARK Flexibility Score: inf
ROOT
ATOM      1  C   UNL A   1      32.844  35.529  30.015  1.00  0.00     0.116 C 
ENDROOT
BRANCH   1   2
ATOM      2  N   UNL A   1      32.821  36.812  30.677  1.00  0.00    -0.351 N 
ATOM      3  C   UNL A   1      33.430  37.245  31.849  1.00  0.00     0.271 C 
ATOM      4  O   UNL A   1      33.171  38.402  32.196  1.00  0.00    -0.267 OA
ATOM      5  H   UNL A   1      32.280  37.497  30.222  1.00  0.00     0.163 HD
BRANCH   3   6
ATOM      6  C   UNL A   1      34.263  36.375  32.731  1.00  0.00     0.150 A 
ATOM      7  N   UNL A   1      35.744  34.969  33.423  1.00  0.00    -0.263 N 
ATOM      8  C   UNL A   1      34.831  35.039  34.441  1.00  0.00     0.110 A 
ATOM      9  N   UNL A   1      35.456  35.829  32.424  1.00  0.00    -0.167 NA
ATOM     10  C   UNL A   1      33.879  35.945  34.036  1.00  0.00     0.056 A 
BRANCH   7  11
ATOM     11  C   UNL A   1      36.680  33.861  33.229  1.00  0.00     0.244 C 
BRANCH  11  12
ATOM     12  C   UNL A   1      37.981  33.927  33.990  1.00  0.00     0.244 C 
ATOM     13  O   UNL A   1      38.431  35.046  34.277  1.00  0.00    -0.273 OA
BRANCH  12  14
ATOM     14  N   UNL A   1      38.631  32.772  34.424  1.00  0.00    -0.337 N 
BRANCH  14  15
ATOM     15  C   UNL A   1      38.392  32.389  35.824  1.00  0.00     0.116 C 
ATOM     16  C   UNL A   1      38.330  30.874  36.028  1.00  0.00     0.027 C 
ENDBRANCH  14  15
BRANCH  14  17
ATOM     17  C   UNL A   1      39.788  32.155  33.768  1.00  0.00     0.159 C 
BRANCH  17  18
ATOM     18  C   UNL A   1      40.922  33.081  33.427  1.00  0.00     0.015 A 
ATOM     19  C   UNL A   1      41.879  33.573  34.362  1.00  0.00     0.065 A 
ATOM     20  C   UNL A   1      41.237  33.765  32.247  1.00  0.00     0.041 A 
ATOM     21  C   UNL A   1      41.999  33.259  35.807  1.00  0.00     0.069 C 
ATOM     22  N   UNL A   1      42.729  34.446  33.813  1.00  0.00    -0.178 NA
ATOM     23  N   UNL A   1      42.312  34.566  32.547  1.00  0.00    -0.270 N 
ATOM     24  C   UNL A   1      40.667  33.782  30.872  1.00  0.00     0.067 C 
BRANCH  23  25
ATOM     25  C   UNL A   1      42.997  35.493  31.663  1.00  0.00     0.141 C 
ATOM     26  C   UNL A   1      44.244  34.893  31.038  1.00  0.00     0.029 C 
ENDBRANCH  23  25
ENDBRANCH  17  18
ENDBRANCH  14  17
ENDBRANCH  12  14
ENDBRANCH  11  12
ENDBRANCH   7  11
ENDBRANCH   3   6
ENDBRANCH   1   2
BRANCH   1  27
ATOM     27  C   UNL A   1      34.013  35.299  29.046  1.00  0.00     0.023 C 
BRANCH  27  28
ATOM     28  C   UNL A   1      35.145  34.388  29.524  1.00  0.00     0.023 C 
BRANCH  28  29
ATOM     29  C   UNL A   1      34.689  33.049  30.088  1.00  0.00     0.116 C 
BRANCH  29  30
ATOM     30  N   UNL A   1      34.131  32.139  29.086  1.00  0.00    -0.352 N 
ATOM     31  C   UNL A   1      34.828  31.192  28.347  1.00  0.00     0.251 C 
ATOM     32  H   UNL A   1      33.163  32.206  28.918  1.00  0.00     0.163 HD
ATOM     33  O   UNL A   1      34.392  30.756  27.298  1.00  0.00    -0.269 OA
BRANCH  31  34
ATOM     34  C   UNL A   1      36.121  30.718  28.883  1.00  0.00     0.039 A 
ATOM     35  C   UNL A   1      36.246  29.456  29.471  1.00  0.00     0.014 A 
ATOM     36  C   UNL A   1      37.228  31.549  28.723  1.00  0.00     0.014 A 
ATOM     37  C   UNL A   1      37.518  28.995  29.803  1.00  0.00     0.010 A 
ATOM     38  C   UNL A   1      38.488  31.046  28.931  1.00  0.00     0.010 A 
ATOM     39  C   UNL A   1      38.641  29.785  29.502  1.00  0.00    -0.014 A 
BRANCH  39  40
ATOM     40  C   UNL A   1      39.990  29.227  29.595  1.00  0.00     0.031 A 
ATOM     41  C   UNL A   1      40.482  29.093  30.997  1.00  0.00     0.074 A 
ATOM     42  C   UNL A   1      40.619  28.655  28.544  1.00  0.00     0.049 A 
ATOM     43  N   UNL A   1      41.445  29.745  31.562  1.00  0.00    -0.248 NA
ATOM     44  C   UNL A   1      39.697  28.272  31.936  1.00  0.00     0.031 C 
ATOM     45  C   UNL A   1      40.074  28.445  27.196  1.00  0.00     0.029 A 
ATOM     46  N   UNL A   1      41.809  27.989  28.488  1.00  0.00    -0.354 N 
ATOM     47  C   UNL A   1      41.563  29.196  32.839  1.00  0.00     0.074 A 
ATOM     48  C   UNL A   1      40.323  28.514  33.088  1.00  0.00     0.031 C 
ATOM     49  C   UNL A   1      40.788  27.491  26.563  1.00  0.00     0.029 A 
ATOM     50  C   UNL A   1      41.931  27.142  27.384  1.00  0.00     0.049 A 
ATOM     51  H   UNL A   1      42.517  28.095  29.164  1.00  0.00     0.167 HD
ATOM     52  C   UNL A   1      42.784  29.072  33.432  1.00  0.00     0.034 A 
ATOM     53  C   UNL A   1      42.869  26.182  27.179  1.00  0.00     0.034 A 
ATOM     54  C   UNL A   1      43.765  29.882  32.746  1.00  0.00     0.049 A 
ATOM     55  C   UNL A   1      44.002  26.483  28.077  1.00  0.00     0.074 A 
ATOM     56  C   UNL A   1      43.900  31.217  32.424  1.00  0.00     0.029 A 
ATOM     57  N   UNL A   1      44.634  29.201  31.931  1.00  0.00    -0.354 N 
ATOM     58  N   UNL A   1      44.774  27.522  27.939  1.00  0.00    -0.248 NA
ATOM     59  C   UNL A   1      44.032  25.844  29.380  1.00  0.00     0.031 C 
ATOM     60  C   UNL A   1      44.520  31.227  31.138  1.00  0.00     0.029 A 
ATOM     61  C   UNL A   1      44.804  29.909  30.777  1.00  0.00     0.049 A 
ATOM     62  H   UNL A   1      45.065  28.342  32.144  1.00  0.00     0.167 HD
ATOM     63  C   UNL A   1      44.983  27.956  29.239  1.00  0.00     0.074 A 
ATOM     64  C   UNL A   1      44.632  26.811  30.079  1.00  0.00     0.031 C 
ATOM     65  C   UNL A   1      45.119  29.288  29.510  1.00  0.00     0.034 A 
BRANCH  52  66
ATOM     66  C   UNL A   1      43.230  27.899  34.302  1.00  0.00     0.023 A 
ATOM     67  C   UNL A   1      43.720  28.220  35.593  1.00  0.00     0.012 A 
ATOM     68  C   UNL A   1      43.489  26.586  33.843  1.00  0.00     0.148 A 
ATOM     69  C   UNL A   1      44.518  27.336  36.325  1.00  0.00     0.002 A 
ATOM     70  C   UNL A   1      44.224  25.684  34.607  1.00  0.00     0.091 A 
ATOM     71  F   UNL A   1      43.132  26.212  32.616  1.00  0.00    -0.205 F 
ATOM     72  C   UNL A   1      44.776  26.066  35.830  1.00  0.00     0.022 A 
BRANCH  70  73
ATOM     73  S   UNL A   1      44.553  24.008  34.037  1.00  0.00     0.127 S 
ATOM     74  O   UNL A   1      43.201  23.474  33.914  1.00  0.00    -0.237 OA
ATOM     75  O   UNL A   1      45.241  24.259  32.770  1.00  0.00    -0.237 OA
ATOM     76  O   UNL A   1      45.390  23.395  35.061  1.00  0.00    -0.744 OA
ENDBRANCH  70  73
ENDBRANCH  52  66
BRANCH  53  77
ATOM     77  C   UNL A   1      42.803  24.900  26.438  1.00  0.00     0.023 A 
ATOM     78  C   UNL A   1      43.911  24.483  25.671  1.00  0.00     0.012 A 
ATOM     79  C   UNL A   1      41.795  23.953  26.719  1.00  0.00     0.148 A 
ATOM     80  C   UNL A   1      44.035  23.156  25.239  1.00  0.00     0.002 A 
ATOM     81  C   UNL A   1      41.920  22.636  26.282  1.00  0.00     0.091 A 
ATOM     82  F   UNL A   1      40.765  24.318  27.493  1.00  0.00    -0.205 F 
ATOM     83  C   UNL A   1      43.046  22.230  25.554  1.00  0.00     0.022 A 
BRANCH  81  84
ATOM     84  S   UNL A   1      40.699  21.377  26.679  1.00  0.00     0.127 S 
ATOM     85  O   UNL A   1      41.283  20.185  26.065  1.00  0.00    -0.237 OA
ATOM     86  O   UNL A   1      40.721  21.387  28.140  1.00  0.00    -0.237 OA
ATOM     87  O   UNL A   1      39.457  21.824  26.061  1.00  0.00    -0.744 OA
ENDBRANCH  81  84
ENDBRANCH  53  77
BRANCH  65  88
ATOM     88  C   UNL A   1      45.411  30.215  28.359  1.00  0.00     0.023 A 
ATOM     89  C   UNL A   1      44.409  30.801  27.558  1.00  0.00     0.012 A 
ATOM     90  C   UNL A   1      46.747  30.602  28.163  1.00  0.00     0.148 A 
ATOM     91  C   UNL A   1      44.740  31.724  26.562  1.00  0.00     0.002 A 
ATOM     92  C   UNL A   1      47.066  31.557  27.209  1.00  0.00     0.091 A 
ATOM     93  F   UNL A   1      47.691  30.034  28.931  1.00  0.00    -0.205 F 
ATOM     94  C   UNL A   1      46.068  32.112  26.396  1.00  0.00     0.022 A 
BRANCH  92  95
ATOM     95  S   UNL A   1      48.743  32.168  27.044  1.00  0.00     0.127 S 
ATOM     96  O   UNL A   1      49.473  30.961  26.666  1.00  0.00    -0.237 OA
ATOM     97  O   UNL A   1      48.615  33.166  25.980  1.00  0.00    -0.237 OA
ATOM     98  O   UNL A   1      49.088  32.733  28.344  1.00  0.00    -0.744 OA
ENDBRANCH  92  95
ENDBRANCH  65  88
ENDBRANCH  39  40
ENDBRANCH  31  34
ENDBRANCH  29  30
ENDBRANCH  28  29
ENDBRANCH  27  28
ENDBRANCH   1  27
TORSDOF 21
ENDMDL
MODEL 3
REMARK VINA RESULT:      -9.3      4.741     11.296
REMARK SMILES CCN(Cc1c(C)nn(CC)c1C)C(=O)Cn1ccc(C(=O)NCCCCNC(=O)c2ccc(-c3c4nc(c(-c5cccc(S(=O)(=O)[O-])c5F)c5ccc([nH]5)c(-c5cccc(S(=O)(=O)[O-])c5F)c5nc(c(-c6cccc(S(=O)(=O)[O-])c6F)c6ccc3[nH]6)C=C5)C=C4)cc2)n1
REMARK SMILES IDX 24 1 23 2 21 3 22 4 20 6 17 7 18 8 94 9 19 10 16 11 14 12
REMARK SMILES IDX 15 13 3 14 2 15 1 16 4 17 5 18 6 19 12 20 7 21 8 22 9 23
REMARK SMILES IDX 13 24 10 25 11 26 25 27 26 28 27 29 28 30 29 31 30 33 31 34
REMARK SMILES IDX 32 35 93 36 33 37 92 38 34 39 35 40 36 41 86 42 37 43 91 44
REMARK SMILES IDX 85 45 87 46 38 47 90 48 84 49 83 50 39 52 71 53 51 54 70 55
REMARK SMILES IDX 52 56 55 57 69 58 88 59 53 60 54 61 68 63 89 64 56 65 40 66
REMARK SMILES IDX 41 67 49 68 42 69 44 70 50 71 43 72 45 73 46 74 47 75 48 76
REMARK SMILES IDX 72 77 73 78 81 79 74 80 76 81 82 82 75 83 77 84 78 85 79 86
REMARK SMILES IDX 80 87 57 88 58 89 66 90 59 91 61 92 67 93 60 94 62 95 63 96
REMARK SMILES IDX 64 97 65 98
REMARK H PARENT 23 5 28 32 87 51 55 62
REMARK Flexibility Score: inf
ROOT
ATOM      1  C   UNL A   1      40.697  21.640  25.781  1.00  0.00     0.116 C 
ENDROOT
BRANCH   1   2
ATOM      2  N   UNL A   1      40.131  22.730  26.541  1.00  0.00    -0.351 N 
ATOM      3  C   UNL A   1      38.861  23.295  26.520  1.00  0.00     0.271 C 
ATOM      4  O   UNL A   1      38.693  24.271  27.258  1.00  0.00    -0.267 OA
ATOM      5  H   UNL A   1      40.751  23.145  27.184  1.00  0.00     0.163 HD
BRANCH   3   6
ATOM      6  C   UNL A   1      37.768  22.862  25.601  1.00  0.00     0.150 A 
ATOM      7  N   UNL A   1      36.046  22.881  24.303  1.00  0.00    -0.263 N 
ATOM      8  C   UNL A   1      36.188  21.570  24.670  1.00  0.00     0.110 A 
ATOM      9  N   UNL A   1      37.038  23.655  24.792  1.00  0.00    -0.167 NA
ATOM     10  C   UNL A   1      37.293  21.522  25.486  1.00  0.00     0.056 A 
BRANCH   7  11
ATOM     11  C   UNL A   1      34.805  23.466  23.794  1.00  0.00     0.244 C 
BRANCH  11  12
ATOM     12  C   UNL A   1      33.553  23.215  24.600  1.00  0.00     0.244 C 
ATOM     13  O   UNL A   1      32.740  22.385  24.168  1.00  0.00    -0.273 OA
BRANCH  12  14
ATOM     14  N   UNL A   1      33.340  23.840  25.828  1.00  0.00    -0.337 N 
BRANCH  14  15
ATOM     15  C   UNL A   1      32.853  22.973  26.912  1.00  0.00     0.116 C 
ATOM     16  C   UNL A   1      33.954  22.110  27.531  1.00  0.00     0.027 C 
ENDBRANCH  14  15
BRANCH  14  17
ATOM     17  C   UNL A   1      33.183  25.284  26.027  1.00  0.00     0.159 C 
BRANCH  17  18
ATOM     18  C   UNL A   1      32.199  25.970  25.120  1.00  0.00     0.015 A 
ATOM     19  C   UNL A   1      30.782  25.901  25.256  1.00  0.00     0.065 A 
ATOM     20  C   UNL A   1      32.378  26.675  23.924  1.00  0.00     0.041 A 
ATOM     21  C   UNL A   1      29.991  25.211  26.305  1.00  0.00     0.069 C 
ATOM     22  N   UNL A   1      30.141  26.531  24.268  1.00  0.00    -0.178 NA
ATOM     23  N   UNL A   1      31.118  26.969  23.464  1.00  0.00    -0.270 N 
ATOM     24  C   UNL A   1      33.568  27.107  23.141  1.00  0.00     0.067 C 
BRANCH  23  25
ATOM     25  C   UNL A   1      30.765  27.670  22.241  1.00  0.00     0.141 C 
ATOM     26  C   UNL A   1      30.526  29.153  22.464  1.00  0.00     0.029 C 
ENDBRANCH  23  25
ENDBRANCH  17  18
ENDBRANCH  14  17
ENDBRANCH  12  14
ENDBRANCH  11  12
ENDBRANCH   7  11
ENDBRANCH   3   6
ENDBRANCH   1   2
BRANCH   1  27
ATOM     27  C   UNL A   1      40.369  20.230  26.292  1.00  0.00     0.023 C 
BRANCH  27  28
ATOM     28  C   UNL A   1      41.450  19.161  26.129  1.00  0.00     0.023 C 
BRANCH  28  29
ATOM     29  C   UNL A   1      42.878  19.682  26.219  1.00  0.00     0.116 C 
BRANCH  29  30
ATOM     30  N   UNL A   1      43.694  19.391  25.039  1.00  0.00    -0.352 N 
ATOM     31  C   UNL A   1      44.314  20.319  24.211  1.00  0.00     0.251 C 
ATOM     32  H   UNL A   1      43.816  18.442  24.808  1.00  0.00     0.163 HD
ATOM     33  O   UNL A   1      44.640  20.038  23.073  1.00  0.00    -0.269 OA
BRANCH  31  34
ATOM     34  C   UNL A   1      44.576  21.664  24.762  1.00  0.00     0.039 A 
ATOM     35  C   UNL A   1      43.771  22.757  24.427  1.00  0.00     0.014 A 
ATOM     36  C   UNL A   1      45.617  21.793  25.680  1.00  0.00     0.014 A 
ATOM     37  C   UNL A   1      43.959  23.959  25.106  1.00  0.00     0.010 A 
ATOM     38  C   UNL A   1      45.716  22.935  26.436  1.00  0.00     0.010 A 
ATOM     39  C   UNL A   1      44.916  24.033  26.132  1.00  0.00    -0.014 A 
BRANCH  39  40
ATOM     40  C   UNL A   1      44.956  25.188  27.030  1.00  0.00     0.031 A 
ATOM     41  C   UNL A   1      46.046  26.154  26.708  1.00  0.00     0.074 A 
ATOM     42  C   UNL A   1      43.958  25.477  27.894  1.00  0.00     0.049 A 
ATOM     43  N   UNL A   1      47.096  26.424  27.412  1.00  0.00    -0.248 NA
ATOM     44  C   UNL A   1      46.069  26.755  25.362  1.00  0.00     0.031 C 
ATOM     45  C   UNL A   1      42.685  24.758  28.046  1.00  0.00     0.029 A 
ATOM     46  N   UNL A   1      43.782  26.562  28.703  1.00  0.00    -0.354 N 
ATOM     47  C   UNL A   1      47.750  27.445  26.721  1.00  0.00     0.074 A 
ATOM     48  C   UNL A   1      47.233  27.406  25.382  1.00  0.00     0.031 C 
ATOM     49  C   UNL A   1      41.787  25.555  28.663  1.00  0.00     0.029 A 
ATOM     50  C   UNL A   1      42.457  26.766  29.096  1.00  0.00     0.049 A 
ATOM     51  H   UNL A   1      44.521  27.149  28.983  1.00  0.00     0.167 HD
ATOM     52  C   UNL A   1      48.404  28.432  27.397  1.00  0.00     0.034 A 
ATOM     53  C   UNL A   1      41.931  27.870  29.685  1.00  0.00     0.034 A 
ATOM     54  C   UNL A   1      48.611  28.052  28.776  1.00  0.00     0.049 A 
ATOM     55  C   UNL A   1      43.055  28.632  30.262  1.00  0.00     0.074 A 
ATOM     56  C   UNL A   1      49.219  27.003  29.436  1.00  0.00     0.029 A 
ATOM     57  N   UNL A   1      47.779  28.649  29.689  1.00  0.00    -0.354 N 
ATOM     58  N   UNL A   1      43.768  28.214  31.269  1.00  0.00    -0.248 NA
ATOM     59  C   UNL A   1      43.654  29.685  29.461  1.00  0.00     0.031 C 
ATOM     60  C   UNL A   1      48.397  26.759  30.578  1.00  0.00     0.029 A 
ATOM     61  C   UNL A   1      47.382  27.716  30.602  1.00  0.00     0.049 A 
ATOM     62  H   UNL A   1      47.513  29.597  29.687  1.00  0.00     0.167 HD
ATOM     63  C   UNL A   1      45.064  28.571  30.930  1.00  0.00     0.074 A 
ATOM     64  C   UNL A   1      44.914  29.593  29.894  1.00  0.00     0.031 C 
ATOM     65  C   UNL A   1      46.117  27.784  31.299  1.00  0.00     0.034 A 
BRANCH  52  66
ATOM     66  C   UNL A   1      48.444  29.904  26.992  1.00  0.00     0.023 A 
ATOM     67  C   UNL A   1      49.693  30.562  27.126  1.00  0.00     0.012 A 
ATOM     68  C   UNL A   1      47.316  30.736  26.800  1.00  0.00     0.148 A 
ATOM     69  C   UNL A   1      49.795  31.956  27.186  1.00  0.00     0.002 A 
ATOM     70  C   UNL A   1      47.432  32.123  26.790  1.00  0.00     0.091 A 
ATOM     71  F   UNL A   1      46.092  30.216  26.736  1.00  0.00    -0.205 F 
ATOM     72  C   UNL A   1      48.662  32.739  27.024  1.00  0.00     0.022 A 
BRANCH  70  73
ATOM     73  S   UNL A   1      46.004  33.191  26.539  1.00  0.00     0.127 S 
ATOM     74  O   UNL A   1      46.639  34.410  26.048  1.00  0.00    -0.237 OA
ATOM     75  O   UNL A   1      45.246  32.437  25.540  1.00  0.00    -0.237 OA
ATOM     76  O   UNL A   1      45.349  33.292  27.837  1.00  0.00    -0.744 OA
ENDBRANCH  70  73
ENDBRANCH  52  66
BRANCH  53  77
ATOM     77  C   UNL A   1      40.570  28.452  29.618  1.00  0.00     0.023 A 
ATOM     78  C   UNL A   1      39.855  28.415  28.402  1.00  0.00     0.012 A 
ATOM     79  C   UNL A   1      39.857  28.764  30.796  1.00  0.00     0.148 A 
ATOM     80  C   UNL A   1      38.472  28.634  28.366  1.00  0.00     0.002 A 
ATOM     81  C   UNL A   1      38.483  28.987  30.755  1.00  0.00     0.091 A 
ATOM     82  F   UNL A   1      40.509  28.748  31.967  1.00  0.00    -0.205 F 
ATOM     83  C   UNL A   1      37.785  28.908  29.544  1.00  0.00     0.022 A 
BRANCH  81  84
ATOM     84  S   UNL A   1      37.523  29.313  32.240  1.00  0.00     0.127 S 
ATOM     85  O   UNL A   1      38.235  30.454  32.816  1.00  0.00    -0.237 OA
ATOM     86  O   UNL A   1      36.208  29.628  31.684  1.00  0.00    -0.237 OA
ATOM     87  O   UNL A   1      37.599  28.095  33.035  1.00  0.00    -0.744 OA
ENDBRANCH  81  84
ENDBRANCH  53  77
BRANCH  65  88
ATOM     88  C   UNL A   1      45.885  26.755  32.376  1.00  0.00     0.023 A 
ATOM     89  C   UNL A   1      45.439  25.443  32.114  1.00  0.00     0.012 A 
ATOM     90  C   UNL A   1      46.253  27.097  33.687  1.00  0.00     0.148 A 
ATOM     91  C   UNL A   1      45.329  24.507  33.147  1.00  0.00     0.002 A 
ATOM     92  C   UNL A   1      46.193  26.151  34.700  1.00  0.00     0.091 A 
ATOM     93  F   UNL A   1      46.674  28.351  33.921  1.00  0.00    -0.205 F 
ATOM     94  C   UNL A   1      45.719  24.858  34.438  1.00  0.00     0.022 A 
BRANCH  92  95
ATOM     95  S   UNL A   1      46.794  26.526  36.346  1.00  0.00     0.127 S 
ATOM     96  O   UNL A   1      48.183  26.897  36.087  1.00  0.00    -0.237 OA
ATOM     97  O   UNL A   1      45.929  27.635  36.755  1.00  0.00    -0.237 OA
ATOM     98  O   UNL A   1      46.600  25.309  37.125  1.00  0.00    -0.744 OA
ENDBRANCH  92  95
ENDBRANCH  65  88
ENDBRANCH  39  40
ENDBRANCH  31  34
ENDBRANCH  29  30
ENDBRANCH  28  29
ENDBRANCH  27  28
ENDBRANCH   1  27
TORSDOF 21
ENDMDL
