MODEL 1
REMARK VINA RESULT:     -11.1      0.000      0.000
REMARK SMILES C[C@H]1OCC[C@H]1c1nnnn1CCC(=O)NCCCCNC(=O)c1ccc(-c2c3nc(c(-c4cccc(S(=O)(=O)[O-])c4F)c4ccc([nH]4)c(-c4cccc(S(=O)(=O)[O-])c4F)c4nc(c(-c5cccc(S(=O)(=O)[O-])c5F)c5ccc2[nH]5)C=C4)C=C3)cc1
REMARK SMILES IDX 18 1 17 2 16 3 14 4 15 5 13 7 12 8 11 9 7 10 8 11 9 12 10 13
REMARK SMILES IDX 6 14 1 15 2 16 3 17 4 18 5 19 19 20 20 21 21 22 22 23 23 25
REMARK SMILES IDX 24 26 25 27 86 28 26 29 85 30 27 31 28 32 29 33 79 34 30 35
REMARK SMILES IDX 84 36 78 37 80 38 31 39 83 40 77 41 76 42 32 44 64 45 44 46
REMARK SMILES IDX 63 47 45 48 48 49 62 50 81 51 46 52 47 53 61 55 82 56 49 57
REMARK SMILES IDX 33 58 34 59 42 60 35 61 37 62 43 63 36 64 38 65 39 66 40 67
REMARK SMILES IDX 41 68 65 69 66 70 74 71 67 72 69 73 75 74 68 75 70 76 71 77
REMARK SMILES IDX 72 78 73 79 50 80 51 81 59 82 52 83 54 84 60 85 53 86 55 87
REMARK SMILES IDX 56 88 57 89 58 90
REMARK H PARENT 16 6 21 24 80 43 48 54
REMARK Flexibility Score: inf
ROOT
ATOM      1  C   UNL A   1      37.054  21.891  24.864  1.00  0.00     0.023 C 
ENDROOT
BRANCH   1   2
ATOM      2  C   UNL A   1      35.779  21.984  25.701  1.00  0.00     0.116 C 
BRANCH   2   3
ATOM      3  N   UNL A   1      34.603  21.862  24.853  1.00  0.00    -0.356 N 
ATOM      4  C   UNL A   1      33.702  22.810  24.474  1.00  0.00     0.221 C 
ATOM      5  O   UNL A   1      32.627  22.464  23.982  1.00  0.00    -0.275 OA
ATOM      6  H   UNL A   1      34.432  20.960  24.501  1.00  0.00     0.163 HD
BRANCH   4   7
ATOM      7  C   UNL A   1      34.014  24.281  24.633  1.00  0.00     0.124 C 
BRANCH   7   8
ATOM      8  C   UNL A   1      32.847  25.157  24.202  1.00  0.00     0.158 C 
BRANCH   8   9
ATOM      9  N   UNL A   1      32.138  25.770  25.302  1.00  0.00    -0.229 N 
ATOM     10  C   UNL A   1      32.439  26.888  26.046  1.00  0.00     0.157 A 
ATOM     11  N   UNL A   1      31.510  27.005  26.975  1.00  0.00    -0.113 NA
ATOM     12  N   UNL A   1      30.550  26.081  26.672  1.00  0.00    -0.024 NA
ATOM     13  N   UNL A   1      30.889  25.382  25.600  1.00  0.00    -0.045 NA
BRANCH  10  14
ATOM     14  C   UNL A   1      33.486  27.895  25.701  1.00  0.00     0.090 C 
ATOM     15  C   UNL A   1      31.583  28.924  24.209  1.00  0.00     0.039 C 
ATOM     16  C   UNL A   1      32.908  29.110  24.941  1.00  0.00     0.126 C 
ATOM     17  O   UNL A   1      32.744  30.189  25.887  1.00  0.00    -0.378 OA
ATOM     18  C   UNL A   1      33.127  29.715  27.182  1.00  0.00     0.161 C 
ATOM     19  C   UNL A   1      34.079  28.564  26.933  1.00  0.00     0.043 C 
ENDBRANCH  10  14
ENDBRANCH   8   9
ENDBRANCH   7   8
ENDBRANCH   4   7
ENDBRANCH   2   3
ENDBRANCH   1   2
BRANCH   1  20
ATOM     20  C   UNL A   1      37.856  20.596  24.973  1.00  0.00     0.023 C 
BRANCH  20  21
ATOM     21  C   UNL A   1      39.131  20.728  25.787  1.00  0.00     0.116 C 
BRANCH  21  22
ATOM     22  N   UNL A   1      39.965  19.527  25.736  1.00  0.00    -0.352 N 
ATOM     23  C   UNL A   1      41.327  19.455  25.941  1.00  0.00     0.251 C 
ATOM     24  H   UNL A   1      39.505  18.681  25.532  1.00  0.00     0.163 HD
ATOM     25  O   UNL A   1      41.985  18.470  25.625  1.00  0.00    -0.269 OA
BRANCH  23  26
ATOM     26  C   UNL A   1      41.970  20.631  26.545  1.00  0.00     0.039 A 
ATOM     27  C   UNL A   1      42.263  21.741  25.753  1.00  0.00     0.014 A 
ATOM     28  C   UNL A   1      42.053  20.680  27.936  1.00  0.00     0.014 A 
ATOM     29  C   UNL A   1      42.531  22.954  26.381  1.00  0.00     0.010 A 
ATOM     30  C   UNL A   1      42.227  21.906  28.548  1.00  0.00     0.010 A 
ATOM     31  C   UNL A   1      42.463  23.052  27.781  1.00  0.00    -0.014 A 
BRANCH  31  32
ATOM     32  C   UNL A   1      42.481  24.383  28.405  1.00  0.00     0.031 A 
ATOM     33  C   UNL A   1      41.294  25.263  28.151  1.00  0.00     0.074 A 
ATOM     34  C   UNL A   1      43.362  24.769  29.351  1.00  0.00     0.049 A 
ATOM     35  N   UNL A   1      41.274  26.432  27.592  1.00  0.00    -0.248 NA
ATOM     36  C   UNL A   1      39.963  24.764  28.528  1.00  0.00     0.031 C 
ATOM     37  C   UNL A   1      44.389  23.956  30.013  1.00  0.00     0.029 A 
ATOM     38  N   UNL A   1      43.415  25.949  30.036  1.00  0.00    -0.354 N 
ATOM     39  C   UNL A   1      39.964  26.903  27.718  1.00  0.00     0.074 A 
ATOM     40  C   UNL A   1      39.180  25.787  28.181  1.00  0.00     0.031 C 
ATOM     41  C   UNL A   1      44.756  24.558  31.163  1.00  0.00     0.029 A 
ATOM     42  C   UNL A   1      44.142  25.870  31.215  1.00  0.00     0.049 A 
ATOM     43  H   UNL A   1      42.980  26.775  29.724  1.00  0.00     0.167 HD
ATOM     44  C   UNL A   1      39.655  28.226  27.614  1.00  0.00     0.034 A 
ATOM     45  C   UNL A   1      44.217  26.800  32.191  1.00  0.00     0.034 A 
ATOM     46  C   UNL A   1      40.742  28.988  27.059  1.00  0.00     0.049 A 
ATOM     47  C   UNL A   1      43.851  28.105  31.602  1.00  0.00     0.074 A 
ATOM     48  C   UNL A   1      41.447  29.008  25.874  1.00  0.00     0.029 A 
ATOM     49  N   UNL A   1      41.459  29.756  27.941  1.00  0.00    -0.354 N 
ATOM     50  N   UNL A   1      44.568  28.722  30.704  1.00  0.00    -0.248 NA
ATOM     51  C   UNL A   1      42.508  28.622  31.793  1.00  0.00     0.031 C 
ATOM     52  C   UNL A   1      42.763  29.427  26.230  1.00  0.00     0.029 A 
ATOM     53  C   UNL A   1      42.780  29.649  27.610  1.00  0.00     0.049 A 
ATOM     54  H   UNL A   1      41.087  30.288  28.682  1.00  0.00     0.167 HD
ATOM     55  C   UNL A   1      43.642  29.399  29.927  1.00  0.00     0.074 A 
ATOM     56  C   UNL A   1      42.435  29.446  30.745  1.00  0.00     0.031 C 
ATOM     57  C   UNL A   1      43.847  29.587  28.589  1.00  0.00     0.034 A 
BRANCH  44  58
ATOM     58  C   UNL A   1      38.511  28.942  28.310  1.00  0.00     0.023 A 
ATOM     59  C   UNL A   1      37.655  29.733  27.504  1.00  0.00     0.012 A 
ATOM     60  C   UNL A   1      38.403  29.117  29.707  1.00  0.00     0.148 A 
ATOM     61  C   UNL A   1      36.792  30.691  28.051  1.00  0.00     0.002 A 
ATOM     62  C   UNL A   1      37.484  30.013  30.249  1.00  0.00     0.091 A 
ATOM     63  F   UNL A   1      39.277  28.522  30.525  1.00  0.00    -0.205 F 
ATOM     64  C   UNL A   1      36.701  30.827  29.428  1.00  0.00     0.022 A 
BRANCH  62  65
ATOM     65  S   UNL A   1      37.282  30.170  32.028  1.00  0.00     0.127 S 
ATOM     66  O   UNL A   1      38.525  30.832  32.408  1.00  0.00    -0.237 OA
ATOM     67  O   UNL A   1      36.080  30.999  32.129  1.00  0.00    -0.237 OA
ATOM     68  O   UNL A   1      37.099  28.803  32.505  1.00  0.00    -0.744 OA
ENDBRANCH  62  65
ENDBRANCH  44  58
BRANCH  45  69
ATOM     69  C   UNL A   1      44.467  26.622  33.635  1.00  0.00     0.023 A 
ATOM     70  C   UNL A   1      45.749  26.869  34.159  1.00  0.00     0.012 A 
ATOM     71  C   UNL A   1      43.395  26.442  34.538  1.00  0.00     0.148 A 
ATOM     72  C   UNL A   1      45.955  26.960  35.540  1.00  0.00     0.002 A 
ATOM     73  C   UNL A   1      43.606  26.524  35.911  1.00  0.00     0.091 A 
ATOM     74  F   UNL A   1      42.158  26.277  34.047  1.00  0.00    -0.205 F 
ATOM     75  C   UNL A   1      44.884  26.795  36.415  1.00  0.00     0.022 A 
BRANCH  73  76
ATOM     76  S   UNL A   1      42.267  26.324  37.094  1.00  0.00     0.127 S 
ATOM     77  O   UNL A   1      42.979  26.365  38.373  1.00  0.00    -0.237 OA
ATOM     78  O   UNL A   1      41.439  27.494  36.817  1.00  0.00    -0.237 OA
ATOM     79  O   UNL A   1      41.665  25.030  36.791  1.00  0.00    -0.744 OA
ENDBRANCH  73  76
ENDBRANCH  45  69
BRANCH  57  80
ATOM     80  C   UNL A   1      45.238  29.386  28.042  1.00  0.00     0.023 A 
ATOM     81  C   UNL A   1      46.211  30.404  28.088  1.00  0.00     0.012 A 
ATOM     82  C   UNL A   1      45.626  28.096  27.638  1.00  0.00     0.148 A 
ATOM     83  C   UNL A   1      47.532  30.154  27.710  1.00  0.00     0.002 A 
ATOM     84  C   UNL A   1      46.953  27.837  27.311  1.00  0.00     0.091 A 
ATOM     85  F   UNL A   1      44.694  27.130  27.607  1.00  0.00    -0.205 F 
ATOM     86  C   UNL A   1      47.906  28.866  27.335  1.00  0.00     0.022 A 
BRANCH  84  87
ATOM     87  S   UNL A   1      47.521  26.170  26.959  1.00  0.00     0.127 S 
ATOM     88  O   UNL A   1      48.970  26.343  26.911  1.00  0.00    -0.237 OA
ATOM     89  O   UNL A   1      47.033  25.415  28.115  1.00  0.00    -0.237 OA
ATOM     90  O   UNL A   1      46.886  25.797  25.700  1.00  0.00    -0.744 OA
ENDBRANCH  84  87
ENDBRANCH  57  80
ENDBRANCH  31  32
ENDBRANCH  23  26
ENDBRANCH  21  22
ENDBRANCH  20  21
ENDBRANCH   1  20
TORSDOF 17
ENDMDL
MODEL 2
REMARK VINA RESULT:     -10.8      1.780      2.232
REMARK SMILES C[C@H]1OCC[C@H]1c1nnnn1CCC(=O)NCCCCNC(=O)c1ccc(-c2c3nc(c(-c4cccc(S(=O)(=O)[O-])c4F)c4ccc([nH]4)c(-c4cccc(S(=O)(=O)[O-])c4F)c4nc(c(-c5cccc(S(=O)(=O)[O-])c5F)c5ccc2[nH]5)C=C4)C=C3)cc1
REMARK SMILES IDX 18 1 17 2 16 3 14 4 15 5 13 7 12 8 11 9 7 10 8 11 9 12 10 13
REMARK SMILES IDX 6 14 1 15 2 16 3 17 4 18 5 19 19 20 20 21 21 22 22 23 23 25
REMARK SMILES IDX 24 26 25 27 86 28 26 29 85 30 27 31 28 32 29 33 79 34 30 35
REMARK SMILES IDX 84 36 78 37 80 38 31 39 83 40 77 41 76 42 32 44 64 45 44 46
REMARK SMILES IDX 63 47 45 48 48 49 62 50 81 51 46 52 47 53 61 55 82 56 49 57
REMARK SMILES IDX 33 58 34 59 42 60 35 61 37 62 43 63 36 64 38 65 39 66 40 67
REMARK SMILES IDX 41 68 65 69 66 70 74 71 67 72 69 73 75 74 68 75 70 76 71 77
REMARK SMILES IDX 72 78 73 79 50 80 51 81 59 82 52 83 54 84 60 85 53 86 55 87
REMARK SMILES IDX 56 88 57 89 58 90
REMARK H PARENT 16 6 21 24 80 43 48 54
REMARK Flexibility Score: inf
ROOT
ATOM      1  C   UNL A   1      37.161  21.674  24.971  1.00  0.00     0.023 C 
ENDROOT
BRANCH   1   2
ATOM      2  C   UNL A   1      35.857  21.653  25.768  1.00  0.00     0.116 C 
BRANCH   2   3
ATOM      3  N   UNL A   1      34.781  21.086  24.970  1.00  0.00    -0.356 N 
ATOM      4  C   UNL A   1      33.786  21.711  24.282  1.00  0.00     0.221 C 
ATOM      5  O   UNL A   1      32.814  21.061  23.895  1.00  0.00    -0.275 OA
ATOM      6  H   UNL A   1      34.770  20.104  24.919  1.00  0.00     0.163 HD
BRANCH   4   7
ATOM      7  C   UNL A   1      33.871  23.188  23.971  1.00  0.00     0.124 C 
BRANCH   7   8
ATOM      8  C   UNL A   1      32.646  23.678  23.212  1.00  0.00     0.158 C 
BRANCH   8   9
ATOM      9  N   UNL A   1      32.788  25.010  22.669  1.00  0.00    -0.229 N 
ATOM     10  C   UNL A   1      32.141  26.181  22.993  1.00  0.00     0.157 A 
ATOM     11  N   UNL A   1      32.582  27.115  22.173  1.00  0.00    -0.113 NA
ATOM     12  N   UNL A   1      33.629  26.560  21.491  1.00  0.00    -0.024 NA
ATOM     13  N   UNL A   1      33.813  25.300  21.854  1.00  0.00    -0.045 NA
BRANCH  10  14
ATOM     14  C   UNL A   1      31.285  26.385  24.199  1.00  0.00     0.090 C 
ATOM     15  C   UNL A   1      33.594  26.687  25.419  1.00  0.00     0.039 C 
ATOM     16  C   UNL A   1      32.087  26.923  25.407  1.00  0.00     0.126 C 
ATOM     17  O   UNL A   1      31.861  28.346  25.491  1.00  0.00    -0.378 OA
ATOM     18  C   UNL A   1      31.023  28.736  24.398  1.00  0.00     0.161 C 
ATOM     19  C   UNL A   1      30.258  27.491  24.004  1.00  0.00     0.043 C 
ENDBRANCH  10  14
ENDBRANCH   8   9
ENDBRANCH   7   8
ENDBRANCH   4   7
ENDBRANCH   2   3
ENDBRANCH   1   2
BRANCH   1  20
ATOM     20  C   UNL A   1      38.019  20.412  25.019  1.00  0.00     0.023 C 
BRANCH  20  21
ATOM     21  C   UNL A   1      39.285  20.559  25.843  1.00  0.00     0.116 C 
BRANCH  21  22
ATOM     22  N   UNL A   1      40.166  19.395  25.745  1.00  0.00    -0.352 N 
ATOM     23  C   UNL A   1      41.536  19.375  25.906  1.00  0.00     0.251 C 
ATOM     24  H   UNL A   1      39.734  18.533  25.543  1.00  0.00     0.163 HD
ATOM     25  O   UNL A   1      42.222  18.423  25.553  1.00  0.00    -0.269 OA
BRANCH  23  26
ATOM     26  C   UNL A   1      42.149  20.568  26.507  1.00  0.00     0.039 A 
ATOM     27  C   UNL A   1      42.371  21.701  25.724  1.00  0.00     0.014 A 
ATOM     28  C   UNL A   1      42.276  20.600  27.896  1.00  0.00     0.014 A 
ATOM     29  C   UNL A   1      42.610  22.914  26.363  1.00  0.00     0.010 A 
ATOM     30  C   UNL A   1      42.419  21.823  28.522  1.00  0.00     0.010 A 
ATOM     31  C   UNL A   1      42.584  22.989  27.765  1.00  0.00    -0.014 A 
BRANCH  31  32
ATOM     32  C   UNL A   1      42.568  24.310  28.410  1.00  0.00     0.031 A 
ATOM     33  C   UNL A   1      41.361  25.165  28.167  1.00  0.00     0.074 A 
ATOM     34  C   UNL A   1      43.439  24.703  29.363  1.00  0.00     0.049 A 
ATOM     35  N   UNL A   1      41.313  26.341  27.626  1.00  0.00    -0.248 NA
ATOM     36  C   UNL A   1      40.042  24.627  28.533  1.00  0.00     0.031 C 
ATOM     37  C   UNL A   1      44.483  23.906  30.015  1.00  0.00     0.029 A 
ATOM     38  N   UNL A   1      43.461  25.873  30.066  1.00  0.00    -0.354 N 
ATOM     39  C   UNL A   1      39.992  26.778  27.756  1.00  0.00     0.074 A 
ATOM     40  C   UNL A   1      39.234  25.636  28.200  1.00  0.00     0.031 C 
ATOM     41  C   UNL A   1      44.834  24.499  31.175  1.00  0.00     0.029 A 
ATOM     42  C   UNL A   1      44.187  25.794  31.246  1.00  0.00     0.049 A 
ATOM     43  H   UNL A   1      43.006  26.693  29.766  1.00  0.00     0.167 HD
ATOM     44  C   UNL A   1      39.651  28.095  27.672  1.00  0.00     0.034 A 
ATOM     45  C   UNL A   1      44.238  26.711  32.236  1.00  0.00     0.034 A 
ATOM     46  C   UNL A   1      40.720  28.891  27.131  1.00  0.00     0.049 A 
ATOM     47  C   UNL A   1      43.842  28.015  31.666  1.00  0.00     0.074 A 
ATOM     48  C   UNL A   1      41.426  28.947  25.948  1.00  0.00     0.029 A 
ATOM     49  N   UNL A   1      41.416  29.663  28.026  1.00  0.00    -0.354 N 
ATOM     50  N   UNL A   1      44.545  28.663  30.779  1.00  0.00    -0.248 NA
ATOM     51  C   UNL A   1      42.486  28.496  31.862  1.00  0.00     0.031 C 
ATOM     52  C   UNL A   1      42.731  29.392  26.313  1.00  0.00     0.029 A 
ATOM     53  C   UNL A   1      42.740  29.593  27.696  1.00  0.00     0.049 A 
ATOM     54  H   UNL A   1      41.030  30.174  28.774  1.00  0.00     0.167 HD
ATOM     55  C   UNL A   1      43.604  29.329  30.011  1.00  0.00     0.074 A 
ATOM     56  C   UNL A   1      42.395  29.334  30.827  1.00  0.00     0.031 C 
ATOM     57  C   UNL A   1      43.806  29.542  28.676  1.00  0.00     0.034 A 
BRANCH  44  58
ATOM     58  C   UNL A   1      38.488  28.772  28.376  1.00  0.00     0.023 A 
ATOM     59  C   UNL A   1      37.595  29.526  27.575  1.00  0.00     0.012 A 
ATOM     60  C   UNL A   1      38.389  28.950  29.773  1.00  0.00     0.148 A 
ATOM     61  C   UNL A   1      36.703  30.455  28.126  1.00  0.00     0.002 A 
ATOM     62  C   UNL A   1      37.443  29.815  30.321  1.00  0.00     0.091 A 
ATOM     63  F   UNL A   1      39.293  28.393  30.585  1.00  0.00    -0.205 F 
ATOM     64  C   UNL A   1      36.622  30.595  29.504  1.00  0.00     0.022 A 
BRANCH  62  65
ATOM     65  S   UNL A   1      37.254  29.975  32.100  1.00  0.00     0.127 S 
ATOM     66  O   UNL A   1      37.060  28.586  32.502  1.00  0.00    -0.237 OA
ATOM     67  O   UNL A   1      38.535  30.561  32.495  1.00  0.00    -0.237 OA
ATOM     68  O   UNL A   1      36.115  30.869  32.276  1.00  0.00    -0.744 OA
ENDBRANCH  62  65
ENDBRANCH  44  58
BRANCH  45  69
ATOM     69  C   UNL A   1      44.490  26.517  33.678  1.00  0.00     0.023 A 
ATOM     70  C   UNL A   1      45.777  26.741  34.200  1.00  0.00     0.012 A 
ATOM     71  C   UNL A   1      43.418  26.344  34.583  1.00  0.00     0.148 A 
ATOM     72  C   UNL A   1      45.988  26.817  35.580  1.00  0.00     0.002 A 
ATOM     73  C   UNL A   1      43.634  26.411  35.955  1.00  0.00     0.091 A 
ATOM     74  F   UNL A   1      42.178  26.200  34.094  1.00  0.00    -0.205 F 
ATOM     75  C   UNL A   1      44.917  26.660  36.458  1.00  0.00     0.022 A 
BRANCH  73  76
ATOM     76  S   UNL A   1      42.297  26.219  37.141  1.00  0.00     0.127 S 
ATOM     77  O   UNL A   1      41.903  24.824  36.938  1.00  0.00    -0.237 OA
ATOM     78  O   UNL A   1      42.973  26.486  38.407  1.00  0.00    -0.237 OA
ATOM     79  O   UNL A   1      41.279  27.187  36.745  1.00  0.00    -0.744 OA
ENDBRANCH  73  76
ENDBRANCH  45  69
BRANCH  57  80
ATOM     80  C   UNL A   1      45.203  29.384  28.129  1.00  0.00     0.023 A 
ATOM     81  C   UNL A   1      45.647  28.174  27.558  1.00  0.00     0.012 A 
ATOM     82  C   UNL A   1      46.022  30.522  28.026  1.00  0.00     0.148 A 
ATOM     83  C   UNL A   1      46.890  28.091  26.927  1.00  0.00     0.002 A 
ATOM     84  C   UNL A   1      47.237  30.449  27.353  1.00  0.00     0.091 A 
ATOM     85  F   UNL A   1      45.586  31.672  28.565  1.00  0.00    -0.205 F 
ATOM     86  C   UNL A   1      47.679  29.232  26.812  1.00  0.00     0.022 A 
BRANCH  84  87
ATOM     87  S   UNL A   1      48.228  31.915  27.050  1.00  0.00     0.127 S 
ATOM     88  O   UNL A   1      47.394  32.662  26.112  1.00  0.00    -0.237 OA
ATOM     89  O   UNL A   1      48.333  32.511  28.384  1.00  0.00    -0.237 OA
ATOM     90  O   UNL A   1      49.498  31.429  26.521  1.00  0.00    -0.744 OA
ENDBRANCH  84  87
ENDBRANCH  57  80
ENDBRANCH  31  32
ENDBRANCH  23  26
ENDBRANCH  21  22
ENDBRANCH  20  21
ENDBRANCH   1  20
TORSDOF 17
ENDMDL
MODEL 3
REMARK VINA RESULT:     -10.4      2.915      7.970
REMARK SMILES C[C@H]1OCC[C@H]1c1nnnn1CCC(=O)NCCCCNC(=O)c1ccc(-c2c3nc(c(-c4cccc(S(=O)(=O)[O-])c4F)c4ccc([nH]4)c(-c4cccc(S(=O)(=O)[O-])c4F)c4nc(c(-c5cccc(S(=O)(=O)[O-])c5F)c5ccc2[nH]5)C=C4)C=C3)cc1
REMARK SMILES IDX 18 1 17 2 16 3 14 4 15 5 13 7 12 8 11 9 7 10 8 11 9 12 10 13
REMARK SMILES IDX 6 14 1 15 2 16 3 17 4 18 5 19 19 20 20 21 21 22 22 23 23 25
REMARK SMILES IDX 24 26 25 27 86 28 26 29 85 30 27 31 28 32 29 33 79 34 30 35
REMARK SMILES IDX 84 36 78 37 80 38 31 39 83 40 77 41 76 42 32 44 64 45 44 46
REMARK SMILES IDX 63 47 45 48 48 49 62 50 81 51 46 52 47 53 61 55 82 56 49 57
REMARK SMILES IDX 33 58 34 59 42 60 35 61 37 62 43 63 36 64 38 65 39 66 40 67
REMARK SMILES IDX 41 68 65 69 66 70 74 71 67 72 69 73 75 74 68 75 70 76 71 77
REMARK SMILES IDX 72 78 73 79 50 80 51 81 59 82 52 83 54 84 60 85 53 86 55 87
REMARK SMILES IDX 56 88 57 89 58 90
REMARK H PARENT 16 6 21 24 80 43 48 54
REMARK Flexibility Score: inf
ROOT
ATOM      1  C   UNL A   1      33.297  29.772  26.260  1.00  0.00     0.023 C 
ENDROOT
BRANCH   1   2
ATOM      2  C   UNL A   1      32.126  29.064  25.581  1.00  0.00     0.116 C 
BRANCH   2   3
ATOM      3  N   UNL A   1      31.734  27.886  26.339  1.00  0.00    -0.356 N 
ATOM      4  C   UNL A   1      32.243  26.623  26.310  1.00  0.00     0.221 C 
ATOM      5  O   UNL A   1      31.606  25.699  26.818  1.00  0.00    -0.275 OA
ATOM      6  H   UNL A   1      30.989  28.021  26.967  1.00  0.00     0.163 HD
BRANCH   4   7
ATOM      7  C   UNL A   1      33.588  26.347  25.678  1.00  0.00     0.124 C 
BRANCH   7   8
ATOM      8  C   UNL A   1      33.457  25.966  24.210  1.00  0.00     0.158 C 
BRANCH   8   9
ATOM      9  N   UNL A   1      33.390  24.540  23.980  1.00  0.00    -0.229 N 
ATOM     10  C   UNL A   1      34.376  23.582  24.021  1.00  0.00     0.157 A 
ATOM     11  N   UNL A   1      33.824  22.433  23.681  1.00  0.00    -0.113 NA
ATOM     12  N   UNL A   1      32.477  22.660  23.626  1.00  0.00    -0.024 NA
ATOM     13  N   UNL A   1      32.200  23.927  23.893  1.00  0.00    -0.045 NA
BRANCH  10  14
ATOM     14  C   UNL A   1      35.747  23.781  24.578  1.00  0.00     0.090 C 
ATOM     15  C   UNL A   1      34.628  22.990  26.821  1.00  0.00     0.039 C 
ATOM     16  C   UNL A   1      35.897  23.192  25.999  1.00  0.00     0.126 C 
ATOM     17  O   UNL A   1      36.559  21.914  25.883  1.00  0.00    -0.378 OA
ATOM     18  C   UNL A   1      36.781  21.645  24.495  1.00  0.00     0.161 C 
ATOM     19  C   UNL A   1      36.806  22.998  23.815  1.00  0.00     0.043 C 
ENDBRANCH  10  14
ENDBRANCH   8   9
ENDBRANCH   7   8
ENDBRANCH   4   7
ENDBRANCH   2   3
ENDBRANCH   1   2
BRANCH   1  20
ATOM     20  C   UNL A   1      32.950  30.819  27.316  1.00  0.00     0.023 C 
BRANCH  20  21
ATOM     21  C   UNL A   1      34.090  31.767  27.642  1.00  0.00     0.116 C 
BRANCH  21  22
ATOM     22  N   UNL A   1      34.134  32.140  29.056  1.00  0.00    -0.352 N 
ATOM     23  C   UNL A   1      35.109  31.806  29.972  1.00  0.00     0.251 C 
ATOM     24  H   UNL A   1      33.387  32.689  29.388  1.00  0.00     0.163 HD
ATOM     25  O   UNL A   1      34.942  31.932  31.180  1.00  0.00    -0.269 OA
BRANCH  23  26
ATOM     26  C   UNL A   1      36.365  31.266  29.435  1.00  0.00     0.039 A 
ATOM     27  C   UNL A   1      37.505  32.070  29.402  1.00  0.00     0.014 A 
ATOM     28  C   UNL A   1      36.429  29.895  29.190  1.00  0.00     0.014 A 
ATOM     29  C   UNL A   1      38.745  31.461  29.235  1.00  0.00     0.010 A 
ATOM     30  C   UNL A   1      37.669  29.289  29.120  1.00  0.00     0.010 A 
ATOM     31  C   UNL A   1      38.835  30.062  29.144  1.00  0.00    -0.014 A 
BRANCH  31  32
ATOM     32  C   UNL A   1      40.156  29.424  29.240  1.00  0.00     0.031 A 
ATOM     33  C   UNL A   1      40.699  29.199  30.619  1.00  0.00     0.074 A 
ATOM     34  C   UNL A   1      40.795  28.835  28.207  1.00  0.00     0.049 A 
ATOM     35  N   UNL A   1      41.798  29.660  31.128  1.00  0.00    -0.248 NA
ATOM     36  C   UNL A   1      39.901  28.399  31.560  1.00  0.00     0.031 C 
ATOM     37  C   UNL A   1      40.296  28.618  26.844  1.00  0.00     0.029 A 
ATOM     38  N   UNL A   1      41.981  28.159  28.212  1.00  0.00    -0.354 N 
ATOM     39  C   UNL A   1      41.932  29.056  32.381  1.00  0.00     0.074 A 
ATOM     40  C   UNL A   1      40.678  28.398  32.645  1.00  0.00     0.031 C 
ATOM     41  C   UNL A   1      41.024  27.646  26.256  1.00  0.00     0.029 A 
ATOM     42  C   UNL A   1      42.142  27.319  27.120  1.00  0.00     0.049 A 
ATOM     43  H   UNL A   1      42.656  28.258  28.921  1.00  0.00     0.167 HD
ATOM     44  C   UNL A   1      43.129  28.982  33.027  1.00  0.00     0.034 A 
ATOM     45  C   UNL A   1      43.106  26.391  26.939  1.00  0.00     0.034 A 
ATOM     46  C   UNL A   1      44.112  29.851  32.435  1.00  0.00     0.049 A 
ATOM     47  C   UNL A   1      44.249  26.752  27.803  1.00  0.00     0.074 A 
ATOM     48  C   UNL A   1      44.251  31.207  32.225  1.00  0.00     0.029 A 
ATOM     49  N   UNL A   1      45.075  29.246  31.669  1.00  0.00    -0.354 N 
ATOM     50  N   UNL A   1      44.982  27.816  27.630  1.00  0.00    -0.248 NA
ATOM     51  C   UNL A   1      44.422  26.073  29.075  1.00  0.00     0.031 C 
ATOM     52  C   UNL A   1      45.002  31.322  31.018  1.00  0.00     0.029 A 
ATOM     53  C   UNL A   1      45.286  30.028  30.569  1.00  0.00     0.049 A 
ATOM     54  H   UNL A   1      45.531  28.398  31.875  1.00  0.00     0.167 HD
ATOM     55  C   UNL A   1      45.369  28.182  28.909  1.00  0.00     0.074 A 
ATOM     56  C   UNL A   1      45.151  26.988  29.718  1.00  0.00     0.031 C 
ATOM     57  C   UNL A   1      45.539  29.495  29.245  1.00  0.00     0.034 A 
BRANCH  44  58
ATOM     58  C   UNL A   1      43.568  27.894  33.991  1.00  0.00     0.023 A 
ATOM     59  C   UNL A   1      44.109  28.308  35.234  1.00  0.00     0.012 A 
ATOM     60  C   UNL A   1      43.749  26.538  33.643  1.00  0.00     0.148 A 
ATOM     61  C   UNL A   1      44.847  27.441  36.050  1.00  0.00     0.002 A 
ATOM     62  C   UNL A   1      44.413  25.660  34.498  1.00  0.00     0.091 A 
ATOM     63  F   UNL A   1      43.403  26.108  32.425  1.00  0.00    -0.205 F 
ATOM     64  C   UNL A   1      44.994  26.111  35.684  1.00  0.00     0.022 A 
BRANCH  62  65
ATOM     65  S   UNL A   1      44.564  23.915  34.098  1.00  0.00     0.127 S 
ATOM     66  O   UNL A   1      45.110  23.968  32.746  1.00  0.00    -0.237 OA
ATOM     67  O   UNL A   1      45.494  23.443  35.125  1.00  0.00    -0.237 OA
ATOM     68  O   UNL A   1      43.213  23.381  34.235  1.00  0.00    -0.744 OA
ENDBRANCH  62  65
ENDBRANCH  44  58
BRANCH  45  69
ATOM     69  C   UNL A   1      43.064  25.139  26.157  1.00  0.00     0.023 A 
ATOM     70  C   UNL A   1      44.020  24.911  25.151  1.00  0.00     0.012 A 
ATOM     71  C   UNL A   1      42.236  24.066  26.555  1.00  0.00     0.148 A 
ATOM     72  C   UNL A   1      44.167  23.644  24.575  1.00  0.00     0.002 A 
ATOM     73  C   UNL A   1      42.379  22.810  25.973  1.00  0.00     0.091 A 
ATOM     74  F   UNL A   1      41.371  24.256  27.561  1.00  0.00    -0.205 F 
ATOM     75  C   UNL A   1      43.353  22.593  24.991  1.00  0.00     0.022 A 
BRANCH  73  76
ATOM     76  S   UNL A   1      41.363  21.410  26.464  1.00  0.00     0.127 S 
ATOM     77  O   UNL A   1      41.941  20.319  25.678  1.00  0.00    -0.237 OA
ATOM     78  O   UNL A   1      41.623  21.336  27.899  1.00  0.00    -0.237 OA
ATOM     79  O   UNL A   1      40.000  21.761  26.081  1.00  0.00    -0.744 OA
ENDBRANCH  73  76
ENDBRANCH  45  69
BRANCH  57  80
ATOM     80  C   UNL A   1      45.667  30.509  28.135  1.00  0.00     0.023 A 
ATOM     81  C   UNL A   1      44.540  31.029  27.468  1.00  0.00     0.012 A 
ATOM     82  C   UNL A   1      46.926  31.079  27.882  1.00  0.00     0.148 A 
ATOM     83  C   UNL A   1      44.668  32.070  26.547  1.00  0.00     0.002 A 
ATOM     84  C   UNL A   1      47.044  32.149  27.002  1.00  0.00     0.091 A 
ATOM     85  F   UNL A   1      47.993  30.582  28.530  1.00  0.00    -0.205 F 
ATOM     86  C   UNL A   1      45.919  32.640  26.324  1.00  0.00     0.022 A 
BRANCH  84  87
ATOM     87  S   UNL A   1      48.603  33.013  26.783  1.00  0.00     0.127 S 
ATOM     88  O   UNL A   1      49.484  31.945  26.320  1.00  0.00    -0.237 OA
ATOM     89  O   UNL A   1      48.272  34.017  25.769  1.00  0.00    -0.237 OA
ATOM     90  O   UNL A   1      48.925  33.579  28.089  1.00  0.00    -0.744 OA
ENDBRANCH  84  87
ENDBRANCH  57  80
ENDBRANCH  31  32
ENDBRANCH  23  26
ENDBRANCH  21  22
ENDBRANCH  20  21
ENDBRANCH   1  20
TORSDOF 17
ENDMDL
