MODEL 1
REMARK VINA RESULT:     -11.8      0.000      0.000
REMARK SMILES CC(C)[NH2+][C@@]1(C(=O)NCCCCNC(=O)c2ccc(-c3c4nc(c(-c5cccc(S(=O)(=O)[O-])c5F)c5ccc([nH]5)c(-c5cccc(S(=O)(=O)[O-])c5F)c5nc(c(-c6cccc(S(=O)(=O)[O-])c6F)c6ccc3[nH]6)C=C5)C=C4)cc2)CC[C@H](Sc2ccccn2)C1
REMARK SMILES IDX 11 1 10 2 9 3 8 4 6 5 7 6 5 8 79 9 89 10 80 11 81 12 4 13
REMARK SMILES IDX 2 16 1 17 3 18 82 19 83 20 84 21 88 22 85 23 87 24 86 25
REMARK SMILES IDX 12 26 13 27 14 28 15 30 16 31 17 32 78 33 18 34 77 35 19 36
REMARK SMILES IDX 20 37 21 38 71 39 22 40 76 41 70 42 72 43 23 44 75 45 69 46
REMARK SMILES IDX 68 47 24 49 56 50 36 51 55 52 37 53 40 54 54 55 73 56 38 57
REMARK SMILES IDX 39 58 53 60 74 61 41 62 25 63 26 64 34 65 27 66 29 67 35 68
REMARK SMILES IDX 28 69 30 70 31 71 32 72 33 73 57 74 58 75 66 76 59 77 61 78
REMARK SMILES IDX 67 79 60 80 62 81 63 82 64 83 65 84 42 85 43 86 51 87 44 88
REMARK SMILES IDX 46 89 52 90 45 91 47 92 48 93 49 94 50 95
REMARK H PARENT 8 7 4 14 4 15 13 29 72 48 40 59
REMARK Flexibility Score: inf
ROOT
ATOM      1  C   UNL A   1      31.697  29.105  26.775  1.00  0.00     0.023 C 
ENDROOT
BRANCH   1   2
ATOM      2  C   UNL A   1      32.211  27.676  26.857  1.00  0.00     0.023 C 
BRANCH   2   3
ATOM      3  C   UNL A   1      31.286  26.631  26.246  1.00  0.00     0.116 C 
BRANCH   3   4
ATOM      4  N   UNL A   1      31.317  25.380  26.963  1.00  0.00    -0.351 N 
ATOM      5  C   UNL A   1      31.926  24.198  26.689  1.00  0.00     0.281 C 
ATOM      6  O   UNL A   1      31.641  23.267  27.458  1.00  0.00    -0.268 OA
ATOM      7  H   UNL A   1      30.804  25.384  27.803  1.00  0.00     0.163 HD
BRANCH   5   8
ATOM      8  C   UNL A   1      32.940  23.957  25.486  1.00  0.00     0.176 C 
ATOM      9  C   UNL A   1      34.152  24.922  25.577  1.00  0.00     0.080 C 
ATOM     10  C   UNL A   1      32.292  24.234  24.118  1.00  0.00     0.094 C 
ATOM     11  C   UNL A   1      34.033  25.924  24.424  1.00  0.00     0.022 C 
ATOM     12  C   UNL A   1      33.257  25.160  23.361  1.00  0.00     0.060 C 
BRANCH   8  13
ATOM     13  N   UNL A   1      33.436  22.577  25.716  1.00  0.00    -0.332 N 
ATOM     14  H   UNL A   1      34.419  22.677  25.967  1.00  0.00     0.347 HD
ATOM     15  H   UNL A   1      32.747  22.241  26.389  1.00  0.00     0.347 HD
BRANCH  13  16
ATOM     16  C   UNL A   1      33.392  21.512  24.733  1.00  0.00     0.176 C 
ATOM     17  C   UNL A   1      34.701  20.724  24.914  1.00  0.00     0.075 C 
ATOM     18  C   UNL A   1      32.238  20.524  24.939  1.00  0.00     0.075 C 
ENDBRANCH  13  16
ENDBRANCH   8  13
BRANCH  12  19
ATOM     19  S   UNL A   1      32.405  26.015  21.977  1.00  0.00    -0.103 SA
BRANCH  19  20
ATOM     20  C   UNL A   1      31.329  27.247  22.680  1.00  0.00     0.096 A 
ATOM     21  C   UNL A   1      31.711  28.580  22.770  1.00  0.00     0.035 A 
ATOM     22  N   UNL A   1      30.055  26.849  22.907  1.00  0.00    -0.250 NA
ATOM     23  C   UNL A   1      30.754  29.540  23.100  1.00  0.00     0.004 A 
ATOM     24  C   UNL A   1      29.138  27.804  23.195  1.00  0.00     0.112 A 
ATOM     25  C   UNL A   1      29.438  29.150  23.299  1.00  0.00     0.020 A 
ENDBRANCH  19  20
ENDBRANCH  12  19
ENDBRANCH   5   8
ENDBRANCH   3   4
ENDBRANCH   2   3
ENDBRANCH   1   2
BRANCH   1  26
ATOM     26  C   UNL A   1      32.684  30.129  26.230  1.00  0.00     0.116 C 
BRANCH  26  27
ATOM     27  N   UNL A   1      32.499  31.489  26.730  1.00  0.00    -0.352 N 
ATOM     28  C   UNL A   1      33.385  32.248  27.463  1.00  0.00     0.251 C 
ATOM     29  H   UNL A   1      31.637  31.914  26.518  1.00  0.00     0.163 HD
ATOM     30  O   UNL A   1      33.102  33.378  27.850  1.00  0.00    -0.269 OA
BRANCH  28  31
ATOM     31  C   UNL A   1      34.675  31.649  27.837  1.00  0.00     0.039 A 
ATOM     32  C   UNL A   1      35.766  32.494  28.046  1.00  0.00     0.014 A 
ATOM     33  C   UNL A   1      34.754  30.284  28.116  1.00  0.00     0.014 A 
ATOM     34  C   UNL A   1      36.919  31.981  28.636  1.00  0.00     0.010 A 
ATOM     35  C   UNL A   1      35.862  29.801  28.792  1.00  0.00     0.010 A 
ATOM     36  C   UNL A   1      36.952  30.645  29.063  1.00  0.00    -0.014 A 
BRANCH  36  37
ATOM     37  C   UNL A   1      38.110  30.096  29.806  1.00  0.00     0.031 A 
ATOM     38  C   UNL A   1      38.357  30.540  31.220  1.00  0.00     0.074 A 
ATOM     39  C   UNL A   1      38.993  29.296  29.174  1.00  0.00     0.049 A 
ATOM     40  N   UNL A   1      39.365  30.273  32.005  1.00  0.00    -0.248 NA
ATOM     41  C   UNL A   1      37.356  31.444  31.814  1.00  0.00     0.031 C 
ATOM     42  C   UNL A   1      38.900  28.865  27.777  1.00  0.00     0.029 A 
ATOM     43  N   UNL A   1      40.157  28.723  29.620  1.00  0.00    -0.354 N 
ATOM     44  C   UNL A   1      39.150  31.016  33.159  1.00  0.00     0.074 A 
ATOM     45  C   UNL A   1      37.939  31.778  32.954  1.00  0.00     0.031 C 
ATOM     46  C   UNL A   1      39.950  28.077  27.489  1.00  0.00     0.029 A 
ATOM     47  C   UNL A   1      40.804  27.974  28.666  1.00  0.00     0.049 A 
ATOM     48  H   UNL A   1      40.496  28.837  30.537  1.00  0.00     0.167 HD
ATOM     49  C   UNL A   1      39.875  31.035  34.301  1.00  0.00     0.034 A 
ATOM     50  C   UNL A   1      41.956  27.279  28.738  1.00  0.00     0.034 A 
ATOM     51  C   UNL A   1      41.034  30.216  34.521  1.00  0.00     0.049 A 
ATOM     52  C   UNL A   1      42.709  27.264  30.042  1.00  0.00     0.074 A 
ATOM     53  C   UNL A   1      41.783  30.073  35.673  1.00  0.00     0.029 A 
ATOM     54  N   UNL A   1      41.610  29.396  33.562  1.00  0.00    -0.354 N 
ATOM     55  N   UNL A   1      42.410  27.851  31.175  1.00  0.00    -0.248 NA
ATOM     56  C   UNL A   1      43.943  26.466  30.085  1.00  0.00     0.031 C 
ATOM     57  C   UNL A   1      42.819  29.170  35.408  1.00  0.00     0.029 A 
ATOM     58  C   UNL A   1      42.707  28.742  34.094  1.00  0.00     0.049 A 
ATOM     59  H   UNL A   1      41.286  29.293  32.637  1.00  0.00     0.167 HD
ATOM     60  C   UNL A   1      43.392  27.464  32.078  1.00  0.00     0.074 A 
ATOM     61  C   UNL A   1      44.289  26.579  31.361  1.00  0.00     0.031 C 
ATOM     62  C   UNL A   1      43.550  27.820  33.377  1.00  0.00     0.034 A 
BRANCH  49  63
ATOM     63  C   UNL A   1      39.385  31.922  35.414  1.00  0.00     0.023 A 
ATOM     64  C   UNL A   1      38.407  31.440  36.309  1.00  0.00     0.012 A 
ATOM     65  C   UNL A   1      39.887  33.226  35.581  1.00  0.00     0.148 A 
ATOM     66  C   UNL A   1      37.900  32.255  37.319  1.00  0.00     0.002 A 
ATOM     67  C   UNL A   1      39.411  34.019  36.621  1.00  0.00     0.091 A 
ATOM     68  F   UNL A   1      40.794  33.683  34.706  1.00  0.00    -0.205 F 
ATOM     69  C   UNL A   1      38.409  33.541  37.480  1.00  0.00     0.022 A 
BRANCH  67  70
ATOM     70  S   UNL A   1      40.062  35.660  36.952  1.00  0.00     0.127 S 
ATOM     71  O   UNL A   1      39.659  36.386  35.750  1.00  0.00    -0.237 OA
ATOM     72  O   UNL A   1      39.340  36.042  38.166  1.00  0.00    -0.237 OA
ATOM     73  O   UNL A   1      41.496  35.485  37.135  1.00  0.00    -0.744 OA
ENDBRANCH  67  70
ENDBRANCH  49  63
BRANCH  50  74
ATOM     74  C   UNL A   1      42.406  26.455  27.581  1.00  0.00     0.023 A 
ATOM     75  C   UNL A   1      43.229  27.050  26.603  1.00  0.00     0.012 A 
ATOM     76  C   UNL A   1      42.071  25.093  27.457  1.00  0.00     0.148 A 
ATOM     77  C   UNL A   1      43.687  26.314  25.511  1.00  0.00     0.002 A 
ATOM     78  C   UNL A   1      42.571  24.352  26.391  1.00  0.00     0.091 A 
ATOM     79  F   UNL A   1      41.281  24.547  28.393  1.00  0.00    -0.205 F 
ATOM     80  C   UNL A   1      43.366  24.963  25.410  1.00  0.00     0.022 A 
BRANCH  78  81
ATOM     81  S   UNL A   1      42.311  22.580  26.238  1.00  0.00     0.127 S 
ATOM     82  O   UNL A   1      42.991  22.074  27.427  1.00  0.00    -0.237 OA
ATOM     83  O   UNL A   1      40.851  22.485  26.276  1.00  0.00    -0.237 OA
ATOM     84  O   UNL A   1      42.905  22.206  24.962  1.00  0.00    -0.744 OA
ENDBRANCH  78  81
ENDBRANCH  50  74
BRANCH  62  85
ATOM     85  C   UNL A   1      44.714  27.226  34.124  1.00  0.00     0.023 A 
ATOM     86  C   UNL A   1      45.954  27.893  34.127  1.00  0.00     0.012 A 
ATOM     87  C   UNL A   1      44.553  26.055  34.890  1.00  0.00     0.148 A 
ATOM     88  C   UNL A   1      47.025  27.390  34.862  1.00  0.00     0.002 A 
ATOM     89  C   UNL A   1      45.611  25.585  35.657  1.00  0.00     0.091 A 
ATOM     90  F   UNL A   1      43.370  25.423  34.855  1.00  0.00    -0.205 F 
ATOM     91  C   UNL A   1      46.851  26.245  35.637  1.00  0.00     0.022 A 
BRANCH  89  92
ATOM     92  S   UNL A   1      45.445  24.175  36.759  1.00  0.00     0.127 S 
ATOM     93  O   UNL A   1      46.802  24.048  37.288  1.00  0.00    -0.237 OA
ATOM     94  O   UNL A   1      44.455  24.649  37.725  1.00  0.00    -0.237 OA
ATOM     95  O   UNL A   1      44.989  23.071  35.924  1.00  0.00    -0.744 OA
ENDBRANCH  89  92
ENDBRANCH  62  85
ENDBRANCH  36  37
ENDBRANCH  28  31
ENDBRANCH  26  27
ENDBRANCH   1  26
TORSDOF 18
ENDMDL
MODEL 2
REMARK VINA RESULT:     -11.5      2.654      8.197
REMARK SMILES CC(C)[NH2+][C@@]1(C(=O)NCCCCNC(=O)c2ccc(-c3c4nc(c(-c5cccc(S(=O)(=O)[O-])c5F)c5ccc([nH]5)c(-c5cccc(S(=O)(=O)[O-])c5F)c5nc(c(-c6cccc(S(=O)(=O)[O-])c6F)c6ccc3[nH]6)C=C5)C=C4)cc2)CC[C@H](Sc2ccccn2)C1
REMARK SMILES IDX 11 1 10 2 9 3 8 4 6 5 7 6 5 8 79 9 89 10 80 11 81 12 4 13
REMARK SMILES IDX 2 16 1 17 3 18 82 19 83 20 84 21 88 22 85 23 87 24 86 25
REMARK SMILES IDX 12 26 13 27 14 28 15 30 16 31 17 32 78 33 18 34 77 35 19 36
REMARK SMILES IDX 20 37 21 38 71 39 22 40 76 41 70 42 72 43 23 44 75 45 69 46
REMARK SMILES IDX 68 47 24 49 56 50 36 51 55 52 37 53 40 54 54 55 73 56 38 57
REMARK SMILES IDX 39 58 53 60 74 61 41 62 25 63 26 64 34 65 27 66 29 67 35 68
REMARK SMILES IDX 28 69 30 70 31 71 32 72 33 73 57 74 58 75 66 76 59 77 61 78
REMARK SMILES IDX 67 79 60 80 62 81 63 82 64 83 65 84 42 85 43 86 51 87 44 88
REMARK SMILES IDX 46 89 52 90 45 91 47 92 48 93 49 94 50 95
REMARK H PARENT 8 7 4 14 4 15 13 29 72 48 40 59
REMARK Flexibility Score: inf
ROOT
ATOM      1  C   UNL A   1      32.335  31.026  26.943  1.00  0.00     0.023 C 
ENDROOT
BRANCH   1   2
ATOM      2  C   UNL A   1      32.707  29.586  27.263  1.00  0.00     0.023 C 
BRANCH   2   3
ATOM      3  C   UNL A   1      33.943  29.071  26.536  1.00  0.00     0.116 C 
BRANCH   3   4
ATOM      4  N   UNL A   1      33.945  29.422  25.138  1.00  0.00    -0.351 N 
ATOM      5  C   UNL A   1      33.391  28.820  24.055  1.00  0.00     0.281 C 
ATOM      6  O   UNL A   1      33.696  29.317  22.960  1.00  0.00    -0.268 OA
ATOM      7  H   UNL A   1      34.440  30.248  24.930  1.00  0.00     0.163 HD
BRANCH   5   8
ATOM      8  C   UNL A   1      32.414  27.563  24.116  1.00  0.00     0.176 C 
ATOM      9  C   UNL A   1      32.301  26.879  22.728  1.00  0.00     0.080 C 
ATOM     10  C   UNL A   1      30.978  27.965  24.499  1.00  0.00     0.094 C 
ATOM     11  C   UNL A   1      30.886  27.136  22.199  1.00  0.00     0.022 C 
ATOM     12  C   UNL A   1      30.055  27.305  23.462  1.00  0.00     0.060 C 
BRANCH   8  13
ATOM     13  N   UNL A   1      33.107  26.625  25.035  1.00  0.00    -0.332 N 
ATOM     14  H   UNL A   1      34.103  26.797  24.901  1.00  0.00     0.347 HD
ATOM     15  H   UNL A   1      32.642  26.848  25.914  1.00  0.00     0.347 HD
BRANCH  13  16
ATOM     16  C   UNL A   1      32.952  25.184  25.008  1.00  0.00     0.176 C 
ATOM     17  C   UNL A   1      34.362  24.610  25.233  1.00  0.00     0.075 C 
ATOM     18  C   UNL A   1      32.058  24.634  26.125  1.00  0.00     0.075 C 
ENDBRANCH  13  16
ENDBRANCH   8  13
BRANCH  12  19
ATOM     19  S   UNL A   1      28.405  28.112  23.438  1.00  0.00    -0.103 SA
BRANCH  19  20
ATOM     20  C   UNL A   1      28.613  29.755  22.783  1.00  0.00     0.096 A 
ATOM     21  C   UNL A   1      28.341  30.046  21.452  1.00  0.00     0.035 A 
ATOM     22  N   UNL A   1      28.832  30.727  23.700  1.00  0.00    -0.250 NA
ATOM     23  C   UNL A   1      28.285  31.379  21.046  1.00  0.00     0.004 A 
ATOM     24  C   UNL A   1      28.742  32.014  23.288  1.00  0.00     0.112 A 
ATOM     25  C   UNL A   1      28.470  32.385  21.983  1.00  0.00     0.020 A 
ENDBRANCH  19  20
ENDBRANCH  12  19
ENDBRANCH   5   8
ENDBRANCH   3   4
ENDBRANCH   2   3
ENDBRANCH   1   2
BRANCH   1  26
ATOM     26  C   UNL A   1      33.294  32.085  27.472  1.00  0.00     0.116 C 
BRANCH  26  27
ATOM     27  N   UNL A   1      32.711  33.416  27.631  1.00  0.00    -0.352 N 
ATOM     28  C   UNL A   1      33.129  34.427  28.469  1.00  0.00     0.251 C 
ATOM     29  H   UNL A   1      31.926  33.614  27.072  1.00  0.00     0.163 HD
ATOM     30  O   UNL A   1      32.538  35.501  28.532  1.00  0.00    -0.269 OA
BRANCH  28  31
ATOM     31  C   UNL A   1      34.279  34.172  29.351  1.00  0.00     0.039 A 
ATOM     32  C   UNL A   1      34.045  33.579  30.594  1.00  0.00     0.014 A 
ATOM     33  C   UNL A   1      35.576  34.386  28.885  1.00  0.00     0.014 A 
ATOM     34  C   UNL A   1      35.127  33.106  31.333  1.00  0.00     0.010 A 
ATOM     35  C   UNL A   1      36.638  33.827  29.575  1.00  0.00     0.010 A 
ATOM     36  C   UNL A   1      36.424  33.177  30.803  1.00  0.00    -0.014 A 
BRANCH  36  37
ATOM     37  C   UNL A   1      37.582  32.573  31.501  1.00  0.00     0.031 A 
ATOM     38  C   UNL A   1      38.324  31.439  30.853  1.00  0.00     0.074 A 
ATOM     39  C   UNL A   1      37.887  32.966  32.754  1.00  0.00     0.049 A 
ATOM     40  N   UNL A   1      39.287  30.700  31.334  1.00  0.00    -0.248 NA
ATOM     41  C   UNL A   1      37.895  31.056  29.496  1.00  0.00     0.031 C 
ATOM     42  C   UNL A   1      37.183  34.000  33.516  1.00  0.00     0.029 A 
ATOM     43  N   UNL A   1      38.856  32.522  33.618  1.00  0.00    -0.354 N 
ATOM     44  C   UNL A   1      39.538  29.734  30.369  1.00  0.00     0.074 A 
ATOM     45  C   UNL A   1      38.599  29.954  29.292  1.00  0.00     0.031 C 
ATOM     46  C   UNL A   1      37.759  34.127  34.723  1.00  0.00     0.029 A 
ATOM     47  C   UNL A   1      38.848  33.164  34.834  1.00  0.00     0.049 A 
ATOM     48  H   UNL A   1      39.497  31.810  33.388  1.00  0.00     0.167 HD
ATOM     49  C   UNL A   1      40.490  28.773  30.361  1.00  0.00     0.034 A 
ATOM     50  C   UNL A   1      39.636  32.994  35.914  1.00  0.00     0.034 A 
ATOM     51  C   UNL A   1      41.466  28.611  31.402  1.00  0.00     0.049 A 
ATOM     52  C   UNL A   1      40.730  31.961  35.854  1.00  0.00     0.074 A 
ATOM     53  C   UNL A   1      42.541  27.744  31.449  1.00  0.00     0.029 A 
ATOM     54  N   UNL A   1      41.486  29.343  32.580  1.00  0.00    -0.354 N 
ATOM     55  N   UNL A   1      41.053  31.157  34.869  1.00  0.00    -0.248 NA
ATOM     56  C   UNL A   1      41.586  31.833  37.041  1.00  0.00     0.031 C 
ATOM     57  C   UNL A   1      43.207  27.945  32.663  1.00  0.00     0.029 A 
ATOM     58  C   UNL A   1      42.554  28.947  33.365  1.00  0.00     0.049 A 
ATOM     59  H   UNL A   1      40.836  30.042  32.823  1.00  0.00     0.167 HD
ATOM     60  C   UNL A   1      42.173  30.457  35.300  1.00  0.00     0.074 A 
ATOM     61  C   UNL A   1      42.480  30.942  36.631  1.00  0.00     0.031 C 
ATOM     62  C   UNL A   1      42.875  29.487  34.661  1.00  0.00     0.034 A 
BRANCH  49  63
ATOM     63  C   UNL A   1      40.551  27.874  29.155  1.00  0.00     0.023 A 
ATOM     64  C   UNL A   1      39.683  26.764  29.070  1.00  0.00     0.012 A 
ATOM     65  C   UNL A   1      41.456  28.121  28.106  1.00  0.00     0.148 A 
ATOM     66  C   UNL A   1      39.750  25.888  27.988  1.00  0.00     0.002 A 
ATOM     67  C   UNL A   1      41.484  27.269  27.006  1.00  0.00     0.091 A 
ATOM     68  F   UNL A   1      42.295  29.161  28.213  1.00  0.00    -0.205 F 
ATOM     69  C   UNL A   1      40.643  26.146  26.953  1.00  0.00     0.022 A 
BRANCH  67  70
ATOM     70  S   UNL A   1      42.549  27.565  25.591  1.00  0.00     0.127 S 
ATOM     71  O   UNL A   1      43.872  27.574  26.212  1.00  0.00    -0.237 OA
ATOM     72  O   UNL A   1      42.279  26.399  24.748  1.00  0.00    -0.237 OA
ATOM     73  O   UNL A   1      42.108  28.832  25.023  1.00  0.00    -0.744 OA
ENDBRANCH  67  70
ENDBRANCH  49  63
BRANCH  50  74
ATOM     74  C   UNL A   1      39.491  33.892  37.094  1.00  0.00     0.023 A 
ATOM     75  C   UNL A   1      39.906  35.234  36.980  1.00  0.00     0.012 A 
ATOM     76  C   UNL A   1      38.914  33.454  38.301  1.00  0.00     0.148 A 
ATOM     77  C   UNL A   1      39.776  36.115  38.052  1.00  0.00     0.002 A 
ATOM     78  C   UNL A   1      38.743  34.350  39.351  1.00  0.00     0.091 A 
ATOM     79  F   UNL A   1      38.533  32.171  38.393  1.00  0.00    -0.205 F 
ATOM     80  C   UNL A   1      39.186  35.676  39.235  1.00  0.00     0.022 A 
BRANCH  78  81
ATOM     81  S   UNL A   1      37.887  33.910  40.869  1.00  0.00     0.127 S 
ATOM     82  O   UNL A   1      36.698  33.234  40.357  1.00  0.00    -0.237 OA
ATOM     83  O   UNL A   1      38.861  33.034  41.522  1.00  0.00    -0.237 OA
ATOM     84  O   UNL A   1      37.650  35.168  41.564  1.00  0.00    -0.744 OA
ENDBRANCH  78  81
ENDBRANCH  50  74
BRANCH  62  85
ATOM     85  C   UNL A   1      44.067  28.909  35.374  1.00  0.00     0.023 A 
ATOM     86  C   UNL A   1      45.340  29.480  35.183  1.00  0.00     0.012 A 
ATOM     87  C   UNL A   1      43.910  27.856  36.298  1.00  0.00     0.148 A 
ATOM     88  C   UNL A   1      46.444  28.996  35.881  1.00  0.00     0.002 A 
ATOM     89  C   UNL A   1      45.007  27.410  37.024  1.00  0.00     0.091 A 
ATOM     90  F   UNL A   1      42.694  27.311  36.449  1.00  0.00    -0.205 F 
ATOM     91  C   UNL A   1      46.276  27.972  36.810  1.00  0.00     0.022 A 
BRANCH  89  92
ATOM     92  S   UNL A   1      44.862  26.163  38.310  1.00  0.00     0.127 S 
ATOM     93  O   UNL A   1      44.363  25.014  37.557  1.00  0.00    -0.237 OA
ATOM     94  O   UNL A   1      46.242  26.034  38.777  1.00  0.00    -0.237 OA
ATOM     95  O   UNL A   1      43.943  26.715  39.297  1.00  0.00    -0.744 OA
ENDBRANCH  89  92
ENDBRANCH  62  85
ENDBRANCH  36  37
ENDBRANCH  28  31
ENDBRANCH  26  27
ENDBRANCH   1  26
TORSDOF 18
ENDMDL
MODEL 3
REMARK VINA RESULT:     -11.5      1.428      7.678
REMARK SMILES CC(C)[NH2+][C@@]1(C(=O)NCCCCNC(=O)c2ccc(-c3c4nc(c(-c5cccc(S(=O)(=O)[O-])c5F)c5ccc([nH]5)c(-c5cccc(S(=O)(=O)[O-])c5F)c5nc(c(-c6cccc(S(=O)(=O)[O-])c6F)c6ccc3[nH]6)C=C5)C=C4)cc2)CC[C@H](Sc2ccccn2)C1
REMARK SMILES IDX 11 1 10 2 9 3 8 4 6 5 7 6 5 8 79 9 89 10 80 11 81 12 4 13
REMARK SMILES IDX 2 16 1 17 3 18 82 19 83 20 84 21 88 22 85 23 87 24 86 25
REMARK SMILES IDX 12 26 13 27 14 28 15 30 16 31 17 32 78 33 18 34 77 35 19 36
REMARK SMILES IDX 20 37 21 38 71 39 22 40 76 41 70 42 72 43 23 44 75 45 69 46
REMARK SMILES IDX 68 47 24 49 56 50 36 51 55 52 37 53 40 54 54 55 73 56 38 57
REMARK SMILES IDX 39 58 53 60 74 61 41 62 25 63 26 64 34 65 27 66 29 67 35 68
REMARK SMILES IDX 28 69 30 70 31 71 32 72 33 73 57 74 58 75 66 76 59 77 61 78
REMARK SMILES IDX 67 79 60 80 62 81 63 82 64 83 65 84 42 85 43 86 51 87 44 88
REMARK SMILES IDX 46 89 52 90 45 91 47 92 48 93 49 94 50 95
REMARK H PARENT 8 7 4 14 4 15 13 29 72 48 40 59
REMARK Flexibility Score: inf
ROOT
ATOM      1  C   UNL A   1      31.766  28.724  26.595  1.00  0.00     0.023 C 
ENDROOT
BRANCH   1   2
ATOM      2  C   UNL A   1      32.281  27.309  26.809  1.00  0.00     0.023 C 
BRANCH   2   3
ATOM      3  C   UNL A   1      31.499  26.230  26.073  1.00  0.00     0.116 C 
BRANCH   3   4
ATOM      4  N   UNL A   1      31.294  25.051  26.877  1.00  0.00    -0.351 N 
ATOM      5  C   UNL A   1      31.774  23.786  26.764  1.00  0.00     0.281 C 
ATOM      6  O   UNL A   1      31.292  22.965  27.560  1.00  0.00    -0.268 OA
ATOM      7  H   UNL A   1      30.697  25.187  27.648  1.00  0.00     0.163 HD
BRANCH   5   8
ATOM      8  C   UNL A   1      32.874  23.324  25.710  1.00  0.00     0.176 C 
ATOM      9  C   UNL A   1      34.201  24.103  25.912  1.00  0.00     0.080 C 
ATOM     10  C   UNL A   1      32.443  23.611  24.260  1.00  0.00     0.094 C 
ATOM     11  C   UNL A   1      34.376  25.039  24.712  1.00  0.00     0.022 C 
ATOM     12  C   UNL A   1      33.623  24.335  23.593  1.00  0.00     0.060 C 
BRANCH   8  13
ATOM     13  N   UNL A   1      33.119  21.902  26.059  1.00  0.00    -0.332 N 
ATOM     14  H   UNL A   1      33.894  21.913  26.722  1.00  0.00     0.347 HD
ATOM     15  H   UNL A   1      32.182  21.615  26.340  1.00  0.00     0.347 HD
BRANCH  13  16
ATOM     16  C   UNL A   1      33.442  20.863  25.100  1.00  0.00     0.176 C 
ATOM     17  C   UNL A   1      34.978  20.837  25.016  1.00  0.00     0.075 C 
ATOM     18  C   UNL A   1      32.989  19.463  25.527  1.00  0.00     0.075 C 
ENDBRANCH  13  16
ENDBRANCH   8  13
BRANCH  12  19
ATOM     19  S   UNL A   1      33.084  25.221  22.077  1.00  0.00    -0.103 SA
BRANCH  19  20
ATOM     20  C   UNL A   1      32.269  26.721  22.586  1.00  0.00     0.096 A 
ATOM     21  C   UNL A   1      32.952  27.928  22.662  1.00  0.00     0.035 A 
ATOM     22  N   UNL A   1      30.920  26.653  22.673  1.00  0.00    -0.250 NA
ATOM     23  C   UNL A   1      32.228  29.109  22.827  1.00  0.00     0.004 A 
ATOM     24  C   UNL A   1      30.237  27.815  22.803  1.00  0.00     0.112 A 
ATOM     25  C   UNL A   1      30.842  29.056  22.881  1.00  0.00     0.020 A 
ENDBRANCH  19  20
ENDBRANCH  12  19
ENDBRANCH   5   8
ENDBRANCH   3   4
ENDBRANCH   2   3
ENDBRANCH   1   2
BRANCH   1  26
ATOM     26  C   UNL A   1      32.826  29.767  26.266  1.00  0.00     0.116 C 
BRANCH  26  27
ATOM     27  N   UNL A   1      32.494  31.131  26.671  1.00  0.00    -0.352 N 
ATOM     28  C   UNL A   1      33.292  32.032  27.341  1.00  0.00     0.251 C 
ATOM     29  H   UNL A   1      31.591  31.444  26.436  1.00  0.00     0.163 HD
ATOM     30  O   UNL A   1      32.889  33.149  27.650  1.00  0.00    -0.269 OA
BRANCH  28  31
ATOM     31  C   UNL A   1      34.640  31.604  27.747  1.00  0.00     0.039 A 
ATOM     32  C   UNL A   1      35.609  32.583  27.976  1.00  0.00     0.014 A 
ATOM     33  C   UNL A   1      34.888  30.261  28.033  1.00  0.00     0.014 A 
ATOM     34  C   UNL A   1      36.805  32.223  28.593  1.00  0.00     0.010 A 
ATOM     35  C   UNL A   1      36.033  29.925  28.735  1.00  0.00     0.010 A 
ATOM     36  C   UNL A   1      37.000  30.903  29.027  1.00  0.00    -0.014 A 
BRANCH  36  37
ATOM     37  C   UNL A   1      38.202  30.508  29.798  1.00  0.00     0.031 A 
ATOM     38  C   UNL A   1      39.196  29.565  29.183  1.00  0.00     0.074 A 
ATOM     39  C   UNL A   1      38.334  30.905  31.080  1.00  0.00     0.049 A 
ATOM     40  N   UNL A   1      40.247  29.009  29.721  1.00  0.00    -0.248 NA
ATOM     41  C   UNL A   1      38.948  29.158  27.789  1.00  0.00     0.031 C 
ATOM     42  C   UNL A   1      37.388  31.754  31.809  1.00  0.00     0.029 A 
ATOM     43  N   UNL A   1      39.307  30.625  32.005  1.00  0.00    -0.354 N 
ATOM     44  C   UNL A   1      40.752  28.146  28.755  1.00  0.00     0.074 A 
ATOM     45  C   UNL A   1      39.867  28.222  27.615  1.00  0.00     0.031 C 
ATOM     46  C   UNL A   1      37.840  31.944  33.059  1.00  0.00     0.029 A 
ATOM     47  C   UNL A   1      39.086  31.207  33.232  1.00  0.00     0.049 A 
ATOM     48  H   UNL A   1      40.089  30.060  31.810  1.00  0.00     0.167 HD
ATOM     49  C   UNL A   1      41.872  27.389  28.799  1.00  0.00     0.034 A 
ATOM     50  C   UNL A   1      39.813  31.152  34.365  1.00  0.00     0.034 A 
ATOM     51  C   UNL A   1      42.784  27.380  29.908  1.00  0.00     0.049 A 
ATOM     52  C   UNL A   1      41.090  30.354  34.366  1.00  0.00     0.074 A 
ATOM     53  C   UNL A   1      44.001  26.736  30.019  1.00  0.00     0.029 A 
ATOM     54  N   UNL A   1      42.576  28.057  31.101  1.00  0.00    -0.354 N 
ATOM     55  N   UNL A   1      41.634  29.665  33.391  1.00  0.00    -0.248 NA
ATOM     56  C   UNL A   1      41.868  30.349  35.613  1.00  0.00     0.031 C 
ATOM     57  C   UNL A   1      44.527  27.017  31.285  1.00  0.00     0.029 A 
ATOM     58  C   UNL A   1      43.642  27.846  31.957  1.00  0.00     0.049 A 
ATOM     59  H   UNL A   1      41.786  28.607  31.309  1.00  0.00     0.167 HD
ATOM     60  C   UNL A   1      42.835  29.179  33.891  1.00  0.00     0.074 A 
ATOM     61  C   UNL A   1      42.945  29.665  35.253  1.00  0.00     0.031 C 
ATOM     62  C   UNL A   1      43.757  28.389  33.286  1.00  0.00     0.034 A 
BRANCH  49  63
ATOM     63  C   UNL A   1      42.194  26.565  27.581  1.00  0.00     0.023 A 
ATOM     64  C   UNL A   1      42.786  27.184  26.459  1.00  0.00     0.012 A 
ATOM     65  C   UNL A   1      41.919  25.186  27.540  1.00  0.00     0.148 A 
ATOM     66  C   UNL A   1      43.051  26.456  25.301  1.00  0.00     0.002 A 
ATOM     67  C   UNL A   1      42.230  24.455  26.397  1.00  0.00     0.091 A 
ATOM     68  F   UNL A   1      41.329  24.616  28.601  1.00  0.00    -0.205 F 
ATOM     69  C   UNL A   1      42.782  25.091  25.273  1.00  0.00     0.022 A 
BRANCH  67  70
ATOM     70  S   UNL A   1      41.989  22.678  26.299  1.00  0.00     0.127 S 
ATOM     71  O   UNL A   1      42.611  22.365  25.015  1.00  0.00    -0.237 OA
ATOM     72  O   UNL A   1      42.726  22.198  27.468  1.00  0.00    -0.237 OA
ATOM     73  O   UNL A   1      40.548  22.472  26.371  1.00  0.00    -0.744 OA
ENDBRANCH  67  70
ENDBRANCH  49  63
BRANCH  50  74
ATOM     74  C   UNL A   1      39.411  31.960  35.551  1.00  0.00     0.023 A 
ATOM     75  C   UNL A   1      39.794  33.315  35.610  1.00  0.00     0.012 A 
ATOM     76  C   UNL A   1      38.626  31.424  36.590  1.00  0.00     0.148 A 
ATOM     77  C   UNL A   1      39.428  34.114  36.692  1.00  0.00     0.002 A 
ATOM     78  C   UNL A   1      38.224  32.239  37.643  1.00  0.00     0.091 A 
ATOM     79  F   UNL A   1      38.278  30.131  36.520  1.00  0.00    -0.205 F 
ATOM     80  C   UNL A   1      38.635  33.579  37.704  1.00  0.00     0.022 A 
BRANCH  78  81
ATOM     81  S   UNL A   1      37.104  31.674  38.930  1.00  0.00     0.127 S 
ATOM     82  O   UNL A   1      35.987  32.602  38.784  1.00  0.00    -0.237 OA
ATOM     83  O   UNL A   1      36.826  30.301  38.506  1.00  0.00    -0.237 OA
ATOM     84  O   UNL A   1      37.854  31.778  40.175  1.00  0.00    -0.744 OA
ENDBRANCH  78  81
ENDBRANCH  50  74
BRANCH  62  85
ATOM     85  C   UNL A   1      44.985  28.026  34.076  1.00  0.00     0.023 A 
ATOM     86  C   UNL A   1      46.104  28.881  34.059  1.00  0.00     0.012 A 
ATOM     87  C   UNL A   1      44.998  26.883  34.900  1.00  0.00     0.148 A 
ATOM     88  C   UNL A   1      47.227  28.592  34.831  1.00  0.00     0.002 A 
ATOM     89  C   UNL A   1      46.102  26.626  35.702  1.00  0.00     0.091 A 
ATOM     90  F   UNL A   1      43.931  26.070  34.884  1.00  0.00    -0.205 F 
ATOM     91  C   UNL A   1      47.222  27.473  35.662  1.00  0.00     0.022 A 
BRANCH  89  92
ATOM     92  S   UNL A   1      46.139  25.264  36.873  1.00  0.00     0.127 S 
ATOM     93  O   UNL A   1      46.220  24.107  35.983  1.00  0.00    -0.237 OA
ATOM     94  O   UNL A   1      47.359  25.537  37.632  1.00  0.00    -0.237 OA
ATOM     95  O   UNL A   1      44.912  25.374  37.651  1.00  0.00    -0.744 OA
ENDBRANCH  89  92
ENDBRANCH  62  85
ENDBRANCH  36  37
ENDBRANCH  28  31
ENDBRANCH  26  27
ENDBRANCH   1  26
TORSDOF 18
ENDMDL
