MODEL 1
REMARK VINA RESULT:      -9.5      0.000      0.000
REMARK SMILES Nc1c(Nc2ccc(I)cc2)ncnc1Nc1ccc(C(=O)NCCCCNC(=O)c2ccc(-c3c4nc(c(-c5cccc(S(=O)(=O)[O-])c5F)c5ccc([nH]5)c(-c5cccc(S(=O)(=O)[O-])c5F)c5nc(c(-c6cccc(S(=O)(=O)[O-])c6F)c6ccc3[nH]6)C=C5)C=C4)cc2)cc1
REMARK SMILES IDX 25 1 24 2 23 3 21 4 22 5 20 7 17 8 18 9 95 10 19 11 94 12
REMARK SMILES IDX 16 13 15 15 2 16 3 17 12 18 14 19 13 20 1 21 4 24 5 26 6 27
REMARK SMILES IDX 11 28 7 29 10 30 8 31 9 32 26 33 27 34 28 35 29 36 30 38
REMARK SMILES IDX 31 39 32 40 93 41 33 42 92 43 34 44 35 45 36 46 86 47 37 48
REMARK SMILES IDX 91 49 85 50 87 51 38 52 90 53 84 54 83 55 39 57 71 58 51 59
REMARK SMILES IDX 70 60 52 61 55 62 69 63 88 64 53 65 54 66 68 68 89 69 56 70
REMARK SMILES IDX 40 71 41 72 49 73 42 74 44 75 50 76 43 77 45 78 46 79 47 80
REMARK SMILES IDX 48 81 72 82 73 83 81 84 74 85 76 86 82 87 75 88 77 89 78 90
REMARK SMILES IDX 79 91 80 92 57 93 58 94 66 95 59 96 61 97 67 98 60 99 62 100
REMARK SMILES IDX 63 101 64 102 65 103
REMARK H PARENT 23 6 16 14 1 22 1 23 4 25 28 37 87 56 55 67
REMARK Flexibility Score: inf
ROOT
ATOM      1  C   UNL A   1      34.026  33.619  30.533  1.00  0.00     0.023 C 
ENDROOT
BRANCH   1   2
ATOM      2  C   UNL A   1      34.393  35.056  30.157  1.00  0.00     0.116 C 
BRANCH   2   3
ATOM      3  N   UNL A   1      34.183  35.950  31.278  1.00  0.00    -0.352 N 
ATOM      4  C   UNL A   1      34.704  35.986  32.546  1.00  0.00     0.251 C 
ATOM      5  O   UNL A   1      34.341  36.907  33.280  1.00  0.00    -0.269 OA
ATOM      6  H   UNL A   1      33.540  36.673  31.094  1.00  0.00     0.163 HD
BRANCH   4   7
ATOM      7  C   UNL A   1      35.714  35.016  33.066  1.00  0.00     0.039 A 
ATOM      8  C   UNL A   1      37.514  33.196  34.280  1.00  0.00     0.040 A 
ATOM      9  C   UNL A   1      36.216  33.339  34.770  1.00  0.00     0.027 A 
ATOM     10  C   UNL A   1      37.887  33.935  33.155  1.00  0.00     0.027 A 
ATOM     11  C   UNL A   1      35.330  34.244  34.175  1.00  0.00     0.016 A 
ATOM     12  C   UNL A   1      36.986  34.809  32.532  1.00  0.00     0.016 A 
BRANCH   8  13
ATOM     13  N   UNL A   1      38.455  32.423  34.983  1.00  0.00    -0.338 N 
ATOM     14  H   UNL A   1      38.827  32.803  35.812  1.00  0.00     0.168 HD
BRANCH  13  15
ATOM     15  C   UNL A   1      38.907  31.138  34.589  1.00  0.00     0.159 A 
ATOM     16  C   UNL A   1      39.956  30.542  35.301  1.00  0.00     0.118 A 
ATOM     17  C   UNL A   1      40.372  29.293  34.818  1.00  0.00     0.159 A 
ATOM     18  N   UNL A   1      39.849  28.730  33.713  1.00  0.00    -0.217 NA
ATOM     19  N   UNL A   1      38.335  30.551  33.520  1.00  0.00    -0.217 NA
ATOM     20  C   UNL A   1      38.844  29.384  33.128  1.00  0.00     0.226 A 
BRANCH  16  21
ATOM     21  N   UNL A   1      40.499  31.111  36.461  1.00  0.00    -0.393 N 
ATOM     22  H   UNL A   1      41.448  31.374  36.483  1.00  0.00     0.156 HD
ATOM     23  H   UNL A   1      39.932  31.248  37.254  1.00  0.00     0.156 HD
ENDBRANCH  16  21
BRANCH  17  24
ATOM     24  N   UNL A   1      41.369  28.591  35.542  1.00  0.00    -0.338 N 
ATOM     25  H   UNL A   1      41.573  28.926  36.445  1.00  0.00     0.168 HD
BRANCH  24  26
ATOM     26  C   UNL A   1      42.099  27.470  35.111  1.00  0.00     0.040 A 
ATOM     27  C   UNL A   1      43.171  27.637  34.225  1.00  0.00     0.027 A 
ATOM     28  C   UNL A   1      41.835  26.185  35.604  1.00  0.00     0.027 A 
ATOM     29  C   UNL A   1      43.971  26.550  33.856  1.00  0.00     0.017 A 
ATOM     30  C   UNL A   1      42.621  25.091  35.229  1.00  0.00     0.017 A 
ATOM     31  C   UNL A   1      43.693  25.281  34.362  1.00  0.00     0.013 A 
ATOM     32  I   UNL A   1      44.898  23.671  33.839  1.00  0.00    -0.044 I 
ENDBRANCH  24  26
ENDBRANCH  17  24
ENDBRANCH  13  15
ENDBRANCH   8  13
ENDBRANCH   4   7
ENDBRANCH   2   3
ENDBRANCH   1   2
BRANCH   1  33
ATOM     33  C   UNL A   1      34.848  32.548  29.809  1.00  0.00     0.023 C 
BRANCH  33  34
ATOM     34  C   UNL A   1      34.639  32.483  28.300  1.00  0.00     0.116 C 
BRANCH  34  35
ATOM     35  N   UNL A   1      34.064  31.223  27.853  1.00  0.00    -0.352 N 
ATOM     36  C   UNL A   1      34.677  29.994  27.754  1.00  0.00     0.251 C 
ATOM     37  H   UNL A   1      33.117  31.254  27.586  1.00  0.00     0.163 HD
ATOM     38  O   UNL A   1      34.086  29.043  27.266  1.00  0.00    -0.269 OA
BRANCH  36  39
ATOM     39  C   UNL A   1      36.075  29.858  28.213  1.00  0.00     0.039 A 
ATOM     40  C   UNL A   1      36.311  29.421  29.518  1.00  0.00     0.014 A 
ATOM     41  C   UNL A   1      37.138  30.112  27.342  1.00  0.00     0.014 A 
ATOM     42  C   UNL A   1      37.622  29.176  29.932  1.00  0.00     0.010 A 
ATOM     43  C   UNL A   1      38.437  29.811  27.738  1.00  0.00     0.010 A 
ATOM     44  C   UNL A   1      38.690  29.339  29.034  1.00  0.00    -0.014 A 
BRANCH  44  45
ATOM     45  C   UNL A   1      40.079  29.002  29.429  1.00  0.00     0.031 A 
ATOM     46  C   UNL A   1      40.915  30.004  30.172  1.00  0.00     0.074 A 
ATOM     47  C   UNL A   1      40.606  27.821  29.052  1.00  0.00     0.049 A 
ATOM     48  N   UNL A   1      42.154  29.901  30.575  1.00  0.00    -0.248 NA
ATOM     49  C   UNL A   1      40.286  31.297  30.487  1.00  0.00     0.031 C 
ATOM     50  C   UNL A   1      39.912  26.799  28.266  1.00  0.00     0.029 A 
ATOM     51  N   UNL A   1      41.852  27.286  29.266  1.00  0.00    -0.354 N 
ATOM     52  C   UNL A   1      42.460  31.118  31.170  1.00  0.00     0.074 A 
ATOM     53  C   UNL A   1      41.291  31.960  31.040  1.00  0.00     0.031 C 
ATOM     54  C   UNL A   1      40.735  25.755  28.079  1.00  0.00     0.029 A 
ATOM     55  C   UNL A   1      42.020  26.039  28.710  1.00  0.00     0.049 A 
ATOM     56  H   UNL A   1      42.558  27.751  29.769  1.00  0.00     0.167 HD
ATOM     57  C   UNL A   1      43.597  31.487  31.805  1.00  0.00     0.034 A 
ATOM     58  C   UNL A   1      43.086  25.215  28.719  1.00  0.00     0.034 A 
ATOM     59  C   UNL A   1      44.738  30.629  31.973  1.00  0.00     0.049 A 
ATOM     60  C   UNL A   1      44.330  25.637  29.455  1.00  0.00     0.074 A 
ATOM     61  C   UNL A   1      45.911  30.885  32.659  1.00  0.00     0.029 A 
ATOM     62  N   UNL A   1      44.849  29.349  31.453  1.00  0.00    -0.354 N 
ATOM     63  N   UNL A   1      44.548  26.736  30.138  1.00  0.00    -0.248 NA
ATOM     64  C   UNL A   1      45.460  24.698  29.452  1.00  0.00     0.031 C 
ATOM     65  C   UNL A   1      46.734  29.761  32.550  1.00  0.00     0.029 A 
ATOM     66  C   UNL A   1      46.070  28.801  31.802  1.00  0.00     0.049 A 
ATOM     67  H   UNL A   1      44.159  28.896  30.915  1.00  0.00     0.167 HD
ATOM     68  C   UNL A   1      45.826  26.608  30.668  1.00  0.00     0.074 A 
ATOM     69  C   UNL A   1      46.326  25.316  30.246  1.00  0.00     0.031 C 
ATOM     70  C   UNL A   1      46.530  27.490  31.420  1.00  0.00     0.034 A 
BRANCH  57  71
ATOM     71  C   UNL A   1      43.630  32.851  32.443  1.00  0.00     0.023 A 
ATOM     72  C   UNL A   1      44.108  33.944  31.692  1.00  0.00     0.012 A 
ATOM     73  C   UNL A   1      43.133  33.068  33.741  1.00  0.00     0.148 A 
ATOM     74  C   UNL A   1      44.116  35.228  32.232  1.00  0.00     0.002 A 
ATOM     75  C   UNL A   1      43.108  34.358  34.260  1.00  0.00     0.091 A 
ATOM     76  F   UNL A   1      42.704  32.012  34.448  1.00  0.00    -0.205 F 
ATOM     77  C   UNL A   1      43.606  35.437  33.510  1.00  0.00     0.022 A 
BRANCH  75  78
ATOM     78  S   UNL A   1      42.404  34.745  35.867  1.00  0.00     0.127 S 
ATOM     79  O   UNL A   1      41.059  34.188  35.741  1.00  0.00    -0.237 OA
ATOM     80  O   UNL A   1      43.285  34.011  36.776  1.00  0.00    -0.237 OA
ATOM     81  O   UNL A   1      42.473  36.194  35.995  1.00  0.00    -0.744 OA
ENDBRANCH  75  78
ENDBRANCH  57  71
BRANCH  58  82
ATOM     82  C   UNL A   1      42.979  23.863  28.099  1.00  0.00     0.023 A 
ATOM     83  C   UNL A   1      42.060  22.939  28.633  1.00  0.00     0.012 A 
ATOM     84  C   UNL A   1      43.724  23.508  26.957  1.00  0.00     0.148 A 
ATOM     85  C   UNL A   1      41.896  21.681  28.055  1.00  0.00     0.002 A 
ATOM     86  C   UNL A   1      43.518  22.270  26.355  1.00  0.00     0.091 A 
ATOM     87  F   UNL A   1      44.605  24.393  26.472  1.00  0.00    -0.205 F 
ATOM     88  C   UNL A   1      42.615  21.350  26.910  1.00  0.00     0.022 A 
BRANCH  86  89
ATOM     89  S   UNL A   1      44.298  21.813  24.802  1.00  0.00     0.127 S 
ATOM     90  O   UNL A   1      45.715  21.931  25.133  1.00  0.00    -0.237 OA
ATOM     91  O   UNL A   1      43.821  20.442  24.616  1.00  0.00    -0.237 OA
ATOM     92  O   UNL A   1      43.794  22.760  23.817  1.00  0.00    -0.744 OA
ENDBRANCH  86  89
ENDBRANCH  58  82
BRANCH  70  93
ATOM     93  C   UNL A   1      47.920  27.101  31.849  1.00  0.00     0.023 A 
ATOM     94  C   UNL A   1      48.095  26.382  33.047  1.00  0.00     0.012 A 
ATOM     95  C   UNL A   1      49.029  27.337  31.013  1.00  0.00     0.148 A 
ATOM     96  C   UNL A   1      49.356  25.914  33.414  1.00  0.00     0.002 A 
ATOM     97  C   UNL A   1      50.275  26.829  31.363  1.00  0.00     0.091 A 
ATOM     98  F   UNL A   1      48.843  28.040  29.886  1.00  0.00    -0.205 F 
ATOM     99  C   UNL A   1      50.441  26.124  32.566  1.00  0.00     0.022 A 
BRANCH  97 100
ATOM    100  S   UNL A   1      51.707  26.965  30.287  1.00  0.00     0.127 S 
ATOM    101  O   UNL A   1      51.327  26.099  29.172  1.00  0.00    -0.237 OA
ATOM    102  O   UNL A   1      51.725  28.395  29.971  1.00  0.00    -0.237 OA
ATOM    103  O   UNL A   1      52.844  26.508  31.074  1.00  0.00    -0.744 OA
ENDBRANCH  97 100
ENDBRANCH  70  93
ENDBRANCH  44  45
ENDBRANCH  36  39
ENDBRANCH  34  35
ENDBRANCH  33  34
ENDBRANCH   1  33
TORSDOF 19
ENDMDL
MODEL 2
REMARK VINA RESULT:      -9.4      5.903     12.238
REMARK SMILES Nc1c(Nc2ccc(I)cc2)ncnc1Nc1ccc(C(=O)NCCCCNC(=O)c2ccc(-c3c4nc(c(-c5cccc(S(=O)(=O)[O-])c5F)c5ccc([nH]5)c(-c5cccc(S(=O)(=O)[O-])c5F)c5nc(c(-c6cccc(S(=O)(=O)[O-])c6F)c6ccc3[nH]6)C=C5)C=C4)cc2)cc1
REMARK SMILES IDX 25 1 24 2 23 3 21 4 22 5 20 7 17 8 18 9 95 10 19 11 94 12
REMARK SMILES IDX 16 13 15 15 2 16 3 17 12 18 14 19 13 20 1 21 4 24 5 26 6 27
REMARK SMILES IDX 11 28 7 29 10 30 8 31 9 32 26 33 27 34 28 35 29 36 30 38
REMARK SMILES IDX 31 39 32 40 93 41 33 42 92 43 34 44 35 45 36 46 86 47 37 48
REMARK SMILES IDX 91 49 85 50 87 51 38 52 90 53 84 54 83 55 39 57 71 58 51 59
REMARK SMILES IDX 70 60 52 61 55 62 69 63 88 64 53 65 54 66 68 68 89 69 56 70
REMARK SMILES IDX 40 71 41 72 49 73 42 74 44 75 50 76 43 77 45 78 46 79 47 80
REMARK SMILES IDX 48 81 72 82 73 83 81 84 74 85 76 86 82 87 75 88 77 89 78 90
REMARK SMILES IDX 79 91 80 92 57 93 58 94 66 95 59 96 61 97 67 98 60 99 62 100
REMARK SMILES IDX 63 101 64 102 65 103
REMARK H PARENT 23 6 16 14 1 22 1 23 4 25 28 37 87 56 55 67
REMARK Flexibility Score: inf
ROOT
ATOM      1  C   UNL A   1      38.616  21.495  25.727  1.00  0.00     0.023 C 
ENDROOT
BRANCH   1   2
ATOM      2  C   UNL A   1      37.168  21.545  25.236  1.00  0.00     0.116 C 
BRANCH   2   3
ATOM      3  N   UNL A   1      36.678  20.212  24.947  1.00  0.00    -0.352 N 
ATOM      4  C   UNL A   1      35.421  19.665  24.952  1.00  0.00     0.251 C 
ATOM      5  O   UNL A   1      35.318  18.480  24.628  1.00  0.00    -0.269 OA
ATOM      6  H   UNL A   1      37.386  19.574  24.698  1.00  0.00     0.163 HD
BRANCH   4   7
ATOM      7  C   UNL A   1      34.176  20.426  25.272  1.00  0.00     0.039 A 
ATOM      8  C   UNL A   1      31.775  21.889  25.625  1.00  0.00     0.040 A 
ATOM      9  C   UNL A   1      31.965  21.107  24.485  1.00  0.00     0.027 A 
ATOM     10  C   UNL A   1      32.773  21.896  26.603  1.00  0.00     0.027 A 
ATOM     11  C   UNL A   1      33.154  20.392  24.307  1.00  0.00     0.016 A 
ATOM     12  C   UNL A   1      33.945  21.145  26.445  1.00  0.00     0.016 A 
BRANCH   8  13
ATOM     13  N   UNL A   1      30.663  22.744  25.719  1.00  0.00    -0.338 N 
ATOM     14  H   UNL A   1      29.788  22.334  25.909  1.00  0.00     0.168 HD
BRANCH  13  15
ATOM     15  C   UNL A   1      30.707  24.153  25.563  1.00  0.00     0.159 A 
ATOM     16  C   UNL A   1      30.656  24.693  24.271  1.00  0.00     0.118 A 
ATOM     17  C   UNL A   1      30.750  26.090  24.203  1.00  0.00     0.159 A 
ATOM     18  N   UNL A   1      30.941  26.859  25.291  1.00  0.00    -0.217 NA
ATOM     19  N   UNL A   1      30.834  24.922  26.662  1.00  0.00    -0.217 NA
ATOM     20  C   UNL A   1      30.958  26.235  26.469  1.00  0.00     0.226 A 
BRANCH  16  21
ATOM     21  N   UNL A   1      30.443  23.904  23.132  1.00  0.00    -0.393 N 
ATOM     22  H   UNL A   1      29.696  23.261  23.111  1.00  0.00     0.156 HD
ATOM     23  H   UNL A   1      31.038  23.992  22.354  1.00  0.00     0.156 HD
ENDBRANCH  16  21
BRANCH  17  24
ATOM     24  N   UNL A   1      30.617  26.711  22.936  1.00  0.00    -0.338 N 
ATOM     25  H   UNL A   1      30.976  26.216  22.164  1.00  0.00     0.168 HD
BRANCH  24  26
ATOM     26  C   UNL A   1      30.029  27.957  22.659  1.00  0.00     0.040 A 
ATOM     27  C   UNL A   1      28.732  28.230  23.112  1.00  0.00     0.027 A 
ATOM     28  C   UNL A   1      30.733  28.976  22.004  1.00  0.00     0.027 A 
ATOM     29  C   UNL A   1      28.160  29.494  22.931  1.00  0.00     0.017 A 
ATOM     30  C   UNL A   1      30.165  30.238  21.807  1.00  0.00     0.017 A 
ATOM     31  C   UNL A   1      28.882  30.494  22.280  1.00  0.00     0.013 A 
ATOM     32  I   UNL A   1      28.048  32.381  22.038  1.00  0.00    -0.044 I 
ENDBRANCH  24  26
ENDBRANCH  17  24
ENDBRANCH  13  15
ENDBRANCH   8  13
ENDBRANCH   4   7
ENDBRANCH   2   3
ENDBRANCH   1   2
BRANCH   1  33
ATOM     33  C   UNL A   1      39.357  20.200  25.380  1.00  0.00     0.023 C 
BRANCH  33  34
ATOM     34  C   UNL A   1      40.175  19.597  26.517  1.00  0.00     0.116 C 
BRANCH  34  35
ATOM     35  N   UNL A   1      41.473  19.099  26.089  1.00  0.00    -0.352 N 
ATOM     36  C   UNL A   1      42.652  19.797  25.953  1.00  0.00     0.251 C 
ATOM     37  H   UNL A   1      41.513  18.140  25.869  1.00  0.00     0.163 HD
ATOM     38  O   UNL A   1      43.643  19.257  25.487  1.00  0.00    -0.269 OA
BRANCH  36  39
ATOM     39  C   UNL A   1      42.684  21.222  26.343  1.00  0.00     0.039 A 
ATOM     40  C   UNL A   1      42.774  21.542  27.700  1.00  0.00     0.014 A 
ATOM     41  C   UNL A   1      42.674  22.226  25.372  1.00  0.00     0.014 A 
ATOM     42  C   UNL A   1      42.920  22.877  28.080  1.00  0.00     0.010 A 
ATOM     43  C   UNL A   1      42.879  23.549  25.750  1.00  0.00     0.010 A 
ATOM     44  C   UNL A   1      43.007  23.886  27.106  1.00  0.00    -0.014 A 
BRANCH  44  45
ATOM     45  C   UNL A   1      43.248  25.298  27.486  1.00  0.00     0.031 A 
ATOM     46  C   UNL A   1      44.629  25.880  27.387  1.00  0.00     0.074 A 
ATOM     47  C   UNL A   1      42.235  26.031  27.988  1.00  0.00     0.049 A 
ATOM     48  N   UNL A   1      45.038  27.082  27.699  1.00  0.00    -0.248 NA
ATOM     49  C   UNL A   1      45.694  24.993  26.892  1.00  0.00     0.031 C 
ATOM     50  C   UNL A   1      40.868  25.549  28.197  1.00  0.00     0.029 A 
ATOM     51  N   UNL A   1      42.201  27.331  28.428  1.00  0.00    -0.354 N 
ATOM     52  C   UNL A   1      46.406  27.090  27.460  1.00  0.00     0.074 A 
ATOM     53  C   UNL A   1      46.766  25.761  27.016  1.00  0.00     0.031 C 
ATOM     54  C   UNL A   1      40.125  26.545  28.708  1.00  0.00     0.029 A 
ATOM     55  C   UNL A   1      40.965  27.727  28.884  1.00  0.00     0.049 A 
ATOM     56  H   UNL A   1      42.986  27.923  28.418  1.00  0.00     0.167 HD
ATOM     57  C   UNL A   1      47.276  28.121  27.560  1.00  0.00     0.034 A 
ATOM     58  C   UNL A   1      40.553  28.911  29.377  1.00  0.00     0.034 A 
ATOM     59  C   UNL A   1      46.903  29.451  27.957  1.00  0.00     0.049 A 
ATOM     60  C   UNL A   1      41.534  30.050  29.453  1.00  0.00     0.074 A 
ATOM     61  C   UNL A   1      47.697  30.582  28.024  1.00  0.00     0.029 A 
ATOM     62  N   UNL A   1      45.629  29.832  28.349  1.00  0.00    -0.354 N 
ATOM     63  N   UNL A   1      42.793  30.078  29.084  1.00  0.00    -0.248 NA
ATOM     64  C   UNL A   1      41.034  31.328  29.981  1.00  0.00     0.031 C 
ATOM     65  C   UNL A   1      46.904  31.645  28.463  1.00  0.00     0.029 A 
ATOM     66  C   UNL A   1      45.614  31.180  28.661  1.00  0.00     0.049 A 
ATOM     67  H   UNL A   1      44.850  29.232  28.398  1.00  0.00     0.167 HD
ATOM     68  C   UNL A   1      43.227  31.379  29.308  1.00  0.00     0.074 A 
ATOM     69  C   UNL A   1      42.091  32.116  29.824  1.00  0.00     0.031 C 
ATOM     70  C   UNL A   1      44.460  31.911  29.122  1.00  0.00     0.034 A 
BRANCH  57  71
ATOM     71  C   UNL A   1      48.704  27.873  27.152  1.00  0.00     0.023 A 
ATOM     72  C   UNL A   1      49.651  27.550  28.145  1.00  0.00     0.012 A 
ATOM     73  C   UNL A   1      49.096  27.889  25.800  1.00  0.00     0.148 A 
ATOM     74  C   UNL A   1      50.973  27.273  27.802  1.00  0.00     0.002 A 
ATOM     75  C   UNL A   1      50.408  27.573  25.462  1.00  0.00     0.091 A 
ATOM     76  F   UNL A   1      48.186  28.220  24.873  1.00  0.00    -0.205 F 
ATOM     77  C   UNL A   1      51.348  27.273  26.463  1.00  0.00     0.022 A 
BRANCH  75  78
ATOM     78  S   UNL A   1      50.974  27.473  23.761  1.00  0.00     0.127 S 
ATOM     79  O   UNL A   1      51.387  28.852  23.507  1.00  0.00    -0.237 OA
ATOM     80  O   UNL A   1      52.076  26.515  23.857  1.00  0.00    -0.237 OA
ATOM     81  O   UNL A   1      49.833  27.008  22.986  1.00  0.00    -0.744 OA
ENDBRANCH  75  78
ENDBRANCH  57  71
BRANCH  58  82
ATOM     82  C   UNL A   1      39.118  29.104  29.732  1.00  0.00     0.023 A 
ATOM     83  C   UNL A   1      38.691  28.797  31.039  1.00  0.00     0.012 A 
ATOM     84  C   UNL A   1      38.192  29.644  28.818  1.00  0.00     0.148 A 
ATOM     85  C   UNL A   1      37.368  29.005  31.425  1.00  0.00     0.002 A 
ATOM     86  C   UNL A   1      36.886  29.897  29.224  1.00  0.00     0.091 A 
ATOM     87  F   UNL A   1      38.611  29.916  27.574  1.00  0.00    -0.205 F 
ATOM     88  C   UNL A   1      36.468  29.566  30.523  1.00  0.00     0.022 A 
BRANCH  86  89
ATOM     89  S   UNL A   1      35.697  30.743  28.175  1.00  0.00     0.127 S 
ATOM     90  O   UNL A   1      34.665  31.120  29.136  1.00  0.00    -0.237 OA
ATOM     91  O   UNL A   1      36.491  31.857  27.655  1.00  0.00    -0.237 OA
ATOM     92  O   UNL A   1      35.301  29.769  27.168  1.00  0.00    -0.744 OA
ENDBRANCH  86  89
ENDBRANCH  58  82
BRANCH  70  93
ATOM     93  C   UNL A   1      44.664  33.361  29.468  1.00  0.00     0.023 A 
ATOM     94  C   UNL A   1      45.083  33.708  30.767  1.00  0.00     0.012 A 
ATOM     95  C   UNL A   1      44.564  34.363  28.482  1.00  0.00     0.148 A 
ATOM     96  C   UNL A   1      45.385  35.031  31.084  1.00  0.00     0.002 A 
ATOM     97  C   UNL A   1      44.910  35.673  28.793  1.00  0.00     0.091 A 
ATOM     98  F   UNL A   1      44.146  34.014  27.256  1.00  0.00    -0.205 F 
ATOM     99  C   UNL A   1      45.314  36.010  30.095  1.00  0.00     0.022 A 
BRANCH  97 100
ATOM    100  S   UNL A   1      44.944  36.978  27.560  1.00  0.00     0.127 S 
ATOM    101  O   UNL A   1      43.519  37.198  27.318  1.00  0.00    -0.237 OA
ATOM    102  O   UNL A   1      45.616  38.065  28.274  1.00  0.00    -0.237 OA
ATOM    103  O   UNL A   1      45.695  36.444  26.431  1.00  0.00    -0.744 OA
ENDBRANCH  97 100
ENDBRANCH  70  93
ENDBRANCH  44  45
ENDBRANCH  36  39
ENDBRANCH  34  35
ENDBRANCH  33  34
ENDBRANCH   1  33
TORSDOF 19
ENDMDL
MODEL 3
REMARK VINA RESULT:      -9.2      5.562     10.741
REMARK SMILES Nc1c(Nc2ccc(I)cc2)ncnc1Nc1ccc(C(=O)NCCCCNC(=O)c2ccc(-c3c4nc(c(-c5cccc(S(=O)(=O)[O-])c5F)c5ccc([nH]5)c(-c5cccc(S(=O)(=O)[O-])c5F)c5nc(c(-c6cccc(S(=O)(=O)[O-])c6F)c6ccc3[nH]6)C=C5)C=C4)cc2)cc1
REMARK SMILES IDX 25 1 24 2 23 3 21 4 22 5 20 7 17 8 18 9 95 10 19 11 94 12
REMARK SMILES IDX 16 13 15 15 2 16 3 17 12 18 14 19 13 20 1 21 4 24 5 26 6 27
REMARK SMILES IDX 11 28 7 29 10 30 8 31 9 32 26 33 27 34 28 35 29 36 30 38
REMARK SMILES IDX 31 39 32 40 93 41 33 42 92 43 34 44 35 45 36 46 86 47 37 48
REMARK SMILES IDX 91 49 85 50 87 51 38 52 90 53 84 54 83 55 39 57 71 58 51 59
REMARK SMILES IDX 70 60 52 61 55 62 69 63 88 64 53 65 54 66 68 68 89 69 56 70
REMARK SMILES IDX 40 71 41 72 49 73 42 74 44 75 50 76 43 77 45 78 46 79 47 80
REMARK SMILES IDX 48 81 72 82 73 83 81 84 74 85 76 86 82 87 75 88 77 89 78 90
REMARK SMILES IDX 79 91 80 92 57 93 58 94 66 95 59 96 61 97 67 98 60 99 62 100
REMARK SMILES IDX 63 101 64 102 65 103
REMARK H PARENT 23 6 16 14 1 22 1 23 4 25 28 37 87 56 55 67
REMARK Flexibility Score: inf
ROOT
ATOM      1  C   UNL A   1      37.690  19.434  24.904  1.00  0.00     0.023 C 
ENDROOT
BRANCH   1   2
ATOM      2  C   UNL A   1      36.291  20.052  24.954  1.00  0.00     0.116 C 
BRANCH   2   3
ATOM      3  N   UNL A   1      35.275  19.019  24.999  1.00  0.00    -0.352 N 
ATOM      4  C   UNL A   1      33.925  19.036  24.762  1.00  0.00     0.251 C 
ATOM      5  O   UNL A   1      33.321  17.966  24.858  1.00  0.00    -0.269 OA
ATOM      6  H   UNL A   1      35.622  18.132  25.249  1.00  0.00     0.163 HD
BRANCH   4   7
ATOM      7  C   UNL A   1      33.161  20.249  24.346  1.00  0.00     0.039 A 
ATOM      8  C   UNL A   1      31.785  22.502  23.315  1.00  0.00     0.040 A 
ATOM      9  C   UNL A   1      32.006  21.381  22.514  1.00  0.00     0.027 A 
ATOM     10  C   UNL A   1      32.217  22.467  24.643  1.00  0.00     0.027 A 
ATOM     11  C   UNL A   1      32.693  20.272  23.021  1.00  0.00     0.016 A 
ATOM     12  C   UNL A   1      32.865  21.340  25.164  1.00  0.00     0.016 A 
BRANCH   8  13
ATOM     13  N   UNL A   1      31.256  23.678  22.756  1.00  0.00    -0.338 N 
ATOM     14  H   UNL A   1      30.465  23.591  22.175  1.00  0.00     0.168 HD
BRANCH  13  15
ATOM     15  C   UNL A   1      31.774  24.982  22.967  1.00  0.00     0.159 A 
ATOM     16  C   UNL A   1      31.168  25.804  23.925  1.00  0.00     0.118 A 
ATOM     17  C   UNL A   1      31.712  27.091  24.038  1.00  0.00     0.159 A 
ATOM     18  N   UNL A   1      32.705  27.533  23.243  1.00  0.00    -0.217 NA
ATOM     19  N   UNL A   1      32.810  25.395  22.211  1.00  0.00    -0.217 NA
ATOM     20  C   UNL A   1      33.214  26.654  22.378  1.00  0.00     0.226 A 
BRANCH  16  21
ATOM     21  N   UNL A   1      30.144  25.351  24.769  1.00  0.00    -0.393 N 
ATOM     22  H   UNL A   1      30.302  24.582  25.365  1.00  0.00     0.156 HD
ATOM     23  H   UNL A   1      29.269  25.801  24.766  1.00  0.00     0.156 HD
ENDBRANCH  16  21
BRANCH  17  24
ATOM     24  N   UNL A   1      31.207  27.948  25.048  1.00  0.00    -0.338 N 
ATOM     25  H   UNL A   1      30.238  27.901  25.219  1.00  0.00     0.168 HD
BRANCH  24  26
ATOM     26  C   UNL A   1      31.936  28.858  25.832  1.00  0.00     0.040 A 
ATOM     27  C   UNL A   1      33.036  28.411  26.575  1.00  0.00     0.027 A 
ATOM     28  C   UNL A   1      31.642  30.228  25.836  1.00  0.00     0.027 A 
ATOM     29  C   UNL A   1      33.834  29.312  27.288  1.00  0.00     0.017 A 
ATOM     30  C   UNL A   1      32.426  31.134  26.557  1.00  0.00     0.017 A 
ATOM     31  C   UNL A   1      33.526  30.672  27.274  1.00  0.00     0.013 A 
ATOM     32  I   UNL A   1      34.726  32.017  28.307  1.00  0.00    -0.044 I 
ENDBRANCH  24  26
ENDBRANCH  17  24
ENDBRANCH  13  15
ENDBRANCH   8  13
ENDBRANCH   4   7
ENDBRANCH   2   3
ENDBRANCH   1   2
BRANCH   1  33
ATOM     33  C   UNL A   1      38.816  20.386  25.319  1.00  0.00     0.023 C 
BRANCH  33  34
ATOM     34  C   UNL A   1      39.705  19.882  26.450  1.00  0.00     0.116 C 
BRANCH  34  35
ATOM     35  N   UNL A   1      40.864  19.136  25.981  1.00  0.00    -0.352 N 
ATOM     36  C   UNL A   1      42.145  19.594  25.769  1.00  0.00     0.251 C 
ATOM     37  H   UNL A   1      40.711  18.182  25.790  1.00  0.00     0.163 HD
ATOM     38  O   UNL A   1      42.992  18.866  25.278  1.00  0.00    -0.269 OA
BRANCH  36  39
ATOM     39  C   UNL A   1      42.463  20.996  26.112  1.00  0.00     0.039 A 
ATOM     40  C   UNL A   1      42.759  21.310  27.441  1.00  0.00     0.014 A 
ATOM     41  C   UNL A   1      42.518  21.977  25.118  1.00  0.00     0.014 A 
ATOM     42  C   UNL A   1      43.174  22.603  27.763  1.00  0.00     0.010 A 
ATOM     43  C   UNL A   1      42.988  23.248  25.433  1.00  0.00     0.010 A 
ATOM     44  C   UNL A   1      43.322  23.571  26.756  1.00  0.00    -0.014 A 
BRANCH  44  45
ATOM     45  C   UNL A   1      43.843  24.924  27.066  1.00  0.00     0.031 A 
ATOM     46  C   UNL A   1      42.927  25.975  27.624  1.00  0.00     0.074 A 
ATOM     47  C   UNL A   1      45.125  25.222  26.776  1.00  0.00     0.049 A 
ATOM     48  N   UNL A   1      43.193  27.217  27.931  1.00  0.00    -0.248 NA
ATOM     49  C   UNL A   1      41.525  25.588  27.849  1.00  0.00     0.031 C 
ATOM     50  C   UNL A   1      46.088  24.303  26.167  1.00  0.00     0.029 A 
ATOM     51  N   UNL A   1      45.834  26.386  26.941  1.00  0.00    -0.354 N 
ATOM     52  C   UNL A   1      41.992  27.766  28.363  1.00  0.00     0.074 A 
ATOM     53  C   UNL A   1      40.987  26.734  28.241  1.00  0.00     0.031 C 
ATOM     54  C   UNL A   1      47.266  24.932  26.025  1.00  0.00     0.029 A 
ATOM     55  C   UNL A   1      47.138  26.303  26.512  1.00  0.00     0.049 A 
ATOM     56  H   UNL A   1      45.446  27.202  27.330  1.00  0.00     0.167 HD
ATOM     57  C   UNL A   1      41.757  29.004  28.856  1.00  0.00     0.034 A 
ATOM     58  C   UNL A   1      48.121  27.224  26.519  1.00  0.00     0.034 A 
ATOM     59  C   UNL A   1      42.770  30.010  29.019  1.00  0.00     0.049 A 
ATOM     60  C   UNL A   1      47.841  28.586  27.099  1.00  0.00     0.074 A 
ATOM     61  C   UNL A   1      42.647  31.272  29.572  1.00  0.00     0.029 A 
ATOM     62  N   UNL A   1      44.095  29.869  28.633  1.00  0.00    -0.354 N 
ATOM     63  N   UNL A   1      46.734  29.038  27.638  1.00  0.00    -0.248 NA
ATOM     64  C   UNL A   1      48.949  29.551  27.102  1.00  0.00     0.031 C 
ATOM     65  C   UNL A   1      43.896  31.896  29.516  1.00  0.00     0.029 A 
ATOM     66  C   UNL A   1      44.800  31.020  28.935  1.00  0.00     0.049 A 
ATOM     67  H   UNL A   1      44.477  29.067  28.207  1.00  0.00     0.167 HD
ATOM     68  C   UNL A   1      47.019  30.328  28.069  1.00  0.00     0.074 A 
ATOM     69  C   UNL A   1      48.410  30.578  27.748  1.00  0.00     0.031 C 
ATOM     70  C   UNL A   1      46.198  31.232  28.659  1.00  0.00     0.034 A 
BRANCH  57  71
ATOM     71  C   UNL A   1      40.364  29.311  29.337  1.00  0.00     0.023 A 
ATOM     72  C   UNL A   1      39.414  29.794  28.415  1.00  0.00     0.012 A 
ATOM     73  C   UNL A   1      39.973  29.062  30.666  1.00  0.00     0.148 A 
ATOM     74  C   UNL A   1      38.103  30.050  28.812  1.00  0.00     0.002 A 
ATOM     75  C   UNL A   1      38.654  29.283  31.047  1.00  0.00     0.091 A 
ATOM     76  F   UNL A   1      40.897  28.624  31.534  1.00  0.00    -0.205 F 
ATOM     77  C   UNL A   1      37.721  29.785  30.123  1.00  0.00     0.022 A 
BRANCH  75  78
ATOM     78  S   UNL A   1      38.041  28.904  32.693  1.00  0.00     0.127 S 
ATOM     79  O   UNL A   1      38.906  29.736  33.527  1.00  0.00    -0.237 OA
ATOM     80  O   UNL A   1      36.651  29.353  32.617  1.00  0.00    -0.237 OA
ATOM     81  O   UNL A   1      38.206  27.466  32.859  1.00  0.00    -0.744 OA
ENDBRANCH  75  78
ENDBRANCH  57  71
BRANCH  58  82
ATOM     82  C   UNL A   1      49.488  26.848  26.061  1.00  0.00     0.023 A 
ATOM     83  C   UNL A   1      50.281  26.024  26.883  1.00  0.00     0.012 A 
ATOM     84  C   UNL A   1      49.984  27.241  24.802  1.00  0.00     0.148 A 
ATOM     85  C   UNL A   1      51.548  25.612  26.472  1.00  0.00     0.002 A 
ATOM     86  C   UNL A   1      51.228  26.784  24.375  1.00  0.00     0.091 A 
ATOM     87  F   UNL A   1      49.223  28.037  24.039  1.00  0.00    -0.205 F 
ATOM     88  C   UNL A   1      52.017  25.981  25.214  1.00  0.00     0.022 A 
BRANCH  86  89
ATOM     89  S   UNL A   1      51.852  27.095  22.719  1.00  0.00     0.127 S 
ATOM     90  O   UNL A   1      52.984  26.175  22.648  1.00  0.00    -0.237 OA
ATOM     91  O   UNL A   1      50.705  26.726  21.889  1.00  0.00    -0.237 OA
ATOM     92  O   UNL A   1      52.183  28.513  22.685  1.00  0.00    -0.744 OA
ENDBRANCH  86  89
ENDBRANCH  58  82
BRANCH  70  93
ATOM     93  C   UNL A   1      46.767  32.580  29.010  1.00  0.00     0.023 A 
ATOM     94  C   UNL A   1      46.664  33.635  28.082  1.00  0.00     0.012 A 
ATOM     95  C   UNL A   1      47.288  32.836  30.294  1.00  0.00     0.148 A 
ATOM     96  C   UNL A   1      47.083  34.920  28.422  1.00  0.00     0.002 A 
ATOM     97  C   UNL A   1      47.662  34.129  30.641  1.00  0.00     0.091 A 
ATOM     98  F   UNL A   1      47.394  31.814  31.156  1.00  0.00    -0.205 F 
ATOM     99  C   UNL A   1      47.566  35.170  29.704  1.00  0.00     0.022 A 
BRANCH  97 100
ATOM    100  S   UNL A   1      48.201  34.563  32.299  1.00  0.00     0.127 S 
ATOM    101  O   UNL A   1      49.654  34.579  32.146  1.00  0.00    -0.237 OA
ATOM    102  O   UNL A   1      47.593  35.881  32.490  1.00  0.00    -0.237 OA
ATOM    103  O   UNL A   1      47.675  33.525  33.176  1.00  0.00    -0.744 OA
ENDBRANCH  97 100
ENDBRANCH  70  93
ENDBRANCH  44  45
ENDBRANCH  36  39
ENDBRANCH  34  35
ENDBRANCH  33  34
ENDBRANCH   1  33
TORSDOF 19
ENDMDL
