MODEL 1
REMARK VINA RESULT:     -12.7      0.000      0.000
REMARK SMILES CC1(C)[C@@H](C(=O)NCCCCNC(=O)c2ccc(-c3c4nc(c(-c5cccc(S(=O)(=O)[O-])c5F)c5ccc([nH]5)c(-c5cccc(S(=O)(=O)[O-])c5F)c5nc(c(-c6cccc(S(=O)(=O)[O-])c6F)c6ccc3[nH]6)C=C5)C=C4)cc2)[C@@H]1C(=O)Nc1ccc(N2CCCCS2(=O)=O)cc1
REMARK SMILES IDX 9 1 8 2 7 3 5 4 6 5 4 7 1 8 2 9 3 10 78 11 79 12 80 13 81 14
REMARK SMILES IDX 82 16 83 17 95 18 84 19 94 20 85 21 86 22 87 23 91 24 88 25
REMARK SMILES IDX 90 26 92 27 93 28 89 29 10 30 11 31 12 32 13 33 14 35 15 36
REMARK SMILES IDX 16 37 77 38 17 39 76 40 18 41 19 42 20 43 70 44 21 45 75 46
REMARK SMILES IDX 69 47 71 48 22 49 74 50 68 51 67 52 23 54 55 55 35 56 54 57
REMARK SMILES IDX 36 58 39 59 53 60 72 61 37 62 38 63 52 65 73 66 40 67 24 68
REMARK SMILES IDX 25 69 33 70 26 71 28 72 34 73 27 74 29 75 30 76 31 77 32 78
REMARK SMILES IDX 56 79 57 80 65 81 58 82 60 83 66 84 59 85 61 86 62 87 63 88
REMARK SMILES IDX 64 89 41 90 42 91 50 92 43 93 45 94 51 95 44 96 46 97 47 98
REMARK SMILES IDX 48 99 49 100
REMARK H PARENT 7 6 81 15 12 34 71 53 39 64
REMARK Flexibility Score: inf
ROOT
ATOM      1  C   UNL A   1      36.636  23.091  23.609  1.00  0.00     0.023 C 
ENDROOT
BRANCH   1   2
ATOM      2  C   UNL A   1      35.172  23.479  23.870  1.00  0.00     0.116 C 
BRANCH   2   3
ATOM      3  N   UNL A   1      34.462  24.099  22.756  1.00  0.00    -0.356 N 
ATOM      4  C   UNL A   1      33.374  24.939  22.653  1.00  0.00     0.224 C 
ATOM      5  O   UNL A   1      33.148  25.447  21.557  1.00  0.00    -0.275 OA
ATOM      6  H   UNL A   1      34.846  23.864  21.880  1.00  0.00     0.163 HD
BRANCH   4   7
ATOM      7  C   UNL A   1      32.374  25.183  23.742  1.00  0.00     0.098 C 
ATOM      8  C   UNL A   1      33.210  27.586  24.028  1.00  0.00     0.013 C 
ATOM      9  C   UNL A   1      32.229  26.517  24.445  1.00  0.00    -0.011 C 
ATOM     10  C   UNL A   1      30.836  27.046  24.693  1.00  0.00     0.013 C 
ATOM     11  C   UNL A   1      32.686  25.270  25.218  1.00  0.00     0.098 C 
BRANCH  11  12
ATOM     12  C   UNL A   1      31.822  24.658  26.296  1.00  0.00     0.228 C 
ATOM     13  O   UNL A   1      31.213  25.433  27.033  1.00  0.00    -0.274 OA
ATOM     14  N   UNL A   1      31.632  23.291  26.480  1.00  0.00    -0.326 N 
ATOM     15  H   UNL A   1      30.892  23.065  27.089  1.00  0.00     0.169 HD
BRANCH  14  16
ATOM     16  C   UNL A   1      32.306  22.174  25.953  1.00  0.00     0.041 A 
ATOM     17  C   UNL A   1      33.286  21.484  26.658  1.00  0.00     0.028 A 
ATOM     18  C   UNL A   1      32.026  21.728  24.684  1.00  0.00     0.028 A 
ATOM     19  C   UNL A   1      33.856  20.309  26.109  1.00  0.00     0.029 A 
ATOM     20  C   UNL A   1      32.508  20.537  24.155  1.00  0.00     0.029 A 
ATOM     21  C   UNL A   1      33.459  19.834  24.854  1.00  0.00     0.052 A 
BRANCH  21  22
ATOM     22  N   UNL A   1      33.979  18.619  24.315  1.00  0.00    -0.270 N 
ATOM     23  C   UNL A   1      35.443  18.438  24.239  1.00  0.00     0.135 C 
ATOM     24  S   UNL A   1      33.011  17.219  24.336  1.00  0.00     0.235 S 
ATOM     25  C   UNL A   1      35.965  17.525  25.349  1.00  0.00     0.024 C 
ATOM     26  C   UNL A   1      33.844  16.198  25.554  1.00  0.00     0.160 C 
ATOM     27  O   UNL A   1      31.693  17.551  24.853  1.00  0.00    -0.206 OA
ATOM     28  O   UNL A   1      33.159  16.597  23.040  1.00  0.00    -0.206 OA
ATOM     29  C   UNL A   1      35.340  16.134  25.301  1.00  0.00     0.020 C 
ENDBRANCH  21  22
ENDBRANCH  14  16
ENDBRANCH  11  12
ENDBRANCH   4   7
ENDBRANCH   2   3
ENDBRANCH   1   2
BRANCH   1  30
ATOM     30  C   UNL A   1      37.019  21.670  23.977  1.00  0.00     0.023 C 
BRANCH  30  31
ATOM     31  C   UNL A   1      37.355  21.532  25.447  1.00  0.00     0.116 C 
BRANCH  31  32
ATOM     32  N   UNL A   1      38.320  20.458  25.686  1.00  0.00    -0.352 N 
ATOM     33  C   UNL A   1      39.607  20.550  26.154  1.00  0.00     0.251 C 
ATOM     34  H   UNL A   1      38.004  19.547  25.486  1.00  0.00     0.163 HD
ATOM     35  O   UNL A   1      40.377  19.600  26.085  1.00  0.00    -0.269 OA
BRANCH  33  36
ATOM     36  C   UNL A   1      40.025  21.832  26.740  1.00  0.00     0.039 A 
ATOM     37  C   UNL A   1      40.947  21.848  27.784  1.00  0.00     0.014 A 
ATOM     38  C   UNL A   1      39.575  23.013  26.145  1.00  0.00     0.014 A 
ATOM     39  C   UNL A   1      41.487  23.069  28.182  1.00  0.00     0.010 A 
ATOM     40  C   UNL A   1      40.203  24.201  26.458  1.00  0.00     0.010 A 
ATOM     41  C   UNL A   1      41.156  24.243  27.484  1.00  0.00    -0.014 A 
BRANCH  41  42
ATOM     42  C   UNL A   1      41.794  25.541  27.790  1.00  0.00     0.031 A 
ATOM     43  C   UNL A   1      41.002  26.601  28.501  1.00  0.00     0.074 A 
ATOM     44  C   UNL A   1      43.027  25.801  27.315  1.00  0.00     0.049 A 
ATOM     45  N   UNL A   1      41.326  27.839  28.754  1.00  0.00    -0.248 NA
ATOM     46  C   UNL A   1      39.645  26.232  28.948  1.00  0.00     0.031 C 
ATOM     47  C   UNL A   1      43.851  24.871  26.538  1.00  0.00     0.029 A 
ATOM     48  N   UNL A   1      43.790  26.937  27.389  1.00  0.00    -0.354 N 
ATOM     49  C   UNL A   1      40.208  28.406  29.352  1.00  0.00     0.074 A 
ATOM     50  C   UNL A   1      39.178  27.393  29.378  1.00  0.00     0.031 C 
ATOM     51  C   UNL A   1      45.007  25.471  26.215  1.00  0.00     0.029 A 
ATOM     52  C   UNL A   1      44.988  26.840  26.718  1.00  0.00     0.049 A 
ATOM     53  H   UNL A   1      43.508  27.747  27.873  1.00  0.00     0.167 HD
ATOM     54  C   UNL A   1      40.064  29.650  29.862  1.00  0.00     0.034 A 
ATOM     55  C   UNL A   1      45.951  27.758  26.519  1.00  0.00     0.034 A 
ATOM     56  C   UNL A   1      41.110  30.633  29.861  1.00  0.00     0.049 A 
ATOM     57  C   UNL A   1      45.774  29.130  27.111  1.00  0.00     0.074 A 
ATOM     58  C   UNL A   1      41.108  31.890  30.436  1.00  0.00     0.029 A 
ATOM     59  N   UNL A   1      42.340  30.476  29.239  1.00  0.00    -0.354 N 
ATOM     60  N   UNL A   1      44.776  29.599  27.819  1.00  0.00    -0.248 NA
ATOM     61  C   UNL A   1      46.864  30.092  26.897  1.00  0.00     0.031 C 
ATOM     62  C   UNL A   1      42.323  32.509  30.127  1.00  0.00     0.029 A 
ATOM     63  C   UNL A   1      43.095  31.623  29.393  1.00  0.00     0.049 A 
ATOM     64  H   UNL A   1      42.632  29.666  28.761  1.00  0.00     0.167 HD
ATOM     65  C   UNL A   1      45.125  30.900  28.159  1.00  0.00     0.074 A 
ATOM     66  C   UNL A   1      46.441  31.135  27.598  1.00  0.00     0.031 C 
ATOM     67  C   UNL A   1      44.418  31.823  28.856  1.00  0.00     0.034 A 
BRANCH  54  68
ATOM     68  C   UNL A   1      38.743  29.995  30.497  1.00  0.00     0.023 A 
ATOM     69  C   UNL A   1      38.466  29.571  31.814  1.00  0.00     0.012 A 
ATOM     70  C   UNL A   1      37.792  30.770  29.806  1.00  0.00     0.148 A 
ATOM     71  C   UNL A   1      37.247  29.876  32.418  1.00  0.00     0.002 A 
ATOM     72  C   UNL A   1      36.600  31.114  30.433  1.00  0.00     0.091 A 
ATOM     73  F   UNL A   1      38.061  31.142  28.547  1.00  0.00    -0.205 F 
ATOM     74  C   UNL A   1      36.320  30.656  31.732  1.00  0.00     0.022 A 
BRANCH  72  75
ATOM     75  S   UNL A   1      35.375  32.181  29.668  1.00  0.00     0.127 S 
ATOM     76  O   UNL A   1      34.447  32.405  30.776  1.00  0.00    -0.237 OA
ATOM     77  O   UNL A   1      36.176  33.347  29.296  1.00  0.00    -0.237 OA
ATOM     78  O   UNL A   1      34.834  31.430  28.544  1.00  0.00    -0.744 OA
ENDBRANCH  72  75
ENDBRANCH  54  68
BRANCH  55  79
ATOM     79  C   UNL A   1      47.182  27.394  25.763  1.00  0.00     0.023 A 
ATOM     80  C   UNL A   1      48.189  26.642  26.399  1.00  0.00     0.012 A 
ATOM     81  C   UNL A   1      47.342  27.749  24.409  1.00  0.00     0.148 A 
ATOM     82  C   UNL A   1      49.346  26.279  25.711  1.00  0.00     0.002 A 
ATOM     83  C   UNL A   1      48.471  27.336  23.712  1.00  0.00     0.091 A 
ATOM     84  F   UNL A   1      46.377  28.472  23.824  1.00  0.00    -0.205 F 
ATOM     85  C   UNL A   1      49.483  26.616  24.366  1.00  0.00     0.022 A 
BRANCH  83  86
ATOM     86  S   UNL A   1      48.662  27.609  21.947  1.00  0.00     0.127 S 
ATOM     87  O   UNL A   1      49.561  28.759  21.917  1.00  0.00    -0.237 OA
ATOM     88  O   UNL A   1      49.259  26.348  21.508  1.00  0.00    -0.237 OA
ATOM     89  O   UNL A   1      47.319  27.841  21.433  1.00  0.00    -0.744 OA
ENDBRANCH  83  86
ENDBRANCH  55  79
BRANCH  67  90
ATOM     90  C   UNL A   1      45.052  33.170  29.073  1.00  0.00     0.023 A 
ATOM     91  C   UNL A   1      45.969  33.350  30.126  1.00  0.00     0.012 A 
ATOM     92  C   UNL A   1      44.813  34.227  28.171  1.00  0.00     0.148 A 
ATOM     93  C   UNL A   1      46.622  34.570  30.294  1.00  0.00     0.002 A 
ATOM     94  C   UNL A   1      45.506  35.422  28.314  1.00  0.00     0.091 A 
ATOM     95  F   UNL A   1      43.927  34.035  27.183  1.00  0.00    -0.205 F 
ATOM     96  C   UNL A   1      46.401  35.600  29.382  1.00  0.00     0.022 A 
BRANCH  94  97
ATOM     97  S   UNL A   1      45.364  36.768  27.135  1.00  0.00     0.127 S 
ATOM     98  O   UNL A   1      46.204  36.292  26.037  1.00  0.00    -0.237 OA
ATOM     99  O   UNL A   1      43.929  36.773  26.847  1.00  0.00    -0.237 OA
ATOM    100  O   UNL A   1      45.853  37.960  27.817  1.00  0.00    -0.744 OA
ENDBRANCH  94  97
ENDBRANCH  67  90
ENDBRANCH  41  42
ENDBRANCH  33  36
ENDBRANCH  31  32
ENDBRANCH  30  31
ENDBRANCH   1  30
TORSDOF 17
ENDMDL
MODEL 2
REMARK VINA RESULT:     -12.5      5.935     10.715
REMARK SMILES CC1(C)[C@@H](C(=O)NCCCCNC(=O)c2ccc(-c3c4nc(c(-c5cccc(S(=O)(=O)[O-])c5F)c5ccc([nH]5)c(-c5cccc(S(=O)(=O)[O-])c5F)c5nc(c(-c6cccc(S(=O)(=O)[O-])c6F)c6ccc3[nH]6)C=C5)C=C4)cc2)[C@@H]1C(=O)Nc1ccc(N2CCCCS2(=O)=O)cc1
REMARK SMILES IDX 9 1 8 2 7 3 5 4 6 5 4 7 1 8 2 9 3 10 78 11 79 12 80 13 81 14
REMARK SMILES IDX 82 16 83 17 95 18 84 19 94 20 85 21 86 22 87 23 91 24 88 25
REMARK SMILES IDX 90 26 92 27 93 28 89 29 10 30 11 31 12 32 13 33 14 35 15 36
REMARK SMILES IDX 16 37 77 38 17 39 76 40 18 41 19 42 20 43 70 44 21 45 75 46
REMARK SMILES IDX 69 47 71 48 22 49 74 50 68 51 67 52 23 54 55 55 35 56 54 57
REMARK SMILES IDX 36 58 39 59 53 60 72 61 37 62 38 63 52 65 73 66 40 67 24 68
REMARK SMILES IDX 25 69 33 70 26 71 28 72 34 73 27 74 29 75 30 76 31 77 32 78
REMARK SMILES IDX 56 79 57 80 65 81 58 82 60 83 66 84 59 85 61 86 62 87 63 88
REMARK SMILES IDX 64 89 41 90 42 91 50 92 43 93 45 94 51 95 44 96 46 97 47 98
REMARK SMILES IDX 48 99 49 100
REMARK H PARENT 7 6 81 15 12 34 71 53 39 64
REMARK Flexibility Score: inf
ROOT
ATOM      1  C   UNL A   1      32.590  29.543  27.202  1.00  0.00     0.023 C 
ENDROOT
BRANCH   1   2
ATOM      2  C   UNL A   1      32.133  28.542  26.130  1.00  0.00     0.116 C 
BRANCH   2   3
ATOM      3  N   UNL A   1      32.735  28.691  24.809  1.00  0.00    -0.356 N 
ATOM      4  C   UNL A   1      32.238  28.799  23.529  1.00  0.00     0.224 C 
ATOM      5  O   UNL A   1      33.021  29.120  22.638  1.00  0.00    -0.275 OA
ATOM      6  H   UNL A   1      33.719  28.719  24.840  1.00  0.00     0.163 HD
BRANCH   4   7
ATOM      7  C   UNL A   1      30.843  28.437  23.118  1.00  0.00     0.098 C 
ATOM      8  C   UNL A   1      29.974  30.712  23.906  1.00  0.00     0.013 C 
ATOM      9  C   UNL A   1      29.670  29.384  23.257  1.00  0.00    -0.011 C 
ATOM     10  C   UNL A   1      28.696  29.489  22.106  1.00  0.00     0.013 C 
ATOM     11  C   UNL A   1      29.716  28.073  24.057  1.00  0.00     0.098 C 
BRANCH  11  12
ATOM     12  C   UNL A   1      28.729  26.960  23.793  1.00  0.00     0.228 C 
ATOM     13  O   UNL A   1      27.576  27.288  23.517  1.00  0.00    -0.274 OA
ATOM     14  N   UNL A   1      29.045  25.604  23.795  1.00  0.00    -0.326 N 
ATOM     15  H   UNL A   1      28.344  25.027  23.412  1.00  0.00     0.169 HD
BRANCH  14  16
ATOM     16  C   UNL A   1      30.182  24.909  24.245  1.00  0.00     0.041 A 
ATOM     17  C   UNL A   1      30.843  23.964  23.467  1.00  0.00     0.028 A 
ATOM     18  C   UNL A   1      30.679  25.131  25.505  1.00  0.00     0.028 A 
ATOM     19  C   UNL A   1      32.040  23.371  23.940  1.00  0.00     0.029 A 
ATOM     20  C   UNL A   1      31.891  24.627  25.963  1.00  0.00     0.029 A 
ATOM     21  C   UNL A   1      32.565  23.711  25.193  1.00  0.00     0.052 A 
BRANCH  21  22
ATOM     22  N   UNL A   1      33.801  23.170  25.656  1.00  0.00    -0.270 N 
ATOM     23  C   UNL A   1      33.800  21.857  26.333  1.00  0.00     0.135 C 
ATOM     24  S   UNL A   1      35.256  23.684  24.939  1.00  0.00     0.235 S 
ATOM     25  C   UNL A   1      34.288  20.737  25.412  1.00  0.00     0.024 C 
ATOM     26  C   UNL A   1      35.776  22.222  24.039  1.00  0.00     0.160 C 
ATOM     27  O   UNL A   1      34.972  24.731  23.969  1.00  0.00    -0.206 OA
ATOM     28  O   UNL A   1      36.190  23.914  26.018  1.00  0.00    -0.206 OA
ATOM     29  C   UNL A   1      35.707  20.977  24.907  1.00  0.00     0.020 C 
ENDBRANCH  21  22
ENDBRANCH  14  16
ENDBRANCH  11  12
ENDBRANCH   4   7
ENDBRANCH   2   3
ENDBRANCH   1   2
BRANCH   1  30
ATOM     30  C   UNL A   1      32.318  31.004  26.902  1.00  0.00     0.023 C 
BRANCH  30  31
ATOM     31  C   UNL A   1      33.376  31.914  27.487  1.00  0.00     0.116 C 
BRANCH  31  32
ATOM     32  N   UNL A   1      32.914  33.301  27.576  1.00  0.00    -0.352 N 
ATOM     33  C   UNL A   1      33.222  34.249  28.519  1.00  0.00     0.251 C 
ATOM     34  H   UNL A   1      32.301  33.593  26.863  1.00  0.00     0.163 HD
ATOM     35  O   UNL A   1      32.585  35.291  28.603  1.00  0.00    -0.269 OA
BRANCH  33  36
ATOM     36  C   UNL A   1      34.344  33.963  29.424  1.00  0.00     0.039 A 
ATOM     37  C   UNL A   1      34.133  33.197  30.569  1.00  0.00     0.014 A 
ATOM     38  C   UNL A   1      35.626  34.369  29.044  1.00  0.00     0.014 A 
ATOM     39  C   UNL A   1      35.239  32.763  31.296  1.00  0.00     0.010 A 
ATOM     40  C   UNL A   1      36.719  33.835  29.696  1.00  0.00     0.010 A 
ATOM     41  C   UNL A   1      36.537  33.036  30.833  1.00  0.00    -0.014 A 
BRANCH  41  42
ATOM     42  C   UNL A   1      37.738  32.494  31.503  1.00  0.00     0.031 A 
ATOM     43  C   UNL A   1      38.490  31.363  30.863  1.00  0.00     0.074 A 
ATOM     44  C   UNL A   1      38.063  32.933  32.734  1.00  0.00     0.049 A 
ATOM     45  N   UNL A   1      39.487  30.666  31.336  1.00  0.00    -0.248 NA
ATOM     46  C   UNL A   1      38.032  30.928  29.530  1.00  0.00     0.031 C 
ATOM     47  C   UNL A   1      37.347  33.969  33.483  1.00  0.00     0.029 A 
ATOM     48  N   UNL A   1      39.061  32.538  33.586  1.00  0.00    -0.354 N 
ATOM     49  C   UNL A   1      39.749  29.691  30.383  1.00  0.00     0.074 A 
ATOM     50  C   UNL A   1      38.776  29.852  29.327  1.00  0.00     0.031 C 
ATOM     51  C   UNL A   1      37.935  34.134  34.678  1.00  0.00     0.029 A 
ATOM     52  C   UNL A   1      39.036  33.186  34.800  1.00  0.00     0.049 A 
ATOM     53  H   UNL A   1      39.732  31.856  33.354  1.00  0.00     0.167 HD
ATOM     54  C   UNL A   1      40.734  28.765  30.374  1.00  0.00     0.034 A 
ATOM     55  C   UNL A   1      39.805  33.018  35.892  1.00  0.00     0.034 A 
ATOM     56  C   UNL A   1      41.716  28.641  31.413  1.00  0.00     0.049 A 
ATOM     57  C   UNL A   1      40.904  31.992  35.851  1.00  0.00     0.074 A 
ATOM     58  C   UNL A   1      42.815  27.805  31.462  1.00  0.00     0.029 A 
ATOM     59  N   UNL A   1      41.707  29.365  32.597  1.00  0.00    -0.354 N 
ATOM     60  N   UNL A   1      41.244  31.189  34.873  1.00  0.00    -0.248 NA
ATOM     61  C   UNL A   1      41.740  31.865  37.053  1.00  0.00     0.031 C 
ATOM     62  C   UNL A   1      43.449  27.994  32.694  1.00  0.00     0.029 A 
ATOM     63  C   UNL A   1      42.766  28.975  33.396  1.00  0.00     0.049 A 
ATOM     64  H   UNL A   1      41.045  30.054  32.833  1.00  0.00     0.167 HD
ATOM     65  C   UNL A   1      42.348  30.478  35.327  1.00  0.00     0.074 A 
ATOM     66  C   UNL A   1      42.634  30.966  36.663  1.00  0.00     0.031 C 
ATOM     67  C   UNL A   1      43.053  29.500  34.707  1.00  0.00     0.034 A 
BRANCH  54  68
ATOM     68  C   UNL A   1      40.816  27.845  29.185  1.00  0.00     0.023 A 
ATOM     69  C   UNL A   1      40.022  26.679  29.144  1.00  0.00     0.012 A 
ATOM     70  C   UNL A   1      41.650  28.151  28.092  1.00  0.00     0.148 A 
ATOM     71  C   UNL A   1      40.088  25.811  28.054  1.00  0.00     0.002 A 
ATOM     72  C   UNL A   1      41.671  27.309  26.987  1.00  0.00     0.091 A 
ATOM     73  F   UNL A   1      42.416  29.249  28.160  1.00  0.00    -0.205 F 
ATOM     74  C   UNL A   1      40.903  26.132  26.972  1.00  0.00     0.022 A 
BRANCH  72  75
ATOM     75  S   UNL A   1      42.624  27.673  25.510  1.00  0.00     0.127 S 
ATOM     76  O   UNL A   1      42.357  26.492  24.689  1.00  0.00    -0.237 OA
ATOM     77  O   UNL A   1      41.992  28.903  25.034  1.00  0.00    -0.237 OA
ATOM     78  O   UNL A   1      44.004  27.827  25.949  1.00  0.00    -0.744 OA
ENDBRANCH  72  75
ENDBRANCH  54  68
BRANCH  55  79
ATOM     79  C   UNL A   1      39.586  33.871  37.094  1.00  0.00     0.023 A 
ATOM     80  C   UNL A   1      40.053  35.200  37.095  1.00  0.00     0.012 A 
ATOM     81  C   UNL A   1      38.884  33.389  38.216  1.00  0.00     0.148 A 
ATOM     82  C   UNL A   1      39.852  36.023  38.203  1.00  0.00     0.002 A 
ATOM     83  C   UNL A   1      38.637  34.231  39.294  1.00  0.00     0.091 A 
ATOM     84  F   UNL A   1      38.455  32.119  38.200  1.00  0.00    -0.205 F 
ATOM     85  C   UNL A   1      39.135  35.543  39.298  1.00  0.00     0.022 A 
BRANCH  83  86
ATOM     86  S   UNL A   1      37.607  33.737  40.681  1.00  0.00     0.127 S 
ATOM     87  O   UNL A   1      38.437  32.721  41.323  1.00  0.00    -0.237 OA
ATOM     88  O   UNL A   1      37.480  34.989  41.426  1.00  0.00    -0.237 OA
ATOM     89  O   UNL A   1      36.359  33.261  40.100  1.00  0.00    -0.744 OA
ENDBRANCH  83  86
ENDBRANCH  55  79
BRANCH  67  90
ATOM     90  C   UNL A   1      44.214  28.898  35.450  1.00  0.00     0.023 A 
ATOM     91  C   UNL A   1      45.490  29.483  35.346  1.00  0.00     0.012 A 
ATOM     92  C   UNL A   1      44.017  27.814  36.329  1.00  0.00     0.148 A 
ATOM     93  C   UNL A   1      46.560  28.984  36.086  1.00  0.00     0.002 A 
ATOM     94  C   UNL A   1      45.076  27.354  37.102  1.00  0.00     0.091 A 
ATOM     95  F   UNL A   1      42.796  27.265  36.403  1.00  0.00    -0.205 F 
ATOM     96  C   UNL A   1      46.351  27.930  36.973  1.00  0.00     0.022 A 
BRANCH  94  97
ATOM     97  S   UNL A   1      44.882  26.071  38.342  1.00  0.00     0.127 S 
ATOM     98  O   UNL A   1      46.158  26.147  39.051  1.00  0.00    -0.237 OA
ATOM     99  O   UNL A   1      43.730  26.554  39.105  1.00  0.00    -0.237 OA
ATOM    100  O   UNL A   1      44.652  24.831  37.612  1.00  0.00    -0.744 OA
ENDBRANCH  94  97
ENDBRANCH  67  90
ENDBRANCH  41  42
ENDBRANCH  33  36
ENDBRANCH  31  32
ENDBRANCH  30  31
ENDBRANCH   1  30
TORSDOF 17
ENDMDL
MODEL 3
REMARK VINA RESULT:     -12.5      2.340      4.739
REMARK SMILES CC1(C)[C@@H](C(=O)NCCCCNC(=O)c2ccc(-c3c4nc(c(-c5cccc(S(=O)(=O)[O-])c5F)c5ccc([nH]5)c(-c5cccc(S(=O)(=O)[O-])c5F)c5nc(c(-c6cccc(S(=O)(=O)[O-])c6F)c6ccc3[nH]6)C=C5)C=C4)cc2)[C@@H]1C(=O)Nc1ccc(N2CCCCS2(=O)=O)cc1
REMARK SMILES IDX 9 1 8 2 7 3 5 4 6 5 4 7 1 8 2 9 3 10 78 11 79 12 80 13 81 14
REMARK SMILES IDX 82 16 83 17 95 18 84 19 94 20 85 21 86 22 87 23 91 24 88 25
REMARK SMILES IDX 90 26 92 27 93 28 89 29 10 30 11 31 12 32 13 33 14 35 15 36
REMARK SMILES IDX 16 37 77 38 17 39 76 40 18 41 19 42 20 43 70 44 21 45 75 46
REMARK SMILES IDX 69 47 71 48 22 49 74 50 68 51 67 52 23 54 55 55 35 56 54 57
REMARK SMILES IDX 36 58 39 59 53 60 72 61 37 62 38 63 52 65 73 66 40 67 24 68
REMARK SMILES IDX 25 69 33 70 26 71 28 72 34 73 27 74 29 75 30 76 31 77 32 78
REMARK SMILES IDX 56 79 57 80 65 81 58 82 60 83 66 84 59 85 61 86 62 87 63 88
REMARK SMILES IDX 64 89 41 90 42 91 50 92 43 93 45 94 51 95 44 96 46 97 47 98
REMARK SMILES IDX 48 99 49 100
REMARK H PARENT 7 6 81 15 12 34 71 53 39 64
REMARK Flexibility Score: inf
ROOT
ATOM      1  C   UNL A   1      37.395  22.328  24.503  1.00  0.00     0.023 C 
ENDROOT
BRANCH   1   2
ATOM      2  C   UNL A   1      35.911  22.727  24.517  1.00  0.00     0.116 C 
BRANCH   2   3
ATOM      3  N   UNL A   1      35.194  22.498  25.767  1.00  0.00    -0.356 N 
ATOM      4  C   UNL A   1      34.152  21.680  26.145  1.00  0.00     0.224 C 
ATOM      5  O   UNL A   1      33.912  21.581  27.347  1.00  0.00    -0.275 OA
ATOM      6  H   UNL A   1      35.529  23.055  26.507  1.00  0.00     0.163 HD
BRANCH   4   7
ATOM      7  C   UNL A   1      33.211  20.998  25.199  1.00  0.00     0.098 C 
ATOM      8  C   UNL A   1      34.898  19.112  24.812  1.00  0.00     0.013 C 
ATOM      9  C   UNL A   1      33.528  19.680  24.526  1.00  0.00    -0.011 C 
ATOM     10  C   UNL A   1      32.446  18.628  24.467  1.00  0.00     0.013 C 
ATOM     11  C   UNL A   1      33.351  20.959  23.695  1.00  0.00     0.098 C 
BRANCH  11  12
ATOM     12  C   UNL A   1      32.191  21.117  22.740  1.00  0.00     0.228 C 
ATOM     13  O   UNL A   1      31.836  20.115  22.120  1.00  0.00    -0.274 OA
ATOM     14  N   UNL A   1      31.474  22.295  22.550  1.00  0.00    -0.326 N 
ATOM     15  H   UNL A   1      30.633  22.179  22.050  1.00  0.00     0.169 HD
BRANCH  14  16
ATOM     16  C   UNL A   1      31.732  23.621  22.944  1.00  0.00     0.041 A 
ATOM     17  C   UNL A   1      30.788  24.413  23.588  1.00  0.00     0.028 A 
ATOM     18  C   UNL A   1      32.950  24.199  22.681  1.00  0.00     0.028 A 
ATOM     19  C   UNL A   1      31.143  25.705  24.046  1.00  0.00     0.029 A 
ATOM     20  C   UNL A   1      33.352  25.429  23.188  1.00  0.00     0.029 A 
ATOM     21  C   UNL A   1      32.434  26.210  23.847  1.00  0.00     0.052 A 
BRANCH  21  22
ATOM     22  N   UNL A   1      32.824  27.485  24.357  1.00  0.00    -0.270 N 
ATOM     23  C   UNL A   1      32.380  28.705  23.652  1.00  0.00     0.135 C 
ATOM     24  S   UNL A   1      33.241  27.631  26.001  1.00  0.00     0.235 S 
ATOM     25  C   UNL A   1      31.216  29.389  24.370  1.00  0.00     0.024 C 
ATOM     26  C   UNL A   1      31.872  28.587  26.657  1.00  0.00     0.160 C 
ATOM     27  O   UNL A   1      33.212  26.318  26.624  1.00  0.00    -0.206 OA
ATOM     28  O   UNL A   1      34.434  28.445  26.052  1.00  0.00    -0.206 OA
ATOM     29  C   UNL A   1      31.573  29.801  25.795  1.00  0.00     0.020 C 
ENDBRANCH  21  22
ENDBRANCH  14  16
ENDBRANCH  11  12
ENDBRANCH   4   7
ENDBRANCH   2   3
ENDBRANCH   1   2
BRANCH   1  30
ATOM     30  C   UNL A   1      37.762  21.116  25.338  1.00  0.00     0.023 C 
BRANCH  30  31
ATOM     31  C   UNL A   1      39.104  21.279  26.020  1.00  0.00     0.116 C 
BRANCH  31  32
ATOM     32  N   UNL A   1      39.853  20.022  26.054  1.00  0.00    -0.352 N 
ATOM     33  C   UNL A   1      41.213  19.834  26.069  1.00  0.00     0.251 C 
ATOM     34  H   UNL A   1      39.309  19.201  26.071  1.00  0.00     0.163 HD
ATOM     35  O   UNL A   1      41.703  18.731  25.862  1.00  0.00    -0.269 OA
BRANCH  33  36
ATOM     36  C   UNL A   1      42.056  21.007  26.339  1.00  0.00     0.039 A 
ATOM     37  C   UNL A   1      42.477  21.815  25.285  1.00  0.00     0.014 A 
ATOM     38  C   UNL A   1      42.311  21.350  27.669  1.00  0.00     0.014 A 
ATOM     39  C   UNL A   1      43.093  23.030  25.578  1.00  0.00     0.010 A 
ATOM     40  C   UNL A   1      42.807  22.606  27.954  1.00  0.00     0.010 A 
ATOM     41  C   UNL A   1      43.212  23.453  26.913  1.00  0.00    -0.014 A 
BRANCH  41  42
ATOM     42  C   UNL A   1      43.747  24.785  27.267  1.00  0.00     0.031 A 
ATOM     43  C   UNL A   1      42.810  25.841  27.780  1.00  0.00     0.074 A 
ATOM     44  C   UNL A   1      45.036  25.072  27.003  1.00  0.00     0.049 A 
ATOM     45  N   UNL A   1      43.048  27.100  28.030  1.00  0.00    -0.248 NA
ATOM     46  C   UNL A   1      41.408  25.439  28.000  1.00  0.00     0.031 C 
ATOM     47  C   UNL A   1      46.011  24.144  26.424  1.00  0.00     0.029 A 
ATOM     48  N   UNL A   1      45.739  26.238  27.157  1.00  0.00    -0.354 N 
ATOM     49  C   UNL A   1      41.825  27.646  28.398  1.00  0.00     0.074 A 
ATOM     50  C   UNL A   1      40.838  26.597  28.290  1.00  0.00     0.031 C 
ATOM     51  C   UNL A   1      47.187  24.774  26.280  1.00  0.00     0.029 A 
ATOM     52  C   UNL A   1      47.039  26.160  26.711  1.00  0.00     0.049 A 
ATOM     53  H   UNL A   1      45.352  27.055  27.548  1.00  0.00     0.167 HD
ATOM     54  C   UNL A   1      41.557  28.903  28.818  1.00  0.00     0.034 A 
ATOM     55  C   UNL A   1      47.994  27.106  26.641  1.00  0.00     0.034 A 
ATOM     56  C   UNL A   1      42.555  29.924  28.956  1.00  0.00     0.049 A 
ATOM     57  C   UNL A   1      47.674  28.492  27.131  1.00  0.00     0.074 A 
ATOM     58  C   UNL A   1      42.415  31.201  29.464  1.00  0.00     0.029 A 
ATOM     59  N   UNL A   1      43.880  29.789  28.565  1.00  0.00    -0.354 N 
ATOM     60  N   UNL A   1      46.553  28.950  27.632  1.00  0.00    -0.248 NA
ATOM     61  C   UNL A   1      48.755  29.485  27.067  1.00  0.00     0.031 C 
ATOM     62  C   UNL A   1      43.646  31.853  29.344  1.00  0.00     0.029 A 
ATOM     63  C   UNL A   1      44.562  30.970  28.796  1.00  0.00     0.049 A 
ATOM     64  H   UNL A   1      44.276  28.973  28.182  1.00  0.00     0.167 HD
ATOM     65  C   UNL A   1      46.798  30.276  27.969  1.00  0.00     0.074 A 
ATOM     66  C   UNL A   1      48.184  30.538  27.636  1.00  0.00     0.031 C 
ATOM     67  C   UNL A   1      45.952  31.198  28.490  1.00  0.00     0.034 A 
BRANCH  54  68
ATOM     68  C   UNL A   1      40.134  29.223  29.197  1.00  0.00     0.023 A 
ATOM     69  C   UNL A   1      39.204  29.571  28.195  1.00  0.00     0.012 A 
ATOM     70  C   UNL A   1      39.710  29.144  30.537  1.00  0.00     0.148 A 
ATOM     71  C   UNL A   1      37.884  29.876  28.525  1.00  0.00     0.002 A 
ATOM     72  C   UNL A   1      38.380  29.399  30.852  1.00  0.00     0.091 A 
ATOM     73  F   UNL A   1      40.614  28.837  31.478  1.00  0.00    -0.205 F 
ATOM     74  C   UNL A   1      37.471  29.779  29.851  1.00  0.00     0.022 A 
BRANCH  72  75
ATOM     75  S   UNL A   1      37.729  29.224  32.516  1.00  0.00     0.127 S 
ATOM     76  O   UNL A   1      38.647  30.067  33.282  1.00  0.00    -0.237 OA
ATOM     77  O   UNL A   1      36.378  29.766  32.373  1.00  0.00    -0.237 OA
ATOM     78  O   UNL A   1      37.786  27.803  32.823  1.00  0.00    -0.744 OA
ENDBRANCH  72  75
ENDBRANCH  54  68
BRANCH  55  79
ATOM     79  C   UNL A   1      49.349  26.759  26.128  1.00  0.00     0.023 A 
ATOM     80  C   UNL A   1      50.200  25.953  26.909  1.00  0.00     0.012 A 
ATOM     81  C   UNL A   1      49.782  27.185  24.858  1.00  0.00     0.148 A 
ATOM     82  C   UNL A   1      51.469  25.605  26.448  1.00  0.00     0.002 A 
ATOM     83  C   UNL A   1      51.026  26.788  24.379  1.00  0.00     0.091 A 
ATOM     84  F   UNL A   1      48.962  27.959  24.133  1.00  0.00    -0.205 F 
ATOM     85  C   UNL A   1      51.878  26.012  25.180  1.00  0.00     0.022 A 
BRANCH  83  86
ATOM     86  S   UNL A   1      51.572  27.154  22.707  1.00  0.00     0.127 S 
ATOM     87  O   UNL A   1      51.789  28.597  22.773  1.00  0.00    -0.237 OA
ATOM     88  O   UNL A   1      52.790  26.352  22.604  1.00  0.00    -0.237 OA
ATOM     89  O   UNL A   1      50.493  26.715  21.831  1.00  0.00    -0.744 OA
ENDBRANCH  83  86
ENDBRANCH  55  79
BRANCH  67  90
ATOM     90  C   UNL A   1      46.497  32.575  28.753  1.00  0.00     0.023 A 
ATOM     91  C   UNL A   1      47.069  32.874  30.004  1.00  0.00     0.012 A 
ATOM     92  C   UNL A   1      46.531  33.539  27.725  1.00  0.00     0.148 A 
ATOM     93  C   UNL A   1      47.646  34.121  30.239  1.00  0.00     0.002 A 
ATOM     94  C   UNL A   1      47.153  34.761  27.949  1.00  0.00     0.091 A 
ATOM     95  F   UNL A   1      45.969  33.236  26.546  1.00  0.00    -0.205 F 
ATOM     96  C   UNL A   1      47.700  35.058  29.209  1.00  0.00     0.022 A 
BRANCH  94  97
ATOM     97  S   UNL A   1      47.361  35.991  26.659  1.00  0.00     0.127 S 
ATOM     98  O   UNL A   1      45.981  36.414  26.426  1.00  0.00    -0.237 OA
ATOM     99  O   UNL A   1      48.202  36.990  27.320  1.00  0.00    -0.237 OA
ATOM    100  O   UNL A   1      47.994  35.305  25.541  1.00  0.00    -0.744 OA
ENDBRANCH  94  97
ENDBRANCH  67  90
ENDBRANCH  41  42
ENDBRANCH  33  36
ENDBRANCH  31  32
ENDBRANCH  30  31
ENDBRANCH   1  30
TORSDOF 17
ENDMDL
