MODEL 1
REMARK VINA RESULT:     -12.7      0.000      0.000
REMARK SMILES CO[C@H]1C[C@H](C(=O)NCCCCNC(=O)c2ccc(-c3c4nc(c(-c5cccc(S(=O)(=O)[O-])c5F)c5ccc([nH]5)c(-c5cccc(S(=O)(=O)[O-])c5F)c5nc(c(-c6cccc(S(=O)(=O)[O-])c6F)c6ccc3[nH]6)C=C5)C=C4)cc2)N(S(=O)(=O)c2ccc(F)cc2Cl)C1
REMARK SMILES IDX 11 1 10 2 9 3 8 4 6 5 7 6 5 8 3 9 4 10 91 11 79 12 2 13 1 14
REMARK SMILES IDX 80 15 81 16 82 17 83 18 84 19 89 20 85 21 88 22 90 23 86 24
REMARK SMILES IDX 87 25 12 26 13 27 14 28 15 30 16 31 17 32 78 33 18 34 77 35
REMARK SMILES IDX 19 36 20 37 21 38 71 39 22 40 76 41 70 42 72 43 23 44 75 45
REMARK SMILES IDX 69 46 68 47 24 49 56 50 36 51 55 52 37 53 40 54 54 55 73 56
REMARK SMILES IDX 38 57 39 58 53 60 74 61 41 62 25 63 26 64 34 65 27 66 29 67
REMARK SMILES IDX 35 68 28 69 30 70 31 71 32 72 33 73 57 74 58 75 66 76 59 77
REMARK SMILES IDX 61 78 67 79 60 80 62 81 63 82 64 83 65 84 42 85 43 86 51 87
REMARK SMILES IDX 44 88 46 89 52 90 45 91 47 92 48 93 49 94 50 95
REMARK H PARENT 8 7 13 29 72 48 40 59
REMARK Flexibility Score: inf
ROOT
ATOM      1  C   UNL A   1      36.955  22.064  23.911  1.00  0.00     0.023 C 
ENDROOT
BRANCH   1   2
ATOM      2  C   UNL A   1      36.279  23.429  23.799  1.00  0.00     0.023 C 
BRANCH   2   3
ATOM      3  C   UNL A   1      34.757  23.407  23.624  1.00  0.00     0.116 C 
BRANCH   3   4
ATOM      4  N   UNL A   1      34.267  24.406  22.694  1.00  0.00    -0.355 N 
ATOM      5  C   UNL A   1      33.763  25.660  22.842  1.00  0.00     0.238 C 
ATOM      6  O   UNL A   1      33.729  26.341  21.806  1.00  0.00    -0.273 OA
ATOM      7  H   UNL A   1      34.307  24.114  21.755  1.00  0.00     0.163 HD
BRANCH   5   8
ATOM      8  C   UNL A   1      33.253  26.292  24.145  1.00  0.00     0.165 C 
ATOM      9  C   UNL A   1      32.931  28.675  24.242  1.00  0.00     0.135 C 
ATOM     10  C   UNL A   1      33.896  27.575  24.632  1.00  0.00     0.064 C 
ATOM     11  C   UNL A   1      31.561  28.001  24.124  1.00  0.00     0.135 C 
ATOM     12  N   UNL A   1      31.774  26.512  24.228  1.00  0.00    -0.183 NA
BRANCH   9  13
ATOM     13  O   UNL A   1      32.966  29.718  25.214  1.00  0.00    -0.380 OA
ATOM     14  C   UNL A   1      31.658  30.135  25.594  1.00  0.00     0.195 C 
ENDBRANCH   9  13
BRANCH  12  15
ATOM     15  S   UNL A   1      30.996  25.903  25.641  1.00  0.00     0.245 S 
ATOM     16  O   UNL A   1      31.493  26.646  26.781  1.00  0.00    -0.207 OA
ATOM     17  O   UNL A   1      29.575  25.932  25.356  1.00  0.00    -0.207 OA
BRANCH  15  18
ATOM     18  C   UNL A   1      31.435  24.186  25.807  1.00  0.00     0.101 A 
ATOM     19  C   UNL A   1      32.175  23.839  26.959  1.00  0.00     0.026 A 
ATOM     20  C   UNL A   1      31.289  23.241  24.783  1.00  0.00     0.064 A 
ATOM     21  C   UNL A   1      32.741  22.571  27.090  1.00  0.00     0.041 A 
ATOM     22  C   UNL A   1      31.830  21.957  24.943  1.00  0.00     0.061 A 
ATOM     23  Cl  UNL A   1      30.517  23.518  23.263  1.00  0.00    -0.083 Cl
ATOM     24  C   UNL A   1      32.556  21.638  26.083  1.00  0.00     0.124 A 
ATOM     25  F   UNL A   1      33.113  20.426  26.192  1.00  0.00    -0.207 F 
ENDBRANCH  15  18
ENDBRANCH  12  15
ENDBRANCH   5   8
ENDBRANCH   3   4
ENDBRANCH   2   3
ENDBRANCH   1   2
BRANCH   1  26
ATOM     26  C   UNL A   1      37.315  21.625  25.328  1.00  0.00     0.116 C 
BRANCH  26  27
ATOM     27  N   UNL A   1      38.370  20.618  25.406  1.00  0.00    -0.352 N 
ATOM     28  C   UNL A   1      39.577  20.714  26.067  1.00  0.00     0.251 C 
ATOM     29  H   UNL A   1      38.200  19.772  24.932  1.00  0.00     0.163 HD
ATOM     30  O   UNL A   1      40.395  19.801  26.022  1.00  0.00    -0.269 OA
BRANCH  28  31
ATOM     31  C   UNL A   1      39.881  21.968  26.783  1.00  0.00     0.039 A 
ATOM     32  C   UNL A   1      40.842  21.949  27.797  1.00  0.00     0.014 A 
ATOM     33  C   UNL A   1      39.335  23.172  26.335  1.00  0.00     0.014 A 
ATOM     34  C   UNL A   1      41.345  23.158  28.283  1.00  0.00     0.010 A 
ATOM     35  C   UNL A   1      39.887  24.370  26.770  1.00  0.00     0.010 A 
ATOM     36  C   UNL A   1      40.917  24.374  27.724  1.00  0.00    -0.014 A 
BRANCH  36  37
ATOM     37  C   UNL A   1      41.588  25.659  28.048  1.00  0.00     0.031 A 
ATOM     38  C   UNL A   1      40.822  26.760  28.724  1.00  0.00     0.074 A 
ATOM     39  C   UNL A   1      42.838  25.885  27.592  1.00  0.00     0.049 A 
ATOM     40  N   UNL A   1      41.195  27.989  28.970  1.00  0.00    -0.248 NA
ATOM     41  C   UNL A   1      39.447  26.451  29.151  1.00  0.00     0.031 C 
ATOM     42  C   UNL A   1      43.647  24.929  26.831  1.00  0.00     0.029 A 
ATOM     43  N   UNL A   1      43.629  27.005  27.660  1.00  0.00    -0.354 N 
ATOM     44  C   UNL A   1      40.089  28.614  29.534  1.00  0.00     0.074 A 
ATOM     45  C   UNL A   1      39.026  27.635  29.577  1.00  0.00     0.031 C 
ATOM     46  C   UNL A   1      44.810  25.507  26.491  1.00  0.00     0.029 A 
ATOM     47  C   UNL A   1      44.820  26.882  26.979  1.00  0.00     0.049 A 
ATOM     48  H   UNL A   1      43.370  27.819  28.148  1.00  0.00     0.167 HD
ATOM     49  C   UNL A   1      39.981  29.880  29.997  1.00  0.00     0.034 A 
ATOM     50  C   UNL A   1      45.802  27.779  26.756  1.00  0.00     0.034 A 
ATOM     51  C   UNL A   1      41.060  30.828  30.012  1.00  0.00     0.049 A 
ATOM     52  C   UNL A   1      45.673  29.163  27.333  1.00  0.00     0.074 A 
ATOM     53  C   UNL A   1      41.091  32.083  30.594  1.00  0.00     0.029 A 
ATOM     54  N   UNL A   1      42.293  30.633  29.410  1.00  0.00    -0.354 N 
ATOM     55  N   UNL A   1      44.697  29.669  28.048  1.00  0.00    -0.248 NA
ATOM     56  C   UNL A   1      46.790  30.090  27.098  1.00  0.00     0.031 C 
ATOM     57  C   UNL A   1      42.338  32.658  30.324  1.00  0.00     0.029 A 
ATOM     58  C   UNL A   1      43.085  31.754  29.585  1.00  0.00     0.049 A 
ATOM     59  H   UNL A   1      42.564  29.818  28.929  1.00  0.00     0.167 HD
ATOM     60  C   UNL A   1      45.090  30.963  28.365  1.00  0.00     0.074 A 
ATOM     61  C   UNL A   1      46.406  31.155  27.791  1.00  0.00     0.031 C 
ATOM     62  C   UNL A   1      44.412  31.916  29.050  1.00  0.00     0.034 A 
BRANCH  49  63
ATOM     63  C   UNL A   1      38.664  30.300  30.591  1.00  0.00     0.023 A 
ATOM     64  C   UNL A   1      38.415  30.065  31.958  1.00  0.00     0.012 A 
ATOM     65  C   UNL A   1      37.712  30.995  29.821  1.00  0.00     0.148 A 
ATOM     66  C   UNL A   1      37.227  30.493  32.545  1.00  0.00     0.002 A 
ATOM     67  C   UNL A   1      36.545  31.452  30.423  1.00  0.00     0.091 A 
ATOM     68  F   UNL A   1      37.959  31.187  28.517  1.00  0.00    -0.205 F 
ATOM     69  C   UNL A   1      36.299  31.197  31.782  1.00  0.00     0.022 A 
BRANCH  67  70
ATOM     70  S   UNL A   1      35.319  32.428  29.545  1.00  0.00     0.127 S 
ATOM     71  O   UNL A   1      34.829  31.466  28.559  1.00  0.00    -0.237 OA
ATOM     72  O   UNL A   1      34.366  32.752  30.607  1.00  0.00    -0.237 OA
ATOM     73  O   UNL A   1      36.032  33.573  28.998  1.00  0.00    -0.744 OA
ENDBRANCH  67  70
ENDBRANCH  49  63
BRANCH  50  74
ATOM     74  C   UNL A   1      47.014  27.381  25.985  1.00  0.00     0.023 A 
ATOM     75  C   UNL A   1      48.012  26.616  26.616  1.00  0.00     0.012 A 
ATOM     76  C   UNL A   1      47.171  27.731  24.631  1.00  0.00     0.148 A 
ATOM     77  C   UNL A   1      49.161  26.231  25.921  1.00  0.00     0.002 A 
ATOM     78  C   UNL A   1      48.290  27.298  23.928  1.00  0.00     0.091 A 
ATOM     79  F   UNL A   1      46.220  28.478  24.050  1.00  0.00    -0.205 F 
ATOM     80  C   UNL A   1      49.294  26.562  24.575  1.00  0.00     0.022 A 
BRANCH  78  81
ATOM     81  S   UNL A   1      48.463  27.564  22.160  1.00  0.00     0.127 S 
ATOM     82  O   UNL A   1      48.651  26.203  21.667  1.00  0.00    -0.237 OA
ATOM     83  O   UNL A   1      47.179  28.174  21.812  1.00  0.00    -0.237 OA
ATOM     84  O   UNL A   1      49.602  28.461  22.017  1.00  0.00    -0.744 OA
ENDBRANCH  78  81
ENDBRANCH  50  74
BRANCH  62  85
ATOM     85  C   UNL A   1      45.073  33.256  29.227  1.00  0.00     0.023 A 
ATOM     86  C   UNL A   1      45.881  33.482  30.359  1.00  0.00     0.012 A 
ATOM     87  C   UNL A   1      44.973  34.252  28.237  1.00  0.00     0.148 A 
ATOM     88  C   UNL A   1      46.564  34.687  30.512  1.00  0.00     0.002 A 
ATOM     89  C   UNL A   1      45.693  35.433  28.374  1.00  0.00     0.091 A 
ATOM     90  F   UNL A   1      44.185  34.022  27.177  1.00  0.00    -0.205 F 
ATOM     91  C   UNL A   1      46.480  35.656  29.515  1.00  0.00     0.022 A 
BRANCH  89  92
ATOM     92  S   UNL A   1      45.719  36.699  27.100  1.00  0.00     0.127 S 
ATOM     93  O   UNL A   1      46.245  35.960  25.955  1.00  0.00    -0.237 OA
ATOM     94  O   UNL A   1      44.306  37.063  26.995  1.00  0.00    -0.237 OA
ATOM     95  O   UNL A   1      46.579  37.760  27.607  1.00  0.00    -0.744 OA
ENDBRANCH  89  92
ENDBRANCH  62  85
ENDBRANCH  36  37
ENDBRANCH  28  31
ENDBRANCH  26  27
ENDBRANCH   1  26
TORSDOF 17
ENDMDL
MODEL 2
REMARK VINA RESULT:     -12.7      5.222      7.833
REMARK SMILES CO[C@H]1C[C@H](C(=O)NCCCCNC(=O)c2ccc(-c3c4nc(c(-c5cccc(S(=O)(=O)[O-])c5F)c5ccc([nH]5)c(-c5cccc(S(=O)(=O)[O-])c5F)c5nc(c(-c6cccc(S(=O)(=O)[O-])c6F)c6ccc3[nH]6)C=C5)C=C4)cc2)N(S(=O)(=O)c2ccc(F)cc2Cl)C1
REMARK SMILES IDX 11 1 10 2 9 3 8 4 6 5 7 6 5 8 3 9 4 10 91 11 79 12 2 13 1 14
REMARK SMILES IDX 80 15 81 16 82 17 83 18 84 19 89 20 85 21 88 22 90 23 86 24
REMARK SMILES IDX 87 25 12 26 13 27 14 28 15 30 16 31 17 32 78 33 18 34 77 35
REMARK SMILES IDX 19 36 20 37 21 38 71 39 22 40 76 41 70 42 72 43 23 44 75 45
REMARK SMILES IDX 69 46 68 47 24 49 56 50 36 51 55 52 37 53 40 54 54 55 73 56
REMARK SMILES IDX 38 57 39 58 53 60 74 61 41 62 25 63 26 64 34 65 27 66 29 67
REMARK SMILES IDX 35 68 28 69 30 70 31 71 32 72 33 73 57 74 58 75 66 76 59 77
REMARK SMILES IDX 61 78 67 79 60 80 62 81 63 82 64 83 65 84 42 85 43 86 51 87
REMARK SMILES IDX 44 88 46 89 52 90 45 91 47 92 48 93 49 94 50 95
REMARK H PARENT 8 7 13 29 72 48 40 59
REMARK Flexibility Score: inf
ROOT
ATOM      1  C   UNL A   1      31.739  28.987  27.192  1.00  0.00     0.023 C 
ENDROOT
BRANCH   1   2
ATOM      2  C   UNL A   1      32.141  27.518  27.082  1.00  0.00     0.023 C 
BRANCH   2   3
ATOM      3  C   UNL A   1      31.227  26.640  26.220  1.00  0.00     0.116 C 
BRANCH   3   4
ATOM      4  N   UNL A   1      31.169  25.259  26.660  1.00  0.00    -0.355 N 
ATOM      5  C   UNL A   1      32.018  24.202  26.551  1.00  0.00     0.238 C 
ATOM      6  O   UNL A   1      31.776  23.251  27.310  1.00  0.00    -0.273 OA
ATOM      7  H   UNL A   1      30.338  25.040  27.139  1.00  0.00     0.163 HD
BRANCH   5   8
ATOM      8  C   UNL A   1      33.219  24.088  25.602  1.00  0.00     0.165 C 
ATOM      9  C   UNL A   1      35.035  22.622  26.184  1.00  0.00     0.135 C 
ATOM     10  C   UNL A   1      34.614  24.076  26.193  1.00  0.00     0.064 C 
ATOM     11  C   UNL A   1      34.202  21.956  25.086  1.00  0.00     0.135 C 
ATOM     12  N   UNL A   1      33.172  22.955  24.624  1.00  0.00    -0.183 NA
BRANCH   9  13
ATOM     13  O   UNL A   1      36.441  22.525  25.966  1.00  0.00    -0.380 OA
ATOM     14  C   UNL A   1      36.981  23.728  25.429  1.00  0.00     0.195 C 
ENDBRANCH   9  13
BRANCH  12  15
ATOM     15  S   UNL A   1      33.449  23.367  22.973  1.00  0.00     0.245 S 
ATOM     16  O   UNL A   1      34.881  23.418  22.759  1.00  0.00    -0.207 OA
ATOM     17  O   UNL A   1      32.661  22.435  22.193  1.00  0.00    -0.207 OA
BRANCH  15  18
ATOM     18  C   UNL A   1      32.743  24.976  22.688  1.00  0.00     0.101 A 
ATOM     19  C   UNL A   1      33.657  26.035  22.496  1.00  0.00     0.026 A 
ATOM     20  C   UNL A   1      31.385  25.275  22.865  1.00  0.00     0.064 A 
ATOM     21  C   UNL A   1      33.221  27.360  22.466  1.00  0.00     0.041 A 
ATOM     22  C   UNL A   1      30.954  26.607  22.793  1.00  0.00     0.061 A 
ATOM     23  Cl  UNL A   1      30.142  24.128  23.218  1.00  0.00    -0.083 Cl
ATOM     24  C   UNL A   1      31.871  27.632  22.607  1.00  0.00     0.124 A 
ATOM     25  F   UNL A   1      31.447  28.902  22.599  1.00  0.00    -0.207 F 
ENDBRANCH  15  18
ENDBRANCH  12  15
ENDBRANCH   5   8
ENDBRANCH   3   4
ENDBRANCH   2   3
ENDBRANCH   1   2
BRANCH   1  26
ATOM     26  C   UNL A   1      32.617  29.967  26.418  1.00  0.00     0.116 C 
BRANCH  26  27
ATOM     27  N   UNL A   1      32.487  31.362  26.832  1.00  0.00    -0.352 N 
ATOM     28  C   UNL A   1      33.434  32.146  27.457  1.00  0.00     0.251 C 
ATOM     29  H   UNL A   1      31.623  31.793  26.642  1.00  0.00     0.163 HD
ATOM     30  O   UNL A   1      33.181  33.300  27.785  1.00  0.00    -0.269 OA
BRANCH  28  31
ATOM     31  C   UNL A   1      34.743  31.539  27.771  1.00  0.00     0.039 A 
ATOM     32  C   UNL A   1      35.829  32.377  28.034  1.00  0.00     0.014 A 
ATOM     33  C   UNL A   1      34.838  30.159  27.962  1.00  0.00     0.014 A 
ATOM     34  C   UNL A   1      36.983  31.839  28.606  1.00  0.00     0.010 A 
ATOM     35  C   UNL A   1      35.961  29.639  28.595  1.00  0.00     0.010 A 
ATOM     36  C   UNL A   1      37.030  30.477  28.951  1.00  0.00    -0.014 A 
BRANCH  36  37
ATOM     37  C   UNL A   1      38.140  29.916  29.762  1.00  0.00     0.031 A 
ATOM     38  C   UNL A   1      38.355  30.385  31.172  1.00  0.00     0.074 A 
ATOM     39  C   UNL A   1      39.044  29.105  29.173  1.00  0.00     0.049 A 
ATOM     40  N   UNL A   1      39.339  30.111  31.988  1.00  0.00    -0.248 NA
ATOM     41  C   UNL A   1      37.351  31.308  31.729  1.00  0.00     0.031 C 
ATOM     42  C   UNL A   1      39.000  28.661  27.776  1.00  0.00     0.029 A 
ATOM     43  N   UNL A   1      40.200  28.547  29.659  1.00  0.00    -0.354 N 
ATOM     44  C   UNL A   1      39.102  30.862  33.133  1.00  0.00     0.074 A 
ATOM     45  C   UNL A   1      37.891  31.617  32.900  1.00  0.00     0.031 C 
ATOM     46  C   UNL A   1      40.084  27.914  27.517  1.00  0.00     0.029 A 
ATOM     47  C   UNL A   1      40.917  27.849  28.713  1.00  0.00     0.049 A 
ATOM     48  H   UNL A   1      40.489  28.636  30.596  1.00  0.00     0.167 HD
ATOM     49  C   UNL A   1      39.815  30.896  34.282  1.00  0.00     0.034 A 
ATOM     50  C   UNL A   1      42.119  27.243  28.792  1.00  0.00     0.034 A 
ATOM     51  C   UNL A   1      40.981  30.094  34.532  1.00  0.00     0.049 A 
ATOM     52  C   UNL A   1      42.859  27.254  30.101  1.00  0.00     0.074 A 
ATOM     53  C   UNL A   1      41.683  29.949  35.715  1.00  0.00     0.029 A 
ATOM     54  N   UNL A   1      41.621  29.312  33.585  1.00  0.00    -0.354 N 
ATOM     55  N   UNL A   1      42.509  27.802  31.240  1.00  0.00    -0.248 NA
ATOM     56  C   UNL A   1      44.145  26.542  30.147  1.00  0.00     0.031 C 
ATOM     57  C   UNL A   1      42.765  29.094  35.476  1.00  0.00     0.029 A 
ATOM     58  C   UNL A   1      42.726  28.700  34.148  1.00  0.00     0.049 A 
ATOM     59  H   UNL A   1      41.333  29.209  32.649  1.00  0.00     0.167 HD
ATOM     60  C   UNL A   1      43.518  27.484  32.141  1.00  0.00     0.074 A 
ATOM     61  C   UNL A   1      44.478  26.670  31.425  1.00  0.00     0.031 C 
ATOM     62  C   UNL A   1      43.649  27.853  33.438  1.00  0.00     0.034 A 
BRANCH  49  63
ATOM     63  C   UNL A   1      39.318  31.785  35.390  1.00  0.00     0.023 A 
ATOM     64  C   UNL A   1      38.445  31.256  36.361  1.00  0.00     0.012 A 
ATOM     65  C   UNL A   1      39.776  33.110  35.515  1.00  0.00     0.148 A 
ATOM     66  C   UNL A   1      38.014  32.042  37.428  1.00  0.00     0.002 A 
ATOM     67  C   UNL A   1      39.372  33.875  36.602  1.00  0.00     0.091 A 
ATOM     68  F   UNL A   1      40.589  33.599  34.566  1.00  0.00    -0.205 F 
ATOM     69  C   UNL A   1      38.486  33.345  37.556  1.00  0.00     0.022 A 
BRANCH  67  70
ATOM     70  S   UNL A   1      39.977  35.541  36.895  1.00  0.00     0.127 S 
ATOM     71  O   UNL A   1      39.261  35.904  38.117  1.00  0.00    -0.237 OA
ATOM     72  O   UNL A   1      41.412  35.321  37.072  1.00  0.00    -0.237 OA
ATOM     73  O   UNL A   1      39.622  36.312  35.712  1.00  0.00    -0.744 OA
ENDBRANCH  67  70
ENDBRANCH  49  63
BRANCH  50  74
ATOM     74  C   UNL A   1      42.676  26.535  27.604  1.00  0.00     0.023 A 
ATOM     75  C   UNL A   1      43.564  27.216  26.749  1.00  0.00     0.012 A 
ATOM     76  C   UNL A   1      42.355  25.193  27.331  1.00  0.00     0.148 A 
ATOM     77  C   UNL A   1      44.099  26.581  25.627  1.00  0.00     0.002 A 
ATOM     78  C   UNL A   1      42.935  24.548  26.243  1.00  0.00     0.091 A 
ATOM     79  F   UNL A   1      41.492  24.565  28.143  1.00  0.00    -0.205 F 
ATOM     80  C   UNL A   1      43.794  25.245  25.380  1.00  0.00     0.022 A 
BRANCH  78  81
ATOM     81  S   UNL A   1      42.701  22.792  25.944  1.00  0.00     0.127 S 
ATOM     82  O   UNL A   1      43.314  22.625  24.631  1.00  0.00    -0.237 OA
ATOM     83  O   UNL A   1      43.442  22.189  27.053  1.00  0.00    -0.237 OA
ATOM     84  O   UNL A   1      41.260  22.582  26.012  1.00  0.00    -0.744 OA
ENDBRANCH  78  81
ENDBRANCH  50  74
BRANCH  62  85
ATOM     85  C   UNL A   1      44.870  27.381  34.181  1.00  0.00     0.023 A 
ATOM     86  C   UNL A   1      46.014  28.203  34.222  1.00  0.00     0.012 A 
ATOM     87  C   UNL A   1      44.854  26.178  34.912  1.00  0.00     0.148 A 
ATOM     88  C   UNL A   1      47.132  27.824  34.962  1.00  0.00     0.002 A 
ATOM     89  C   UNL A   1      45.956  25.828  35.685  1.00  0.00     0.091 A 
ATOM     90  F   UNL A   1      43.762  25.404  34.846  1.00  0.00    -0.205 F 
ATOM     91  C   UNL A   1      47.098  26.645  35.703  1.00  0.00     0.022 A 
BRANCH  89  92
ATOM     92  S   UNL A   1      45.970  24.377  36.743  1.00  0.00     0.127 S 
ATOM     93  O   UNL A   1      46.072  23.296  35.766  1.00  0.00    -0.237 OA
ATOM     94  O   UNL A   1      47.174  24.590  37.546  1.00  0.00    -0.237 OA
ATOM     95  O   UNL A   1      44.725  24.420  37.499  1.00  0.00    -0.744 OA
ENDBRANCH  89  92
ENDBRANCH  62  85
ENDBRANCH  36  37
ENDBRANCH  28  31
ENDBRANCH  26  27
ENDBRANCH   1  26
TORSDOF 17
ENDMDL
MODEL 3
REMARK VINA RESULT:     -12.5      5.120     10.051
REMARK SMILES CO[C@H]1C[C@H](C(=O)NCCCCNC(=O)c2ccc(-c3c4nc(c(-c5cccc(S(=O)(=O)[O-])c5F)c5ccc([nH]5)c(-c5cccc(S(=O)(=O)[O-])c5F)c5nc(c(-c6cccc(S(=O)(=O)[O-])c6F)c6ccc3[nH]6)C=C5)C=C4)cc2)N(S(=O)(=O)c2ccc(F)cc2Cl)C1
REMARK SMILES IDX 11 1 10 2 9 3 8 4 6 5 7 6 5 8 3 9 4 10 91 11 79 12 2 13 1 14
REMARK SMILES IDX 80 15 81 16 82 17 83 18 84 19 89 20 85 21 88 22 90 23 86 24
REMARK SMILES IDX 87 25 12 26 13 27 14 28 15 30 16 31 17 32 78 33 18 34 77 35
REMARK SMILES IDX 19 36 20 37 21 38 71 39 22 40 76 41 70 42 72 43 23 44 75 45
REMARK SMILES IDX 69 46 68 47 24 49 56 50 36 51 55 52 37 53 40 54 54 55 73 56
REMARK SMILES IDX 38 57 39 58 53 60 74 61 41 62 25 63 26 64 34 65 27 66 29 67
REMARK SMILES IDX 35 68 28 69 30 70 31 71 32 72 33 73 57 74 58 75 66 76 59 77
REMARK SMILES IDX 61 78 67 79 60 80 62 81 63 82 64 83 65 84 42 85 43 86 51 87
REMARK SMILES IDX 44 88 46 89 52 90 45 91 47 92 48 93 49 94 50 95
REMARK H PARENT 8 7 13 29 72 48 40 59
REMARK Flexibility Score: inf
ROOT
ATOM      1  C   UNL A   1      31.380  30.141  26.395  1.00  0.00     0.023 C 
ENDROOT
BRANCH   1   2
ATOM      2  C   UNL A   1      31.798  29.023  27.347  1.00  0.00     0.023 C 
BRANCH   2   3
ATOM      3  C   UNL A   1      32.388  27.771  26.687  1.00  0.00     0.116 C 
BRANCH   3   4
ATOM      4  N   UNL A   1      31.577  26.583  26.873  1.00  0.00    -0.355 N 
ATOM      5  C   UNL A   1      31.083  25.641  26.027  1.00  0.00     0.238 C 
ATOM      6  O   UNL A   1      30.686  24.599  26.571  1.00  0.00    -0.273 OA
ATOM      7  H   UNL A   1      31.331  26.426  27.813  1.00  0.00     0.163 HD
BRANCH   5   8
ATOM      8  C   UNL A   1      30.982  25.747  24.499  1.00  0.00     0.165 C 
ATOM      9  C   UNL A   1      30.351  27.847  23.510  1.00  0.00     0.135 C 
ATOM     10  C   UNL A   1      29.806  26.489  23.897  1.00  0.00     0.064 C 
ATOM     11  C   UNL A   1      31.858  27.650  23.320  1.00  0.00     0.135 C 
ATOM     12  N   UNL A   1      32.201  26.263  23.799  1.00  0.00    -0.183 NA
BRANCH   9  13
ATOM     13  O   UNL A   1      29.690  28.321  22.339  1.00  0.00    -0.380 OA
ATOM     14  C   UNL A   1      29.695  29.743  22.263  1.00  0.00     0.195 C 
ENDBRANCH   9  13
BRANCH  12  15
ATOM     15  S   UNL A   1      32.778  25.310  22.482  1.00  0.00     0.245 S 
ATOM     16  O   UNL A   1      31.709  25.195  21.511  1.00  0.00    -0.207 OA
ATOM     17  O   UNL A   1      34.029  25.916  22.072  1.00  0.00    -0.207 OA
BRANCH  15  18
ATOM     18  C   UNL A   1      33.190  23.698  23.115  1.00  0.00     0.101 A 
ATOM     19  C   UNL A   1      32.423  22.620  22.623  1.00  0.00     0.026 A 
ATOM     20  C   UNL A   1      34.047  23.483  24.203  1.00  0.00     0.064 A 
ATOM     21  C   UNL A   1      32.523  21.351  23.196  1.00  0.00     0.041 A 
ATOM     22  C   UNL A   1      34.168  22.195  24.745  1.00  0.00     0.061 A 
ATOM     23  Cl  UNL A   1      34.976  24.698  25.006  1.00  0.00    -0.083 Cl
ATOM     24  C   UNL A   1      33.403  21.150  24.248  1.00  0.00     0.124 A 
ATOM     25  F   UNL A   1      33.490  19.940  24.815  1.00  0.00    -0.207 F 
ENDBRANCH  15  18
ENDBRANCH  12  15
ENDBRANCH   5   8
ENDBRANCH   3   4
ENDBRANCH   2   3
ENDBRANCH   1   2
BRANCH   1  26
ATOM     26  C   UNL A   1      32.426  31.228  26.158  1.00  0.00     0.116 C 
BRANCH  26  27
ATOM     27  N   UNL A   1      32.189  32.471  26.887  1.00  0.00    -0.352 N 
ATOM     28  C   UNL A   1      33.055  33.125  27.739  1.00  0.00     0.251 C 
ATOM     29  H   UNL A   1      31.311  32.893  26.752  1.00  0.00     0.163 HD
ATOM     30  O   UNL A   1      32.715  34.151  28.318  1.00  0.00    -0.269 OA
BRANCH  28  31
ATOM     31  C   UNL A   1      34.382  32.524  27.979  1.00  0.00     0.039 A 
ATOM     32  C   UNL A   1      35.504  33.355  27.999  1.00  0.00     0.014 A 
ATOM     33  C   UNL A   1      34.478  31.179  28.341  1.00  0.00     0.014 A 
ATOM     34  C   UNL A   1      36.710  32.861  28.502  1.00  0.00     0.010 A 
ATOM     35  C   UNL A   1      35.659  30.712  28.904  1.00  0.00     0.010 A 
ATOM     36  C   UNL A   1      36.776  31.556  29.018  1.00  0.00    -0.014 A 
BRANCH  36  37
ATOM     37  C   UNL A   1      37.966  31.072  29.764  1.00  0.00     0.031 A 
ATOM     38  C   UNL A   1      38.862  30.030  29.161  1.00  0.00     0.074 A 
ATOM     39  C   UNL A   1      38.144  31.460  31.045  1.00  0.00     0.049 A 
ATOM     40  N   UNL A   1      39.866  29.394  29.706  1.00  0.00    -0.248 NA
ATOM     41  C   UNL A   1      38.575  29.625  27.774  1.00  0.00     0.031 C 
ATOM     42  C   UNL A   1      37.279  32.390  31.777  1.00  0.00     0.029 A 
ATOM     43  N   UNL A   1      39.083  31.084  31.973  1.00  0.00    -0.354 N 
ATOM     44  C   UNL A   1      40.299  28.482  28.752  1.00  0.00     0.074 A 
ATOM     45  C   UNL A   1      39.438  28.633  27.600  1.00  0.00     0.031 C 
ATOM     46  C   UNL A   1      37.718  32.500  33.041  1.00  0.00     0.029 A 
ATOM     47  C   UNL A   1      38.874  31.628  33.221  1.00  0.00     0.049 A 
ATOM     48  H   UNL A   1      39.835  30.484  31.767  1.00  0.00     0.167 HD
ATOM     49  C   UNL A   1      41.336  27.617  28.821  1.00  0.00     0.034 A 
ATOM     50  C   UNL A   1      39.527  31.433  34.385  1.00  0.00     0.034 A 
ATOM     51  C   UNL A   1      42.230  27.517  29.943  1.00  0.00     0.049 A 
ATOM     52  C   UNL A   1      40.711  30.505  34.414  1.00  0.00     0.074 A 
ATOM     53  C   UNL A   1      43.395  26.778  30.047  1.00  0.00     0.029 A 
ATOM     54  N   UNL A   1      42.053  28.164  31.155  1.00  0.00    -0.354 N 
ATOM     55  N   UNL A   1      41.232  29.806  33.435  1.00  0.00    -0.248 NA
ATOM     56  C   UNL A   1      41.414  30.360  35.697  1.00  0.00     0.031 C 
ATOM     57  C   UNL A   1      43.912  26.962  31.334  1.00  0.00     0.029 A 
ATOM     58  C   UNL A   1      43.074  27.824  32.024  1.00  0.00     0.049 A 
ATOM     59  H   UNL A   1      41.309  28.775  31.366  1.00  0.00     0.167 HD
ATOM     60  C   UNL A   1      42.334  29.156  33.977  1.00  0.00     0.074 A 
ATOM     61  C   UNL A   1      42.424  29.567  35.362  1.00  0.00     0.031 C 
ATOM     62  C   UNL A   1      43.180  28.277  33.386  1.00  0.00     0.034 A 
BRANCH  49  63
ATOM     63  C   UNL A   1      41.609  26.749  27.623  1.00  0.00     0.023 A 
ATOM     64  C   UNL A   1      42.209  27.316  26.481  1.00  0.00     0.012 A 
ATOM     65  C   UNL A   1      41.347  25.366  27.656  1.00  0.00     0.148 A 
ATOM     66  C   UNL A   1      42.522  26.523  25.379  1.00  0.00     0.002 A 
ATOM     67  C   UNL A   1      41.697  24.576  26.568  1.00  0.00     0.091 A 
ATOM     68  F   UNL A   1      40.755  24.852  28.744  1.00  0.00    -0.205 F 
ATOM     69  C   UNL A   1      42.278  25.154  25.426  1.00  0.00     0.022 A 
BRANCH  67  70
ATOM     70  S   UNL A   1      41.488  22.792  26.557  1.00  0.00     0.127 S 
ATOM     71  O   UNL A   1      42.085  22.418  27.838  1.00  0.00    -0.237 OA
ATOM     72  O   UNL A   1      40.033  22.653  26.498  1.00  0.00    -0.237 OA
ATOM     73  O   UNL A   1      42.193  22.312  25.376  1.00  0.00    -0.744 OA
ENDBRANCH  67  70
ENDBRANCH  49  63
BRANCH  50  74
ATOM     74  C   UNL A   1      39.099  32.166  35.611  1.00  0.00     0.023 A 
ATOM     75  C   UNL A   1      38.199  31.553  36.503  1.00  0.00     0.012 A 
ATOM     76  C   UNL A   1      39.595  33.448  35.911  1.00  0.00     0.148 A 
ATOM     77  C   UNL A   1      37.778  32.216  37.658  1.00  0.00     0.002 A 
ATOM     78  C   UNL A   1      39.216  34.081  37.090  1.00  0.00     0.091 A 
ATOM     79  F   UNL A   1      40.436  34.027  35.041  1.00  0.00    -0.205 F 
ATOM     80  C   UNL A   1      38.294  33.474  37.957  1.00  0.00     0.022 A 
BRANCH  78  81
ATOM     81  S   UNL A   1      39.947  35.637  37.611  1.00  0.00     0.127 S 
ATOM     82  O   UNL A   1      39.658  36.503  36.473  1.00  0.00    -0.237 OA
ATOM     83  O   UNL A   1      39.191  35.942  38.827  1.00  0.00    -0.237 OA
ATOM     84  O   UNL A   1      41.353  35.338  37.849  1.00  0.00    -0.744 OA
ENDBRANCH  78  81
ENDBRANCH  50  74
BRANCH  62  85
ATOM     85  C   UNL A   1      44.287  27.699  34.225  1.00  0.00     0.023 A 
ATOM     86  C   UNL A   1      45.502  28.402  34.345  1.00  0.00     0.012 A 
ATOM     87  C   UNL A   1      44.094  26.516  34.966  1.00  0.00     0.148 A 
ATOM     88  C   UNL A   1      46.517  27.926  35.174  1.00  0.00     0.002 A 
ATOM     89  C   UNL A   1      45.093  26.072  35.825  1.00  0.00     0.091 A 
ATOM     90  F   UNL A   1      42.937  25.855  34.824  1.00  0.00    -0.205 F 
ATOM     91  C   UNL A   1      46.308  26.770  35.922  1.00  0.00     0.022 A 
BRANCH  89  92
ATOM     92  S   UNL A   1      44.880  24.646  36.896  1.00  0.00     0.127 S 
ATOM     93  O   UNL A   1      46.207  24.521  37.494  1.00  0.00    -0.237 OA
ATOM     94  O   UNL A   1      43.837  25.102  37.816  1.00  0.00    -0.237 OA
ATOM     95  O   UNL A   1      44.479  23.548  36.027  1.00  0.00    -0.744 OA
ENDBRANCH  89  92
ENDBRANCH  62  85
ENDBRANCH  36  37
ENDBRANCH  28  31
ENDBRANCH  26  27
ENDBRANCH   1  26
TORSDOF 17
ENDMDL
