MODEL 1
REMARK VINA RESULT:     -11.4      0.000      0.000
REMARK SMILES Cc1cc(C(F)(F)CC(C)(C)CC(=O)NCCCCNC(=O)c2ccc(-c3c4nc(c(-c5cccc(S(=O)(=O)[O-])c5F)c5ccc([nH]5)c(-c5cccc(S(=O)(=O)[O-])c5F)c5nc(c(-c6cccc(S(=O)(=O)[O-])c6F)c6ccc3[nH]6)C=C5)C=C4)cc2)sc1Br
REMARK SMILES IDX 17 1 16 2 15 3 13 4 14 5 12 7 9 8 10 9 11 10 8 11 5 12 6 13
REMARK SMILES IDX 7 14 4 15 1 16 2 17 3 18 87 19 86 20 88 21 18 22 19 23 20 24
REMARK SMILES IDX 21 25 22 27 23 28 24 29 85 30 25 31 84 32 26 33 27 34 28 35
REMARK SMILES IDX 78 36 29 37 83 38 77 39 79 40 30 41 82 42 76 43 75 44 31 46
REMARK SMILES IDX 63 47 43 48 62 49 44 50 47 51 61 52 80 53 45 54 46 55 60 57
REMARK SMILES IDX 81 58 48 59 32 60 33 61 41 62 34 63 36 64 42 65 35 66 37 67
REMARK SMILES IDX 38 68 39 69 40 70 64 71 65 72 73 73 66 74 68 75 74 76 67 77
REMARK SMILES IDX 69 78 70 79 71 80 72 81 49 82 50 83 58 84 51 85 53 86 59 87
REMARK SMILES IDX 52 88 54 89 55 90 56 91 57 92
REMARK H PARENT 15 6 20 26 79 45 47 56
REMARK Flexibility Score: inf
ROOT
ATOM      1  C   UNL A   1      39.065  22.647  26.228  1.00  0.00     0.023 C 
ENDROOT
BRANCH   1   2
ATOM      2  C   UNL A   1      37.821  23.467  25.869  1.00  0.00     0.116 C 
BRANCH   2   3
ATOM      3  N   UNL A   1      36.685  23.045  26.659  1.00  0.00    -0.356 N 
ATOM      4  C   UNL A   1      35.353  23.174  26.424  1.00  0.00     0.220 C 
ATOM      5  O   UNL A   1      34.571  22.925  27.343  1.00  0.00    -0.275 OA
ATOM      6  H   UNL A   1      36.914  22.591  27.502  1.00  0.00     0.163 HD
BRANCH   4   7
ATOM      7  C   UNL A   1      34.835  23.610  25.066  1.00  0.00     0.106 C 
BRANCH   7   8
ATOM      8  C   UNL A   1      34.901  22.601  23.884  1.00  0.00    -0.021 C 
ATOM      9  C   UNL A   1      36.139  23.024  23.063  1.00  0.00     0.012 C 
ATOM     10  C   UNL A   1      33.721  22.757  22.904  1.00  0.00     0.012 C 
BRANCH   8  11
ATOM     11  C   UNL A   1      34.866  21.107  24.366  1.00  0.00     0.090 C 
BRANCH  11  12
ATOM     12  C   UNL A   1      33.531  20.372  24.548  1.00  0.00     0.282 C 
ATOM     13  F   UNL A   1      32.721  20.735  23.508  1.00  0.00    -0.200 F 
ATOM     14  F   UNL A   1      32.926  20.821  25.676  1.00  0.00    -0.200 F 
BRANCH  12  15
ATOM     15  C   UNL A   1      33.672  18.873  24.551  1.00  0.00     0.075 A 
ATOM     16  C   UNL A   1      35.738  15.896  25.407  1.00  0.00     0.046 C 
ATOM     17  C   UNL A   1      34.619  16.781  24.975  1.00  0.00    -0.025 A 
ATOM     18  C   UNL A   1      34.821  18.104  24.462  1.00  0.00     0.026 A 
ATOM     19  C   UNL A   1      33.269  16.518  25.063  1.00  0.00     0.073 A 
ATOM     20  S   UNL A   1      32.295  17.866  24.727  1.00  0.00    -0.127 S 
ATOM     21  Br  UNL A   1      32.538  14.870  25.579  1.00  0.00    -0.039 Br
ENDBRANCH  12  15
ENDBRANCH  11  12
ENDBRANCH   8  11
ENDBRANCH   7   8
ENDBRANCH   4   7
ENDBRANCH   2   3
ENDBRANCH   1   2
BRANCH   1  22
ATOM     22  C   UNL A   1      39.180  21.270  25.573  1.00  0.00     0.023 C 
BRANCH  22  23
ATOM     23  C   UNL A   1      39.681  20.179  26.501  1.00  0.00     0.116 C 
BRANCH  23  24
ATOM     24  N   UNL A   1      40.775  19.407  25.916  1.00  0.00    -0.352 N 
ATOM     25  C   UNL A   1      42.070  19.838  25.677  1.00  0.00     0.251 C 
ATOM     26  H   UNL A   1      40.570  18.478  25.664  1.00  0.00     0.163 HD
ATOM     27  O   UNL A   1      42.806  19.261  24.909  1.00  0.00    -0.269 OA
BRANCH  25  28
ATOM     28  C   UNL A   1      42.509  21.044  26.401  1.00  0.00     0.039 A 
ATOM     29  C   UNL A   1      42.750  22.229  25.709  1.00  0.00     0.014 A 
ATOM     30  C   UNL A   1      42.499  21.000  27.795  1.00  0.00     0.014 A 
ATOM     31  C   UNL A   1      42.876  23.407  26.439  1.00  0.00     0.010 A 
ATOM     32  C   UNL A   1      42.512  22.182  28.503  1.00  0.00     0.010 A 
ATOM     33  C   UNL A   1      42.710  23.392  27.835  1.00  0.00    -0.014 A 
BRANCH  33  34
ATOM     34  C   UNL A   1      42.607  24.660  28.561  1.00  0.00     0.031 A 
ATOM     35  C   UNL A   1      41.366  25.450  28.308  1.00  0.00     0.074 A 
ATOM     36  C   UNL A   1      43.462  25.065  29.523  1.00  0.00     0.049 A 
ATOM     37  N   UNL A   1      41.267  26.551  27.637  1.00  0.00    -0.248 NA
ATOM     38  C   UNL A   1      40.073  24.903  28.744  1.00  0.00     0.031 C 
ATOM     39  C   UNL A   1      44.570  24.321  30.134  1.00  0.00     0.029 A 
ATOM     40  N   UNL A   1      43.437  26.219  30.249  1.00  0.00    -0.354 N 
ATOM     41  C   UNL A   1      39.939  26.962  27.761  1.00  0.00     0.074 A 
ATOM     42  C   UNL A   1      39.224  25.831  28.292  1.00  0.00     0.031 C 
ATOM     43  C   UNL A   1      44.937  24.927  31.285  1.00  0.00     0.029 A 
ATOM     44  C   UNL A   1      44.235  26.189  31.385  1.00  0.00     0.049 A 
ATOM     45  H   UNL A   1      42.901  27.004  29.989  1.00  0.00     0.167 HD
ATOM     46  C   UNL A   1      39.588  28.272  27.629  1.00  0.00     0.034 A 
ATOM     47  C   UNL A   1      44.310  27.134  32.349  1.00  0.00     0.034 A 
ATOM     48  C   UNL A   1      40.663  29.049  27.062  1.00  0.00     0.049 A 
ATOM     49  C   UNL A   1      43.855  28.406  31.750  1.00  0.00     0.074 A 
ATOM     50  C   UNL A   1      41.393  29.024  25.892  1.00  0.00     0.029 A 
ATOM     51  N   UNL A   1      41.375  29.835  27.934  1.00  0.00    -0.354 N 
ATOM     52  N   UNL A   1      44.516  29.036  30.819  1.00  0.00    -0.248 NA
ATOM     53  C   UNL A   1      42.469  28.804  31.912  1.00  0.00     0.031 C 
ATOM     54  C   UNL A   1      42.716  29.399  26.276  1.00  0.00     0.029 A 
ATOM     55  C   UNL A   1      42.703  29.679  27.645  1.00  0.00     0.049 A 
ATOM     56  H   UNL A   1      40.999  30.406  28.641  1.00  0.00     0.167 HD
ATOM     57  C   UNL A   1      43.531  29.550  29.989  1.00  0.00     0.074 A 
ATOM     58  C   UNL A   1      42.310  29.506  30.787  1.00  0.00     0.031 C 
ATOM     59  C   UNL A   1      43.747  29.688  28.646  1.00  0.00     0.034 A 
BRANCH  46  60
ATOM     60  C   UNL A   1      38.439  28.965  28.337  1.00  0.00     0.023 A 
ATOM     61  C   UNL A   1      37.566  29.745  27.538  1.00  0.00     0.012 A 
ATOM     62  C   UNL A   1      38.345  29.142  29.735  1.00  0.00     0.148 A 
ATOM     63  C   UNL A   1      36.709  30.702  28.094  1.00  0.00     0.002 A 
ATOM     64  C   UNL A   1      37.437  30.040  30.287  1.00  0.00     0.091 A 
ATOM     65  F   UNL A   1      39.221  28.543  30.546  1.00  0.00    -0.205 F 
ATOM     66  C   UNL A   1      36.644  30.850  29.471  1.00  0.00     0.022 A 
BRANCH  64  67
ATOM     67  S   UNL A   1      37.272  30.236  32.066  1.00  0.00     0.127 S 
ATOM     68  O   UNL A   1      38.590  30.753  32.425  1.00  0.00    -0.237 OA
ATOM     69  O   UNL A   1      36.178  31.203  32.161  1.00  0.00    -0.237 OA
ATOM     70  O   UNL A   1      36.940  28.910  32.570  1.00  0.00    -0.744 OA
ENDBRANCH  64  67
ENDBRANCH  46  60
BRANCH  47  71
ATOM     71  C   UNL A   1      44.601  27.004  33.791  1.00  0.00     0.023 A 
ATOM     72  C   UNL A   1      45.777  27.572  34.319  1.00  0.00     0.012 A 
ATOM     73  C   UNL A   1      43.597  26.582  34.689  1.00  0.00     0.148 A 
ATOM     74  C   UNL A   1      45.927  27.760  35.696  1.00  0.00     0.002 A 
ATOM     75  C   UNL A   1      43.751  26.771  36.058  1.00  0.00     0.091 A 
ATOM     76  F   UNL A   1      42.455  26.085  34.190  1.00  0.00    -0.205 F 
ATOM     77  C   UNL A   1      44.911  27.373  36.565  1.00  0.00     0.022 A 
BRANCH  75  78
ATOM     78  S   UNL A   1      42.470  26.327  37.237  1.00  0.00     0.127 S 
ATOM     79  O   UNL A   1      41.436  27.323  36.952  1.00  0.00    -0.237 OA
ATOM     80  O   UNL A   1      42.139  24.966  36.824  1.00  0.00    -0.237 OA
ATOM     81  O   UNL A   1      43.081  26.461  38.553  1.00  0.00    -0.744 OA
ENDBRANCH  75  78
ENDBRANCH  47  71
BRANCH  59  82
ATOM     82  C   UNL A   1      45.163  29.563  28.138  1.00  0.00     0.023 A 
ATOM     83  C   UNL A   1      45.684  28.346  27.649  1.00  0.00     0.012 A 
ATOM     84  C   UNL A   1      45.934  30.730  28.007  1.00  0.00     0.148 A 
ATOM     85  C   UNL A   1      46.956  28.289  27.074  1.00  0.00     0.002 A 
ATOM     86  C   UNL A   1      47.179  30.679  27.391  1.00  0.00     0.091 A 
ATOM     87  F   UNL A   1      45.425  31.883  28.469  1.00  0.00    -0.205 F 
ATOM     88  C   UNL A   1      47.700  29.459  26.934  1.00  0.00     0.022 A 
BRANCH  86  89
ATOM     89  S   UNL A   1      48.125  32.169  27.066  1.00  0.00     0.127 S 
ATOM     90  O   UNL A   1      47.215  32.928  26.210  1.00  0.00    -0.237 OA
ATOM     91  O   UNL A   1      48.310  32.727  28.407  1.00  0.00    -0.237 OA
ATOM     92  O   UNL A   1      49.362  31.725  26.435  1.00  0.00    -0.744 OA
ENDBRANCH  86  89
ENDBRANCH  59  82
ENDBRANCH  33  34
ENDBRANCH  25  28
ENDBRANCH  23  24
ENDBRANCH  22  23
ENDBRANCH   1  22
TORSDOF 18
ENDMDL
MODEL 2
REMARK VINA RESULT:     -11.1      2.712      3.540
REMARK SMILES Cc1cc(C(F)(F)CC(C)(C)CC(=O)NCCCCNC(=O)c2ccc(-c3c4nc(c(-c5cccc(S(=O)(=O)[O-])c5F)c5ccc([nH]5)c(-c5cccc(S(=O)(=O)[O-])c5F)c5nc(c(-c6cccc(S(=O)(=O)[O-])c6F)c6ccc3[nH]6)C=C5)C=C4)cc2)sc1Br
REMARK SMILES IDX 17 1 16 2 15 3 13 4 14 5 12 7 9 8 10 9 11 10 8 11 5 12 6 13
REMARK SMILES IDX 7 14 4 15 1 16 2 17 3 18 87 19 86 20 88 21 18 22 19 23 20 24
REMARK SMILES IDX 21 25 22 27 23 28 24 29 85 30 25 31 84 32 26 33 27 34 28 35
REMARK SMILES IDX 78 36 29 37 83 38 77 39 79 40 30 41 82 42 76 43 75 44 31 46
REMARK SMILES IDX 63 47 43 48 62 49 44 50 47 51 61 52 80 53 45 54 46 55 60 57
REMARK SMILES IDX 81 58 48 59 32 60 33 61 41 62 34 63 36 64 42 65 35 66 37 67
REMARK SMILES IDX 38 68 39 69 40 70 64 71 65 72 73 73 66 74 68 75 74 76 67 77
REMARK SMILES IDX 69 78 70 79 71 80 72 81 49 82 50 83 58 84 51 85 53 86 59 87
REMARK SMILES IDX 52 88 54 89 55 90 56 91 57 92
REMARK H PARENT 15 6 20 26 79 45 47 56
REMARK Flexibility Score: inf
ROOT
ATOM      1  C   UNL A   1      39.084  22.349  26.108  1.00  0.00     0.023 C 
ENDROOT
BRANCH   1   2
ATOM      2  C   UNL A   1      37.716  23.017  25.930  1.00  0.00     0.116 C 
BRANCH   2   3
ATOM      3  N   UNL A   1      37.479  23.335  24.539  1.00  0.00    -0.356 N 
ATOM      4  C   UNL A   1      36.519  22.892  23.685  1.00  0.00     0.220 C 
ATOM      5  O   UNL A   1      36.644  23.139  22.485  1.00  0.00    -0.275 OA
ATOM      6  H   UNL A   1      38.117  23.974  24.146  1.00  0.00     0.163 HD
BRANCH   4   7
ATOM      7  C   UNL A   1      35.318  22.114  24.193  1.00  0.00     0.106 C 
BRANCH   7   8
ATOM      8  C   UNL A   1      33.980  22.873  24.421  1.00  0.00    -0.021 C 
ATOM      9  C   UNL A   1      34.292  23.916  25.517  1.00  0.00     0.012 C 
ATOM     10  C   UNL A   1      32.889  21.980  25.042  1.00  0.00     0.012 C 
BRANCH   8  11
ATOM     11  C   UNL A   1      33.371  23.432  23.085  1.00  0.00     0.090 C 
BRANCH  11  12
ATOM     12  C   UNL A   1      33.303  24.943  22.827  1.00  0.00     0.282 C 
ATOM     13  F   UNL A   1      32.821  25.119  21.561  1.00  0.00    -0.200 F 
ATOM     14  F   UNL A   1      34.560  25.453  22.830  1.00  0.00    -0.200 F 
BRANCH  12  15
ATOM     15  C   UNL A   1      32.405  25.672  23.791  1.00  0.00     0.075 A 
ATOM     16  C   UNL A   1      29.655  25.499  26.296  1.00  0.00     0.046 C 
ATOM     17  C   UNL A   1      30.772  25.978  25.432  1.00  0.00    -0.025 A 
ATOM     18  C   UNL A   1      31.111  25.367  24.181  1.00  0.00     0.026 A 
ATOM     19  C   UNL A   1      31.667  26.987  25.714  1.00  0.00     0.073 A 
ATOM     20  S   UNL A   1      32.962  27.065  24.621  1.00  0.00    -0.127 S 
ATOM     21  Br  UNL A   1      31.548  28.130  27.196  1.00  0.00    -0.039 Br
ENDBRANCH  12  15
ENDBRANCH  11  12
ENDBRANCH   8  11
ENDBRANCH   7   8
ENDBRANCH   4   7
ENDBRANCH   2   3
ENDBRANCH   1   2
BRANCH   1  22
ATOM     22  C   UNL A   1      39.188  20.891  25.659  1.00  0.00     0.023 C 
BRANCH  22  23
ATOM     23  C   UNL A   1      39.954  19.998  26.615  1.00  0.00     0.116 C 
BRANCH  23  24
ATOM     24  N   UNL A   1      41.046  19.282  25.958  1.00  0.00    -0.352 N 
ATOM     25  C   UNL A   1      42.298  19.780  25.636  1.00  0.00     0.251 C 
ATOM     26  H   UNL A   1      40.873  18.343  25.719  1.00  0.00     0.163 HD
ATOM     27  O   UNL A   1      43.011  19.240  24.821  1.00  0.00    -0.269 OA
BRANCH  25  28
ATOM     28  C   UNL A   1      42.720  21.008  26.332  1.00  0.00     0.039 A 
ATOM     29  C   UNL A   1      42.813  22.211  25.636  1.00  0.00     0.014 A 
ATOM     30  C   UNL A   1      42.846  20.953  27.720  1.00  0.00     0.014 A 
ATOM     31  C   UNL A   1      42.927  23.390  26.366  1.00  0.00     0.010 A 
ATOM     32  C   UNL A   1      42.845  22.128  28.439  1.00  0.00     0.010 A 
ATOM     33  C   UNL A   1      42.896  23.353  27.772  1.00  0.00    -0.014 A 
BRANCH  33  34
ATOM     34  C   UNL A   1      42.776  24.606  28.522  1.00  0.00     0.031 A 
ATOM     35  C   UNL A   1      41.513  25.371  28.302  1.00  0.00     0.074 A 
ATOM     36  C   UNL A   1      43.638  25.015  29.477  1.00  0.00     0.049 A 
ATOM     37  N   UNL A   1      41.378  26.481  27.652  1.00  0.00    -0.248 NA
ATOM     38  C   UNL A   1      40.241  24.787  28.750  1.00  0.00     0.031 C 
ATOM     39  C   UNL A   1      44.772  24.287  30.056  1.00  0.00     0.029 A 
ATOM     40  N   UNL A   1      43.598  26.156  30.222  1.00  0.00    -0.354 N 
ATOM     41  C   UNL A   1      40.044  26.859  27.805  1.00  0.00     0.074 A 
ATOM     42  C   UNL A   1      39.363  25.702  28.328  1.00  0.00     0.031 C 
ATOM     43  C   UNL A   1      45.144  24.881  31.212  1.00  0.00     0.029 A 
ATOM     44  C   UNL A   1      44.415  26.125  31.345  1.00  0.00     0.049 A 
ATOM     45  H   UNL A   1      43.040  26.932  29.986  1.00  0.00     0.167 HD
ATOM     46  C   UNL A   1      39.660  28.163  27.701  1.00  0.00     0.034 A 
ATOM     47  C   UNL A   1      44.484  27.055  32.324  1.00  0.00     0.034 A 
ATOM     48  C   UNL A   1      40.707  28.974  27.131  1.00  0.00     0.049 A 
ATOM     49  C   UNL A   1      43.991  28.325  31.754  1.00  0.00     0.074 A 
ATOM     50  C   UNL A   1      41.418  28.986  25.949  1.00  0.00     0.029 A 
ATOM     51  N   UNL A   1      41.415  29.761  28.005  1.00  0.00    -0.354 N 
ATOM     52  N   UNL A   1      44.621  28.986  30.824  1.00  0.00    -0.248 NA
ATOM     53  C   UNL A   1      42.599  28.688  31.946  1.00  0.00     0.031 C 
ATOM     54  C   UNL A   1      42.738  29.385  26.318  1.00  0.00     0.029 A 
ATOM     55  C   UNL A   1      42.741  29.641  27.691  1.00  0.00     0.049 A 
ATOM     56  H   UNL A   1      41.038  30.312  28.728  1.00  0.00     0.167 HD
ATOM     57  C   UNL A   1      43.611  29.491  30.019  1.00  0.00     0.074 A 
ATOM     58  C   UNL A   1      42.405  29.405  30.836  1.00  0.00     0.031 C 
ATOM     59  C   UNL A   1      43.801  29.658  28.675  1.00  0.00     0.034 A 
BRANCH  46  60
ATOM     60  C   UNL A   1      38.508  28.817  28.440  1.00  0.00     0.023 A 
ATOM     61  C   UNL A   1      37.617  29.609  27.673  1.00  0.00     0.012 A 
ATOM     62  C   UNL A   1      38.422  28.947  29.844  1.00  0.00     0.148 A 
ATOM     63  C   UNL A   1      36.752  30.537  28.266  1.00  0.00     0.002 A 
ATOM     64  C   UNL A   1      37.506  29.815  30.431  1.00  0.00     0.091 A 
ATOM     65  F   UNL A   1      39.313  28.335  30.628  1.00  0.00    -0.205 F 
ATOM     66  C   UNL A   1      36.696  30.639  29.648  1.00  0.00     0.022 A 
BRANCH  64  67
ATOM     67  S   UNL A   1      37.353  29.951  32.217  1.00  0.00     0.127 S 
ATOM     68  O   UNL A   1      37.171  28.555  32.601  1.00  0.00    -0.237 OA
ATOM     69  O   UNL A   1      38.643  30.535  32.584  1.00  0.00    -0.237 OA
ATOM     70  O   UNL A   1      36.215  30.835  32.439  1.00  0.00    -0.744 OA
ENDBRANCH  64  67
ENDBRANCH  46  60
BRANCH  47  71
ATOM     71  C   UNL A   1      44.803  26.907  33.758  1.00  0.00     0.023 A 
ATOM     72  C   UNL A   1      46.023  27.404  34.257  1.00  0.00     0.012 A 
ATOM     73  C   UNL A   1      43.798  26.545  34.681  1.00  0.00     0.148 A 
ATOM     74  C   UNL A   1      46.218  27.581  35.630  1.00  0.00     0.002 A 
ATOM     75  C   UNL A   1      43.996  26.723  36.045  1.00  0.00     0.091 A 
ATOM     76  F   UNL A   1      42.617  26.117  34.211  1.00  0.00    -0.205 F 
ATOM     77  C   UNL A   1      45.202  27.255  36.523  1.00  0.00     0.022 A 
BRANCH  75  78
ATOM     78  S   UNL A   1      42.720  26.356  37.256  1.00  0.00     0.127 S 
ATOM     79  O   UNL A   1      41.710  27.369  36.950  1.00  0.00    -0.237 OA
ATOM     80  O   UNL A   1      42.347  24.991  36.896  1.00  0.00    -0.237 OA
ATOM     81  O   UNL A   1      43.353  26.519  38.559  1.00  0.00    -0.744 OA
ENDBRANCH  75  78
ENDBRANCH  47  71
BRANCH  59  82
ATOM     82  C   UNL A   1      45.211  29.574  28.142  1.00  0.00     0.023 A 
ATOM     83  C   UNL A   1      46.093  30.674  28.166  1.00  0.00     0.012 A 
ATOM     84  C   UNL A   1      45.707  28.318  27.751  1.00  0.00     0.148 A 
ATOM     85  C   UNL A   1      47.429  30.533  27.777  1.00  0.00     0.002 A 
ATOM     86  C   UNL A   1      47.046  28.170  27.412  1.00  0.00     0.091 A 
ATOM     87  F   UNL A   1      44.860  27.277  27.739  1.00  0.00    -0.205 F 
ATOM     88  C   UNL A   1      47.908  29.277  27.412  1.00  0.00     0.022 A 
BRANCH  86  89
ATOM     89  S   UNL A   1      47.750  26.558  27.059  1.00  0.00     0.127 S 
ATOM     90  O   UNL A   1      47.441  25.815  28.279  1.00  0.00    -0.237 OA
ATOM     91  O   UNL A   1      46.997  26.134  25.878  1.00  0.00    -0.237 OA
ATOM     92  O   UNL A   1      49.167  26.790  26.804  1.00  0.00    -0.744 OA
ENDBRANCH  86  89
ENDBRANCH  59  82
ENDBRANCH  33  34
ENDBRANCH  25  28
ENDBRANCH  23  24
ENDBRANCH  22  23
ENDBRANCH   1  22
TORSDOF 18
ENDMDL
MODEL 3
REMARK VINA RESULT:     -11.0      3.080      7.823
REMARK SMILES Cc1cc(C(F)(F)CC(C)(C)CC(=O)NCCCCNC(=O)c2ccc(-c3c4nc(c(-c5cccc(S(=O)(=O)[O-])c5F)c5ccc([nH]5)c(-c5cccc(S(=O)(=O)[O-])c5F)c5nc(c(-c6cccc(S(=O)(=O)[O-])c6F)c6ccc3[nH]6)C=C5)C=C4)cc2)sc1Br
REMARK SMILES IDX 17 1 16 2 15 3 13 4 14 5 12 7 9 8 10 9 11 10 8 11 5 12 6 13
REMARK SMILES IDX 7 14 4 15 1 16 2 17 3 18 87 19 86 20 88 21 18 22 19 23 20 24
REMARK SMILES IDX 21 25 22 27 23 28 24 29 85 30 25 31 84 32 26 33 27 34 28 35
REMARK SMILES IDX 78 36 29 37 83 38 77 39 79 40 30 41 82 42 76 43 75 44 31 46
REMARK SMILES IDX 63 47 43 48 62 49 44 50 47 51 61 52 80 53 45 54 46 55 60 57
REMARK SMILES IDX 81 58 48 59 32 60 33 61 41 62 34 63 36 64 42 65 35 66 37 67
REMARK SMILES IDX 38 68 39 69 40 70 64 71 65 72 73 73 66 74 68 75 74 76 67 77
REMARK SMILES IDX 69 78 70 79 71 80 72 81 49 82 50 83 58 84 51 85 53 86 59 87
REMARK SMILES IDX 52 88 54 89 55 90 56 91 57 92
REMARK H PARENT 15 6 20 26 79 45 47 56
REMARK Flexibility Score: inf
ROOT
ATOM      1  C   UNL A   1      33.034  30.452  26.182  1.00  0.00     0.023 C 
ENDROOT
BRANCH   1   2
ATOM      2  C   UNL A   1      31.609  30.201  25.676  1.00  0.00     0.116 C 
BRANCH   2   3
ATOM      3  N   UNL A   1      31.629  29.699  24.320  1.00  0.00    -0.356 N 
ATOM      4  C   UNL A   1      31.662  28.423  23.854  1.00  0.00     0.220 C 
ATOM      5  O   UNL A   1      31.888  28.244  22.656  1.00  0.00    -0.275 OA
ATOM      6  H   UNL A   1      31.617  30.393  23.622  1.00  0.00     0.163 HD
BRANCH   4   7
ATOM      7  C   UNL A   1      31.422  27.244  24.780  1.00  0.00     0.106 C 
BRANCH   7   8
ATOM      8  C   UNL A   1      32.630  26.346  25.171  1.00  0.00    -0.021 C 
ATOM      9  C   UNL A   1      32.030  25.228  26.053  1.00  0.00     0.012 C 
ATOM     10  C   UNL A   1      33.631  27.066  26.095  1.00  0.00     0.012 C 
BRANCH   8  11
ATOM     11  C   UNL A   1      33.458  25.875  23.923  1.00  0.00     0.090 C 
BRANCH  11  12
ATOM     12  C   UNL A   1      32.907  24.801  22.975  1.00  0.00     0.282 C 
ATOM     13  F   UNL A   1      33.352  25.098  21.718  1.00  0.00    -0.200 F 
ATOM     14  F   UNL A   1      31.554  24.897  22.933  1.00  0.00    -0.200 F 
BRANCH  12  15
ATOM     15  C   UNL A   1      33.354  23.408  23.330  1.00  0.00     0.075 A 
ATOM     16  C   UNL A   1      35.636  21.229  25.309  1.00  0.00     0.046 C 
ATOM     17  C   UNL A   1      34.544  21.719  24.419  1.00  0.00    -0.025 A 
ATOM     18  C   UNL A   1      34.610  22.964  23.713  1.00  0.00     0.026 A 
ATOM     19  C   UNL A   1      33.321  21.124  24.198  1.00  0.00     0.073 A 
ATOM     20  S   UNL A   1      32.237  22.107  23.341  1.00  0.00    -0.127 S 
ATOM     21  Br  UNL A   1      32.833  19.428  24.835  1.00  0.00    -0.039 Br
ENDBRANCH  12  15
ENDBRANCH  11  12
ENDBRANCH   8  11
ENDBRANCH   7   8
ENDBRANCH   4   7
ENDBRANCH   2   3
ENDBRANCH   1   2
BRANCH   1  22
ATOM     22  C   UNL A   1      33.163  30.947  27.623  1.00  0.00     0.023 C 
BRANCH  22  23
ATOM     23  C   UNL A   1      34.188  32.049  27.814  1.00  0.00     0.116 C 
BRANCH  23  24
ATOM     24  N   UNL A   1      34.235  32.536  29.191  1.00  0.00    -0.352 N 
ATOM     25  C   UNL A   1      35.123  32.154  30.183  1.00  0.00     0.251 C 
ATOM     26  H   UNL A   1      33.563  33.210  29.440  1.00  0.00     0.163 HD
ATOM     27  O   UNL A   1      34.898  32.353  31.356  1.00  0.00    -0.269 OA
BRANCH  25  28
ATOM     28  C   UNL A   1      36.359  31.484  29.742  1.00  0.00     0.039 A 
ATOM     29  C   UNL A   1      37.574  32.164  29.769  1.00  0.00     0.014 A 
ATOM     30  C   UNL A   1      36.291  30.117  29.473  1.00  0.00     0.014 A 
ATOM     31  C   UNL A   1      38.747  31.429  29.629  1.00  0.00     0.010 A 
ATOM     32  C   UNL A   1      37.456  29.381  29.448  1.00  0.00     0.010 A 
ATOM     33  C   UNL A   1      38.690  30.028  29.514  1.00  0.00    -0.014 A 
BRANCH  33  34
ATOM     34  C   UNL A   1      39.927  29.249  29.608  1.00  0.00     0.031 A 
ATOM     35  C   UNL A   1      40.450  29.030  30.989  1.00  0.00     0.074 A 
ATOM     36  C   UNL A   1      40.513  28.613  28.571  1.00  0.00     0.049 A 
ATOM     37  N   UNL A   1      41.496  29.574  31.521  1.00  0.00    -0.248 NA
ATOM     38  C   UNL A   1      39.667  28.211  31.925  1.00  0.00     0.031 C 
ATOM     39  C   UNL A   1      40.017  28.448  27.201  1.00  0.00     0.029 A 
ATOM     40  N   UNL A   1      41.654  27.866  28.571  1.00  0.00    -0.354 N 
ATOM     41  C   UNL A   1      41.638  28.990  32.780  1.00  0.00     0.074 A 
ATOM     42  C   UNL A   1      40.398  28.305  33.039  1.00  0.00     0.031 C 
ATOM     43  C   UNL A   1      40.706  27.460  26.589  1.00  0.00     0.029 A 
ATOM     44  C   UNL A   1      41.806  27.068  27.445  1.00  0.00     0.049 A 
ATOM     45  H   UNL A   1      42.311  27.891  29.304  1.00  0.00     0.167 HD
ATOM     46  C   UNL A   1      42.850  28.932  33.401  1.00  0.00     0.034 A 
ATOM     47  C   UNL A   1      42.766  26.141  27.231  1.00  0.00     0.034 A 
ATOM     48  C   UNL A   1      43.813  29.789  32.755  1.00  0.00     0.049 A 
ATOM     49  C   UNL A   1      43.910  26.489  28.098  1.00  0.00     0.074 A 
ATOM     50  C   UNL A   1      43.910  31.137  32.475  1.00  0.00     0.029 A 
ATOM     51  N   UNL A   1      44.742  29.170  31.955  1.00  0.00    -0.354 N 
ATOM     52  N   UNL A   1      44.639  27.556  27.929  1.00  0.00    -0.248 NA
ATOM     53  C   UNL A   1      44.029  25.850  29.396  1.00  0.00     0.031 C 
ATOM     54  C   UNL A   1      44.547  31.203  31.200  1.00  0.00     0.029 A 
ATOM     55  C   UNL A   1      44.846  29.898  30.801  1.00  0.00     0.049 A 
ATOM     56  H   UNL A   1      45.242  28.351  32.171  1.00  0.00     0.167 HD
ATOM     57  C   UNL A   1      44.931  27.979  29.217  1.00  0.00     0.074 A 
ATOM     58  C   UNL A   1      44.662  26.820  30.061  1.00  0.00     0.031 C 
ATOM     59  C   UNL A   1      45.083  29.308  29.501  1.00  0.00     0.034 A 
BRANCH  46  60
ATOM     60  C   UNL A   1      43.316  27.845  34.352  1.00  0.00     0.023 A 
ATOM     61  C   UNL A   1      43.882  28.264  35.581  1.00  0.00     0.012 A 
ATOM     62  C   UNL A   1      43.506  26.492  33.995  1.00  0.00     0.148 A 
ATOM     63  C   UNL A   1      44.662  27.408  36.368  1.00  0.00     0.002 A 
ATOM     64  C   UNL A   1      44.217  25.624  34.819  1.00  0.00     0.091 A 
ATOM     65  F   UNL A   1      43.117  26.055  32.794  1.00  0.00    -0.205 F 
ATOM     66  C   UNL A   1      44.829  26.085  35.986  1.00  0.00     0.022 A 
BRANCH  64  67
ATOM     67  S   UNL A   1      44.422  23.889  34.400  1.00  0.00     0.127 S 
ATOM     68  O   UNL A   1      45.336  23.443  35.448  1.00  0.00    -0.237 OA
ATOM     69  O   UNL A   1      43.052  23.388  34.516  1.00  0.00    -0.237 OA
ATOM     70  O   UNL A   1      44.947  23.879  33.040  1.00  0.00    -0.744 OA
ENDBRANCH  64  67
ENDBRANCH  46  60
BRANCH  47  71
ATOM     71  C   UNL A   1      42.725  24.890  26.447  1.00  0.00     0.023 A 
ATOM     72  C   UNL A   1      43.816  24.546  25.625  1.00  0.00     0.012 A 
ATOM     73  C   UNL A   1      41.757  23.902  26.726  1.00  0.00     0.148 A 
ATOM     74  C   UNL A   1      43.964  23.245  25.137  1.00  0.00     0.002 A 
ATOM     75  C   UNL A   1      41.908  22.609  26.238  1.00  0.00     0.091 A 
ATOM     76  F   UNL A   1      40.742  24.209  27.547  1.00  0.00    -0.205 F 
ATOM     77  C   UNL A   1      43.019  22.272  25.453  1.00  0.00     0.022 A 
BRANCH  75  78
ATOM     78  S   UNL A   1      40.748  21.293  26.631  1.00  0.00     0.127 S 
ATOM     79  O   UNL A   1      41.358  20.142  25.966  1.00  0.00    -0.237 OA
ATOM     80  O   UNL A   1      40.812  21.263  28.090  1.00  0.00    -0.237 OA
ATOM     81  O   UNL A   1      39.473  21.708  26.060  1.00  0.00    -0.744 OA
ENDBRANCH  75  78
ENDBRANCH  47  71
BRANCH  59  82
ATOM     82  C   UNL A   1      45.230  30.269  28.346  1.00  0.00     0.023 A 
ATOM     83  C   UNL A   1      44.123  30.738  27.609  1.00  0.00     0.012 A 
ATOM     84  C   UNL A   1      46.494  30.831  28.098  1.00  0.00     0.148 A 
ATOM     85  C   UNL A   1      44.278  31.719  26.626  1.00  0.00     0.002 A 
ATOM     86  C   UNL A   1      46.637  31.840  27.154  1.00  0.00     0.091 A 
ATOM     87  F   UNL A   1      47.539  30.382  28.811  1.00  0.00    -0.205 F 
ATOM     88  C   UNL A   1      45.534  32.279  26.406  1.00  0.00     0.022 A 
BRANCH  86  89
ATOM     89  S   UNL A   1      48.201  32.688  26.919  1.00  0.00     0.127 S 
ATOM     90  O   UNL A   1      48.447  33.249  28.245  1.00  0.00    -0.237 OA
ATOM     91  O   UNL A   1      49.101  31.597  26.541  1.00  0.00    -0.237 OA
ATOM     92  O   UNL A   1      47.971  33.659  25.855  1.00  0.00    -0.744 OA
ENDBRANCH  86  89
ENDBRANCH  59  82
ENDBRANCH  33  34
ENDBRANCH  25  28
ENDBRANCH  23  24
ENDBRANCH  22  23
ENDBRANCH   1  22
TORSDOF 18
ENDMDL
