MODEL 1
REMARK VINA RESULT:     -12.9      0.000      0.000
REMARK SMILES CC(C)c1cc2c(cc1Cl)C=C(C(=O)NCCCCNC(=O)c1ccc(-c3c4nc(c(-c5cccc(S(=O)(=O)[O-])c5F)c5ccc([nH]5)c(-c5cccc(S(=O)(=O)[O-])c5F)c5nc(c(-c6cccc(S(=O)(=O)[O-])c6F)c6ccc3[nH]6)C=C5)C=C4)cc1)[C@@H](C(F)(F)F)O2
REMARK SMILES IDX 18 1 17 2 16 3 15 4 13 5 14 6 12 8 4 9 5 10 9 11 6 12 8 13
REMARK SMILES IDX 10 14 7 15 91 16 11 17 86 18 2 19 1 20 3 21 87 22 88 23
REMARK SMILES IDX 89 24 90 25 19 26 20 27 21 28 22 30 23 31 24 32 85 33 25 34
REMARK SMILES IDX 84 35 26 36 27 37 28 38 78 39 29 40 83 41 77 42 79 43 30 44
REMARK SMILES IDX 82 45 76 46 75 47 31 49 63 50 43 51 62 52 44 53 47 54 61 55
REMARK SMILES IDX 80 56 45 57 46 58 60 60 81 61 48 62 32 63 33 64 41 65 34 66
REMARK SMILES IDX 36 67 42 68 35 69 37 70 38 71 39 72 40 73 64 74 65 75 73 76
REMARK SMILES IDX 66 77 68 78 74 79 67 80 69 81 70 82 71 83 72 84 49 85 50 86
REMARK SMILES IDX 58 87 51 88 53 89 59 90 52 91 54 92 55 93 56 94 57 95
REMARK H PARENT 15 7 20 29 79 48 47 59
REMARK Flexibility Score: inf
ROOT
ATOM      1  C   UNL A   1      36.409  21.027  24.741  1.00  0.00     0.023 C 
ENDROOT
BRANCH   1   2
ATOM      2  C   UNL A   1      35.126  21.812  25.028  1.00  0.00     0.023 C 
BRANCH   2   3
ATOM      3  C   UNL A   1      33.877  20.946  25.170  1.00  0.00     0.116 C 
BRANCH   3   4
ATOM      4  N   UNL A   1      33.158  20.808  23.916  1.00  0.00    -0.352 N 
ATOM      5  C   UNL A   1      32.361  21.583  23.143  1.00  0.00     0.251 C 
ATOM      6  O   UNL A   1      31.941  21.046  22.112  1.00  0.00    -0.270 OA
ATOM      7  H   UNL A   1      33.284  19.914  23.523  1.00  0.00     0.163 HD
BRANCH   5   8
ATOM      8  C   UNL A   1      31.970  22.992  23.446  1.00  0.00     0.067 C 
ATOM      9  C   UNL A   1      31.861  28.074  23.702  1.00  0.00    -0.023 A 
ATOM     10  C   UNL A   1      30.972  27.020  24.019  1.00  0.00     0.052 A 
ATOM     11  C   UNL A   1      33.109  27.707  23.165  1.00  0.00     0.045 A 
ATOM     12  C   UNL A   1      31.297  25.683  23.802  1.00  0.00     0.128 A 
ATOM     13  C   UNL A   1      33.437  26.351  22.966  1.00  0.00     0.032 A 
ATOM     14  Cl  UNL A   1      34.325  28.827  22.669  1.00  0.00    -0.084 Cl
ATOM     15  C   UNL A   1      32.531  25.337  23.274  1.00  0.00     0.019 A 
ATOM     16  O   UNL A   1      30.324  24.769  24.077  1.00  0.00    -0.475 OA
ATOM     17  C   UNL A   1      32.825  23.936  23.005  1.00  0.00     0.025 C 
ATOM     18  C   UNL A   1      30.747  23.385  24.227  1.00  0.00     0.314 C 
BRANCH   9  19
ATOM     19  C   UNL A   1      31.314  29.477  23.957  1.00  0.00     0.014 C 
ATOM     20  C   UNL A   1      29.860  29.797  23.606  1.00  0.00     0.012 C 
ATOM     21  C   UNL A   1      31.577  29.890  25.414  1.00  0.00     0.012 C 
ENDBRANCH   9  19
BRANCH  18  22
ATOM     22  C   UNL A   1      30.876  23.077  25.730  1.00  0.00     0.429 C 
ATOM     23  F   UNL A   1      32.122  23.386  26.169  1.00  0.00    -0.167 F 
ATOM     24  F   UNL A   1      30.013  23.792  26.487  1.00  0.00    -0.167 F 
ATOM     25  F   UNL A   1      30.663  21.771  26.010  1.00  0.00    -0.167 F 
ENDBRANCH  18  22
ENDBRANCH   5   8
ENDBRANCH   3   4
ENDBRANCH   2   3
ENDBRANCH   1   2
BRANCH   1  26
ATOM     26  C   UNL A   1      37.680  21.584  25.379  1.00  0.00     0.116 C 
BRANCH  26  27
ATOM     27  N   UNL A   1      38.727  20.592  25.602  1.00  0.00    -0.352 N 
ATOM     28  C   UNL A   1      39.895  20.751  26.311  1.00  0.00     0.251 C 
ATOM     29  H   UNL A   1      38.580  19.706  25.199  1.00  0.00     0.163 HD
ATOM     30  O   UNL A   1      40.720  19.847  26.373  1.00  0.00    -0.269 OA
BRANCH  28  31
ATOM     31  C   UNL A   1      40.154  22.061  26.943  1.00  0.00     0.039 A 
ATOM     32  C   UNL A   1      39.551  23.212  26.429  1.00  0.00     0.014 A 
ATOM     33  C   UNL A   1      41.105  22.146  27.963  1.00  0.00     0.014 A 
ATOM     34  C   UNL A   1      40.030  24.458  26.814  1.00  0.00     0.010 A 
ATOM     35  C   UNL A   1      41.533  23.402  28.397  1.00  0.00     0.010 A 
ATOM     36  C   UNL A   1      41.045  24.565  27.781  1.00  0.00    -0.014 A 
BRANCH  36  37
ATOM     37  C   UNL A   1      41.604  25.903  28.103  1.00  0.00     0.031 A 
ATOM     38  C   UNL A   1      42.975  26.299  27.621  1.00  0.00     0.074 A 
ATOM     39  C   UNL A   1      40.846  26.784  28.781  1.00  0.00     0.049 A 
ATOM     40  N   UNL A   1      43.601  27.438  27.779  1.00  0.00    -0.248 NA
ATOM     41  C   UNL A   1      43.745  25.297  26.865  1.00  0.00     0.031 C 
ATOM     42  C   UNL A   1      39.506  26.511  29.306  1.00  0.00     0.029 A 
ATOM     43  N   UNL A   1      41.080  28.090  29.127  1.00  0.00    -0.354 N 
ATOM     44  C   UNL A   1      44.847  27.276  27.187  1.00  0.00     0.074 A 
ATOM     45  C   UNL A   1      44.894  25.930  26.659  1.00  0.00     0.031 C 
ATOM     46  C   UNL A   1      39.018  27.631  29.861  1.00  0.00     0.029 A 
ATOM     47  C   UNL A   1      40.024  28.684  29.773  1.00  0.00     0.049 A 
ATOM     48  H   UNL A   1      41.925  28.557  28.930  1.00  0.00     0.167 HD
ATOM     49  C   UNL A   1      45.853  28.173  27.075  1.00  0.00     0.034 A 
ATOM     50  C   UNL A   1      39.877  29.938  30.243  1.00  0.00     0.034 A 
ATOM     51  C   UNL A   1      45.785  29.533  27.538  1.00  0.00     0.049 A 
ATOM     52  C   UNL A   1      40.998  30.922  30.077  1.00  0.00     0.074 A 
ATOM     53  C   UNL A   1      46.744  30.524  27.432  1.00  0.00     0.029 A 
ATOM     54  N   UNL A   1      44.694  30.096  28.179  1.00  0.00    -0.354 N 
ATOM     55  N   UNL A   1      42.142  30.764  29.460  1.00  0.00    -0.248 NA
ATOM     56  C   UNL A   1      40.806  32.256  30.664  1.00  0.00     0.031 C 
ATOM     57  C   UNL A   1      46.230  31.692  28.003  1.00  0.00     0.029 A 
ATOM     58  C   UNL A   1      44.953  31.422  28.470  1.00  0.00     0.049 A 
ATOM     59  H   UNL A   1      43.858  29.621  28.395  1.00  0.00     0.167 HD
ATOM     60  C   UNL A   1      42.807  31.977  29.580  1.00  0.00     0.074 A 
ATOM     61  C   UNL A   1      41.927  32.869  30.305  1.00  0.00     0.031 C 
ATOM     62  C   UNL A   1      44.048  32.311  29.151  1.00  0.00     0.034 A 
BRANCH  49  63
ATOM     63  C   UNL A   1      47.110  27.746  26.370  1.00  0.00     0.023 A 
ATOM     64  C   UNL A   1      48.107  27.071  27.100  1.00  0.00     0.012 A 
ATOM     65  C   UNL A   1      47.254  27.909  24.978  1.00  0.00     0.148 A 
ATOM     66  C   UNL A   1      49.235  26.564  26.455  1.00  0.00     0.002 A 
ATOM     67  C   UNL A   1      48.370  27.382  24.339  1.00  0.00     0.091 A 
ATOM     68  F   UNL A   1      46.296  28.566  24.311  1.00  0.00    -0.205 F 
ATOM     69  C   UNL A   1      49.361  26.711  25.075  1.00  0.00     0.022 A 
BRANCH  67  70
ATOM     70  S   UNL A   1      48.609  27.472  22.561  1.00  0.00     0.127 S 
ATOM     71  O   UNL A   1      47.438  28.245  22.147  1.00  0.00    -0.237 OA
ATOM     72  O   UNL A   1      49.879  28.189  22.458  1.00  0.00    -0.237 OA
ATOM     73  O   UNL A   1      48.641  26.097  22.086  1.00  0.00    -0.744 OA
ENDBRANCH  67  70
ENDBRANCH  49  63
BRANCH  50  74
ATOM     74  C   UNL A   1      38.581  30.335  30.854  1.00  0.00     0.023 A 
ATOM     75  C   UNL A   1      38.385  30.135  32.234  1.00  0.00     0.012 A 
ATOM     76  C   UNL A   1      37.586  30.989  30.102  1.00  0.00     0.148 A 
ATOM     77  C   UNL A   1      37.218  30.578  32.855  1.00  0.00     0.002 A 
ATOM     78  C   UNL A   1      36.447  31.470  30.735  1.00  0.00     0.091 A 
ATOM     79  F   UNL A   1      37.791  31.152  28.787  1.00  0.00    -0.205 F 
ATOM     80  C   UNL A   1      36.256  31.258  32.110  1.00  0.00     0.022 A 
BRANCH  78  81
ATOM     81  S   UNL A   1      35.224  32.468  29.878  1.00  0.00     0.127 S 
ATOM     82  O   UNL A   1      34.281  32.770  30.952  1.00  0.00    -0.237 OA
ATOM     83  O   UNL A   1      36.026  33.604  29.421  1.00  0.00    -0.237 OA
ATOM     84  O   UNL A   1      34.716  31.625  28.805  1.00  0.00    -0.744 OA
ENDBRANCH  78  81
ENDBRANCH  50  74
BRANCH  62  85
ATOM     85  C   UNL A   1      44.547  33.693  29.456  1.00  0.00     0.023 A 
ATOM     86  C   UNL A   1      45.234  33.916  30.665  1.00  0.00     0.012 A 
ATOM     87  C   UNL A   1      44.439  34.730  28.511  1.00  0.00     0.148 A 
ATOM     88  C   UNL A   1      45.806  35.158  30.931  1.00  0.00     0.002 A 
ATOM     89  C   UNL A   1      45.034  35.958  28.773  1.00  0.00     0.091 A 
ATOM     90  F   UNL A   1      43.767  34.492  27.376  1.00  0.00    -0.205 F 
ATOM     91  C   UNL A   1      45.716  36.174  29.983  1.00  0.00     0.022 A 
BRANCH  89  92
ATOM     92  S   UNL A   1      45.031  37.306  27.585  1.00  0.00     0.127 S 
ATOM     93  O   UNL A   1      45.802  36.733  26.484  1.00  0.00    -0.237 OA
ATOM     94  O   UNL A   1      43.604  37.473  27.310  1.00  0.00    -0.237 OA
ATOM     95  O   UNL A   1      45.654  38.437  28.259  1.00  0.00    -0.744 OA
ENDBRANCH  89  92
ENDBRANCH  62  85
ENDBRANCH  36  37
ENDBRANCH  28  31
ENDBRANCH  26  27
ENDBRANCH   1  26
TORSDOF 16
ENDMDL
MODEL 2
REMARK VINA RESULT:     -12.9      1.967      2.491
REMARK SMILES CC(C)c1cc2c(cc1Cl)C=C(C(=O)NCCCCNC(=O)c1ccc(-c3c4nc(c(-c5cccc(S(=O)(=O)[O-])c5F)c5ccc([nH]5)c(-c5cccc(S(=O)(=O)[O-])c5F)c5nc(c(-c6cccc(S(=O)(=O)[O-])c6F)c6ccc3[nH]6)C=C5)C=C4)cc1)[C@@H](C(F)(F)F)O2
REMARK SMILES IDX 18 1 17 2 16 3 15 4 13 5 14 6 12 8 4 9 5 10 9 11 6 12 8 13
REMARK SMILES IDX 10 14 7 15 91 16 11 17 86 18 2 19 1 20 3 21 87 22 88 23
REMARK SMILES IDX 89 24 90 25 19 26 20 27 21 28 22 30 23 31 24 32 85 33 25 34
REMARK SMILES IDX 84 35 26 36 27 37 28 38 78 39 29 40 83 41 77 42 79 43 30 44
REMARK SMILES IDX 82 45 76 46 75 47 31 49 63 50 43 51 62 52 44 53 47 54 61 55
REMARK SMILES IDX 80 56 45 57 46 58 60 60 81 61 48 62 32 63 33 64 41 65 34 66
REMARK SMILES IDX 36 67 42 68 35 69 37 70 38 71 39 72 40 73 64 74 65 75 73 76
REMARK SMILES IDX 66 77 68 78 74 79 67 80 69 81 70 82 71 83 72 84 49 85 50 86
REMARK SMILES IDX 58 87 51 88 53 89 59 90 52 91 54 92 55 93 56 94 57 95
REMARK H PARENT 15 7 20 29 79 48 47 59
REMARK Flexibility Score: inf
ROOT
ATOM      1  C   UNL A   1      35.405  22.066  24.384  1.00  0.00     0.023 C 
ENDROOT
BRANCH   1   2
ATOM      2  C   UNL A   1      33.994  21.483  24.508  1.00  0.00     0.023 C 
BRANCH   2   3
ATOM      3  C   UNL A   1      32.878  22.523  24.480  1.00  0.00     0.116 C 
BRANCH   3   4
ATOM      4  N   UNL A   1      32.434  22.890  25.814  1.00  0.00    -0.352 N 
ATOM      5  C   UNL A   1      31.951  23.997  26.425  1.00  0.00     0.251 C 
ATOM      6  O   UNL A   1      31.692  23.868  27.626  1.00  0.00    -0.270 OA
ATOM      7  H   UNL A   1      32.503  22.132  26.439  1.00  0.00     0.163 HD
BRANCH   5   8
ATOM      8  C   UNL A   1      31.721  25.317  25.764  1.00  0.00     0.067 C 
ATOM      9  C   UNL A   1      29.560  29.293  23.435  1.00  0.00    -0.023 A 
ATOM     10  C   UNL A   1      30.807  29.029  24.051  1.00  0.00     0.052 A 
ATOM     11  C   UNL A   1      28.622  28.244  23.435  1.00  0.00     0.045 A 
ATOM     12  C   UNL A   1      31.098  27.801  24.644  1.00  0.00     0.128 A 
ATOM     13  C   UNL A   1      28.930  27.000  24.020  1.00  0.00     0.032 A 
ATOM     14  Cl  UNL A   1      27.030  28.361  22.779  1.00  0.00    -0.084 Cl
ATOM     15  C   UNL A   1      30.163  26.778  24.634  1.00  0.00     0.019 A 
ATOM     16  O   UNL A   1      32.303  27.701  25.270  1.00  0.00    -0.475 OA
ATOM     17  C   UNL A   1      30.470  25.524  25.308  1.00  0.00     0.025 C 
ATOM     18  C   UNL A   1      32.786  26.357  25.553  1.00  0.00     0.314 C 
BRANCH   9  19
ATOM     19  C   UNL A   1      29.401  30.710  22.887  1.00  0.00     0.014 C 
ATOM     20  C   UNL A   1      28.835  30.917  21.481  1.00  0.00     0.012 C 
ATOM     21  C   UNL A   1      28.603  31.573  23.878  1.00  0.00     0.012 C 
ENDBRANCH   9  19
BRANCH  18  22
ATOM     22  C   UNL A   1      33.794  25.964  24.458  1.00  0.00     0.429 C 
ATOM     23  F   UNL A   1      33.168  25.287  23.462  1.00  0.00    -0.167 F 
ATOM     24  F   UNL A   1      34.387  27.034  23.882  1.00  0.00    -0.167 F 
ATOM     25  F   UNL A   1      34.781  25.167  24.927  1.00  0.00    -0.167 F 
ENDBRANCH  18  22
ENDBRANCH   5   8
ENDBRANCH   3   4
ENDBRANCH   2   3
ENDBRANCH   1   2
BRANCH   1  26
ATOM     26  C   UNL A   1      36.315  21.853  25.592  1.00  0.00     0.116 C 
BRANCH  26  27
ATOM     27  N   UNL A   1      37.395  20.895  25.371  1.00  0.00    -0.352 N 
ATOM     28  C   UNL A   1      38.714  21.023  25.736  1.00  0.00     0.251 C 
ATOM     29  H   UNL A   1      37.149  20.062  24.908  1.00  0.00     0.163 HD
ATOM     30  O   UNL A   1      39.534  20.162  25.437  1.00  0.00    -0.269 OA
BRANCH  28  31
ATOM     31  C   UNL A   1      39.128  22.253  26.442  1.00  0.00     0.039 A 
ATOM     32  C   UNL A   1      38.561  23.480  26.089  1.00  0.00     0.014 A 
ATOM     33  C   UNL A   1      40.178  22.187  27.360  1.00  0.00     0.014 A 
ATOM     34  C   UNL A   1      39.164  24.655  26.522  1.00  0.00     0.010 A 
ATOM     35  C   UNL A   1      40.735  23.371  27.848  1.00  0.00     0.010 A 
ATOM     36  C   UNL A   1      40.274  24.612  27.383  1.00  0.00    -0.014 A 
BRANCH  36  37
ATOM     37  C   UNL A   1      40.956  25.878  27.753  1.00  0.00     0.031 A 
ATOM     38  C   UNL A   1      42.348  26.175  27.258  1.00  0.00     0.074 A 
ATOM     39  C   UNL A   1      40.293  26.790  28.488  1.00  0.00     0.049 A 
ATOM     40  N   UNL A   1      43.076  27.244  27.454  1.00  0.00    -0.248 NA
ATOM     41  C   UNL A   1      43.011  25.145  26.439  1.00  0.00     0.031 C 
ATOM     42  C   UNL A   1      38.945  26.612  29.030  1.00  0.00     0.029 A 
ATOM     43  N   UNL A   1      40.650  28.052  28.887  1.00  0.00    -0.354 N 
ATOM     44  C   UNL A   1      44.292  27.001  26.826  1.00  0.00     0.074 A 
ATOM     45  C   UNL A   1      44.207  25.683  26.236  1.00  0.00     0.031 C 
ATOM     46  C   UNL A   1      38.568  27.742  29.647  1.00  0.00     0.029 A 
ATOM     47  C   UNL A   1      39.663  28.706  29.584  1.00  0.00     0.049 A 
ATOM     48  H   UNL A   1      41.529  28.452  28.693  1.00  0.00     0.167 HD
ATOM     49  C   UNL A   1      45.372  27.810  26.732  1.00  0.00     0.034 A 
ATOM     50  C   UNL A   1      39.637  29.945  30.114  1.00  0.00     0.034 A 
ATOM     51  C   UNL A   1      45.433  29.147  27.258  1.00  0.00     0.049 A 
ATOM     52  C   UNL A   1      40.839  30.832  29.968  1.00  0.00     0.074 A 
ATOM     53  C   UNL A   1      46.476  30.053  27.175  1.00  0.00     0.029 A 
ATOM     54  N   UNL A   1      44.410  29.773  27.949  1.00  0.00    -0.354 N 
ATOM     55  N   UNL A   1      41.952  30.603  29.317  1.00  0.00    -0.248 NA
ATOM     56  C   UNL A   1      40.778  32.148  30.619  1.00  0.00     0.031 C 
ATOM     57  C   UNL A   1      46.079  31.234  27.811  1.00  0.00     0.029 A 
ATOM     58  C   UNL A   1      44.792  31.056  28.294  1.00  0.00     0.049 A 
ATOM     59  H   UNL A   1      43.539  29.365  28.162  1.00  0.00     0.167 HD
ATOM     60  C   UNL A   1      42.725  31.745  29.477  1.00  0.00     0.074 A 
ATOM     61  C   UNL A   1      41.942  32.676  30.263  1.00  0.00     0.031 C 
ATOM     62  C   UNL A   1      43.983  31.988  29.035  1.00  0.00     0.034 A 
BRANCH  49  63
ATOM     63  C   UNL A   1      46.572  27.308  25.979  1.00  0.00     0.023 A 
ATOM     64  C   UNL A   1      46.649  27.528  24.591  1.00  0.00     0.012 A 
ATOM     65  C   UNL A   1      47.662  26.725  26.655  1.00  0.00     0.148 A 
ATOM     66  C   UNL A   1      47.795  27.174  23.881  1.00  0.00     0.002 A 
ATOM     67  C   UNL A   1      48.810  26.395  25.944  1.00  0.00     0.091 A 
ATOM     68  F   UNL A   1      47.556  26.516  27.974  1.00  0.00    -0.205 F 
ATOM     69  C   UNL A   1      48.878  26.617  24.559  1.00  0.00     0.022 A 
BRANCH  67  70
ATOM     70  S   UNL A   1      50.279  25.718  26.725  1.00  0.00     0.127 S 
ATOM     71  O   UNL A   1      49.773  24.450  27.251  1.00  0.00    -0.237 OA
ATOM     72  O   UNL A   1      51.196  25.586  25.594  1.00  0.00    -0.237 OA
ATOM     73  O   UNL A   1      50.685  26.686  27.733  1.00  0.00    -0.744 OA
ENDBRANCH  67  70
ENDBRANCH  49  63
BRANCH  50  74
ATOM     74  C   UNL A   1      38.394  30.425  30.772  1.00  0.00     0.023 A 
ATOM     75  C   UNL A   1      38.242  30.246  32.160  1.00  0.00     0.012 A 
ATOM     76  C   UNL A   1      37.413  31.134  30.055  1.00  0.00     0.148 A 
ATOM     77  C   UNL A   1      37.130  30.765  32.823  1.00  0.00     0.002 A 
ATOM     78  C   UNL A   1      36.331  31.689  30.728  1.00  0.00     0.091 A 
ATOM     79  F   UNL A   1      37.574  31.276  28.731  1.00  0.00    -0.205 F 
ATOM     80  C   UNL A   1      36.183  31.498  32.111  1.00  0.00     0.022 A 
BRANCH  78  81
ATOM     81  S   UNL A   1      35.139  32.755  29.911  1.00  0.00     0.127 S 
ATOM     82  O   UNL A   1      34.236  33.089  31.009  1.00  0.00    -0.237 OA
ATOM     83  O   UNL A   1      35.984  33.857  29.449  1.00  0.00    -0.237 OA
ATOM     84  O   UNL A   1      34.567  31.952  28.839  1.00  0.00    -0.744 OA
ENDBRANCH  78  81
ENDBRANCH  50  74
BRANCH  62  85
ATOM     85  C   UNL A   1      44.609  33.304  29.392  1.00  0.00     0.023 A 
ATOM     86  C   UNL A   1      45.402  33.388  30.553  1.00  0.00     0.012 A 
ATOM     87  C   UNL A   1      44.510  34.414  28.531  1.00  0.00     0.148 A 
ATOM     88  C   UNL A   1      46.086  34.563  30.855  1.00  0.00     0.002 A 
ATOM     89  C   UNL A   1      45.217  35.573  28.826  1.00  0.00     0.091 A 
ATOM     90  F   UNL A   1      43.737  34.308  27.441  1.00  0.00    -0.205 F 
ATOM     91  C   UNL A   1      46.004  35.650  29.988  1.00  0.00     0.022 A 
BRANCH  89  92
ATOM     92  S   UNL A   1      45.227  37.001  27.736  1.00  0.00     0.127 S 
ATOM     93  O   UNL A   1      45.768  36.430  26.504  1.00  0.00    -0.237 OA
ATOM     94  O   UNL A   1      43.809  37.355  27.676  1.00  0.00    -0.237 OA
ATOM     95  O   UNL A   1      46.072  37.995  28.385  1.00  0.00    -0.744 OA
ENDBRANCH  89  92
ENDBRANCH  62  85
ENDBRANCH  36  37
ENDBRANCH  28  31
ENDBRANCH  26  27
ENDBRANCH   1  26
TORSDOF 16
ENDMDL
MODEL 3
REMARK VINA RESULT:     -12.9      4.966      7.952
REMARK SMILES CC(C)c1cc2c(cc1Cl)C=C(C(=O)NCCCCNC(=O)c1ccc(-c3c4nc(c(-c5cccc(S(=O)(=O)[O-])c5F)c5ccc([nH]5)c(-c5cccc(S(=O)(=O)[O-])c5F)c5nc(c(-c6cccc(S(=O)(=O)[O-])c6F)c6ccc3[nH]6)C=C5)C=C4)cc1)[C@@H](C(F)(F)F)O2
REMARK SMILES IDX 18 1 17 2 16 3 15 4 13 5 14 6 12 8 4 9 5 10 9 11 6 12 8 13
REMARK SMILES IDX 10 14 7 15 91 16 11 17 86 18 2 19 1 20 3 21 87 22 88 23
REMARK SMILES IDX 89 24 90 25 19 26 20 27 21 28 22 30 23 31 24 32 85 33 25 34
REMARK SMILES IDX 84 35 26 36 27 37 28 38 78 39 29 40 83 41 77 42 79 43 30 44
REMARK SMILES IDX 82 45 76 46 75 47 31 49 63 50 43 51 62 52 44 53 47 54 61 55
REMARK SMILES IDX 80 56 45 57 46 58 60 60 81 61 48 62 32 63 33 64 41 65 34 66
REMARK SMILES IDX 36 67 42 68 35 69 37 70 38 71 39 72 40 73 64 74 65 75 73 76
REMARK SMILES IDX 66 77 68 78 74 79 67 80 69 81 70 82 71 83 72 84 49 85 50 86
REMARK SMILES IDX 58 87 51 88 53 89 59 90 52 91 54 92 55 93 56 94 57 95
REMARK H PARENT 15 7 20 29 79 48 47 59
REMARK Flexibility Score: inf
ROOT
ATOM      1  C   UNL A   1      33.811  28.738  25.830  1.00  0.00     0.023 C 
ENDROOT
BRANCH   1   2
ATOM      2  C   UNL A   1      32.946  29.547  24.859  1.00  0.00     0.023 C 
BRANCH   2   3
ATOM      3  C   UNL A   1      31.454  29.526  25.176  1.00  0.00     0.116 C 
BRANCH   3   4
ATOM      4  N   UNL A   1      30.720  28.623  24.306  1.00  0.00    -0.352 N 
ATOM      5  C   UNL A   1      30.757  27.307  23.990  1.00  0.00     0.251 C 
ATOM      6  O   UNL A   1      29.916  26.937  23.165  1.00  0.00    -0.270 OA
ATOM      7  H   UNL A   1      30.005  29.092  23.818  1.00  0.00     0.163 HD
BRANCH   5   8
ATOM      8  C   UNL A   1      31.718  26.310  24.553  1.00  0.00     0.067 C 
ATOM      9  C   UNL A   1      35.616  23.093  25.149  1.00  0.00    -0.023 A 
ATOM     10  C   UNL A   1      34.632  23.667  25.990  1.00  0.00     0.052 A 
ATOM     11  C   UNL A   1      35.580  23.464  23.792  1.00  0.00     0.045 A 
ATOM     12  C   UNL A   1      33.681  24.567  25.514  1.00  0.00     0.128 A 
ATOM     13  C   UNL A   1      34.604  24.361  23.315  1.00  0.00     0.032 A 
ATOM     14  Cl  UNL A   1      36.706  22.920  22.603  1.00  0.00    -0.084 Cl
ATOM     15  C   UNL A   1      33.659  24.921  24.174  1.00  0.00     0.019 A 
ATOM     16  O   UNL A   1      32.840  25.107  26.439  1.00  0.00    -0.475 OA
ATOM     17  C   UNL A   1      32.689  25.906  23.712  1.00  0.00     0.025 C 
ATOM     18  C   UNL A   1      31.624  25.730  25.937  1.00  0.00     0.314 C 
BRANCH   9  19
ATOM     19  C   UNL A   1      36.608  22.171  25.856  1.00  0.00     0.014 C 
ATOM     20  C   UNL A   1      36.803  20.741  25.350  1.00  0.00     0.012 C 
ATOM     21  C   UNL A   1      37.981  22.854  25.961  1.00  0.00     0.012 C 
ENDBRANCH   9  19
BRANCH  18  22
ATOM     22  C   UNL A   1      30.467  24.726  26.085  1.00  0.00     0.429 C 
ATOM     23  F   UNL A   1      30.292  24.035  24.931  1.00  0.00    -0.167 F 
ATOM     24  F   UNL A   1      30.689  23.809  27.054  1.00  0.00    -0.167 F 
ATOM     25  F   UNL A   1      29.292  25.331  26.373  1.00  0.00    -0.167 F 
ENDBRANCH  18  22
ENDBRANCH   5   8
ENDBRANCH   3   4
ENDBRANCH   2   3
ENDBRANCH   1   2
BRANCH   1  26
ATOM     26  C   UNL A   1      33.581  29.024  27.313  1.00  0.00     0.116 C 
BRANCH  26  27
ATOM     27  N   UNL A   1      33.726  30.429  27.685  1.00  0.00    -0.352 N 
ATOM     28  C   UNL A   1      34.834  31.043  28.220  1.00  0.00     0.251 C 
ATOM     29  H   UNL A   1      32.940  31.002  27.535  1.00  0.00     0.163 HD
ATOM     30  O   UNL A   1      34.803  32.225  28.541  1.00  0.00    -0.269 OA
BRANCH  28  31
ATOM     31  C   UNL A   1      36.041  30.224  28.454  1.00  0.00     0.039 A 
ATOM     32  C   UNL A   1      36.175  29.509  29.646  1.00  0.00     0.014 A 
ATOM     33  C   UNL A   1      37.091  30.285  27.534  1.00  0.00     0.014 A 
ATOM     34  C   UNL A   1      37.421  29.003  29.997  1.00  0.00     0.010 A 
ATOM     35  C   UNL A   1      38.322  29.714  27.861  1.00  0.00     0.010 A 
ATOM     36  C   UNL A   1      38.513  29.125  29.121  1.00  0.00    -0.014 A 
BRANCH  36  37
ATOM     37  C   UNL A   1      39.854  28.661  29.562  1.00  0.00     0.031 A 
ATOM     38  C   UNL A   1      40.549  27.533  28.847  1.00  0.00     0.074 A 
ATOM     39  C   UNL A   1      40.470  29.301  30.574  1.00  0.00     0.049 A 
ATOM     40  N   UNL A   1      41.734  27.026  29.076  1.00  0.00    -0.248 NA
ATOM     41  C   UNL A   1      39.831  26.888  27.734  1.00  0.00     0.031 C 
ATOM     42  C   UNL A   1      39.892  30.402  31.347  1.00  0.00     0.029 A 
ATOM     43  N   UNL A   1      41.720  29.136  31.110  1.00  0.00    -0.354 N 
ATOM     44  C   UNL A   1      41.885  25.980  28.172  1.00  0.00     0.074 A 
ATOM     45  C   UNL A   1      40.673  25.924  27.384  1.00  0.00     0.031 C 
ATOM     46  C   UNL A   1      40.805  30.847  32.223  1.00  0.00     0.029 A 
ATOM     47  C   UNL A   1      42.012  30.035  32.107  1.00  0.00     0.049 A 
ATOM     48  H   UNL A   1      42.349  28.439  30.811  1.00  0.00     0.167 HD
ATOM     49  C   UNL A   1      42.945  25.157  28.001  1.00  0.00     0.034 A 
ATOM     50  C   UNL A   1      43.128  30.194  32.845  1.00  0.00     0.034 A 
ATOM     51  C   UNL A   1      44.177  25.255  28.735  1.00  0.00     0.049 A 
ATOM     52  C   UNL A   1      44.299  29.286  32.612  1.00  0.00     0.074 A 
ATOM     53  C   UNL A   1      45.319  24.486  28.600  1.00  0.00     0.029 A 
ATOM     54  N   UNL A   1      44.434  26.186  29.728  1.00  0.00    -0.354 N 
ATOM     55  N   UNL A   1      44.441  28.346  31.711  1.00  0.00    -0.248 NA
ATOM     56  C   UNL A   1      45.466  29.464  33.489  1.00  0.00     0.031 C 
ATOM     57  C   UNL A   1      46.272  24.957  29.508  1.00  0.00     0.029 A 
ATOM     58  C   UNL A   1      45.718  26.014  30.212  1.00  0.00     0.049 A 
ATOM     59  H   UNL A   1      43.797  26.867  30.043  1.00  0.00     0.167 HD
ATOM     60  C   UNL A   1      45.712  27.821  31.909  1.00  0.00     0.074 A 
ATOM     61  C   UNL A   1      46.309  28.566  32.997  1.00  0.00     0.031 C 
ATOM     62  C   UNL A   1      46.315  26.795  31.263  1.00  0.00     0.034 A 
BRANCH  49  63
ATOM     63  C   UNL A   1      42.858  24.102  26.934  1.00  0.00     0.023 A 
ATOM     64  C   UNL A   1      43.475  24.336  25.690  1.00  0.00     0.012 A 
ATOM     65  C   UNL A   1      42.273  22.848  27.196  1.00  0.00     0.148 A 
ATOM     66  C   UNL A   1      43.509  23.338  24.718  1.00  0.00     0.002 A 
ATOM     67  C   UNL A   1      42.330  21.850  26.231  1.00  0.00     0.091 A 
ATOM     68  F   UNL A   1      41.683  22.657  28.384  1.00  0.00    -0.205 F 
ATOM     69  C   UNL A   1      42.946  22.093  24.992  1.00  0.00     0.022 A 
BRANCH  67  70
ATOM     70  S   UNL A   1      41.680  20.197  26.498  1.00  0.00     0.127 S 
ATOM     71  O   UNL A   1      40.237  20.442  26.470  1.00  0.00    -0.237 OA
ATOM     72  O   UNL A   1      42.197  19.472  25.338  1.00  0.00    -0.237 OA
ATOM     73  O   UNL A   1      42.207  19.756  27.781  1.00  0.00    -0.744 OA
ENDBRANCH  67  70
ENDBRANCH  49  63
BRANCH  50  74
ATOM     74  C   UNL A   1      43.194  31.308  33.827  1.00  0.00     0.023 A 
ATOM     75  C   UNL A   1      43.750  32.539  33.430  1.00  0.00     0.012 A 
ATOM     76  C   UNL A   1      42.631  31.186  35.112  1.00  0.00     0.148 A 
ATOM     77  C   UNL A   1      43.745  33.631  34.297  1.00  0.00     0.002 A 
ATOM     78  C   UNL A   1      42.586  32.290  35.953  1.00  0.00     0.091 A 
ATOM     79  F   UNL A   1      42.123  29.998  35.471  1.00  0.00    -0.205 F 
ATOM     80  C   UNL A   1      43.150  33.511  35.552  1.00  0.00     0.022 A 
BRANCH  78  81
ATOM     81  S   UNL A   1      41.725  32.259  37.530  1.00  0.00     0.127 S 
ATOM     82  O   UNL A   1      41.769  33.666  37.921  1.00  0.00    -0.237 OA
ATOM     83  O   UNL A   1      40.403  31.767  37.143  1.00  0.00    -0.237 OA
ATOM     84  O   UNL A   1      42.482  31.342  38.370  1.00  0.00    -0.744 OA
ENDBRANCH  78  81
ENDBRANCH  50  74
BRANCH  62  85
ATOM     85  C   UNL A   1      47.691  26.398  31.712  1.00  0.00     0.023 A 
ATOM     86  C   UNL A   1      48.806  27.028  31.126  1.00  0.00     0.012 A 
ATOM     87  C   UNL A   1      47.878  25.498  32.778  1.00  0.00     0.148 A 
ATOM     88  C   UNL A   1      50.092  26.765  31.594  1.00  0.00     0.002 A 
ATOM     89  C   UNL A   1      49.160  25.261  33.257  1.00  0.00     0.091 A 
ATOM     90  F   UNL A   1      46.799  24.903  33.307  1.00  0.00    -0.205 F 
ATOM     91  C   UNL A   1      50.268  25.892  32.664  1.00  0.00     0.022 A 
BRANCH  89  92
ATOM     92  S   UNL A   1      49.483  24.205  34.674  1.00  0.00     0.127 S 
ATOM     93  O   UNL A   1      50.941  24.257  34.757  1.00  0.00    -0.237 OA
ATOM     94  O   UNL A   1      48.783  24.908  35.749  1.00  0.00    -0.237 OA
ATOM     95  O   UNL A   1      48.925  22.901  34.339  1.00  0.00    -0.744 OA
ENDBRANCH  89  92
ENDBRANCH  62  85
ENDBRANCH  36  37
ENDBRANCH  28  31
ENDBRANCH  26  27
ENDBRANCH   1  26
TORSDOF 16
ENDMDL
