MODEL 1
REMARK VINA RESULT:     -13.0      0.000      0.000
REMARK SMILES Cc1cccc(C(=O)Nc2cc(C(=O)NCCCCNC(=O)c3ccc(-c4c5nc(c(-c6cccc(S(=O)(=O)[O-])c6F)c6ccc([nH]6)c(-c6cccc(S(=O)(=O)[O-])c6F)c6nc(c(-c7cccc(S(=O)(=O)[O-])c7F)c7ccc4[nH]7)C=C6)C=C5)cc3)ccc2N2CC[NH+](CC(=O)NC(C)(C)C)CC2)c1
REMARK SMILES IDX 17 1 16 2 15 3 13 4 14 5 12 7 10 8 11 9 88 10 87 11 86 12
REMARK SMILES IDX 9 13 7 14 8 15 6 17 1 18 2 19 3 20 103 21 4 22 5 23 89 24
REMARK SMILES IDX 90 25 102 26 91 27 101 28 92 29 93 31 94 32 95 33 96 34
REMARK SMILES IDX 97 36 98 37 99 38 100 39 18 40 19 41 20 42 21 43 22 45 23 46
REMARK SMILES IDX 24 47 85 48 25 49 84 50 26 51 27 52 28 53 78 54 29 55 83 56
REMARK SMILES IDX 77 57 79 58 30 59 82 60 76 61 75 62 31 64 63 65 43 66 62 67
REMARK SMILES IDX 44 68 47 69 61 70 80 71 45 72 46 73 60 75 81 76 48 77 32 78
REMARK SMILES IDX 33 79 41 80 34 81 36 82 42 83 35 84 37 85 38 86 39 87 40 88
REMARK SMILES IDX 64 89 65 90 73 91 66 92 68 93 74 94 67 95 69 96 70 97 71 98
REMARK SMILES IDX 72 99 49 100 50 101 58 102 51 103 53 104 59 105 52 106
REMARK SMILES IDX 54 107 55 108 56 109 57 110
REMARK H PARENT 15 6 9 16 92 30 96 35 20 44 79 63 47 74
REMARK Flexibility Score: inf
ROOT
ATOM      1  C   UNL A   1      40.328  21.682  27.229  1.00  0.00     0.023 C 
ENDROOT
BRANCH   1   2
ATOM      2  C   UNL A   1      39.278  21.864  26.118  1.00  0.00     0.116 C 
BRANCH   2   3
ATOM      3  N   UNL A   1      38.607  20.629  25.731  1.00  0.00    -0.352 N 
ATOM      4  C   UNL A   1      37.456  20.351  25.028  1.00  0.00     0.251 C 
ATOM      5  O   UNL A   1      37.228  19.170  24.757  1.00  0.00    -0.269 OA
ATOM      6  H   UNL A   1      39.078  19.820  26.039  1.00  0.00     0.163 HD
BRANCH   4   7
ATOM      7  C   UNL A   1      36.483  21.381  24.557  1.00  0.00     0.042 A 
ATOM      8  C   UNL A   1      34.272  22.341  24.493  1.00  0.00     0.065 A 
ATOM      9  C   UNL A   1      35.124  21.287  24.773  1.00  0.00     0.042 A 
ATOM     10  C   UNL A   1      34.701  23.486  23.791  1.00  0.00     0.061 A 
ATOM     11  C   UNL A   1      36.063  23.558  23.495  1.00  0.00     0.029 A 
ATOM     12  C   UNL A   1      36.949  22.539  23.911  1.00  0.00     0.016 A 
BRANCH   8  13
ATOM     13  N   UNL A   1      32.970  22.290  25.019  1.00  0.00    -0.320 N 
ATOM     14  C   UNL A   1      32.157  21.168  25.126  1.00  0.00     0.255 C 
ATOM     15  O   UNL A   1      31.151  21.234  25.835  1.00  0.00    -0.269 OA
ATOM     16  H   UNL A   1      32.593  23.139  25.345  1.00  0.00     0.170 HD
BRANCH  14  17
ATOM     17  C   UNL A   1      32.472  19.870  24.458  1.00  0.00     0.040 A 
ATOM     18  C   UNL A   1      34.507  16.647  24.839  1.00  0.00     0.044 C 
ATOM     19  C   UNL A   1      33.585  17.698  24.288  1.00  0.00    -0.050 A 
ATOM     20  C   UNL A   1      33.243  17.649  22.935  1.00  0.00     0.003 A 
ATOM     21  C   UNL A   1      33.139  18.785  25.062  1.00  0.00     0.017 A 
ATOM     22  C   UNL A   1      32.502  18.680  22.365  1.00  0.00     0.001 A 
ATOM     23  C   UNL A   1      32.112  19.783  23.115  1.00  0.00     0.014 A 
ENDBRANCH  14  17
ENDBRANCH   8  13
BRANCH  10  24
ATOM     24  N   UNL A   1      33.816  24.522  23.567  1.00  0.00    -0.359 N 
ATOM     25  C   UNL A   1      33.128  24.821  22.307  1.00  0.00     0.178 C 
ATOM     26  C   UNL A   1      34.023  25.717  24.381  1.00  0.00     0.178 C 
ATOM     27  C   UNL A   1      31.832  25.667  22.592  1.00  0.00     0.284 C 
ATOM     28  C   UNL A   1      32.643  26.250  24.796  1.00  0.00     0.284 C 
ATOM     29  N   UNL A   1      31.850  26.707  23.654  1.00  0.00    -0.324 N 
ATOM     30  H   UNL A   1      30.872  26.803  23.927  1.00  0.00     0.348 HD
BRANCH  29  31
ATOM     31  C   UNL A   1      32.164  28.091  23.251  1.00  0.00     0.363 C 
BRANCH  31  32
ATOM     32  C   UNL A   1      31.608  29.194  24.145  1.00  0.00     0.275 C 
ATOM     33  O   UNL A   1      32.234  29.522  25.163  1.00  0.00    -0.268 OA
ATOM     34  N   UNL A   1      30.441  29.863  23.920  1.00  0.00    -0.347 N 
ATOM     35  H   UNL A   1      30.345  30.594  24.571  1.00  0.00     0.164 HD
BRANCH  34  36
ATOM     36  C   UNL A   1      29.262  29.842  23.001  1.00  0.00     0.032 C 
ATOM     37  C   UNL A   1      28.486  28.511  23.079  1.00  0.00     0.034 C 
ATOM     38  C   UNL A   1      28.290  30.919  23.536  1.00  0.00     0.034 C 
ATOM     39  C   UNL A   1      29.571  30.185  21.542  1.00  0.00     0.034 C 
ENDBRANCH  34  36
ENDBRANCH  31  32
ENDBRANCH  29  31
ENDBRANCH  10  24
ENDBRANCH   4   7
ENDBRANCH   2   3
ENDBRANCH   1   2
BRANCH   1  40
ATOM     40  C   UNL A   1      41.660  22.359  26.943  1.00  0.00     0.023 C 
BRANCH  40  41
ATOM     41  C   UNL A   1      42.136  22.127  25.523  1.00  0.00     0.116 C 
BRANCH  41  42
ATOM     42  N   UNL A   1      43.117  21.072  25.385  1.00  0.00    -0.352 N 
ATOM     43  C   UNL A   1      44.497  21.171  25.337  1.00  0.00     0.251 C 
ATOM     44  H   UNL A   1      42.754  20.159  25.315  1.00  0.00     0.163 HD
ATOM     45  O   UNL A   1      45.134  20.201  24.930  1.00  0.00    -0.269 OA
BRANCH  43  46
ATOM     46  C   UNL A   1      45.190  22.352  25.923  1.00  0.00     0.039 A 
ATOM     47  C   UNL A   1      45.240  22.432  27.322  1.00  0.00     0.014 A 
ATOM     48  C   UNL A   1      45.510  23.472  25.163  1.00  0.00     0.014 A 
ATOM     49  C   UNL A   1      45.301  23.677  27.941  1.00  0.00     0.010 A 
ATOM     50  C   UNL A   1      45.455  24.709  25.756  1.00  0.00     0.010 A 
ATOM     51  C   UNL A   1      45.266  24.805  27.137  1.00  0.00    -0.014 A 
BRANCH  51  52
ATOM     52  C   UNL A   1      45.004  26.152  27.601  1.00  0.00     0.031 A 
ATOM     53  C   UNL A   1      43.655  26.710  27.473  1.00  0.00     0.074 A 
ATOM     54  C   UNL A   1      45.932  26.711  28.406  1.00  0.00     0.049 A 
ATOM     55  N   UNL A   1      43.341  27.922  27.765  1.00  0.00    -0.248 NA
ATOM     56  C   UNL A   1      42.550  25.928  26.939  1.00  0.00     0.031 C 
ATOM     57  C   UNL A   1      45.733  27.733  29.422  1.00  0.00     0.029 A 
ATOM     58  N   UNL A   1      47.319  26.596  28.290  1.00  0.00    -0.354 N 
ATOM     59  C   UNL A   1      41.966  27.999  27.748  1.00  0.00     0.074 A 
ATOM     60  C   UNL A   1      41.540  26.784  27.101  1.00  0.00     0.031 C 
ATOM     61  C   UNL A   1      46.908  28.338  29.654  1.00  0.00     0.029 A 
ATOM     62  C   UNL A   1      47.842  27.846  28.653  1.00  0.00     0.049 A 
ATOM     63  H   UNL A   1      47.826  25.799  28.012  1.00  0.00     0.167 HD
ATOM     64  C   UNL A   1      41.370  29.010  28.440  1.00  0.00     0.034 A 
ATOM     65  C   UNL A   1      48.622  28.616  27.843  1.00  0.00     0.034 A 
ATOM     66  C   UNL A   1      42.383  29.991  28.885  1.00  0.00     0.049 A 
ATOM     67  C   UNL A   1      47.999  29.976  27.625  1.00  0.00     0.074 A 
ATOM     68  C   UNL A   1      43.021  30.211  30.095  1.00  0.00     0.029 A 
ATOM     69  N   UNL A   1      43.104  30.710  27.931  1.00  0.00    -0.354 N 
ATOM     70  N   UNL A   1      46.764  30.258  27.938  1.00  0.00    -0.248 NA
ATOM     71  C   UNL A   1      48.701  31.124  27.064  1.00  0.00     0.031 C 
ATOM     72  C   UNL A   1      44.193  30.977  29.840  1.00  0.00     0.029 A 
ATOM     73  C   UNL A   1      44.250  31.264  28.485  1.00  0.00     0.049 A 
ATOM     74  H   UNL A   1      42.836  30.810  26.989  1.00  0.00     0.167 HD
ATOM     75  C   UNL A   1      46.463  31.538  27.575  1.00  0.00     0.074 A 
ATOM     76  C   UNL A   1      47.731  32.057  27.082  1.00  0.00     0.031 C 
ATOM     77  C   UNL A   1      45.190  32.032  27.663  1.00  0.00     0.034 A 
BRANCH  64  78
ATOM     78  C   UNL A   1      39.938  28.983  28.980  1.00  0.00     0.023 A 
ATOM     79  C   UNL A   1      38.892  29.099  28.034  1.00  0.00     0.012 A 
ATOM     80  C   UNL A   1      39.524  28.945  30.335  1.00  0.00     0.148 A 
ATOM     81  C   UNL A   1      37.547  29.241  28.406  1.00  0.00     0.002 A 
ATOM     82  C   UNL A   1      38.187  29.112  30.711  1.00  0.00     0.091 A 
ATOM     83  F   UNL A   1      40.404  28.708  31.302  1.00  0.00    -0.205 F 
ATOM     84  C   UNL A   1      37.194  29.267  29.747  1.00  0.00     0.022 A 
BRANCH  82  85
ATOM     85  S   UNL A   1      37.666  29.179  32.440  1.00  0.00     0.127 S 
ATOM     86  O   UNL A   1      38.638  30.109  33.017  1.00  0.00    -0.237 OA
ATOM     87  O   UNL A   1      36.307  29.707  32.335  1.00  0.00    -0.237 OA
ATOM     88  O   UNL A   1      37.761  27.818  32.956  1.00  0.00    -0.744 OA
ENDBRANCH  82  85
ENDBRANCH  64  78
BRANCH  65  89
ATOM     89  C   UNL A   1      49.442  27.827  26.876  1.00  0.00     0.023 A 
ATOM     90  C   UNL A   1      48.965  27.792  25.542  1.00  0.00     0.012 A 
ATOM     91  C   UNL A   1      50.803  27.567  27.110  1.00  0.00     0.148 A 
ATOM     92  C   UNL A   1      49.849  27.715  24.465  1.00  0.00     0.002 A 
ATOM     93  C   UNL A   1      51.679  27.472  26.027  1.00  0.00     0.091 A 
ATOM     94  F   UNL A   1      51.234  27.519  28.376  1.00  0.00    -0.205 F 
ATOM     95  C   UNL A   1      51.212  27.601  24.709  1.00  0.00     0.022 A 
BRANCH  93  96
ATOM     96  S   UNL A   1      53.456  27.334  26.272  1.00  0.00     0.127 S 
ATOM     97  O   UNL A   1      53.562  26.039  26.935  1.00  0.00    -0.237 OA
ATOM     98  O   UNL A   1      53.969  27.369  24.903  1.00  0.00    -0.237 OA
ATOM     99  O   UNL A   1      53.807  28.502  27.067  1.00  0.00    -0.744 OA
ENDBRANCH  93  96
ENDBRANCH  65  89
BRANCH  77 100
ATOM    100  C   UNL A   1      44.718  33.297  26.972  1.00  0.00     0.023 A 
ATOM    101  C   UNL A   1      44.178  33.281  25.671  1.00  0.00     0.012 A 
ATOM    102  C   UNL A   1      44.639  34.527  27.674  1.00  0.00     0.148 A 
ATOM    103  C   UNL A   1      43.652  34.427  25.067  1.00  0.00     0.002 A 
ATOM    104  C   UNL A   1      43.999  35.630  27.117  1.00  0.00     0.091 A 
ATOM    105  F   UNL A   1      45.197  34.643  28.887  1.00  0.00    -0.205 F 
ATOM    106  C   UNL A   1      43.537  35.597  25.800  1.00  0.00     0.022 A 
BRANCH 104 107
ATOM    107  S   UNL A   1      43.582  37.060  28.125  1.00  0.00     0.127 S 
ATOM    108  O   UNL A   1      42.811  37.876  27.191  1.00  0.00    -0.237 OA
ATOM    109  O   UNL A   1      42.797  36.464  29.207  1.00  0.00    -0.237 OA
ATOM    110  O   UNL A   1      44.865  37.604  28.552  1.00  0.00    -0.744 OA
ENDBRANCH 104 107
ENDBRANCH  77 100
ENDBRANCH  51  52
ENDBRANCH  43  46
ENDBRANCH  41  42
ENDBRANCH  40  41
ENDBRANCH   1  40
TORSDOF 20
ENDMDL
MODEL 2
REMARK VINA RESULT:     -12.7      5.546     11.571
REMARK SMILES Cc1cccc(C(=O)Nc2cc(C(=O)NCCCCNC(=O)c3ccc(-c4c5nc(c(-c6cccc(S(=O)(=O)[O-])c6F)c6ccc([nH]6)c(-c6cccc(S(=O)(=O)[O-])c6F)c6nc(c(-c7cccc(S(=O)(=O)[O-])c7F)c7ccc4[nH]7)C=C6)C=C5)cc3)ccc2N2CC[NH+](CC(=O)NC(C)(C)C)CC2)c1
REMARK SMILES IDX 17 1 16 2 15 3 13 4 14 5 12 7 10 8 11 9 88 10 87 11 86 12
REMARK SMILES IDX 9 13 7 14 8 15 6 17 1 18 2 19 3 20 103 21 4 22 5 23 89 24
REMARK SMILES IDX 90 25 102 26 91 27 101 28 92 29 93 31 94 32 95 33 96 34
REMARK SMILES IDX 97 36 98 37 99 38 100 39 18 40 19 41 20 42 21 43 22 45 23 46
REMARK SMILES IDX 24 47 85 48 25 49 84 50 26 51 27 52 28 53 78 54 29 55 83 56
REMARK SMILES IDX 77 57 79 58 30 59 82 60 76 61 75 62 31 64 63 65 43 66 62 67
REMARK SMILES IDX 44 68 47 69 61 70 80 71 45 72 46 73 60 75 81 76 48 77 32 78
REMARK SMILES IDX 33 79 41 80 34 81 36 82 42 83 35 84 37 85 38 86 39 87 40 88
REMARK SMILES IDX 64 89 65 90 73 91 66 92 68 93 74 94 67 95 69 96 70 97 71 98
REMARK SMILES IDX 72 99 49 100 50 101 58 102 51 103 53 104 59 105 52 106
REMARK SMILES IDX 54 107 55 108 56 109 57 110
REMARK H PARENT 15 6 9 16 92 30 96 35 20 44 79 63 47 74
REMARK Flexibility Score: inf
ROOT
ATOM      1  C   UNL A   1      35.551  32.283  28.324  1.00  0.00     0.023 C 
ENDROOT
BRANCH   1   2
ATOM      2  C   UNL A   1      34.725  31.003  28.102  1.00  0.00     0.116 C 
BRANCH   2   3
ATOM      3  N   UNL A   1      33.552  31.196  27.258  1.00  0.00    -0.352 N 
ATOM      4  C   UNL A   1      32.709  30.337  26.591  1.00  0.00     0.251 C 
ATOM      5  O   UNL A   1      31.710  30.823  26.056  1.00  0.00    -0.269 OA
ATOM      6  H   UNL A   1      33.313  32.144  27.140  1.00  0.00     0.163 HD
BRANCH   4   7
ATOM      7  C   UNL A   1      32.911  28.861  26.491  1.00  0.00     0.042 A 
ATOM      8  C   UNL A   1      32.118  26.592  26.683  1.00  0.00     0.065 A 
ATOM      9  C   UNL A   1      31.993  27.942  26.957  1.00  0.00     0.042 A 
ATOM     10  C   UNL A   1      33.279  26.050  26.095  1.00  0.00     0.061 A 
ATOM     11  C   UNL A   1      34.254  26.964  25.690  1.00  0.00     0.029 A 
ATOM     12  C   UNL A   1      34.052  28.353  25.846  1.00  0.00     0.016 A 
BRANCH   8  13
ATOM     13  N   UNL A   1      31.004  25.768  26.918  1.00  0.00    -0.320 N 
ATOM     14  C   UNL A   1      29.928  25.556  26.065  1.00  0.00     0.255 C 
ATOM     15  O   UNL A   1      29.164  24.619  26.301  1.00  0.00    -0.269 OA
ATOM     16  H   UNL A   1      30.983  25.291  27.779  1.00  0.00     0.170 HD
BRANCH  14  17
ATOM     17  C   UNL A   1      29.683  26.385  24.846  1.00  0.00     0.040 A 
ATOM     18  C   UNL A   1      31.323  28.920  22.489  1.00  0.00     0.044 C 
ATOM     19  C   UNL A   1      30.318  27.996  23.119  1.00  0.00    -0.050 A 
ATOM     20  C   UNL A   1      28.971  28.137  22.781  1.00  0.00     0.003 A 
ATOM     21  C   UNL A   1      30.675  27.066  24.113  1.00  0.00     0.017 A 
ATOM     22  C   UNL A   1      28.003  27.390  23.444  1.00  0.00     0.001 A 
ATOM     23  C   UNL A   1      28.348  26.515  24.467  1.00  0.00     0.014 A 
ENDBRANCH  14  17
ENDBRANCH   8  13
BRANCH  10  24
ATOM     24  N   UNL A   1      33.338  24.699  25.815  1.00  0.00    -0.359 N 
ATOM     25  C   UNL A   1      34.053  23.680  26.590  1.00  0.00     0.178 C 
ATOM     26  C   UNL A   1      33.224  24.341  24.404  1.00  0.00     0.178 C 
ATOM     27  C   UNL A   1      33.434  22.261  26.310  1.00  0.00     0.284 C 
ATOM     28  C   UNL A   1      32.351  23.079  24.306  1.00  0.00     0.284 C 
ATOM     29  N   UNL A   1      32.973  21.915  24.940  1.00  0.00    -0.324 N 
ATOM     30  H   UNL A   1      32.276  21.186  25.087  1.00  0.00     0.348 HD
BRANCH  29  31
ATOM     31  C   UNL A   1      33.925  21.218  24.055  1.00  0.00     0.363 C 
BRANCH  31  32
ATOM     32  C   UNL A   1      34.800  20.157  24.713  1.00  0.00     0.275 C 
ATOM     33  O   UNL A   1      35.907  20.481  25.168  1.00  0.00    -0.268 OA
ATOM     34  N   UNL A   1      34.465  18.841  24.838  1.00  0.00    -0.347 N 
ATOM     35  H   UNL A   1      35.139  18.376  25.385  1.00  0.00     0.164 HD
BRANCH  34  36
ATOM     36  C   UNL A   1      33.404  17.878  24.412  1.00  0.00     0.032 C 
ATOM     37  C   UNL A   1      32.497  18.462  23.309  1.00  0.00     0.034 C 
ATOM     38  C   UNL A   1      34.147  16.693  23.754  1.00  0.00     0.034 C 
ATOM     39  C   UNL A   1      32.550  17.311  25.548  1.00  0.00     0.034 C 
ENDBRANCH  34  36
ENDBRANCH  31  32
ENDBRANCH  29  31
ENDBRANCH  10  24
ENDBRANCH   4   7
ENDBRANCH   2   3
ENDBRANCH   1   2
BRANCH   1  40
ATOM     40  C   UNL A   1      34.825  33.566  27.947  1.00  0.00     0.023 C 
BRANCH  40  41
ATOM     41  C   UNL A   1      35.199  34.729  28.843  1.00  0.00     0.116 C 
BRANCH  41  42
ATOM     42  N   UNL A   1      34.101  35.269  29.616  1.00  0.00    -0.352 N 
ATOM     43  C   UNL A   1      33.649  34.886  30.867  1.00  0.00     0.251 C 
ATOM     44  H   UNL A   1      33.606  36.009  29.195  1.00  0.00     0.163 HD
ATOM     45  O   UNL A   1      32.537  35.268  31.225  1.00  0.00    -0.269 OA
BRANCH  43  46
ATOM     46  C   UNL A   1      34.558  34.178  31.813  1.00  0.00     0.039 A 
ATOM     47  C   UNL A   1      35.583  34.935  32.398  1.00  0.00     0.014 A 
ATOM     48  C   UNL A   1      34.599  32.791  31.899  1.00  0.00     0.014 A 
ATOM     49  C   UNL A   1      36.770  34.314  32.778  1.00  0.00     0.010 A 
ATOM     50  C   UNL A   1      35.802  32.182  32.161  1.00  0.00     0.010 A 
ATOM     51  C   UNL A   1      36.906  32.959  32.519  1.00  0.00    -0.014 A 
BRANCH  51  52
ATOM     52  C   UNL A   1      38.154  32.226  32.550  1.00  0.00     0.031 A 
ATOM     53  C   UNL A   1      38.252  30.939  31.857  1.00  0.00     0.074 A 
ATOM     54  C   UNL A   1      39.251  32.904  32.949  1.00  0.00     0.049 A 
ATOM     55  N   UNL A   1      39.280  30.167  31.901  1.00  0.00    -0.248 NA
ATOM     56  C   UNL A   1      37.141  30.396  31.089  1.00  0.00     0.031 C 
ATOM     57  C   UNL A   1      40.636  32.657  32.580  1.00  0.00     0.029 A 
ATOM     58  N   UNL A   1      39.323  33.849  33.974  1.00  0.00    -0.354 N 
ATOM     59  C   UNL A   1      39.093  29.190  30.949  1.00  0.00     0.074 A 
ATOM     60  C   UNL A   1      37.705  29.300  30.579  1.00  0.00     0.031 C 
ATOM     61  C   UNL A   1      41.430  33.208  33.511  1.00  0.00     0.029 A 
ATOM     62  C   UNL A   1      40.566  33.652  34.594  1.00  0.00     0.049 A 
ATOM     63  H   UNL A   1      38.641  34.518  34.212  1.00  0.00     0.167 HD
ATOM     64  C   UNL A   1      40.191  28.531  30.481  1.00  0.00     0.034 A 
ATOM     65  C   UNL A   1      40.726  33.356  35.915  1.00  0.00     0.034 A 
ATOM     66  C   UNL A   1      41.372  28.856  31.307  1.00  0.00     0.049 A 
ATOM     67  C   UNL A   1      41.473  32.054  36.092  1.00  0.00     0.074 A 
ATOM     68  C   UNL A   1      42.439  29.723  31.135  1.00  0.00     0.029 A 
ATOM     69  N   UNL A   1      41.391  28.483  32.652  1.00  0.00    -0.354 N 
ATOM     70  N   UNL A   1      41.679  31.207  35.120  1.00  0.00    -0.248 NA
ATOM     71  C   UNL A   1      42.061  31.605  37.348  1.00  0.00     0.031 C 
ATOM     72  C   UNL A   1      43.029  29.953  32.410  1.00  0.00     0.029 A 
ATOM     73  C   UNL A   1      42.354  29.194  33.354  1.00  0.00     0.049 A 
ATOM     74  H   UNL A   1      40.797  27.805  33.050  1.00  0.00     0.167 HD
ATOM     75  C   UNL A   1      42.326  30.100  35.586  1.00  0.00     0.074 A 
ATOM     76  C   UNL A   1      42.593  30.425  36.979  1.00  0.00     0.031 C 
ATOM     77  C   UNL A   1      42.533  29.001  34.796  1.00  0.00     0.034 A 
BRANCH  64  78
ATOM     78  C   UNL A   1      40.287  27.835  29.121  1.00  0.00     0.023 A 
ATOM     79  C   UNL A   1      39.513  26.665  28.942  1.00  0.00     0.012 A 
ATOM     80  C   UNL A   1      41.132  28.171  28.035  1.00  0.00     0.148 A 
ATOM     81  C   UNL A   1      39.624  25.849  27.805  1.00  0.00     0.002 A 
ATOM     82  C   UNL A   1      41.266  27.348  26.911  1.00  0.00     0.091 A 
ATOM     83  F   UNL A   1      41.807  29.316  28.034  1.00  0.00    -0.205 F 
ATOM     84  C   UNL A   1      40.516  26.180  26.796  1.00  0.00     0.022 A 
BRANCH  82  85
ATOM     85  S   UNL A   1      42.425  27.710  25.574  1.00  0.00     0.127 S 
ATOM     86  O   UNL A   1      43.701  27.791  26.288  1.00  0.00    -0.237 OA
ATOM     87  O   UNL A   1      42.283  26.538  24.712  1.00  0.00    -0.237 OA
ATOM     88  O   UNL A   1      41.993  28.970  24.978  1.00  0.00    -0.744 OA
ENDBRANCH  82  85
ENDBRANCH  64  78
BRANCH  65  89
ATOM     89  C   UNL A   1      39.647  33.910  36.787  1.00  0.00     0.023 A 
ATOM     90  C   UNL A   1      38.674  32.982  37.236  1.00  0.00     0.012 A 
ATOM     91  C   UNL A   1      39.833  35.095  37.518  1.00  0.00     0.148 A 
ATOM     92  C   UNL A   1      38.063  33.129  38.482  1.00  0.00     0.002 A 
ATOM     93  C   UNL A   1      39.202  35.244  38.756  1.00  0.00     0.091 A 
ATOM     94  F   UNL A   1      40.693  36.007  37.048  1.00  0.00    -0.205 F 
ATOM     95  C   UNL A   1      38.362  34.239  39.262  1.00  0.00     0.022 A 
BRANCH  93  96
ATOM     96  S   UNL A   1      39.553  36.650  39.821  1.00  0.00     0.127 S 
ATOM     97  O   UNL A   1      38.642  36.411  40.934  1.00  0.00    -0.237 OA
ATOM     98  O   UNL A   1      40.969  36.466  40.135  1.00  0.00    -0.237 OA
ATOM     99  O   UNL A   1      39.275  37.815  38.993  1.00  0.00    -0.744 OA
ENDBRANCH  93  96
ENDBRANCH  65  89
BRANCH  77 100
ATOM    100  C   UNL A   1      42.923  27.635  35.325  1.00  0.00     0.023 A 
ATOM    101  C   UNL A   1      42.016  26.819  36.032  1.00  0.00     0.012 A 
ATOM    102  C   UNL A   1      44.166  27.046  34.981  1.00  0.00     0.148 A 
ATOM    103  C   UNL A   1      42.340  25.520  36.436  1.00  0.00     0.002 A 
ATOM    104  C   UNL A   1      44.434  25.712  35.274  1.00  0.00     0.091 A 
ATOM    105  F   UNL A   1      45.111  27.781  34.376  1.00  0.00    -0.205 F 
ATOM    106  C   UNL A   1      43.540  24.956  36.033  1.00  0.00     0.022 A 
BRANCH 104 107
ATOM    107  S   UNL A   1      45.839  24.869  34.533  1.00  0.00     0.127 S 
ATOM    108  O   UNL A   1      45.743  25.287  33.137  1.00  0.00    -0.237 OA
ATOM    109  O   UNL A   1      46.971  25.443  35.265  1.00  0.00    -0.237 OA
ATOM    110  O   UNL A   1      45.614  23.456  34.803  1.00  0.00    -0.744 OA
ENDBRANCH 104 107
ENDBRANCH  77 100
ENDBRANCH  51  52
ENDBRANCH  43  46
ENDBRANCH  41  42
ENDBRANCH  40  41
ENDBRANCH   1  40
TORSDOF 20
ENDMDL
MODEL 3
REMARK VINA RESULT:     -12.4      4.577     10.307
REMARK SMILES Cc1cccc(C(=O)Nc2cc(C(=O)NCCCCNC(=O)c3ccc(-c4c5nc(c(-c6cccc(S(=O)(=O)[O-])c6F)c6ccc([nH]6)c(-c6cccc(S(=O)(=O)[O-])c6F)c6nc(c(-c7cccc(S(=O)(=O)[O-])c7F)c7ccc4[nH]7)C=C6)C=C5)cc3)ccc2N2CC[NH+](CC(=O)NC(C)(C)C)CC2)c1
REMARK SMILES IDX 17 1 16 2 15 3 13 4 14 5 12 7 10 8 11 9 88 10 87 11 86 12
REMARK SMILES IDX 9 13 7 14 8 15 6 17 1 18 2 19 3 20 103 21 4 22 5 23 89 24
REMARK SMILES IDX 90 25 102 26 91 27 101 28 92 29 93 31 94 32 95 33 96 34
REMARK SMILES IDX 97 36 98 37 99 38 100 39 18 40 19 41 20 42 21 43 22 45 23 46
REMARK SMILES IDX 24 47 85 48 25 49 84 50 26 51 27 52 28 53 78 54 29 55 83 56
REMARK SMILES IDX 77 57 79 58 30 59 82 60 76 61 75 62 31 64 63 65 43 66 62 67
REMARK SMILES IDX 44 68 47 69 61 70 80 71 45 72 46 73 60 75 81 76 48 77 32 78
REMARK SMILES IDX 33 79 41 80 34 81 36 82 42 83 35 84 37 85 38 86 39 87 40 88
REMARK SMILES IDX 64 89 65 90 73 91 66 92 68 93 74 94 67 95 69 96 70 97 71 98
REMARK SMILES IDX 72 99 49 100 50 101 58 102 51 103 53 104 59 105 52 106
REMARK SMILES IDX 54 107 55 108 56 109 57 110
REMARK H PARENT 15 6 9 16 92 30 96 35 20 44 79 63 47 74
REMARK Flexibility Score: inf
ROOT
ATOM      1  C   UNL A   1      31.263  30.840  25.517  1.00  0.00     0.023 C 
ENDROOT
BRANCH   1   2
ATOM      2  C   UNL A   1      31.145  29.497  24.774  1.00  0.00     0.116 C 
BRANCH   2   3
ATOM      3  N   UNL A   1      29.807  29.219  24.267  1.00  0.00    -0.352 N 
ATOM      4  C   UNL A   1      29.108  28.061  24.011  1.00  0.00     0.251 C 
ATOM      5  O   UNL A   1      27.920  28.171  23.699  1.00  0.00    -0.269 OA
ATOM      6  H   UNL A   1      29.293  30.034  24.063  1.00  0.00     0.163 HD
BRANCH   4   7
ATOM      7  C   UNL A   1      29.684  26.687  24.106  1.00  0.00     0.042 A 
ATOM      8  C   UNL A   1      30.933  24.839  23.188  1.00  0.00     0.065 A 
ATOM      9  C   UNL A   1      30.242  26.027  23.030  1.00  0.00     0.042 A 
ATOM     10  C   UNL A   1      30.940  24.132  24.407  1.00  0.00     0.061 A 
ATOM     11  C   UNL A   1      30.310  24.751  25.488  1.00  0.00     0.029 A 
ATOM     12  C   UNL A   1      29.729  26.031  25.349  1.00  0.00     0.016 A 
BRANCH   8  13
ATOM     13  N   UNL A   1      31.725  24.394  22.116  1.00  0.00    -0.320 N 
ATOM     14  C   UNL A   1      32.978  24.870  21.749  1.00  0.00     0.255 C 
ATOM     15  O   UNL A   1      33.649  24.212  20.952  1.00  0.00    -0.269 OA
ATOM     16  H   UNL A   1      31.353  23.667  21.566  1.00  0.00     0.170 HD
BRANCH  14  17
ATOM     17  C   UNL A   1      33.567  26.122  22.312  1.00  0.00     0.040 A 
ATOM     18  C   UNL A   1      34.325  27.937  25.599  1.00  0.00     0.044 C 
ATOM     19  C   UNL A   1      34.223  27.617  24.134  1.00  0.00    -0.050 A 
ATOM     20  C   UNL A   1      34.369  28.651  23.208  1.00  0.00     0.003 A 
ATOM     21  C   UNL A   1      33.883  26.333  23.669  1.00  0.00     0.017 A 
ATOM     22  C   UNL A   1      34.147  28.414  21.855  1.00  0.00     0.001 A 
ATOM     23  C   UNL A   1      33.753  27.161  21.402  1.00  0.00     0.014 A 
ENDBRANCH  14  17
ENDBRANCH   8  13
BRANCH  10  24
ATOM     24  N   UNL A   1      31.674  22.967  24.518  1.00  0.00    -0.359 N 
ATOM     25  C   UNL A   1      31.198  21.687  25.052  1.00  0.00     0.178 C 
ATOM     26  C   UNL A   1      33.112  23.141  24.699  1.00  0.00     0.178 C 
ATOM     27  C   UNL A   1      32.087  20.512  24.500  1.00  0.00     0.284 C 
ATOM     28  C   UNL A   1      33.827  22.068  23.862  1.00  0.00     0.284 C 
ATOM     29  N   UNL A   1      33.551  20.711  24.334  1.00  0.00    -0.324 N 
ATOM     30  H   UNL A   1      33.816  20.034  23.619  1.00  0.00     0.348 HD
BRANCH  29  31
ATOM     31  C   UNL A   1      34.427  20.299  25.447  1.00  0.00     0.363 C 
BRANCH  31  32
ATOM     32  C   UNL A   1      35.597  19.391  25.081  1.00  0.00     0.275 C 
ATOM     33  O   UNL A   1      36.732  19.877  24.977  1.00  0.00    -0.268 OA
ATOM     34  N   UNL A   1      35.496  18.053  24.841  1.00  0.00    -0.347 N 
ATOM     35  H   UNL A   1      36.393  17.666  24.726  1.00  0.00     0.164 HD
BRANCH  34  36
ATOM     36  C   UNL A   1      34.460  16.984  24.696  1.00  0.00     0.032 C 
ATOM     37  C   UNL A   1      34.041  16.775  23.226  1.00  0.00     0.034 C 
ATOM     38  C   UNL A   1      35.148  15.667  25.122  1.00  0.00     0.034 C 
ATOM     39  C   UNL A   1      33.220  17.160  25.576  1.00  0.00     0.034 C 
ENDBRANCH  34  36
ENDBRANCH  31  32
ENDBRANCH  29  31
ENDBRANCH  10  24
ENDBRANCH   4   7
ENDBRANCH   2   3
ENDBRANCH   1   2
BRANCH   1  40
ATOM     40  C   UNL A   1      31.815  30.723  26.930  1.00  0.00     0.023 C 
BRANCH  40  41
ATOM     41  C   UNL A   1      33.318  30.535  26.952  1.00  0.00     0.116 C 
BRANCH  41  42
ATOM     42  N   UNL A   1      34.050  31.621  27.568  1.00  0.00    -0.352 N 
ATOM     43  C   UNL A   1      35.146  31.560  28.412  1.00  0.00     0.251 C 
ATOM     44  H   UNL A   1      33.724  32.527  27.360  1.00  0.00     0.163 HD
ATOM     45  O   UNL A   1      35.441  32.567  29.053  1.00  0.00    -0.269 OA
BRANCH  43  46
ATOM     46  C   UNL A   1      36.036  30.366  28.408  1.00  0.00     0.039 A 
ATOM     47  C   UNL A   1      36.271  29.742  29.642  1.00  0.00     0.014 A 
ATOM     48  C   UNL A   1      36.840  30.049  27.318  1.00  0.00     0.014 A 
ATOM     49  C   UNL A   1      37.466  29.062  29.856  1.00  0.00     0.010 A 
ATOM     50  C   UNL A   1      38.070  29.482  27.549  1.00  0.00     0.010 A 
ATOM     51  C   UNL A   1      38.408  29.067  28.840  1.00  0.00    -0.014 A 
BRANCH  51  52
ATOM     52  C   UNL A   1      39.800  28.696  28.991  1.00  0.00     0.031 A 
ATOM     53  C   UNL A   1      40.191  27.291  28.858  1.00  0.00     0.074 A 
ATOM     54  C   UNL A   1      40.706  29.695  28.937  1.00  0.00     0.049 A 
ATOM     55  N   UNL A   1      41.380  26.846  29.066  1.00  0.00    -0.248 NA
ATOM     56  C   UNL A   1      39.224  26.255  28.524  1.00  0.00     0.031 C 
ATOM     57  C   UNL A   1      42.096  29.618  28.514  1.00  0.00     0.029 A 
ATOM     58  N   UNL A   1      40.576  30.973  29.485  1.00  0.00    -0.354 N 
ATOM     59  C   UNL A   1      41.410  25.546  28.612  1.00  0.00     0.074 A 
ATOM     60  C   UNL A   1      40.026  25.194  28.419  1.00  0.00     0.031 C 
ATOM     61  C   UNL A   1      42.759  30.661  29.036  1.00  0.00     0.029 A 
ATOM     62  C   UNL A   1      41.849  31.322  29.959  1.00  0.00     0.049 A 
ATOM     63  H   UNL A   1      39.758  31.519  29.527  1.00  0.00     0.167 HD
ATOM     64  C   UNL A   1      42.620  25.001  28.301  1.00  0.00     0.034 A 
ATOM     65  C   UNL A   1      42.124  31.645  31.255  1.00  0.00     0.034 A 
ATOM     66  C   UNL A   1      43.711  25.884  28.765  1.00  0.00     0.049 A 
ATOM     67  C   UNL A   1      43.177  30.726  31.831  1.00  0.00     0.074 A 
ATOM     68  C   UNL A   1      44.522  26.806  28.121  1.00  0.00     0.029 A 
ATOM     69  N   UNL A   1      43.868  26.119  30.131  1.00  0.00    -0.354 N 
ATOM     70  N   UNL A   1      43.554  29.616  31.256  1.00  0.00    -0.248 NA
ATOM     71  C   UNL A   1      43.901  30.977  33.070  1.00  0.00     0.031 C 
ATOM     72  C   UNL A   1      45.080  27.665  29.110  1.00  0.00     0.029 A 
ATOM     73  C   UNL A   1      44.647  27.244  30.359  1.00  0.00     0.049 A 
ATOM     74  H   UNL A   1      43.476  25.560  30.841  1.00  0.00     0.167 HD
ATOM     75  C   UNL A   1      44.471  28.969  32.030  1.00  0.00     0.074 A 
ATOM     76  C   UNL A   1      44.698  29.894  33.132  1.00  0.00     0.031 C 
ATOM     77  C   UNL A   1      44.918  27.713  31.721  1.00  0.00     0.034 A 
BRANCH  64  78
ATOM     78  C   UNL A   1      42.839  23.840  27.329  1.00  0.00     0.023 A 
ATOM     79  C   UNL A   1      43.570  24.117  26.150  1.00  0.00     0.012 A 
ATOM     80  C   UNL A   1      42.318  22.525  27.420  1.00  0.00     0.148 A 
ATOM     81  C   UNL A   1      43.711  23.187  25.109  1.00  0.00     0.002 A 
ATOM     82  C   UNL A   1      42.434  21.603  26.374  1.00  0.00     0.091 A 
ATOM     83  F   UNL A   1      41.728  22.110  28.535  1.00  0.00    -0.205 F 
ATOM     84  C   UNL A   1      43.126  21.934  25.211  1.00  0.00     0.022 A 
BRANCH  82  85
ATOM     85  S   UNL A   1      41.676  19.964  26.435  1.00  0.00     0.127 S 
ATOM     86  O   UNL A   1      42.223  19.420  27.680  1.00  0.00    -0.237 OA
ATOM     87  O   UNL A   1      40.250  20.282  26.485  1.00  0.00    -0.237 OA
ATOM     88  O   UNL A   1      42.109  19.260  25.234  1.00  0.00    -0.744 OA
ENDBRANCH  82  85
ENDBRANCH  64  78
BRANCH  65  89
ATOM     89  C   UNL A   1      40.972  32.268  31.973  1.00  0.00     0.023 A 
ATOM     90  C   UNL A   1      40.503  33.497  31.445  1.00  0.00     0.012 A 
ATOM     91  C   UNL A   1      40.101  31.500  32.765  1.00  0.00     0.148 A 
ATOM     92  C   UNL A   1      39.153  33.844  31.524  1.00  0.00     0.002 A 
ATOM     93  C   UNL A   1      38.756  31.865  32.855  1.00  0.00     0.091 A 
ATOM     94  F   UNL A   1      40.571  30.382  33.329  1.00  0.00    -0.205 F 
ATOM     95  C   UNL A   1      38.271  33.003  32.191  1.00  0.00     0.022 A 
BRANCH  93  96
ATOM     96  S   UNL A   1      37.558  30.816  33.693  1.00  0.00     0.127 S 
ATOM     97  O   UNL A   1      36.341  31.101  32.942  1.00  0.00    -0.237 OA
ATOM     98  O   UNL A   1      38.108  29.477  33.488  1.00  0.00    -0.237 OA
ATOM     99  O   UNL A   1      37.586  31.264  35.078  1.00  0.00    -0.744 OA
ENDBRANCH  93  96
ENDBRANCH  65  89
BRANCH  77 100
ATOM    100  C   UNL A   1      45.654  26.809  32.690  1.00  0.00     0.023 A 
ATOM    101  C   UNL A   1      47.062  26.760  32.745  1.00  0.00     0.012 A 
ATOM    102  C   UNL A   1      44.957  26.102  33.702  1.00  0.00     0.148 A 
ATOM    103  C   UNL A   1      47.745  26.003  33.702  1.00  0.00     0.002 A 
ATOM    104  C   UNL A   1      45.643  25.455  34.727  1.00  0.00     0.091 A 
ATOM    105  F   UNL A   1      43.619  26.038  33.675  1.00  0.00    -0.205 F 
ATOM    106  C   UNL A   1      47.036  25.372  34.711  1.00  0.00     0.022 A 
BRANCH 104 107
ATOM    107  S   UNL A   1      44.777  24.872  36.191  1.00  0.00     0.127 S 
ATOM    108  O   UNL A   1      44.012  23.746  35.663  1.00  0.00    -0.237 OA
ATOM    109  O   UNL A   1      45.878  24.498  37.080  1.00  0.00    -0.237 OA
ATOM    110  O   UNL A   1      44.005  26.019  36.652  1.00  0.00    -0.744 OA
ENDBRANCH 104 107
ENDBRANCH  77 100
ENDBRANCH  51  52
ENDBRANCH  43  46
ENDBRANCH  41  42
ENDBRANCH  40  41
ENDBRANCH   1  40
TORSDOF 20
ENDMDL
