MODEL 1
REMARK VINA RESULT:     -11.7      0.000      0.000
REMARK SMILES O=C(NCCCCNC(=O)C(F)(F)[C@H](O)c1ccccc1C1CC1)c1ccc(-c2c3nc(c(-c4cccc(S(=O)(=O)[O-])c4F)c4ccc([nH]4)c(-c4cccc(S(=O)(=O)[O-])c4F)c4nc(c(-c5cccc(S(=O)(=O)[O-])c5F)c5ccc2[nH]5)C=C4)C=C3)cc1
REMARK SMILES IDX 5 1 4 2 3 3 1 4 2 5 25 7 26 8 87 9 27 10 86 11 28 12 29 13
REMARK SMILES IDX 30 14 80 15 31 16 85 17 79 18 81 19 32 20 84 21 78 22 77 23
REMARK SMILES IDX 33 25 65 26 45 27 64 28 46 29 49 30 63 31 82 32 47 33 48 34
REMARK SMILES IDX 62 36 83 37 50 38 34 39 35 40 43 41 36 42 38 43 44 44 37 45
REMARK SMILES IDX 39 46 40 47 41 48 42 49 66 50 67 51 75 52 68 53 70 54 76 55
REMARK SMILES IDX 69 56 71 57 72 58 73 59 74 60 51 61 52 62 60 63 53 64 55 65
REMARK SMILES IDX 61 66 54 67 56 68 57 69 58 70 59 71 6 72 7 73 8 74 9 75
REMARK SMILES IDX 10 77 11 78 12 79 13 80 14 81 16 82 17 83 21 84 18 85 20 86
REMARK SMILES IDX 19 87 22 88 23 89 24 90 15 91
REMARK H PARENT 3 6 81 24 49 35 8 76 15 92
REMARK Flexibility Score: inf
ROOT
ATOM      1  C   UNL A   1      31.997  28.289  26.350  1.00  0.00     0.023 C 
ENDROOT
BRANCH   1   2
ATOM      2  C   UNL A   1      32.846  29.385  25.721  1.00  0.00     0.116 C 
BRANCH   2   3
ATOM      3  N   UNL A   1      32.452  30.721  26.142  1.00  0.00    -0.352 N 
ATOM      4  O   UNL A   1      32.532  32.609  27.370  1.00  0.00    -0.269 OA
ATOM      5  C   UNL A   1      33.078  31.570  27.030  1.00  0.00     0.251 C 
ATOM      6  H   UNL A   1      31.624  31.066  25.735  1.00  0.00     0.163 HD
BRANCH   5   7
ATOM      7  C   UNL A   1      34.392  31.185  27.591  1.00  0.00     0.039 A 
ATOM      8  C   UNL A   1      34.655  29.856  27.927  1.00  0.00     0.014 A 
ATOM      9  C   UNL A   1      35.352  32.172  27.823  1.00  0.00     0.014 A 
ATOM     10  C   UNL A   1      35.797  29.546  28.656  1.00  0.00     0.010 A 
ATOM     11  C   UNL A   1      36.546  31.838  28.472  1.00  0.00     0.010 A 
ATOM     12  C   UNL A   1      36.756  30.532  28.939  1.00  0.00    -0.014 A 
BRANCH  12  13
ATOM     13  C   UNL A   1      37.980  30.154  29.694  1.00  0.00     0.031 A 
ATOM     14  C   UNL A   1      38.199  30.609  31.112  1.00  0.00     0.074 A 
ATOM     15  C   UNL A   1      38.886  29.357  29.094  1.00  0.00     0.049 A 
ATOM     16  N   UNL A   1      39.174  30.300  31.930  1.00  0.00    -0.248 NA
ATOM     17  C   UNL A   1      37.211  31.535  31.688  1.00  0.00     0.031 C 
ATOM     18  C   UNL A   1      38.807  28.892  27.707  1.00  0.00     0.029 A 
ATOM     19  N   UNL A   1      40.039  28.786  29.570  1.00  0.00    -0.354 N 
ATOM     20  C   UNL A   1      38.947  31.028  33.093  1.00  0.00     0.074 A 
ATOM     21  C   UNL A   1      37.742  31.798  32.875  1.00  0.00     0.031 C 
ATOM     22  C   UNL A   1      39.836  28.068  27.460  1.00  0.00     0.029 A 
ATOM     23  C   UNL A   1      40.674  27.985  28.650  1.00  0.00     0.049 A 
ATOM     24  H   UNL A   1      40.378  28.936  30.482  1.00  0.00     0.167 HD
ATOM     25  C   UNL A   1      39.666  31.040  34.241  1.00  0.00     0.034 A 
ATOM     26  C   UNL A   1      41.803  27.260  28.751  1.00  0.00     0.034 A 
ATOM     27  C   UNL A   1      40.831  30.227  34.474  1.00  0.00     0.049 A 
ATOM     28  C   UNL A   1      42.544  27.245  30.057  1.00  0.00     0.074 A 
ATOM     29  C   UNL A   1      41.582  30.113  35.631  1.00  0.00     0.029 A 
ATOM     30  N   UNL A   1      41.415  29.390  33.536  1.00  0.00    -0.354 N 
ATOM     31  N   UNL A   1      42.233  27.835  31.186  1.00  0.00    -0.248 NA
ATOM     32  C   UNL A   1      43.774  26.443  30.112  1.00  0.00     0.031 C 
ATOM     33  C   UNL A   1      42.627  29.213  35.388  1.00  0.00     0.029 A 
ATOM     34  C   UNL A   1      42.518  28.759  34.084  1.00  0.00     0.049 A 
ATOM     35  H   UNL A   1      41.092  29.264  32.615  1.00  0.00     0.167 HD
ATOM     36  C   UNL A   1      43.215  27.456  32.094  1.00  0.00     0.074 A 
ATOM     37  C   UNL A   1      44.113  26.563  31.389  1.00  0.00     0.031 C 
ATOM     38  C   UNL A   1      43.371  27.831  33.387  1.00  0.00     0.034 A 
BRANCH  25  39
ATOM     39  C   UNL A   1      39.192  31.930  35.360  1.00  0.00     0.023 A 
ATOM     40  C   UNL A   1      38.260  31.434  36.296  1.00  0.00     0.012 A 
ATOM     41  C   UNL A   1      39.720  33.225  35.533  1.00  0.00     0.148 A 
ATOM     42  C   UNL A   1      37.843  32.222  37.368  1.00  0.00     0.002 A 
ATOM     43  C   UNL A   1      39.327  33.990  36.626  1.00  0.00     0.091 A 
ATOM     44  F   UNL A   1      40.586  33.689  34.621  1.00  0.00    -0.205 F 
ATOM     45  C   UNL A   1      38.383  33.494  37.539  1.00  0.00     0.022 A 
BRANCH  43  46
ATOM     46  S   UNL A   1      40.025  35.611  36.967  1.00  0.00     0.127 S 
ATOM     47  O   UNL A   1      39.388  35.945  38.239  1.00  0.00    -0.237 OA
ATOM     48  O   UNL A   1      41.457  35.321  37.060  1.00  0.00    -0.237 OA
ATOM     49  O   UNL A   1      39.653  36.449  35.835  1.00  0.00    -0.744 OA
ENDBRANCH  43  46
ENDBRANCH  25  39
BRANCH  26  50
ATOM     50  C   UNL A   1      42.251  26.430  27.598  1.00  0.00     0.023 A 
ATOM     51  C   UNL A   1      43.166  26.971  26.674  1.00  0.00     0.012 A 
ATOM     52  C   UNL A   1      41.828  25.096  27.446  1.00  0.00     0.148 A 
ATOM     53  C   UNL A   1      43.636  26.204  25.607  1.00  0.00     0.002 A 
ATOM     54  C   UNL A   1      42.344  24.320  26.416  1.00  0.00     0.091 A 
ATOM     55  F   UNL A   1      40.941  24.605  28.324  1.00  0.00    -0.205 F 
ATOM     56  C   UNL A   1      43.236  24.875  25.486  1.00  0.00     0.022 A 
BRANCH  54  57
ATOM     57  S   UNL A   1      41.995  22.562  26.285  1.00  0.00     0.127 S 
ATOM     58  O   UNL A   1      42.698  22.208  25.055  1.00  0.00    -0.237 OA
ATOM     59  O   UNL A   1      42.597  22.037  27.512  1.00  0.00    -0.237 OA
ATOM     60  O   UNL A   1      40.543  22.461  26.245  1.00  0.00    -0.744 OA
ENDBRANCH  54  57
ENDBRANCH  26  50
BRANCH  38  61
ATOM     61  C   UNL A   1      44.545  27.261  34.134  1.00  0.00     0.023 A 
ATOM     62  C   UNL A   1      45.787  27.926  34.092  1.00  0.00     0.012 A 
ATOM     63  C   UNL A   1      44.408  26.101  34.922  1.00  0.00     0.148 A 
ATOM     64  C   UNL A   1      46.882  27.428  34.795  1.00  0.00     0.002 A 
ATOM     65  C   UNL A   1      45.493  25.635  35.655  1.00  0.00     0.091 A 
ATOM     66  F   UNL A   1      43.227  25.466  34.930  1.00  0.00    -0.205 F 
ATOM     67  C   UNL A   1      46.733  26.291  35.585  1.00  0.00     0.022 A 
BRANCH  65  68
ATOM     68  S   UNL A   1      45.354  24.230  36.765  1.00  0.00     0.127 S 
ATOM     69  O   UNL A   1      46.725  24.099  37.257  1.00  0.00    -0.237 OA
ATOM     70  O   UNL A   1      44.392  24.703  37.760  1.00  0.00    -0.237 OA
ATOM     71  O   UNL A   1      44.870  23.128  35.943  1.00  0.00    -0.744 OA
ENDBRANCH  65  68
ENDBRANCH  38  61
ENDBRANCH  12  13
ENDBRANCH   5   7
ENDBRANCH   2   3
ENDBRANCH   1   2
BRANCH   1  72
ATOM     72  C   UNL A   1      32.459  26.864  26.044  1.00  0.00     0.023 C 
BRANCH  72  73
ATOM     73  C   UNL A   1      31.792  26.220  24.828  1.00  0.00     0.116 C 
BRANCH  73  74
ATOM     74  N   UNL A   1      32.592  26.348  23.619  1.00  0.00    -0.351 N 
ATOM     75  C   UNL A   1      33.253  25.381  22.897  1.00  0.00     0.293 C 
ATOM     76  H   UNL A   1      32.671  27.263  23.265  1.00  0.00     0.163 HD
ATOM     77  O   UNL A   1      33.704  25.720  21.799  1.00  0.00    -0.268 OA
BRANCH  75  78
ATOM     78  C   UNL A   1      33.293  23.924  23.398  1.00  0.00     0.353 C 
ATOM     79  F   UNL A   1      32.056  23.400  23.628  1.00  0.00    -0.192 F 
ATOM     80  F   UNL A   1      33.791  23.116  22.395  1.00  0.00    -0.192 F 
BRANCH  78  81
ATOM     81  C   UNL A   1      34.199  23.685  24.639  1.00  0.00     0.225 C 
BRANCH  81  82
ATOM     82  C   UNL A   1      35.071  22.435  24.738  1.00  0.00    -0.009 A 
ATOM     83  C   UNL A   1      36.467  22.696  24.582  1.00  0.00     0.007 A 
ATOM     84  C   UNL A   1      34.654  21.094  24.938  1.00  0.00    -0.039 A 
ATOM     85  C   UNL A   1      37.435  21.698  24.630  1.00  0.00     0.000 A 
ATOM     86  C   UNL A   1      35.688  20.114  25.002  1.00  0.00     0.004 A 
ATOM     87  C   UNL A   1      37.044  20.396  24.847  1.00  0.00     0.000 A 
BRANCH  84  88
ATOM     88  C   UNL A   1      33.260  20.493  25.095  1.00  0.00     0.019 C 
ATOM     89  C   UNL A   1      32.528  20.116  23.830  1.00  0.00     0.009 C 
ATOM     90  C   UNL A   1      32.774  19.094  24.900  1.00  0.00     0.009 C 
ENDBRANCH  84  88
ENDBRANCH  81  82
BRANCH  81  91
ATOM     91  O   UNL A   1      35.007  24.834  24.979  1.00  0.00    -0.381 OA
ATOM     92  H   UNL A   1      35.855  24.782  24.511  1.00  0.00     0.211 HD
ENDBRANCH  81  91
ENDBRANCH  78  81
ENDBRANCH  75  78
ENDBRANCH  73  74
ENDBRANCH  72  73
ENDBRANCH   1  72
TORSDOF 18
ENDMDL
MODEL 2
REMARK VINA RESULT:     -11.7      5.219     10.323
REMARK SMILES O=C(NCCCCNC(=O)C(F)(F)[C@H](O)c1ccccc1C1CC1)c1ccc(-c2c3nc(c(-c4cccc(S(=O)(=O)[O-])c4F)c4ccc([nH]4)c(-c4cccc(S(=O)(=O)[O-])c4F)c4nc(c(-c5cccc(S(=O)(=O)[O-])c5F)c5ccc2[nH]5)C=C4)C=C3)cc1
REMARK SMILES IDX 5 1 4 2 3 3 1 4 2 5 25 7 26 8 87 9 27 10 86 11 28 12 29 13
REMARK SMILES IDX 30 14 80 15 31 16 85 17 79 18 81 19 32 20 84 21 78 22 77 23
REMARK SMILES IDX 33 25 65 26 45 27 64 28 46 29 49 30 63 31 82 32 47 33 48 34
REMARK SMILES IDX 62 36 83 37 50 38 34 39 35 40 43 41 36 42 38 43 44 44 37 45
REMARK SMILES IDX 39 46 40 47 41 48 42 49 66 50 67 51 75 52 68 53 70 54 76 55
REMARK SMILES IDX 69 56 71 57 72 58 73 59 74 60 51 61 52 62 60 63 53 64 55 65
REMARK SMILES IDX 61 66 54 67 56 68 57 69 58 70 59 71 6 72 7 73 8 74 9 75
REMARK SMILES IDX 10 77 11 78 12 79 13 80 14 81 16 82 17 83 21 84 18 85 20 86
REMARK SMILES IDX 19 87 22 88 23 89 24 90 15 91
REMARK H PARENT 3 6 81 24 49 35 8 76 15 92
REMARK Flexibility Score: inf
ROOT
ATOM      1  C   UNL A   1      35.207  22.265  26.043  1.00  0.00     0.023 C 
ENDROOT
BRANCH   1   2
ATOM      2  C   UNL A   1      36.459  22.359  25.181  1.00  0.00     0.116 C 
BRANCH   2   3
ATOM      3  N   UNL A   1      37.349  21.219  25.344  1.00  0.00    -0.352 N 
ATOM      4  O   UNL A   1      39.286  20.157  25.785  1.00  0.00    -0.269 OA
ATOM      5  C   UNL A   1      38.631  21.186  25.847  1.00  0.00     0.251 C 
ATOM      6  H   UNL A   1      36.984  20.352  25.053  1.00  0.00     0.163 HD
BRANCH   5   7
ATOM      7  C   UNL A   1      39.212  22.420  26.423  1.00  0.00     0.039 A 
ATOM      8  C   UNL A   1      38.724  23.673  26.048  1.00  0.00     0.014 A 
ATOM      9  C   UNL A   1      40.284  22.321  27.313  1.00  0.00     0.014 A 
ATOM     10  C   UNL A   1      39.418  24.818  26.417  1.00  0.00     0.010 A 
ATOM     11  C   UNL A   1      40.921  23.483  27.762  1.00  0.00     0.010 A 
ATOM     12  C   UNL A   1      40.526  24.739  27.277  1.00  0.00    -0.014 A 
BRANCH  12  13
ATOM     13  C   UNL A   1      41.223  25.991  27.674  1.00  0.00     0.031 A 
ATOM     14  C   UNL A   1      42.612  26.304  27.186  1.00  0.00     0.074 A 
ATOM     15  C   UNL A   1      40.571  26.869  28.460  1.00  0.00     0.049 A 
ATOM     16  N   UNL A   1      43.323  27.387  27.379  1.00  0.00    -0.248 NA
ATOM     17  C   UNL A   1      43.300  25.275  26.391  1.00  0.00     0.031 C 
ATOM     18  C   UNL A   1      39.240  26.654  29.036  1.00  0.00     0.029 A 
ATOM     19  N   UNL A   1      40.924  28.119  28.900  1.00  0.00    -0.354 N 
ATOM     20  C   UNL A   1      44.554  27.152  26.775  1.00  0.00     0.074 A 
ATOM     21  C   UNL A   1      44.496  25.821  26.211  1.00  0.00     0.031 C 
ATOM     22  C   UNL A   1      38.870  27.752  29.710  1.00  0.00     0.029 A 
ATOM     23  C   UNL A   1      39.950  28.728  29.658  1.00  0.00     0.049 A 
ATOM     24  H   UNL A   1      41.790  28.538  28.694  1.00  0.00     0.167 HD
ATOM     25  C   UNL A   1      45.626  27.976  26.685  1.00  0.00     0.034 A 
ATOM     26  C   UNL A   1      39.927  29.941  30.243  1.00  0.00     0.034 A 
ATOM     27  C   UNL A   1      45.657  29.320  27.197  1.00  0.00     0.049 A 
ATOM     28  C   UNL A   1      41.106  30.854  30.072  1.00  0.00     0.074 A 
ATOM     29  C   UNL A   1      46.669  30.258  27.087  1.00  0.00     0.029 A 
ATOM     30  N   UNL A   1      44.634  29.921  27.914  1.00  0.00    -0.354 N 
ATOM     31  N   UNL A   1      42.204  30.662  29.382  1.00  0.00    -0.248 NA
ATOM     32  C   UNL A   1      41.032  32.162  30.737  1.00  0.00     0.031 C 
ATOM     33  C   UNL A   1      46.261  31.423  27.747  1.00  0.00     0.029 A 
ATOM     34  C   UNL A   1      44.990  31.214  28.257  1.00  0.00     0.049 A 
ATOM     35  H   UNL A   1      43.779  29.490  28.145  1.00  0.00     0.167 HD
ATOM     36  C   UNL A   1      42.941  31.833  29.508  1.00  0.00     0.074 A 
ATOM     37  C   UNL A   1      42.151  32.738  30.317  1.00  0.00     0.031 C 
ATOM     38  C   UNL A   1      44.170  32.123  29.016  1.00  0.00     0.034 A 
BRANCH  25  39
ATOM     39  C   UNL A   1      46.848  27.465  25.967  1.00  0.00     0.023 A 
ATOM     40  C   UNL A   1      47.727  26.584  26.630  1.00  0.00     0.012 A 
ATOM     41  C   UNL A   1      47.088  27.794  24.618  1.00  0.00     0.148 A 
ATOM     42  C   UNL A   1      48.839  26.060  25.971  1.00  0.00     0.002 A 
ATOM     43  C   UNL A   1      48.179  27.238  23.957  1.00  0.00     0.091 A 
ATOM     44  F   UNL A   1      46.257  28.652  24.010  1.00  0.00    -0.205 F 
ATOM     45  C   UNL A   1      49.059  26.378  24.633  1.00  0.00     0.022 A 
BRANCH  43  46
ATOM     46  S   UNL A   1      48.498  27.533  22.213  1.00  0.00     0.127 S 
ATOM     47  O   UNL A   1      49.686  28.384  22.270  1.00  0.00    -0.237 OA
ATOM     48  O   UNL A   1      48.742  26.181  21.707  1.00  0.00    -0.237 OA
ATOM     49  O   UNL A   1      47.294  28.163  21.690  1.00  0.00    -0.744 OA
ENDBRANCH  43  46
ENDBRANCH  25  39
BRANCH  26  50
ATOM     50  C   UNL A   1      38.708  30.379  30.979  1.00  0.00     0.023 A 
ATOM     51  C   UNL A   1      38.630  30.170  32.369  1.00  0.00     0.012 A 
ATOM     52  C   UNL A   1      37.659  31.052  30.325  1.00  0.00     0.148 A 
ATOM     53  C   UNL A   1      37.519  30.607  33.092  1.00  0.00     0.002 A 
ATOM     54  C   UNL A   1      36.584  31.537  31.059  1.00  0.00     0.091 A 
ATOM     55  F   UNL A   1      37.742  31.224  28.997  1.00  0.00    -0.205 F 
ATOM     56  C   UNL A   1      36.503  31.302  32.441  1.00  0.00     0.022 A 
BRANCH  54  57
ATOM     57  S   UNL A   1      35.315  32.571  30.317  1.00  0.00     0.127 S 
ATOM     58  O   UNL A   1      34.364  32.712  31.415  1.00  0.00    -0.237 OA
ATOM     59  O   UNL A   1      36.063  33.786  29.987  1.00  0.00    -0.237 OA
ATOM     60  O   UNL A   1      34.847  31.829  29.155  1.00  0.00    -0.744 OA
ENDBRANCH  54  57
ENDBRANCH  26  50
BRANCH  38  61
ATOM     61  C   UNL A   1      44.731  33.485  29.321  1.00  0.00     0.023 A 
ATOM     62  C   UNL A   1      45.493  33.678  30.490  1.00  0.00     0.012 A 
ATOM     63  C   UNL A   1      44.552  34.558  28.426  1.00  0.00     0.148 A 
ATOM     64  C   UNL A   1      46.042  34.926  30.780  1.00  0.00     0.002 A 
ATOM     65  C   UNL A   1      45.140  35.788  28.700  1.00  0.00     0.091 A 
ATOM     66  F   UNL A   1      43.803  34.363  27.331  1.00  0.00    -0.205 F 
ATOM     67  C   UNL A   1      45.875  35.976  29.881  1.00  0.00     0.022 A 
BRANCH  65  68
ATOM     68  S   UNL A   1      45.045  37.162  27.548  1.00  0.00     0.127 S 
ATOM     69  O   UNL A   1      45.571  38.264  28.351  1.00  0.00    -0.237 OA
ATOM     70  O   UNL A   1      45.922  36.727  26.460  1.00  0.00    -0.237 OA
ATOM     71  O   UNL A   1      43.639  37.266  27.176  1.00  0.00    -0.744 OA
ENDBRANCH  65  68
ENDBRANCH  38  61
ENDBRANCH  12  13
ENDBRANCH   5   7
ENDBRANCH   2   3
ENDBRANCH   1   2
BRANCH   1  72
ATOM     72  C   UNL A   1      34.273  21.105  25.695  1.00  0.00     0.023 C 
BRANCH  72  73
ATOM     73  C   UNL A   1      32.858  21.521  25.292  1.00  0.00     0.116 C 
BRANCH  73  74
ATOM     74  N   UNL A   1      32.035  21.883  26.435  1.00  0.00    -0.351 N 
ATOM     75  C   UNL A   1      31.246  22.993  26.633  1.00  0.00     0.293 C 
ATOM     76  H   UNL A   1      32.044  21.238  27.179  1.00  0.00     0.163 HD
ATOM     77  O   UNL A   1      30.495  22.973  27.614  1.00  0.00    -0.268 OA
BRANCH  75  78
ATOM     78  C   UNL A   1      31.220  24.128  25.592  1.00  0.00     0.353 C 
ATOM     79  F   UNL A   1      32.462  24.504  25.173  1.00  0.00    -0.192 F 
ATOM     80  F   UNL A   1      30.628  23.665  24.433  1.00  0.00    -0.192 F 
BRANCH  78  81
ATOM     81  C   UNL A   1      30.412  25.387  26.018  1.00  0.00     0.225 C 
BRANCH  81  82
ATOM     82  C   UNL A   1      30.601  26.717  25.293  1.00  0.00    -0.009 A 
ATOM     83  C   UNL A   1      29.785  26.857  24.129  1.00  0.00     0.007 A 
ATOM     84  C   UNL A   1      31.484  27.776  25.628  1.00  0.00    -0.039 A 
ATOM     85  C   UNL A   1      29.807  27.987  23.318  1.00  0.00     0.000 A 
ATOM     86  C   UNL A   1      31.451  28.920  24.777  1.00  0.00     0.004 A 
ATOM     87  C   UNL A   1      30.643  29.030  23.647  1.00  0.00     0.000 A 
BRANCH  84  88
ATOM     88  C   UNL A   1      32.496  27.914  26.761  1.00  0.00     0.019 C 
ATOM     89  C   UNL A   1      33.957  27.904  26.383  1.00  0.00     0.009 C 
ATOM     90  C   UNL A   1      33.377  29.055  27.149  1.00  0.00     0.009 C 
ENDBRANCH  84  88
ENDBRANCH  81  82
BRANCH  81  91
ATOM     91  O   UNL A   1      28.995  25.133  26.145  1.00  0.00    -0.381 OA
ATOM     92  H   UNL A   1      28.846  24.483  26.850  1.00  0.00     0.211 HD
ENDBRANCH  81  91
ENDBRANCH  78  81
ENDBRANCH  75  78
ENDBRANCH  73  74
ENDBRANCH  72  73
ENDBRANCH   1  72
TORSDOF 18
ENDMDL
MODEL 3
REMARK VINA RESULT:     -11.7      4.835     10.157
REMARK SMILES O=C(NCCCCNC(=O)C(F)(F)[C@H](O)c1ccccc1C1CC1)c1ccc(-c2c3nc(c(-c4cccc(S(=O)(=O)[O-])c4F)c4ccc([nH]4)c(-c4cccc(S(=O)(=O)[O-])c4F)c4nc(c(-c5cccc(S(=O)(=O)[O-])c5F)c5ccc2[nH]5)C=C4)C=C3)cc1
REMARK SMILES IDX 5 1 4 2 3 3 1 4 2 5 25 7 26 8 87 9 27 10 86 11 28 12 29 13
REMARK SMILES IDX 30 14 80 15 31 16 85 17 79 18 81 19 32 20 84 21 78 22 77 23
REMARK SMILES IDX 33 25 65 26 45 27 64 28 46 29 49 30 63 31 82 32 47 33 48 34
REMARK SMILES IDX 62 36 83 37 50 38 34 39 35 40 43 41 36 42 38 43 44 44 37 45
REMARK SMILES IDX 39 46 40 47 41 48 42 49 66 50 67 51 75 52 68 53 70 54 76 55
REMARK SMILES IDX 69 56 71 57 72 58 73 59 74 60 51 61 52 62 60 63 53 64 55 65
REMARK SMILES IDX 61 66 54 67 56 68 57 69 58 70 59 71 6 72 7 73 8 74 9 75
REMARK SMILES IDX 10 77 11 78 12 79 13 80 14 81 16 82 17 83 21 84 18 85 20 86
REMARK SMILES IDX 19 87 22 88 23 89 24 90 15 91
REMARK H PARENT 3 6 81 24 49 35 8 76 15 92
REMARK Flexibility Score: inf
ROOT
ATOM      1  C   UNL A   1      34.941  22.264  24.601  1.00  0.00     0.023 C 
ENDROOT
BRANCH   1   2
ATOM      2  C   UNL A   1      36.065  22.346  25.625  1.00  0.00     0.116 C 
BRANCH   2   3
ATOM      3  N   UNL A   1      37.024  21.258  25.506  1.00  0.00    -0.352 N 
ATOM      4  O   UNL A   1      39.058  20.289  25.487  1.00  0.00    -0.269 OA
ATOM      5  C   UNL A   1      38.376  21.262  25.773  1.00  0.00     0.251 C 
ATOM      6  H   UNL A   1      36.655  20.401  25.192  1.00  0.00     0.163 HD
BRANCH   5   7
ATOM      7  C   UNL A   1      38.991  22.469  26.369  1.00  0.00     0.039 A 
ATOM      8  C   UNL A   1      38.484  23.737  26.078  1.00  0.00     0.014 A 
ATOM      9  C   UNL A   1      40.112  22.332  27.191  1.00  0.00     0.014 A 
ATOM     10  C   UNL A   1      39.200  24.865  26.458  1.00  0.00     0.010 A 
ATOM     11  C   UNL A   1      40.775  23.473  27.653  1.00  0.00     0.010 A 
ATOM     12  C   UNL A   1      40.355  24.749  27.249  1.00  0.00    -0.014 A 
BRANCH  12  13
ATOM     13  C   UNL A   1      41.076  25.982  27.661  1.00  0.00     0.031 A 
ATOM     14  C   UNL A   1      42.478  26.265  27.194  1.00  0.00     0.074 A 
ATOM     15  C   UNL A   1      40.433  26.873  28.441  1.00  0.00     0.049 A 
ATOM     16  N   UNL A   1      43.212  27.330  27.401  1.00  0.00    -0.248 NA
ATOM     17  C   UNL A   1      43.153  25.223  26.404  1.00  0.00     0.031 C 
ATOM     18  C   UNL A   1      39.090  26.687  28.998  1.00  0.00     0.029 A 
ATOM     19  N   UNL A   1      40.809  28.113  28.891  1.00  0.00    -0.354 N 
ATOM     20  C   UNL A   1      44.445  27.068  26.814  1.00  0.00     0.074 A 
ATOM     21  C   UNL A   1      44.364  25.742  26.243  1.00  0.00     0.031 C 
ATOM     22  C   UNL A   1      38.735  27.791  29.671  1.00  0.00     0.029 A 
ATOM     23  C   UNL A   1      39.839  28.742  29.637  1.00  0.00     0.049 A 
ATOM     24  H   UNL A   1      41.688  28.512  28.699  1.00  0.00     0.167 HD
ATOM     25  C   UNL A   1      45.537  27.867  26.742  1.00  0.00     0.034 A 
ATOM     26  C   UNL A   1      39.836  29.952  30.228  1.00  0.00     0.034 A 
ATOM     27  C   UNL A   1      45.593  29.209  27.260  1.00  0.00     0.049 A 
ATOM     28  C   UNL A   1      41.038  30.839  30.077  1.00  0.00     0.074 A 
ATOM     29  C   UNL A   1      46.628  30.124  27.168  1.00  0.00     0.029 A 
ATOM     30  N   UNL A   1      44.574  29.831  27.964  1.00  0.00    -0.354 N 
ATOM     31  N   UNL A   1      42.141  30.623  29.401  1.00  0.00    -0.248 NA
ATOM     32  C   UNL A   1      40.986  32.145  30.746  1.00  0.00     0.031 C 
ATOM     33  C   UNL A   1      46.237  31.295  27.827  1.00  0.00     0.029 A 
ATOM     34  C   UNL A   1      44.955  31.114  28.318  1.00  0.00     0.049 A 
ATOM     35  H   UNL A   1      43.706  29.420  28.182  1.00  0.00     0.167 HD
ATOM     36  C   UNL A   1      42.903  31.776  29.542  1.00  0.00     0.074 A 
ATOM     37  C   UNL A   1      42.123  32.697  30.344  1.00  0.00     0.031 C 
ATOM     38  C   UNL A   1      44.146  32.039  29.069  1.00  0.00     0.034 A 
BRANCH  25  39
ATOM     39  C   UNL A   1      46.757  27.331  26.039  1.00  0.00     0.023 A 
ATOM     40  C   UNL A   1      46.910  27.542  24.653  1.00  0.00     0.012 A 
ATOM     41  C   UNL A   1      47.785  26.687  26.757  1.00  0.00     0.148 A 
ATOM     42  C   UNL A   1      48.053  27.098  23.989  1.00  0.00     0.002 A 
ATOM     43  C   UNL A   1      48.938  26.281  26.093  1.00  0.00     0.091 A 
ATOM     44  F   UNL A   1      47.613  26.474  28.068  1.00  0.00    -0.205 F 
ATOM     45  C   UNL A   1      49.070  26.478  24.709  1.00  0.00     0.022 A 
BRANCH  43  46
ATOM     46  S   UNL A   1      50.332  25.540  26.953  1.00  0.00     0.127 S 
ATOM     47  O   UNL A   1      51.276  25.329  25.858  1.00  0.00    -0.237 OA
ATOM     48  O   UNL A   1      50.715  26.594  27.894  1.00  0.00    -0.237 OA
ATOM     49  O   UNL A   1      49.813  24.333  27.581  1.00  0.00    -0.744 OA
ENDBRANCH  43  46
ENDBRANCH  25  39
BRANCH  26  50
ATOM     50  C   UNL A   1      38.617  30.416  30.948  1.00  0.00     0.023 A 
ATOM     51  C   UNL A   1      38.529  30.234  32.341  1.00  0.00     0.012 A 
ATOM     52  C   UNL A   1      37.579  31.087  30.275  1.00  0.00     0.148 A 
ATOM     53  C   UNL A   1      37.419  30.696  33.049  1.00  0.00     0.002 A 
ATOM     54  C   UNL A   1      36.505  31.596  30.994  1.00  0.00     0.091 A 
ATOM     55  F   UNL A   1      37.671  31.233  28.945  1.00  0.00    -0.205 F 
ATOM     56  C   UNL A   1      36.414  31.388  32.379  1.00  0.00     0.022 A 
BRANCH  54  57
ATOM     57  S   UNL A   1      35.250  32.629  30.225  1.00  0.00     0.127 S 
ATOM     58  O   UNL A   1      36.037  33.775  29.781  1.00  0.00    -0.237 OA
ATOM     59  O   UNL A   1      34.758  31.765  29.151  1.00  0.00    -0.237 OA
ATOM     60  O   UNL A   1      34.273  32.889  31.273  1.00  0.00    -0.744 OA
ENDBRANCH  54  57
ENDBRANCH  26  50
BRANCH  38  61
ATOM     61  C   UNL A   1      44.734  33.387  29.387  1.00  0.00     0.023 A 
ATOM     62  C   UNL A   1      45.459  33.565  30.582  1.00  0.00     0.012 A 
ATOM     63  C   UNL A   1      44.620  34.458  28.481  1.00  0.00     0.148 A 
ATOM     64  C   UNL A   1      46.032  34.798  30.886  1.00  0.00     0.002 A 
ATOM     65  C   UNL A   1      45.231  35.672  28.770  1.00  0.00     0.091 A 
ATOM     66  F   UNL A   1      43.905  34.278  27.360  1.00  0.00    -0.205 F 
ATOM     67  C   UNL A   1      45.928  35.847  29.976  1.00  0.00     0.022 A 
BRANCH  65  68
ATOM     68  S   UNL A   1      45.218  37.042  27.608  1.00  0.00     0.127 S 
ATOM     69  O   UNL A   1      45.930  38.077  28.356  1.00  0.00    -0.237 OA
ATOM     70  O   UNL A   1      45.956  36.499  26.467  1.00  0.00    -0.237 OA
ATOM     71  O   UNL A   1      43.812  37.312  27.336  1.00  0.00    -0.744 OA
ENDBRANCH  65  68
ENDBRANCH  38  61
ENDBRANCH  12  13
ENDBRANCH   5   7
ENDBRANCH   2   3
ENDBRANCH   1   2
BRANCH   1  72
ATOM     72  C   UNL A   1      33.914  21.162  24.863  1.00  0.00     0.023 C 
BRANCH  72  73
ATOM     73  C   UNL A   1      32.455  21.600  24.728  1.00  0.00     0.116 C 
BRANCH  73  74
ATOM     74  N   UNL A   1      31.827  21.855  26.015  1.00  0.00    -0.351 N 
ATOM     75  C   UNL A   1      31.453  23.048  26.589  1.00  0.00     0.293 C 
ATOM     76  H   UNL A   1      31.641  21.054  26.556  1.00  0.00     0.163 HD
ATOM     77  O   UNL A   1      30.764  22.981  27.611  1.00  0.00    -0.268 OA
BRANCH  75  78
ATOM     78  C   UNL A   1      31.778  24.384  25.893  1.00  0.00     0.353 C 
ATOM     79  F   UNL A   1      33.062  24.797  26.091  1.00  0.00    -0.192 F 
ATOM     80  F   UNL A   1      31.715  24.208  24.525  1.00  0.00    -0.192 F 
BRANCH  78  81
ATOM     81  C   UNL A   1      30.800  25.548  26.226  1.00  0.00     0.225 C 
BRANCH  81  82
ATOM     82  C   UNL A   1      30.766  26.808  25.364  1.00  0.00    -0.009 A 
ATOM     83  C   UNL A   1      29.874  26.717  24.252  1.00  0.00     0.007 A 
ATOM     84  C   UNL A   1      31.513  28.001  25.533  1.00  0.00    -0.039 A 
ATOM     85  C   UNL A   1      29.696  27.748  23.336  1.00  0.00     0.000 A 
ATOM     86  C   UNL A   1      31.277  29.036  24.580  1.00  0.00     0.004 A 
ATOM     87  C   UNL A   1      30.399  28.920  23.503  1.00  0.00     0.000 A 
BRANCH  84  88
ATOM     88  C   UNL A   1      32.560  28.388  26.574  1.00  0.00     0.019 C 
ATOM     89  C   UNL A   1      33.971  27.908  26.341  1.00  0.00     0.009 C 
ATOM     90  C   UNL A   1      33.682  29.370  26.511  1.00  0.00     0.009 C 
ENDBRANCH  84  88
ENDBRANCH  81  82
BRANCH  81  91
ATOM     91  O   UNL A   1      29.442  25.101  26.439  1.00  0.00    -0.381 OA
ATOM     92  H   UNL A   1      29.185  24.500  25.723  1.00  0.00     0.211 HD
ENDBRANCH  81  91
ENDBRANCH  78  81
ENDBRANCH  75  78
ENDBRANCH  73  74
ENDBRANCH  72  73
ENDBRANCH   1  72
TORSDOF 18
ENDMDL
