MODEL 1
REMARK VINA RESULT:     -14.3      0.000      0.000
REMARK SMILES Cc1c(C(=O)NCCCCNC(=O)c2ccc(-c3c4nc(c(-c5cccc(S(=O)(=O)[O-])c5F)c5ccc([nH]5)c(-c5cccc(S(=O)(=O)[O-])c5F)c5nc(c(-c6cccc(S(=O)(=O)[O-])c6F)c6ccc3[nH]6)C=C5)C=C4)cc2)oc2c1/C(=N/NC(=O)C(c1ccccc1)c1ccccc1)CCC2
REMARK SMILES IDX 8 1 7 2 6 3 4 4 5 5 3 7 1 8 2 9 79 10 77 11 78 12 80 13
REMARK SMILES IDX 100 14 81 15 98 16 99 17 82 18 83 19 84 21 85 22 86 23 87 24
REMARK SMILES IDX 91 25 88 26 90 27 89 28 92 29 93 30 97 31 94 32 96 33 95 34
REMARK SMILES IDX 9 35 10 36 11 37 12 38 13 40 14 41 15 42 76 43 16 44 75 45
REMARK SMILES IDX 17 46 18 47 19 48 69 49 20 50 74 51 68 52 70 53 21 54 73 55
REMARK SMILES IDX 67 56 66 57 22 59 54 60 34 61 53 62 35 63 38 64 52 65 71 66
REMARK SMILES IDX 36 67 37 68 51 70 72 71 39 72 23 73 24 74 32 75 25 76 27 77
REMARK SMILES IDX 33 78 26 79 28 80 29 81 30 82 31 83 55 84 56 85 64 86 57 87
REMARK SMILES IDX 59 88 65 89 58 90 60 91 61 92 62 93 63 94 40 95 41 96 49 97
REMARK SMILES IDX 42 98 44 99 50 100 43 101 45 102 46 103 47 104 48 105
REMARK H PARENT 6 6 82 20 11 39 70 58 38 69
REMARK Flexibility Score: inf
ROOT
ATOM      1  C   UNL A   1      37.372  20.884  24.456  1.00  0.00     0.023 C 
ENDROOT
BRANCH   1   2
ATOM      2  C   UNL A   1      36.247  21.404  25.376  1.00  0.00     0.116 C 
BRANCH   2   3
ATOM      3  N   UNL A   1      35.170  20.428  25.610  1.00  0.00    -0.349 N 
ATOM      4  C   UNL A   1      33.791  20.512  25.402  1.00  0.00     0.287 C 
ATOM      5  O   UNL A   1      33.108  19.503  25.602  1.00  0.00    -0.266 OA
ATOM      6  H   UNL A   1      35.473  19.566  25.976  1.00  0.00     0.163 HD
BRANCH   4   7
ATOM      7  C   UNL A   1      33.228  21.768  24.952  1.00  0.00     0.195 A 
ATOM      8  C   UNL A   1      30.953  22.163  26.122  1.00  0.00     0.049 C 
ATOM      9  C   UNL A   1      32.042  22.498  25.168  1.00  0.00     0.010 A 
ATOM     10  C   UNL A   1      32.025  23.508  24.141  1.00  0.00     0.043 A 
ATOM     11  O   UNL A   1      33.980  22.410  24.033  1.00  0.00    -0.455 OA
ATOM     12  C   UNL A   1      33.186  23.268  23.429  1.00  0.00     0.114 A 
ATOM     13  C   UNL A   1      31.108  24.514  23.589  1.00  0.00     0.072 C 
ATOM     14  C   UNL A   1      33.615  23.686  22.086  1.00  0.00     0.076 C 
ATOM     15  N   UNL A   1      30.156  25.064  24.282  1.00  0.00    -0.177 NA
ATOM     16  C   UNL A   1      31.415  24.747  22.150  1.00  0.00     0.059 C 
ATOM     17  C   UNL A   1      32.880  24.956  21.803  1.00  0.00     0.014 C 
BRANCH  15  18
ATOM     18  N   UNL A   1      29.208  26.035  23.941  1.00  0.00    -0.246 N 
ATOM     19  C   UNL A   1      29.044  27.354  23.545  1.00  0.00     0.252 C 
ATOM     20  H   UNL A   1      28.316  25.623  24.006  1.00  0.00     0.193 HD
ATOM     21  O   UNL A   1      27.856  27.737  23.496  1.00  0.00    -0.272 OA
BRANCH  19  22
ATOM     22  C   UNL A   1      30.141  28.417  23.156  1.00  0.00     0.140 C 
BRANCH  22  23
ATOM     23  C   UNL A   1      29.411  29.777  22.829  1.00  0.00    -0.031 A 
ATOM     24  C   UNL A   1      28.889  30.130  21.575  1.00  0.00     0.005 A 
ATOM     25  C   UNL A   1      29.315  30.776  23.835  1.00  0.00     0.005 A 
ATOM     26  C   UNL A   1      28.503  31.458  21.297  1.00  0.00     0.000 A 
ATOM     27  C   UNL A   1      28.950  32.096  23.560  1.00  0.00     0.000 A 
ATOM     28  C   UNL A   1      28.575  32.449  22.276  1.00  0.00     0.000 A 
ENDBRANCH  22  23
BRANCH  22  29
ATOM     29  C   UNL A   1      31.335  28.257  24.190  1.00  0.00    -0.031 A 
ATOM     30  C   UNL A   1      32.627  27.990  23.670  1.00  0.00     0.005 A 
ATOM     31  C   UNL A   1      31.194  28.125  25.586  1.00  0.00     0.005 A 
ATOM     32  C   UNL A   1      33.612  27.346  24.425  1.00  0.00     0.000 A 
ATOM     33  C   UNL A   1      32.199  27.501  26.353  1.00  0.00     0.000 A 
ATOM     34  C   UNL A   1      33.380  27.059  25.760  1.00  0.00     0.000 A 
ENDBRANCH  22  29
ENDBRANCH  19  22
ENDBRANCH  15  18
ENDBRANCH   4   7
ENDBRANCH   2   3
ENDBRANCH   1   2
BRANCH   1  35
ATOM     35  C   UNL A   1      38.163  19.689  25.010  1.00  0.00     0.023 C 
BRANCH  35  36
ATOM     36  C   UNL A   1      39.276  20.055  25.987  1.00  0.00     0.116 C 
BRANCH  36  37
ATOM     37  N   UNL A   1      40.442  19.165  25.915  1.00  0.00    -0.352 N 
ATOM     38  C   UNL A   1      41.777  19.534  25.896  1.00  0.00     0.251 C 
ATOM     39  H   UNL A   1      40.254  18.199  25.875  1.00  0.00     0.163 HD
ATOM     40  O   UNL A   1      42.635  18.796  25.417  1.00  0.00    -0.269 OA
BRANCH  38  41
ATOM     41  C   UNL A   1      42.153  20.827  26.493  1.00  0.00     0.039 A 
ATOM     42  C   UNL A   1      42.668  21.884  25.736  1.00  0.00     0.014 A 
ATOM     43  C   UNL A   1      41.924  20.969  27.858  1.00  0.00     0.014 A 
ATOM     44  C   UNL A   1      42.872  23.116  26.359  1.00  0.00     0.010 A 
ATOM     45  C   UNL A   1      41.950  22.216  28.418  1.00  0.00     0.010 A 
ATOM     46  C   UNL A   1      42.494  23.276  27.700  1.00  0.00    -0.014 A 
BRANCH  46  47
ATOM     47  C   UNL A   1      42.530  24.576  28.361  1.00  0.00     0.031 A 
ATOM     48  C   UNL A   1      41.310  25.400  28.141  1.00  0.00     0.074 A 
ATOM     49  C   UNL A   1      43.457  24.871  29.301  1.00  0.00     0.049 A 
ATOM     50  N   UNL A   1      41.205  26.496  27.463  1.00  0.00    -0.248 NA
ATOM     51  C   UNL A   1      40.016  24.845  28.573  1.00  0.00     0.031 C 
ATOM     52  C   UNL A   1      44.501  23.987  29.843  1.00  0.00     0.029 A 
ATOM     53  N   UNL A   1      43.563  25.969  30.098  1.00  0.00    -0.354 N 
ATOM     54  C   UNL A   1      39.881  26.905  27.626  1.00  0.00     0.074 A 
ATOM     55  C   UNL A   1      39.166  25.740  28.066  1.00  0.00     0.031 C 
ATOM     56  C   UNL A   1      44.932  24.468  31.028  1.00  0.00     0.029 A 
ATOM     57  C   UNL A   1      44.337  25.773  31.242  1.00  0.00     0.049 A 
ATOM     58  H   UNL A   1      43.132  26.827  29.885  1.00  0.00     0.167 HD
ATOM     59  C   UNL A   1      39.563  28.230  27.695  1.00  0.00     0.034 A 
ATOM     60  C   UNL A   1      44.442  26.602  32.309  1.00  0.00     0.034 A 
ATOM     61  C   UNL A   1      40.666  29.039  27.220  1.00  0.00     0.049 A 
ATOM     62  C   UNL A   1      43.984  27.936  31.861  1.00  0.00     0.074 A 
ATOM     63  C   UNL A   1      41.397  29.121  26.052  1.00  0.00     0.029 A 
ATOM     64  N   UNL A   1      41.423  29.665  28.182  1.00  0.00    -0.354 N 
ATOM     65  N   UNL A   1      44.612  28.649  30.970  1.00  0.00    -0.248 NA
ATOM     66  C   UNL A   1      42.588  28.278  32.074  1.00  0.00     0.031 C 
ATOM     67  C   UNL A   1      42.739  29.363  26.475  1.00  0.00     0.029 A 
ATOM     68  C   UNL A   1      42.741  29.498  27.865  1.00  0.00     0.049 A 
ATOM     69  H   UNL A   1      41.075  30.150  28.964  1.00  0.00     0.167 HD
ATOM     70  C   UNL A   1      43.597  29.180  30.186  1.00  0.00     0.074 A 
ATOM     71  C   UNL A   1      42.381  29.020  30.983  1.00  0.00     0.031 C 
ATOM     72  C   UNL A   1      43.793  29.414  28.854  1.00  0.00     0.034 A 
BRANCH  59  73
ATOM     73  C   UNL A   1      38.492  28.839  28.599  1.00  0.00     0.023 A 
ATOM     74  C   UNL A   1      37.605  29.762  27.988  1.00  0.00     0.012 A 
ATOM     75  C   UNL A   1      38.486  28.812  30.012  1.00  0.00     0.148 A 
ATOM     76  C   UNL A   1      36.873  30.693  28.732  1.00  0.00     0.002 A 
ATOM     77  C   UNL A   1      37.716  29.704  30.752  1.00  0.00     0.091 A 
ATOM     78  F   UNL A   1      39.294  27.993  30.681  1.00  0.00    -0.205 F 
ATOM     79  C   UNL A   1      36.939  30.674  30.117  1.00  0.00     0.022 A 
BRANCH  77  80
ATOM     80  S   UNL A   1      37.737  29.707  32.552  1.00  0.00     0.127 S 
ATOM     81  O   UNL A   1      36.685  30.673  32.850  1.00  0.00    -0.237 OA
ATOM     82  O   UNL A   1      37.408  28.313  32.852  1.00  0.00    -0.237 OA
ATOM     83  O   UNL A   1      39.088  30.099  32.934  1.00  0.00    -0.744 OA
ENDBRANCH  77  80
ENDBRANCH  59  73
BRANCH  60  84
ATOM     84  C   UNL A   1      44.675  26.306  33.742  1.00  0.00     0.023 A 
ATOM     85  C   UNL A   1      45.976  26.410  34.273  1.00  0.00     0.012 A 
ATOM     86  C   UNL A   1      43.593  26.215  34.646  1.00  0.00     0.148 A 
ATOM     87  C   UNL A   1      46.192  26.467  35.656  1.00  0.00     0.002 A 
ATOM     88  C   UNL A   1      43.812  26.268  36.020  1.00  0.00     0.091 A 
ATOM     89  F   UNL A   1      42.347  26.174  34.156  1.00  0.00    -0.205 F 
ATOM     90  C   UNL A   1      45.109  26.407  36.529  1.00  0.00     0.022 A 
BRANCH  88  91
ATOM     91  S   UNL A   1      42.463  26.225  37.208  1.00  0.00     0.127 S 
ATOM     92  O   UNL A   1      43.179  26.325  38.481  1.00  0.00    -0.237 OA
ATOM     93  O   UNL A   1      41.700  27.413  36.840  1.00  0.00    -0.237 OA
ATOM     94  O   UNL A   1      41.791  24.948  36.998  1.00  0.00    -0.744 OA
ENDBRANCH  88  91
ENDBRANCH  60  84
BRANCH  72  95
ATOM     95  C   UNL A   1      45.202  29.353  28.321  1.00  0.00     0.023 A 
ATOM     96  C   UNL A   1      45.788  28.161  27.842  1.00  0.00     0.012 A 
ATOM     97  C   UNL A   1      45.886  30.565  28.140  1.00  0.00     0.148 A 
ATOM     98  C   UNL A   1      47.037  28.180  27.213  1.00  0.00     0.002 A 
ATOM     99  C   UNL A   1      47.102  30.587  27.471  1.00  0.00     0.091 A 
ATOM    100  F   UNL A   1      45.314  31.687  28.599  1.00  0.00    -0.205 F 
ATOM    101  C   UNL A   1      47.687  29.395  27.015  1.00  0.00     0.022 A 
BRANCH  99 102
ATOM    102  S   UNL A   1      47.920  32.132  27.073  1.00  0.00     0.127 S 
ATOM    103  O   UNL A   1      49.173  31.669  26.480  1.00  0.00    -0.237 OA
ATOM    104  O   UNL A   1      46.986  32.749  26.131  1.00  0.00    -0.237 OA
ATOM    105  O   UNL A   1      48.053  32.851  28.335  1.00  0.00    -0.744 OA
ENDBRANCH  99 102
ENDBRANCH  72  95
ENDBRANCH  46  47
ENDBRANCH  38  41
ENDBRANCH  36  37
ENDBRANCH  35  36
ENDBRANCH   1  35
TORSDOF 18
ENDMDL
MODEL 2
REMARK VINA RESULT:     -13.9      1.644      2.106
REMARK SMILES Cc1c(C(=O)NCCCCNC(=O)c2ccc(-c3c4nc(c(-c5cccc(S(=O)(=O)[O-])c5F)c5ccc([nH]5)c(-c5cccc(S(=O)(=O)[O-])c5F)c5nc(c(-c6cccc(S(=O)(=O)[O-])c6F)c6ccc3[nH]6)C=C5)C=C4)cc2)oc2c1/C(=N/NC(=O)C(c1ccccc1)c1ccccc1)CCC2
REMARK SMILES IDX 8 1 7 2 6 3 4 4 5 5 3 7 1 8 2 9 79 10 77 11 78 12 80 13
REMARK SMILES IDX 100 14 81 15 98 16 99 17 82 18 83 19 84 21 85 22 86 23 87 24
REMARK SMILES IDX 91 25 88 26 90 27 89 28 92 29 93 30 97 31 94 32 96 33 95 34
REMARK SMILES IDX 9 35 10 36 11 37 12 38 13 40 14 41 15 42 76 43 16 44 75 45
REMARK SMILES IDX 17 46 18 47 19 48 69 49 20 50 74 51 68 52 70 53 21 54 73 55
REMARK SMILES IDX 67 56 66 57 22 59 54 60 34 61 53 62 35 63 38 64 52 65 71 66
REMARK SMILES IDX 36 67 37 68 51 70 72 71 39 72 23 73 24 74 32 75 25 76 27 77
REMARK SMILES IDX 33 78 26 79 28 80 29 81 30 82 31 83 55 84 56 85 64 86 57 87
REMARK SMILES IDX 59 88 65 89 58 90 60 91 61 92 62 93 63 94 40 95 41 96 49 97
REMARK SMILES IDX 42 98 44 99 50 100 43 101 45 102 46 103 47 104 48 105
REMARK H PARENT 6 6 82 20 11 39 70 58 38 69
REMARK Flexibility Score: inf
ROOT
ATOM      1  C   UNL A   1      36.785  19.398  24.984  1.00  0.00     0.023 C 
ENDROOT
BRANCH   1   2
ATOM      2  C   UNL A   1      35.875  20.639  25.095  1.00  0.00     0.116 C 
BRANCH   2   3
ATOM      3  N   UNL A   1      36.556  21.832  25.626  1.00  0.00    -0.349 N 
ATOM      4  C   UNL A   1      36.078  23.113  25.911  1.00  0.00     0.287 C 
ATOM      5  O   UNL A   1      36.850  23.919  26.440  1.00  0.00    -0.266 OA
ATOM      6  H   UNL A   1      37.514  21.705  25.812  1.00  0.00     0.163 HD
BRANCH   4   7
ATOM      7  C   UNL A   1      34.703  23.434  25.588  1.00  0.00     0.195 A 
ATOM      8  C   UNL A   1      34.651  25.307  23.803  1.00  0.00     0.049 C 
ATOM      9  C   UNL A   1      34.032  24.357  24.761  1.00  0.00     0.010 A 
ATOM     10  C   UNL A   1      32.656  24.316  25.187  1.00  0.00     0.043 A 
ATOM     11  O   UNL A   1      33.794  22.727  26.291  1.00  0.00    -0.455 OA
ATOM     12  C   UNL A   1      32.660  23.390  26.214  1.00  0.00     0.114 A 
ATOM     13  C   UNL A   1      31.404  25.052  24.967  1.00  0.00     0.072 C 
ATOM     14  C   UNL A   1      31.697  23.118  27.292  1.00  0.00     0.076 C 
ATOM     15  N   UNL A   1      31.149  25.709  23.876  1.00  0.00    -0.177 NA
ATOM     16  C   UNL A   1      30.539  24.958  26.177  1.00  0.00     0.059 C 
ATOM     17  C   UNL A   1      30.370  23.571  26.774  1.00  0.00     0.014 C 
BRANCH  15  18
ATOM     18  N   UNL A   1      30.026  26.446  23.483  1.00  0.00    -0.246 N 
ATOM     19  C   UNL A   1      29.579  27.710  23.131  1.00  0.00     0.252 C 
ATOM     20  H   UNL A   1      29.259  25.829  23.440  1.00  0.00     0.193 HD
ATOM     21  O   UNL A   1      28.342  27.801  22.979  1.00  0.00    -0.272 OA
BRANCH  19  22
ATOM     22  C   UNL A   1      30.411  29.029  22.900  1.00  0.00     0.140 C 
BRANCH  22  23
ATOM     23  C   UNL A   1      29.401  30.194  22.565  1.00  0.00    -0.031 A 
ATOM     24  C   UNL A   1      28.881  30.466  21.290  1.00  0.00     0.005 A 
ATOM     25  C   UNL A   1      29.020  31.102  23.589  1.00  0.00     0.005 A 
ATOM     26  C   UNL A   1      28.209  31.678  21.024  1.00  0.00     0.000 A 
ATOM     27  C   UNL A   1      28.372  32.312  23.326  1.00  0.00     0.000 A 
ATOM     28  C   UNL A   1      27.994  32.618  22.031  1.00  0.00     0.000 A 
ENDBRANCH  22  23
BRANCH  22  29
ATOM     29  C   UNL A   1      31.517  29.089  24.038  1.00  0.00    -0.031 A 
ATOM     30  C   UNL A   1      32.875  28.969  23.646  1.00  0.00     0.005 A 
ATOM     31  C   UNL A   1      31.267  29.017  25.423  1.00  0.00     0.005 A 
ATOM     32  C   UNL A   1      33.862  28.507  24.522  1.00  0.00     0.000 A 
ATOM     33  C   UNL A   1      32.270  28.578  26.312  1.00  0.00     0.000 A 
ATOM     34  C   UNL A   1      33.547  28.266  25.850  1.00  0.00     0.000 A 
ENDBRANCH  22  29
ENDBRANCH  19  22
ENDBRANCH  15  18
ENDBRANCH   4   7
ENDBRANCH   2   3
ENDBRANCH   1   2
BRANCH   1  35
ATOM     35  C   UNL A   1      38.237  19.692  24.575  1.00  0.00     0.023 C 
BRANCH  35  36
ATOM     36  C   UNL A   1      39.184  19.985  25.734  1.00  0.00     0.116 C 
BRANCH  36  37
ATOM     37  N   UNL A   1      40.290  19.025  25.851  1.00  0.00    -0.352 N 
ATOM     38  C   UNL A   1      41.639  19.314  25.973  1.00  0.00     0.251 C 
ATOM     39  H   UNL A   1      40.045  18.072  25.839  1.00  0.00     0.163 HD
ATOM     40  O   UNL A   1      42.496  18.499  25.641  1.00  0.00    -0.269 OA
BRANCH  38  41
ATOM     41  C   UNL A   1      42.026  20.616  26.541  1.00  0.00     0.039 A 
ATOM     42  C   UNL A   1      42.531  21.659  25.758  1.00  0.00     0.014 A 
ATOM     43  C   UNL A   1      41.818  20.783  27.907  1.00  0.00     0.014 A 
ATOM     44  C   UNL A   1      42.746  22.902  26.356  1.00  0.00     0.010 A 
ATOM     45  C   UNL A   1      41.855  22.040  28.444  1.00  0.00     0.010 A 
ATOM     46  C   UNL A   1      42.389  23.086  27.700  1.00  0.00    -0.014 A 
BRANCH  46  47
ATOM     47  C   UNL A   1      42.437  24.398  28.336  1.00  0.00     0.031 A 
ATOM     48  C   UNL A   1      41.241  25.243  28.071  1.00  0.00     0.074 A 
ATOM     49  C   UNL A   1      43.347  24.691  29.293  1.00  0.00     0.049 A 
ATOM     50  N   UNL A   1      41.177  26.328  27.370  1.00  0.00    -0.248 NA
ATOM     51  C   UNL A   1      39.926  24.724  28.481  1.00  0.00     0.031 C 
ATOM     52  C   UNL A   1      44.358  23.795  29.878  1.00  0.00     0.029 A 
ATOM     53  N   UNL A   1      43.458  25.801  30.072  1.00  0.00    -0.354 N 
ATOM     54  C   UNL A   1      39.858  26.768  27.493  1.00  0.00     0.074 A 
ATOM     55  C   UNL A   1      39.108  25.627  27.936  1.00  0.00     0.031 C 
ATOM     56  C   UNL A   1      44.770  24.290  31.064  1.00  0.00     0.029 A 
ATOM     57  C   UNL A   1      44.199  25.611  31.239  1.00  0.00     0.049 A 
ATOM     58  H   UNL A   1      43.050  26.665  29.833  1.00  0.00     0.167 HD
ATOM     59  C   UNL A   1      39.568  28.101  27.529  1.00  0.00     0.034 A 
ATOM     60  C   UNL A   1      44.296  26.458  32.292  1.00  0.00     0.034 A 
ATOM     61  C   UNL A   1      40.699  28.877  27.066  1.00  0.00     0.049 A 
ATOM     62  C   UNL A   1      43.878  27.792  31.808  1.00  0.00     0.074 A 
ATOM     63  C   UNL A   1      41.461  28.920  25.915  1.00  0.00     0.029 A 
ATOM     64  N   UNL A   1      41.446  29.504  28.034  1.00  0.00    -0.354 N 
ATOM     65  N   UNL A   1      44.543  28.475  30.920  1.00  0.00    -0.248 NA
ATOM     66  C   UNL A   1      42.485  28.168  31.980  1.00  0.00     0.031 C 
ATOM     67  C   UNL A   1      42.797  29.141  26.367  1.00  0.00     0.029 A 
ATOM     68  C   UNL A   1      42.768  29.304  27.754  1.00  0.00     0.049 A 
ATOM     69  H   UNL A   1      41.089  30.011  28.799  1.00  0.00     0.167 HD
ATOM     70  C   UNL A   1      43.560  29.012  30.101  1.00  0.00     0.074 A 
ATOM     71  C   UNL A   1      42.321  28.893  30.870  1.00  0.00     0.031 C 
ATOM     72  C   UNL A   1      43.793  29.216  28.770  1.00  0.00     0.034 A 
BRANCH  59  73
ATOM     73  C   UNL A   1      38.488  28.749  28.394  1.00  0.00     0.023 A 
ATOM     74  C   UNL A   1      37.647  29.689  27.747  1.00  0.00     0.012 A 
ATOM     75  C   UNL A   1      38.441  28.739  29.807  1.00  0.00     0.148 A 
ATOM     76  C   UNL A   1      36.920  30.649  28.460  1.00  0.00     0.002 A 
ATOM     77  C   UNL A   1      37.675  29.661  30.514  1.00  0.00     0.091 A 
ATOM     78  F   UNL A   1      39.205  27.905  30.507  1.00  0.00    -0.205 F 
ATOM     79  C   UNL A   1      36.945  30.644  29.846  1.00  0.00     0.022 A 
BRANCH  77  80
ATOM     80  S   UNL A   1      37.643  29.683  32.314  1.00  0.00     0.127 S 
ATOM     81  O   UNL A   1      36.552  30.616  32.570  1.00  0.00    -0.237 OA
ATOM     82  O   UNL A   1      37.352  28.282  32.620  1.00  0.00    -0.237 OA
ATOM     83  O   UNL A   1      38.969  30.123  32.730  1.00  0.00    -0.744 OA
ENDBRANCH  77  80
ENDBRANCH  59  73
BRANCH  60  84
ATOM     84  C   UNL A   1      44.487  26.185  33.736  1.00  0.00     0.023 A 
ATOM     85  C   UNL A   1      45.771  26.307  34.304  1.00  0.00     0.012 A 
ATOM     86  C   UNL A   1      43.379  26.098  34.608  1.00  0.00     0.148 A 
ATOM     87  C   UNL A   1      45.943  26.386  35.692  1.00  0.00     0.002 A 
ATOM     88  C   UNL A   1      43.555  26.173  35.987  1.00  0.00     0.091 A 
ATOM     89  F   UNL A   1      42.149  26.039  34.081  1.00  0.00    -0.205 F 
ATOM     90  C   UNL A   1      44.835  26.330  36.533  1.00  0.00     0.022 A 
BRANCH  88  91
ATOM     91  S   UNL A   1      42.171  26.136  37.134  1.00  0.00     0.127 S 
ATOM     92  O   UNL A   1      42.847  26.263  38.426  1.00  0.00    -0.237 OA
ATOM     93  O   UNL A   1      41.409  27.311  36.724  1.00  0.00    -0.237 OA
ATOM     94  O   UNL A   1      41.517  24.850  36.924  1.00  0.00    -0.744 OA
ENDBRANCH  88  91
ENDBRANCH  60  84
BRANCH  72  95
ATOM     95  C   UNL A   1      45.213  29.114  28.273  1.00  0.00     0.023 A 
ATOM     96  C   UNL A   1      46.152  30.159  28.419  1.00  0.00     0.012 A 
ATOM     97  C   UNL A   1      45.654  27.867  27.804  1.00  0.00     0.148 A 
ATOM     98  C   UNL A   1      47.496  29.965  28.086  1.00  0.00     0.002 A 
ATOM     99  C   UNL A   1      46.998  27.663  27.521  1.00  0.00     0.091 A 
ATOM    100  F   UNL A   1      44.749  26.887  27.673  1.00  0.00    -0.205 F 
ATOM    101  C   UNL A   1      47.921  28.712  27.651  1.00  0.00     0.022 A 
BRANCH  99 102
ATOM    102  S   UNL A   1      47.622  26.041  27.083  1.00  0.00     0.127 S 
ATOM    103  O   UNL A   1      47.874  25.447  28.394  1.00  0.00    -0.237 OA
ATOM    104  O   UNL A   1      46.496  25.458  26.351  1.00  0.00    -0.237 OA
ATOM    105  O   UNL A   1      48.805  26.275  26.263  1.00  0.00    -0.744 OA
ENDBRANCH  99 102
ENDBRANCH  72  95
ENDBRANCH  46  47
ENDBRANCH  38  41
ENDBRANCH  36  37
ENDBRANCH  35  36
ENDBRANCH   1  35
TORSDOF 18
ENDMDL
MODEL 3
REMARK VINA RESULT:     -13.8      1.910      2.202
REMARK SMILES Cc1c(C(=O)NCCCCNC(=O)c2ccc(-c3c4nc(c(-c5cccc(S(=O)(=O)[O-])c5F)c5ccc([nH]5)c(-c5cccc(S(=O)(=O)[O-])c5F)c5nc(c(-c6cccc(S(=O)(=O)[O-])c6F)c6ccc3[nH]6)C=C5)C=C4)cc2)oc2c1/C(=N/NC(=O)C(c1ccccc1)c1ccccc1)CCC2
REMARK SMILES IDX 8 1 7 2 6 3 4 4 5 5 3 7 1 8 2 9 79 10 77 11 78 12 80 13
REMARK SMILES IDX 100 14 81 15 98 16 99 17 82 18 83 19 84 21 85 22 86 23 87 24
REMARK SMILES IDX 91 25 88 26 90 27 89 28 92 29 93 30 97 31 94 32 96 33 95 34
REMARK SMILES IDX 9 35 10 36 11 37 12 38 13 40 14 41 15 42 76 43 16 44 75 45
REMARK SMILES IDX 17 46 18 47 19 48 69 49 20 50 74 51 68 52 70 53 21 54 73 55
REMARK SMILES IDX 67 56 66 57 22 59 54 60 34 61 53 62 35 63 38 64 52 65 71 66
REMARK SMILES IDX 36 67 37 68 51 70 72 71 39 72 23 73 24 74 32 75 25 76 27 77
REMARK SMILES IDX 33 78 26 79 28 80 29 81 30 82 31 83 55 84 56 85 64 86 57 87
REMARK SMILES IDX 59 88 65 89 58 90 60 91 61 92 62 93 63 94 40 95 41 96 49 97
REMARK SMILES IDX 42 98 44 99 50 100 43 101 45 102 46 103 47 104 48 105
REMARK H PARENT 6 6 82 20 11 39 70 58 38 69
REMARK Flexibility Score: inf
ROOT
ATOM      1  C   UNL A   1      36.691  21.118  24.656  1.00  0.00     0.023 C 
ENDROOT
BRANCH   1   2
ATOM      2  C   UNL A   1      35.705  21.336  25.824  1.00  0.00     0.116 C 
BRANCH   2   3
ATOM      3  N   UNL A   1      34.602  20.361  25.862  1.00  0.00    -0.349 N 
ATOM      4  C   UNL A   1      33.265  20.470  25.474  1.00  0.00     0.287 C 
ATOM      5  O   UNL A   1      32.557  19.459  25.530  1.00  0.00    -0.266 OA
ATOM      6  H   UNL A   1      34.850  19.479  26.223  1.00  0.00     0.163 HD
BRANCH   4   7
ATOM      7  C   UNL A   1      32.773  21.752  25.015  1.00  0.00     0.195 A 
ATOM      8  C   UNL A   1      30.493  22.253  26.132  1.00  0.00     0.049 C 
ATOM      9  C   UNL A   1      31.618  22.537  25.206  1.00  0.00     0.010 A 
ATOM     10  C   UNL A   1      31.673  23.549  24.181  1.00  0.00     0.043 A 
ATOM     11  O   UNL A   1      33.576  22.359  24.115  1.00  0.00    -0.455 OA
ATOM     12  C   UNL A   1      32.838  23.255  23.496  1.00  0.00     0.114 A 
ATOM     13  C   UNL A   1      30.819  24.599  23.611  1.00  0.00     0.072 C 
ATOM     14  C   UNL A   1      33.319  23.655  22.165  1.00  0.00     0.076 C 
ATOM     15  N   UNL A   1      29.878  25.192  24.283  1.00  0.00    -0.177 NA
ATOM     16  C   UNL A   1      31.171  24.819  22.180  1.00  0.00     0.059 C 
ATOM     17  C   UNL A   1      32.651  24.959  21.868  1.00  0.00     0.014 C 
BRANCH  15  18
ATOM     18  N   UNL A   1      28.986  26.208  23.922  1.00  0.00    -0.246 N 
ATOM     19  C   UNL A   1      28.894  27.533  23.524  1.00  0.00     0.252 C 
ATOM     20  H   UNL A   1      28.073  25.840  23.968  1.00  0.00     0.193 HD
ATOM     21  O   UNL A   1      27.728  27.974  23.450  1.00  0.00    -0.272 OA
BRANCH  19  22
ATOM     22  C   UNL A   1      30.050  28.542  23.159  1.00  0.00     0.140 C 
BRANCH  22  23
ATOM     23  C   UNL A   1      29.394  29.939  22.831  1.00  0.00    -0.031 A 
ATOM     24  C   UNL A   1      28.869  30.309  21.583  1.00  0.00     0.005 A 
ATOM     25  C   UNL A   1      29.378  30.952  23.827  1.00  0.00     0.005 A 
ATOM     26  C   UNL A   1      28.556  31.656  21.298  1.00  0.00     0.000 A 
ATOM     27  C   UNL A   1      29.087  32.289  23.544  1.00  0.00     0.000 A 
ATOM     28  C   UNL A   1      28.707  32.650  22.264  1.00  0.00     0.000 A 
ENDBRANCH  22  23
BRANCH  22  29
ATOM     29  C   UNL A   1      31.218  28.314  24.209  1.00  0.00    -0.031 A 
ATOM     30  C   UNL A   1      32.491  27.937  23.708  1.00  0.00     0.005 A 
ATOM     31  C   UNL A   1      31.055  28.225  25.605  1.00  0.00     0.005 A 
ATOM     32  C   UNL A   1      33.417  27.237  24.487  1.00  0.00     0.000 A 
ATOM     33  C   UNL A   1      32.003  27.543  26.397  1.00  0.00     0.000 A 
ATOM     34  C   UNL A   1      33.152  26.999  25.826  1.00  0.00     0.000 A 
ENDBRANCH  22  29
ENDBRANCH  19  22
ENDBRANCH  15  18
ENDBRANCH   4   7
ENDBRANCH   2   3
ENDBRANCH   1   2
BRANCH   1  35
ATOM     35  C   UNL A   1      37.716  19.995  24.873  1.00  0.00     0.023 C 
BRANCH  35  36
ATOM     36  C   UNL A   1      38.899  20.368  25.761  1.00  0.00     0.116 C 
BRANCH  36  37
ATOM     37  N   UNL A   1      39.962  19.355  25.787  1.00  0.00    -0.352 N 
ATOM     38  C   UNL A   1      41.327  19.576  25.874  1.00  0.00     0.251 C 
ATOM     39  H   UNL A   1      39.673  18.416  25.735  1.00  0.00     0.163 HD
ATOM     40  O   UNL A   1      42.133  18.742  25.469  1.00  0.00    -0.269 OA
BRANCH  38  41
ATOM     41  C   UNL A   1      41.793  20.827  26.495  1.00  0.00     0.039 A 
ATOM     42  C   UNL A   1      42.273  21.906  25.746  1.00  0.00     0.014 A 
ATOM     43  C   UNL A   1      41.688  20.909  27.880  1.00  0.00     0.014 A 
ATOM     44  C   UNL A   1      42.570  23.100  26.404  1.00  0.00     0.010 A 
ATOM     45  C   UNL A   1      41.803  22.126  28.493  1.00  0.00     0.010 A 
ATOM     46  C   UNL A   1      42.315  23.204  27.780  1.00  0.00    -0.014 A 
BRANCH  46  47
ATOM     47  C   UNL A   1      42.449  24.470  28.494  1.00  0.00     0.031 A 
ATOM     48  C   UNL A   1      41.328  25.419  28.257  1.00  0.00     0.074 A 
ATOM     49  C   UNL A   1      43.357  24.635  29.483  1.00  0.00     0.049 A 
ATOM     50  N   UNL A   1      41.363  26.544  27.621  1.00  0.00    -0.248 NA
ATOM     51  C   UNL A   1      39.967  24.982  28.611  1.00  0.00     0.031 C 
ATOM     52  C   UNL A   1      44.282  23.631  30.032  1.00  0.00     0.029 A 
ATOM     53  N   UNL A   1      43.534  25.687  30.328  1.00  0.00    -0.354 N 
ATOM     54  C   UNL A   1      40.080  27.078  27.745  1.00  0.00     0.074 A 
ATOM     55  C   UNL A   1      39.234  25.975  28.106  1.00  0.00     0.031 C 
ATOM     56  C   UNL A   1      44.704  24.023  31.253  1.00  0.00     0.029 A 
ATOM     57  C   UNL A   1      44.232  25.372  31.495  1.00  0.00     0.049 A 
ATOM     58  H   UNL A   1      43.200  26.591  30.133  1.00  0.00     0.167 HD
ATOM     59  C   UNL A   1      39.892  28.426  27.854  1.00  0.00     0.034 A 
ATOM     60  C   UNL A   1      44.369  26.147  32.598  1.00  0.00     0.034 A 
ATOM     61  C   UNL A   1      41.090  29.136  27.459  1.00  0.00     0.049 A 
ATOM     62  C   UNL A   1      44.067  27.535  32.186  1.00  0.00     0.074 A 
ATOM     63  C   UNL A   1      41.879  29.186  26.327  1.00  0.00     0.029 A 
ATOM     64  N   UNL A   1      41.860  29.646  28.477  1.00  0.00    -0.354 N 
ATOM     65  N   UNL A   1      44.802  28.214  31.353  1.00  0.00    -0.248 NA
ATOM     66  C   UNL A   1      42.703  28.008  32.355  1.00  0.00     0.031 C 
ATOM     67  C   UNL A   1      43.217  29.276  26.817  1.00  0.00     0.029 A 
ATOM     68  C   UNL A   1      43.169  29.360  28.209  1.00  0.00     0.049 A 
ATOM     69  H   UNL A   1      41.526  30.135  29.264  1.00  0.00     0.167 HD
ATOM     70  C   UNL A   1      43.882  28.872  30.549  1.00  0.00     0.074 A 
ATOM     71  C   UNL A   1      42.620  28.806  31.287  1.00  0.00     0.031 C 
ATOM     72  C   UNL A   1      44.161  29.134  29.238  1.00  0.00     0.034 A 
BRANCH  59  73
ATOM     73  C   UNL A   1      38.846  29.106  28.736  1.00  0.00     0.023 A 
ATOM     74  C   UNL A   1      38.144  30.191  28.154  1.00  0.00     0.012 A 
ATOM     75  C   UNL A   1      38.726  28.966  30.138  1.00  0.00     0.148 A 
ATOM     76  C   UNL A   1      37.489  31.154  28.930  1.00  0.00     0.002 A 
ATOM     77  C   UNL A   1      38.028  29.896  30.903  1.00  0.00     0.091 A 
ATOM     78  F   UNL A   1      39.360  27.989  30.782  1.00  0.00    -0.205 F 
ATOM     79  C   UNL A   1      37.443  31.014  30.309  1.00  0.00     0.022 A 
BRANCH  77  80
ATOM     80  S   UNL A   1      37.908  29.750  32.693  1.00  0.00     0.127 S 
ATOM     81  O   UNL A   1      39.299  29.945  33.091  1.00  0.00    -0.237 OA
ATOM     82  O   UNL A   1      37.006  30.854  33.019  1.00  0.00    -0.237 OA
ATOM     83  O   UNL A   1      37.353  28.427  32.949  1.00  0.00    -0.744 OA
ENDBRANCH  77  80
ENDBRANCH  59  73
BRANCH  60  84
ATOM     84  C   UNL A   1      44.505  25.777  34.027  1.00  0.00     0.023 A 
ATOM     85  C   UNL A   1      43.377  25.325  34.740  1.00  0.00     0.012 A 
ATOM     86  C   UNL A   1      45.779  25.582  34.604  1.00  0.00     0.148 A 
ATOM     87  C   UNL A   1      43.513  24.661  35.966  1.00  0.00     0.002 A 
ATOM     88  C   UNL A   1      45.910  24.925  35.825  1.00  0.00     0.091 A 
ATOM     89  F   UNL A   1      46.864  25.955  33.912  1.00  0.00    -0.205 F 
ATOM     90  C   UNL A   1      44.780  24.451  36.503  1.00  0.00     0.022 A 
BRANCH  88  91
ATOM     91  S   UNL A   1      47.514  24.592  36.568  1.00  0.00     0.127 S 
ATOM     92  O   UNL A   1      48.165  23.789  35.532  1.00  0.00    -0.237 OA
ATOM     93  O   UNL A   1      48.056  25.938  36.730  1.00  0.00    -0.237 OA
ATOM     94  O   UNL A   1      47.235  23.867  37.801  1.00  0.00    -0.744 OA
ENDBRANCH  88  91
ENDBRANCH  60  84
BRANCH  72  95
ATOM     95  C   UNL A   1      45.579  28.951  28.762  1.00  0.00     0.023 A 
ATOM     96  C   UNL A   1      46.598  29.897  29.009  1.00  0.00     0.012 A 
ATOM     97  C   UNL A   1      45.926  27.712  28.202  1.00  0.00     0.148 A 
ATOM     98  C   UNL A   1      47.930  29.615  28.688  1.00  0.00     0.002 A 
ATOM     99  C   UNL A   1      47.255  27.416  27.930  1.00  0.00     0.091 A 
ATOM    100  F   UNL A   1      44.946  26.825  27.974  1.00  0.00    -0.205 F 
ATOM    101  C   UNL A   1      48.260  28.368  28.161  1.00  0.00     0.022 A 
BRANCH  99 102
ATOM    102  S   UNL A   1      47.753  25.786  27.373  1.00  0.00     0.127 S 
ATOM    103  O   UNL A   1      47.240  25.762  26.005  1.00  0.00    -0.237 OA
ATOM    104  O   UNL A   1      49.211  25.848  27.481  1.00  0.00    -0.237 OA
ATOM    105  O   UNL A   1      47.129  24.842  28.293  1.00  0.00    -0.744 OA
ENDBRANCH  99 102
ENDBRANCH  72  95
ENDBRANCH  46  47
ENDBRANCH  38  41
ENDBRANCH  36  37
ENDBRANCH  35  36
ENDBRANCH   1  35
TORSDOF 18
ENDMDL
