MODEL 1
REMARK VINA RESULT:     -11.5      0.000      0.000
REMARK SMILES C[C@H](NC(=O)c1cc(S(=O)(=O)N(C)C)cs1)C(=O)NCCCCNC(=O)c1ccc(-c2c3nc(c(-c4cccc(S(=O)(=O)[O-])c4F)c4ccc([nH]4)c(-c4cccc(S(=O)(=O)[O-])c4F)c4nc(c(-c5cccc(S(=O)(=O)[O-])c5F)c5ccc2[nH]5)C=C4)C=C3)cc1
REMARK SMILES IDX 21 1 20 2 19 3 17 4 18 5 2 7 1 8 3 9 4 10 5 12 6 13 7 14
REMARK SMILES IDX 16 15 8 16 15 17 9 18 10 19 11 20 12 21 13 22 14 23 22 24
REMARK SMILES IDX 23 25 24 26 25 27 26 29 27 30 28 31 89 32 29 33 88 34 30 35
REMARK SMILES IDX 31 36 32 37 82 38 33 39 87 40 81 41 83 42 34 43 86 44 80 45
REMARK SMILES IDX 79 46 35 48 67 49 47 50 66 51 48 52 51 53 65 54 84 55 49 56
REMARK SMILES IDX 50 57 64 59 85 60 52 61 36 62 37 63 45 64 38 65 40 66 46 67
REMARK SMILES IDX 39 68 41 69 42 70 43 71 44 72 68 73 69 74 77 75 70 76 72 77
REMARK SMILES IDX 78 78 71 79 73 80 74 81 75 82 76 83 53 84 54 85 62 86 55 87
REMARK SMILES IDX 57 88 63 89 56 90 58 91 59 92 60 93 61 94
REMARK H PARENT 19 6 3 11 24 28 83 47 51 58
REMARK Flexibility Score: inf
ROOT
ATOM      1  C   UNL A   1      35.982  22.611  23.632  1.00  0.00     0.023 C 
ENDROOT
BRANCH   1   2
ATOM      2  C   UNL A   1      34.494  22.926  23.727  1.00  0.00     0.116 C 
BRANCH   2   3
ATOM      3  N   UNL A   1      33.713  21.741  24.036  1.00  0.00    -0.354 N 
ATOM      4  C   UNL A   1      33.017  21.409  25.161  1.00  0.00     0.242 C 
ATOM      5  O   UNL A   1      32.303  20.404  25.131  1.00  0.00    -0.273 OA
ATOM      6  H   UNL A   1      33.682  21.068  23.318  1.00  0.00     0.163 HD
BRANCH   4   7
ATOM      7  C   UNL A   1      33.028  22.323  26.398  1.00  0.00     0.168 C 
ATOM      8  C   UNL A   1      33.978  21.745  27.447  1.00  0.00     0.041 C 
BRANCH   7   9
ATOM      9  N   UNL A   1      31.663  22.556  26.881  1.00  0.00    -0.340 N 
ATOM     10  C   UNL A   1      30.762  23.547  26.584  1.00  0.00     0.262 C 
ATOM     11  H   UNL A   1      31.338  21.888  27.528  1.00  0.00     0.164 HD
ATOM     12  O   UNL A   1      29.727  23.589  27.249  1.00  0.00    -0.268 OA
BRANCH  10  13
ATOM     13  C   UNL A   1      31.075  24.479  25.521  1.00  0.00     0.093 A 
ATOM     14  C   UNL A   1      31.678  25.718  25.597  1.00  0.00     0.047 A 
ATOM     15  S   UNL A   1      30.700  24.068  23.899  1.00  0.00    -0.137 S 
ATOM     16  C   UNL A   1      31.728  26.376  24.336  1.00  0.00     0.094 A 
ATOM     17  C   UNL A   1      31.222  25.594  23.322  1.00  0.00     0.087 A 
BRANCH  16  18
ATOM     18  S   UNL A   1      32.297  27.995  24.112  1.00  0.00     0.243 S 
ATOM     19  O   UNL A   1      33.543  28.044  24.839  1.00  0.00    -0.207 OA
ATOM     20  O   UNL A   1      32.237  28.161  22.674  1.00  0.00    -0.207 OA
BRANCH  18  21
ATOM     21  N   UNL A   1      31.197  29.083  24.834  1.00  0.00    -0.204 NA
ATOM     22  C   UNL A   1      31.802  30.079  25.748  1.00  0.00     0.124 C 
ATOM     23  C   UNL A   1      30.279  29.726  23.868  1.00  0.00     0.124 C 
ENDBRANCH  18  21
ENDBRANCH  16  18
ENDBRANCH  10  13
ENDBRANCH   7   9
ENDBRANCH   4   7
ENDBRANCH   2   3
ENDBRANCH   1   2
BRANCH   1  24
ATOM     24  C   UNL A   1      36.435  21.414  24.469  1.00  0.00     0.023 C 
BRANCH  24  25
ATOM     25  C   UNL A   1      37.283  21.757  25.689  1.00  0.00     0.116 C 
BRANCH  25  26
ATOM     26  N   UNL A   1      38.359  20.803  25.918  1.00  0.00    -0.352 N 
ATOM     27  C   UNL A   1      39.635  21.038  26.369  1.00  0.00     0.251 C 
ATOM     28  H   UNL A   1      38.142  19.862  25.725  1.00  0.00     0.163 HD
ATOM     29  O   UNL A   1      40.460  20.130  26.387  1.00  0.00    -0.269 OA
BRANCH  27  30
ATOM     30  C   UNL A   1      40.014  22.399  26.800  1.00  0.00     0.039 A 
ATOM     31  C   UNL A   1      40.958  22.546  27.819  1.00  0.00     0.014 A 
ATOM     32  C   UNL A   1      39.464  23.523  26.177  1.00  0.00     0.014 A 
ATOM     33  C   UNL A   1      41.404  23.823  28.167  1.00  0.00     0.010 A 
ATOM     34  C   UNL A   1      39.959  24.788  26.479  1.00  0.00     0.010 A 
ATOM     35  C   UNL A   1      40.934  24.951  27.476  1.00  0.00    -0.014 A 
BRANCH  35  36
ATOM     36  C   UNL A   1      41.459  26.309  27.764  1.00  0.00     0.031 A 
ATOM     37  C   UNL A   1      42.861  26.678  27.365  1.00  0.00     0.074 A 
ATOM     38  C   UNL A   1      40.708  27.175  28.474  1.00  0.00     0.049 A 
ATOM     39  N   UNL A   1      43.516  27.787  27.591  1.00  0.00    -0.248 NA
ATOM     40  C   UNL A   1      43.639  25.658  26.644  1.00  0.00     0.031 C 
ATOM     41  C   UNL A   1      39.367  26.903  28.994  1.00  0.00     0.029 A 
ATOM     42  N   UNL A   1      40.980  28.449  28.908  1.00  0.00    -0.354 N 
ATOM     43  C   UNL A   1      44.792  27.586  27.078  1.00  0.00     0.074 A 
ATOM     44  C   UNL A   1      44.828  26.237  26.556  1.00  0.00     0.031 C 
ATOM     45  C   UNL A   1      38.933  27.976  29.676  1.00  0.00     0.029 A 
ATOM     46  C   UNL A   1      39.970  29.003  29.660  1.00  0.00     0.049 A 
ATOM     47  H   UNL A   1      41.818  28.921  28.700  1.00  0.00     0.167 HD
ATOM     48  C   UNL A   1      45.828  28.454  27.016  1.00  0.00     0.034 A 
ATOM     49  C   UNL A   1      39.890  30.201  30.270  1.00  0.00     0.034 A 
ATOM     50  C   UNL A   1      45.769  29.813  27.482  1.00  0.00     0.049 A 
ATOM     51  C   UNL A   1      41.032  31.171  30.131  1.00  0.00     0.074 A 
ATOM     52  C   UNL A   1      46.731  30.802  27.373  1.00  0.00     0.029 A 
ATOM     53  N   UNL A   1      44.690  30.376  28.144  1.00  0.00    -0.354 N 
ATOM     54  N   UNL A   1      42.166  31.022  29.491  1.00  0.00    -0.248 NA
ATOM     55  C   UNL A   1      40.869  32.488  30.763  1.00  0.00     0.031 C 
ATOM     56  C   UNL A   1      46.234  31.963  27.978  1.00  0.00     0.029 A 
ATOM     57  C   UNL A   1      44.960  31.697  28.454  1.00  0.00     0.049 A 
ATOM     58  H   UNL A   1      43.853  29.904  28.363  1.00  0.00     0.167 HD
ATOM     59  C   UNL A   1      42.836  32.233  29.614  1.00  0.00     0.074 A 
ATOM     60  C   UNL A   1      41.972  33.113  30.373  1.00  0.00     0.031 C 
ATOM     61  C   UNL A   1      44.065  32.580  29.158  1.00  0.00     0.034 A 
BRANCH  48  62
ATOM     62  C   UNL A   1      47.097  27.980  26.359  1.00  0.00     0.023 A 
ATOM     63  C   UNL A   1      48.125  27.436  27.156  1.00  0.00     0.012 A 
ATOM     64  C   UNL A   1      47.255  28.020  24.960  1.00  0.00     0.148 A 
ATOM     65  C   UNL A   1      49.303  26.970  26.577  1.00  0.00     0.002 A 
ATOM     66  C   UNL A   1      48.416  27.515  24.386  1.00  0.00     0.091 A 
ATOM     67  F   UNL A   1      46.278  28.563  24.219  1.00  0.00    -0.205 F 
ATOM     68  C   UNL A   1      49.445  26.999  25.192  1.00  0.00     0.022 A 
BRANCH  66  69
ATOM     69  S   UNL A   1      48.660  27.443  22.607  1.00  0.00     0.127 S 
ATOM     70  O   UNL A   1      49.969  28.077  22.463  1.00  0.00    -0.237 OA
ATOM     71  O   UNL A   1      48.649  26.003  22.350  1.00  0.00    -0.237 OA
ATOM     72  O   UNL A   1      47.542  28.169  22.023  1.00  0.00    -0.744 OA
ENDBRANCH  66  69
ENDBRANCH  48  62
BRANCH  49  73
ATOM     73  C   UNL A   1      38.645  30.583  30.995  1.00  0.00     0.023 A 
ATOM     74  C   UNL A   1      38.541  30.310  32.373  1.00  0.00     0.012 A 
ATOM     75  C   UNL A   1      37.587  31.245  30.345  1.00  0.00     0.148 A 
ATOM     76  C   UNL A   1      37.395  30.665  33.085  1.00  0.00     0.002 A 
ATOM     77  C   UNL A   1      36.469  31.644  31.071  1.00  0.00     0.091 A 
ATOM     78  F   UNL A   1      37.696  31.485  29.030  1.00  0.00    -0.205 F 
ATOM     79  C   UNL A   1      36.365  31.341  32.438  1.00  0.00     0.022 A 
BRANCH  77  80
ATOM     80  S   UNL A   1      35.157  32.635  30.346  1.00  0.00     0.127 S 
ATOM     81  O   UNL A   1      35.865  33.866  30.005  1.00  0.00    -0.237 OA
ATOM     82  O   UNL A   1      34.754  31.818  29.201  1.00  0.00    -0.237 OA
ATOM     83  O   UNL A   1      34.141  32.750  31.383  1.00  0.00    -0.744 OA
ENDBRANCH  77  80
ENDBRANCH  49  73
BRANCH  61  84
ATOM     84  C   UNL A   1      44.546  33.979  29.437  1.00  0.00     0.023 A 
ATOM     85  C   UNL A   1      45.134  34.276  30.681  1.00  0.00     0.012 A 
ATOM     86  C   UNL A   1      44.491  34.974  28.441  1.00  0.00     0.148 A 
ATOM     87  C   UNL A   1      45.637  35.550  30.941  1.00  0.00     0.002 A 
ATOM     88  C   UNL A   1      45.034  36.229  28.691  1.00  0.00     0.091 A 
ATOM     89  F   UNL A   1      43.909  34.677  27.270  1.00  0.00    -0.205 F 
ATOM     90  C   UNL A   1      45.598  36.522  29.943  1.00  0.00     0.022 A 
BRANCH  88  91
ATOM     91  S   UNL A   1      45.110  37.508  27.432  1.00  0.00     0.127 S 
ATOM     92  O   UNL A   1      43.696  37.692  27.109  1.00  0.00    -0.237 OA
ATOM     93  O   UNL A   1      45.722  38.623  28.154  1.00  0.00    -0.237 OA
ATOM     94  O   UNL A   1      45.933  36.962  26.361  1.00  0.00    -0.744 OA
ENDBRANCH  88  91
ENDBRANCH  61  84
ENDBRANCH  35  36
ENDBRANCH  27  30
ENDBRANCH  25  26
ENDBRANCH  24  25
ENDBRANCH   1  24
TORSDOF 18
ENDMDL
MODEL 2
REMARK VINA RESULT:     -11.5      4.739      9.688
REMARK SMILES C[C@H](NC(=O)c1cc(S(=O)(=O)N(C)C)cs1)C(=O)NCCCCNC(=O)c1ccc(-c2c3nc(c(-c4cccc(S(=O)(=O)[O-])c4F)c4ccc([nH]4)c(-c4cccc(S(=O)(=O)[O-])c4F)c4nc(c(-c5cccc(S(=O)(=O)[O-])c5F)c5ccc2[nH]5)C=C4)C=C3)cc1
REMARK SMILES IDX 21 1 20 2 19 3 17 4 18 5 2 7 1 8 3 9 4 10 5 12 6 13 7 14
REMARK SMILES IDX 16 15 8 16 15 17 9 18 10 19 11 20 12 21 13 22 14 23 22 24
REMARK SMILES IDX 23 25 24 26 25 27 26 29 27 30 28 31 89 32 29 33 88 34 30 35
REMARK SMILES IDX 31 36 32 37 82 38 33 39 87 40 81 41 83 42 34 43 86 44 80 45
REMARK SMILES IDX 79 46 35 48 67 49 47 50 66 51 48 52 51 53 65 54 84 55 49 56
REMARK SMILES IDX 50 57 64 59 85 60 52 61 36 62 37 63 45 64 38 65 40 66 46 67
REMARK SMILES IDX 39 68 41 69 42 70 43 71 44 72 68 73 69 74 77 75 70 76 72 77
REMARK SMILES IDX 78 78 71 79 73 80 74 81 75 82 76 83 53 84 54 85 62 86 55 87
REMARK SMILES IDX 57 88 63 89 56 90 58 91 59 92 60 93 61 94
REMARK H PARENT 19 6 3 11 24 28 83 47 51 58
REMARK Flexibility Score: inf
ROOT
ATOM      1  C   UNL A   1      31.803  28.181  26.357  1.00  0.00     0.023 C 
ENDROOT
BRANCH   1   2
ATOM      2  C   UNL A   1      31.040  27.477  25.241  1.00  0.00     0.116 C 
BRANCH   2   3
ATOM      3  N   UNL A   1      30.793  28.364  24.117  1.00  0.00    -0.354 N 
ATOM      4  C   UNL A   1      31.527  28.591  22.991  1.00  0.00     0.242 C 
ATOM      5  O   UNL A   1      31.033  29.286  22.102  1.00  0.00    -0.273 OA
ATOM      6  H   UNL A   1      29.960  28.888  24.179  1.00  0.00     0.163 HD
BRANCH   4   7
ATOM      7  C   UNL A   1      32.887  27.904  22.782  1.00  0.00     0.168 C 
ATOM      8  C   UNL A   1      33.996  28.957  22.806  1.00  0.00     0.041 C 
BRANCH   7   9
ATOM      9  N   UNL A   1      32.867  27.075  21.571  1.00  0.00    -0.340 N 
ATOM     10  C   UNL A   1      32.928  25.714  21.414  1.00  0.00     0.262 C 
ATOM     11  H   UNL A   1      32.798  27.581  20.730  1.00  0.00     0.164 HD
ATOM     12  O   UNL A   1      33.041  25.280  20.269  1.00  0.00    -0.268 OA
BRANCH  10  13
ATOM     13  C   UNL A   1      32.858  24.872  22.591  1.00  0.00     0.093 A 
ATOM     14  C   UNL A   1      33.882  24.400  23.387  1.00  0.00     0.047 A 
ATOM     15  S   UNL A   1      31.331  24.351  23.169  1.00  0.00    -0.137 S 
ATOM     16  C   UNL A   1      33.418  23.519  24.403  1.00  0.00     0.094 A 
ATOM     17  C   UNL A   1      32.047  23.394  24.396  1.00  0.00     0.087 A 
BRANCH  16  18
ATOM     18  S   UNL A   1      34.459  22.651  25.480  1.00  0.00     0.243 S 
ATOM     19  O   UNL A   1      35.643  23.471  25.578  1.00  0.00    -0.207 OA
ATOM     20  O   UNL A   1      33.602  22.397  26.621  1.00  0.00    -0.207 OA
BRANCH  18  21
ATOM     21  N   UNL A   1      34.882  21.156  24.772  1.00  0.00    -0.204 NA
ATOM     22  C   UNL A   1      36.245  20.671  25.089  1.00  0.00     0.124 C 
ATOM     23  C   UNL A   1      33.871  20.096  24.978  1.00  0.00     0.124 C 
ENDBRANCH  18  21
ENDBRANCH  16  18
ENDBRANCH  10  13
ENDBRANCH   7   9
ENDBRANCH   4   7
ENDBRANCH   2   3
ENDBRANCH   1   2
BRANCH   1  24
ATOM     24  C   UNL A   1      33.239  27.692  26.554  1.00  0.00     0.023 C 
BRANCH  24  25
ATOM     25  C   UNL A   1      34.320  28.746  26.340  1.00  0.00     0.116 C 
BRANCH  25  26
ATOM     26  N   UNL A   1      33.911  30.074  26.776  1.00  0.00    -0.352 N 
ATOM     27  C   UNL A   1      34.513  30.901  27.692  1.00  0.00     0.251 C 
ATOM     28  H   UNL A   1      33.093  30.426  26.357  1.00  0.00     0.163 HD
ATOM     29  O   UNL A   1      33.965  31.943  28.036  1.00  0.00    -0.269 OA
BRANCH  27  30
ATOM     30  C   UNL A   1      35.811  30.511  28.281  1.00  0.00     0.039 A 
ATOM     31  C   UNL A   1      35.818  29.755  29.456  1.00  0.00     0.014 A 
ATOM     32  C   UNL A   1      37.011  30.859  27.656  1.00  0.00     0.014 A 
ATOM     33  C   UNL A   1      37.032  29.290  29.968  1.00  0.00     0.010 A 
ATOM     34  C   UNL A   1      38.211  30.339  28.130  1.00  0.00     0.010 A 
ATOM     35  C   UNL A   1      38.234  29.548  29.291  1.00  0.00    -0.014 A 
BRANCH  35  36
ATOM     36  C   UNL A   1      39.524  28.989  29.764  1.00  0.00     0.031 A 
ATOM     37  C   UNL A   1      40.277  29.662  30.878  1.00  0.00     0.074 A 
ATOM     38  C   UNL A   1      40.066  27.935  29.123  1.00  0.00     0.049 A 
ATOM     39  N   UNL A   1      41.447  29.363  31.380  1.00  0.00    -0.248 NA
ATOM     40  C   UNL A   1      39.648  30.844  31.490  1.00  0.00     0.031 C 
ATOM     41  C   UNL A   1      39.476  27.249  27.972  1.00  0.00     0.029 A 
ATOM     42  N   UNL A   1      41.252  27.274  29.329  1.00  0.00    -0.354 N 
ATOM     43  C   UNL A   1      41.712  30.337  32.334  1.00  0.00     0.074 A 
ATOM     44  C   UNL A   1      40.595  31.256  32.321  1.00  0.00     0.031 C 
ATOM     45  C   UNL A   1      40.300  26.266  27.574  1.00  0.00     0.029 A 
ATOM     46  C   UNL A   1      41.486  26.263  28.425  1.00  0.00     0.049 A 
ATOM     47  H   UNL A   1      41.876  27.502  30.055  1.00  0.00     0.167 HD
ATOM     48  C   UNL A   1      42.772  30.441  33.170  1.00  0.00     0.034 A 
ATOM     49  C   UNL A   1      42.536  25.431  28.295  1.00  0.00     0.034 A 
ATOM     50  C   UNL A   1      43.852  29.492  33.221  1.00  0.00     0.049 A 
ATOM     51  C   UNL A   1      43.673  25.528  29.278  1.00  0.00     0.074 A 
ATOM     52  C   UNL A   1      44.920  29.454  34.100  1.00  0.00     0.029 A 
ATOM     53  N   UNL A   1      44.002  28.417  32.360  1.00  0.00    -0.354 N 
ATOM     54  N   UNL A   1      43.822  26.352  30.286  1.00  0.00    -0.248 NA
ATOM     55  C   UNL A   1      44.765  24.556  29.131  1.00  0.00     0.031 C 
ATOM     56  C   UNL A   1      45.723  28.357  33.764  1.00  0.00     0.029 A 
ATOM     57  C   UNL A   1      45.146  27.709  32.682  1.00  0.00     0.049 A 
ATOM     58  H   UNL A   1      43.386  28.191  31.627  1.00  0.00     0.167 HD
ATOM     59  C   UNL A   1      45.005  25.979  30.912  1.00  0.00     0.074 A 
ATOM     60  C   UNL A   1      45.523  24.840  30.182  1.00  0.00     0.031 C 
ATOM     61  C   UNL A   1      45.618  26.540  31.984  1.00  0.00     0.034 A 
BRANCH  48  62
ATOM     62  C   UNL A   1      42.781  31.586  34.146  1.00  0.00     0.023 A 
ATOM     63  C   UNL A   1      43.361  32.814  33.762  1.00  0.00     0.012 A 
ATOM     64  C   UNL A   1      42.177  31.474  35.412  1.00  0.00     0.148 A 
ATOM     65  C   UNL A   1      43.368  33.900  34.636  1.00  0.00     0.002 A 
ATOM     66  C   UNL A   1      42.151  32.573  36.262  1.00  0.00     0.091 A 
ATOM     67  F   UNL A   1      41.653  30.292  35.769  1.00  0.00    -0.205 F 
ATOM     68  C   UNL A   1      42.754  33.784  35.880  1.00  0.00     0.022 A 
BRANCH  66  69
ATOM     69  S   UNL A   1      41.321  32.542  37.856  1.00  0.00     0.127 S 
ATOM     70  O   UNL A   1      42.125  31.565  38.587  1.00  0.00    -0.237 OA
ATOM     71  O   UNL A   1      41.477  33.924  38.313  1.00  0.00    -0.237 OA
ATOM     72  O   UNL A   1      39.947  32.149  37.580  1.00  0.00    -0.744 OA
ENDBRANCH  66  69
ENDBRANCH  48  62
BRANCH  49  73
ATOM     73  C   UNL A   1      42.521  24.375  27.244  1.00  0.00     0.023 A 
ATOM     74  C   UNL A   1      43.353  24.516  26.117  1.00  0.00     0.012 A 
ATOM     75  C   UNL A   1      41.725  23.221  27.370  1.00  0.00     0.148 A 
ATOM     76  C   UNL A   1      43.373  23.540  25.120  1.00  0.00     0.002 A 
ATOM     77  C   UNL A   1      41.788  22.227  26.399  1.00  0.00     0.091 A 
ATOM     78  F   UNL A   1      40.928  23.110  28.443  1.00  0.00    -0.205 F 
ATOM     79  C   UNL A   1      42.600  22.392  25.266  1.00  0.00     0.022 A 
BRANCH  77  80
ATOM     80  S   UNL A   1      40.928  20.659  26.573  1.00  0.00     0.127 S 
ATOM     81  O   UNL A   1      41.155  20.348  27.982  1.00  0.00    -0.237 OA
ATOM     82  O   UNL A   1      39.552  21.026  26.236  1.00  0.00    -0.237 OA
ATOM     83  O   UNL A   1      41.558  19.763  25.613  1.00  0.00    -0.744 OA
ENDBRANCH  77  80
ENDBRANCH  49  73
BRANCH  61  84
ATOM     84  C   UNL A   1      46.906  25.920  32.457  1.00  0.00     0.023 A 
ATOM     85  C   UNL A   1      46.887  25.016  33.536  1.00  0.00     0.012 A 
ATOM     86  C   UNL A   1      48.117  26.169  31.783  1.00  0.00     0.148 A 
ATOM     87  C   UNL A   1      48.058  24.388  33.955  1.00  0.00     0.002 A 
ATOM     88  C   UNL A   1      49.274  25.506  32.177  1.00  0.00     0.091 A 
ATOM     89  F   UNL A   1      48.119  27.049  30.771  1.00  0.00    -0.205 F 
ATOM     90  C   UNL A   1      49.248  24.623  33.268  1.00  0.00     0.022 A 
BRANCH  88  91
ATOM     91  S   UNL A   1      50.827  25.679  31.291  1.00  0.00     0.127 S 
ATOM     92  O   UNL A   1      51.697  24.769  32.034  1.00  0.00    -0.237 OA
ATOM     93  O   UNL A   1      50.474  25.225  29.946  1.00  0.00    -0.237 OA
ATOM     94  O   UNL A   1      51.176  27.091  31.375  1.00  0.00    -0.744 OA
ENDBRANCH  88  91
ENDBRANCH  61  84
ENDBRANCH  35  36
ENDBRANCH  27  30
ENDBRANCH  25  26
ENDBRANCH  24  25
ENDBRANCH   1  24
TORSDOF 18
ENDMDL
MODEL 3
REMARK VINA RESULT:     -11.5      5.632      9.096
REMARK SMILES C[C@H](NC(=O)c1cc(S(=O)(=O)N(C)C)cs1)C(=O)NCCCCNC(=O)c1ccc(-c2c3nc(c(-c4cccc(S(=O)(=O)[O-])c4F)c4ccc([nH]4)c(-c4cccc(S(=O)(=O)[O-])c4F)c4nc(c(-c5cccc(S(=O)(=O)[O-])c5F)c5ccc2[nH]5)C=C4)C=C3)cc1
REMARK SMILES IDX 21 1 20 2 19 3 17 4 18 5 2 7 1 8 3 9 4 10 5 12 6 13 7 14
REMARK SMILES IDX 16 15 8 16 15 17 9 18 10 19 11 20 12 21 13 22 14 23 22 24
REMARK SMILES IDX 23 25 24 26 25 27 26 29 27 30 28 31 89 32 29 33 88 34 30 35
REMARK SMILES IDX 31 36 32 37 82 38 33 39 87 40 81 41 83 42 34 43 86 44 80 45
REMARK SMILES IDX 79 46 35 48 67 49 47 50 66 51 48 52 51 53 65 54 84 55 49 56
REMARK SMILES IDX 50 57 64 59 85 60 52 61 36 62 37 63 45 64 38 65 40 66 46 67
REMARK SMILES IDX 39 68 41 69 42 70 43 71 44 72 68 73 69 74 77 75 70 76 72 77
REMARK SMILES IDX 78 78 71 79 73 80 74 81 75 82 76 83 53 84 54 85 62 86 55 87
REMARK SMILES IDX 57 88 63 89 56 90 58 91 59 92 60 93 61 94
REMARK H PARENT 19 6 3 11 24 28 83 47 51 58
REMARK Flexibility Score: inf
ROOT
ATOM      1  C   UNL A   1      31.935  30.138  26.791  1.00  0.00     0.023 C 
ENDROOT
BRANCH   1   2
ATOM      2  C   UNL A   1      32.639  29.474  25.614  1.00  0.00     0.116 C 
BRANCH   2   3
ATOM      3  N   UNL A   1      31.803  29.462  24.426  1.00  0.00    -0.354 N 
ATOM      4  C   UNL A   1      31.962  28.809  23.240  1.00  0.00     0.242 C 
ATOM      5  O   UNL A   1      31.034  28.838  22.429  1.00  0.00    -0.273 OA
ATOM      6  H   UNL A   1      30.992  30.017  24.486  1.00  0.00     0.163 HD
BRANCH   4   7
ATOM      7  C   UNL A   1      33.215  27.961  22.964  1.00  0.00     0.168 C 
ATOM      8  C   UNL A   1      34.458  28.847  23.058  1.00  0.00     0.041 C 
BRANCH   7   9
ATOM      9  N   UNL A   1      33.082  27.239  21.694  1.00  0.00    -0.340 N 
ATOM     10  C   UNL A   1      32.832  25.915  21.435  1.00  0.00     0.262 C 
ATOM     11  H   UNL A   1      33.191  27.799  20.891  1.00  0.00     0.164 HD
ATOM     12  O   UNL A   1      32.917  25.540  20.267  1.00  0.00    -0.268 OA
BRANCH  10  13
ATOM     13  C   UNL A   1      32.488  25.042  22.538  1.00  0.00     0.093 A 
ATOM     14  C   UNL A   1      33.281  24.136  23.214  1.00  0.00     0.047 A 
ATOM     15  S   UNL A   1      30.899  25.078  23.182  1.00  0.00    -0.137 S 
ATOM     16  C   UNL A   1      32.551  23.393  24.183  1.00  0.00     0.094 A 
ATOM     17  C   UNL A   1      31.238  23.797  24.267  1.00  0.00     0.087 A 
BRANCH  16  18
ATOM     18  S   UNL A   1      33.219  22.087  25.103  1.00  0.00     0.243 S 
ATOM     19  O   UNL A   1      34.591  21.999  24.663  1.00  0.00    -0.207 OA
ATOM     20  O   UNL A   1      32.867  22.439  26.464  1.00  0.00    -0.207 OA
BRANCH  18  21
ATOM     21  N   UNL A   1      32.415  20.639  24.689  1.00  0.00    -0.204 NA
ATOM     22  C   UNL A   1      32.309  20.369  23.236  1.00  0.00     0.124 C 
ATOM     23  C   UNL A   1      32.913  19.454  25.422  1.00  0.00     0.124 C 
ENDBRANCH  18  21
ENDBRANCH  16  18
ENDBRANCH  10  13
ENDBRANCH   7   9
ENDBRANCH   4   7
ENDBRANCH   2   3
ENDBRANCH   1   2
BRANCH   1  24
ATOM     24  C   UNL A   1      31.812  31.659  26.684  1.00  0.00     0.023 C 
BRANCH  24  25
ATOM     25  C   UNL A   1      32.957  32.450  27.308  1.00  0.00     0.116 C 
BRANCH  25  26
ATOM     26  N   UNL A   1      32.600  33.832  27.598  1.00  0.00    -0.352 N 
ATOM     27  C   UNL A   1      33.133  34.678  28.538  1.00  0.00     0.251 C 
ATOM     28  H   UNL A   1      31.879  34.210  27.044  1.00  0.00     0.163 HD
ATOM     29  O   UNL A   1      32.628  35.779  28.735  1.00  0.00    -0.269 OA
BRANCH  27  30
ATOM     30  C   UNL A   1      34.299  34.240  29.332  1.00  0.00     0.039 A 
ATOM     31  C   UNL A   1      34.084  33.646  30.578  1.00  0.00     0.014 A 
ATOM     32  C   UNL A   1      35.596  34.384  28.832  1.00  0.00     0.014 A 
ATOM     33  C   UNL A   1      35.168  33.132  31.294  1.00  0.00     0.010 A 
ATOM     34  C   UNL A   1      36.665  33.812  29.515  1.00  0.00     0.010 A 
ATOM     35  C   UNL A   1      36.462  33.180  30.752  1.00  0.00    -0.014 A 
BRANCH  35  36
ATOM     36  C   UNL A   1      37.616  32.561  31.451  1.00  0.00     0.031 A 
ATOM     37  C   UNL A   1      38.351  31.409  30.822  1.00  0.00     0.074 A 
ATOM     38  C   UNL A   1      37.938  32.970  32.694  1.00  0.00     0.049 A 
ATOM     39  N   UNL A   1      39.334  30.697  31.307  1.00  0.00    -0.248 NA
ATOM     40  C   UNL A   1      37.903  30.981  29.487  1.00  0.00     0.031 C 
ATOM     41  C   UNL A   1      37.245  34.018  33.446  1.00  0.00     0.029 A 
ATOM     42  N   UNL A   1      38.911  32.531  33.557  1.00  0.00    -0.354 N 
ATOM     43  C   UNL A   1      39.597  29.716  30.359  1.00  0.00     0.074 A 
ATOM     44  C   UNL A   1      38.648  29.905  29.283  1.00  0.00     0.031 C 
ATOM     45  C   UNL A   1      37.814  34.141  34.656  1.00  0.00     0.029 A 
ATOM     46  C   UNL A   1      38.897  33.170  34.776  1.00  0.00     0.049 A 
ATOM     47  H   UNL A   1      39.558  31.827  33.326  1.00  0.00     0.167 HD
ATOM     48  C   UNL A   1      40.561  28.765  30.366  1.00  0.00     0.034 A 
ATOM     49  C   UNL A   1      39.666  32.991  35.867  1.00  0.00     0.034 A 
ATOM     50  C   UNL A   1      41.540  28.619  31.409  1.00  0.00     0.049 A 
ATOM     51  C   UNL A   1      40.771  31.970  35.823  1.00  0.00     0.074 A 
ATOM     52  C   UNL A   1      42.618  27.753  31.461  1.00  0.00     0.029 A 
ATOM     53  N   UNL A   1      41.561  29.355  32.583  1.00  0.00    -0.354 N 
ATOM     54  N   UNL A   1      41.112  31.167  34.845  1.00  0.00    -0.248 NA
ATOM     55  C   UNL A   1      41.622  31.857  37.016  1.00  0.00     0.031 C 
ATOM     56  C   UNL A   1      43.287  27.961  32.672  1.00  0.00     0.029 A 
ATOM     57  C   UNL A   1      42.630  28.964  33.368  1.00  0.00     0.049 A 
ATOM     58  H   UNL A   1      40.910  30.055  32.823  1.00  0.00     0.167 HD
ATOM     59  C   UNL A   1      42.235  30.478  35.291  1.00  0.00     0.074 A 
ATOM     60  C   UNL A   1      42.528  30.974  36.619  1.00  0.00     0.031 C 
ATOM     61  C   UNL A   1      42.947  29.509  34.664  1.00  0.00     0.034 A 
BRANCH  48  62
ATOM     62  C   UNL A   1      40.646  27.850  29.174  1.00  0.00     0.023 A 
ATOM     63  C   UNL A   1      39.792  26.730  29.103  1.00  0.00     0.012 A 
ATOM     64  C   UNL A   1      41.522  28.120  28.105  1.00  0.00     0.148 A 
ATOM     65  C   UNL A   1      39.832  25.874  28.003  1.00  0.00     0.002 A 
ATOM     66  C   UNL A   1      41.528  27.285  26.994  1.00  0.00     0.091 A 
ATOM     67  F   UNL A   1      42.344  29.175  28.201  1.00  0.00    -0.205 F 
ATOM     68  C   UNL A   1      40.691  26.157  26.945  1.00  0.00     0.022 A 
BRANCH  66  69
ATOM     69  S   UNL A   1      42.547  27.608  25.550  1.00  0.00     0.127 S 
ATOM     70  O   UNL A   1      42.290  26.422  24.736  1.00  0.00    -0.237 OA
ATOM     71  O   UNL A   1      41.963  28.844  25.027  1.00  0.00    -0.237 OA
ATOM     72  O   UNL A   1      43.908  27.747  26.047  1.00  0.00    -0.744 OA
ENDBRANCH  66  69
ENDBRANCH  48  62
BRANCH  49  73
ATOM     73  C   UNL A   1      39.473  33.860  37.062  1.00  0.00     0.023 A 
ATOM     74  C   UNL A   1      39.866  35.211  36.999  1.00  0.00     0.012 A 
ATOM     75  C   UNL A   1      38.870  33.374  38.237  1.00  0.00     0.148 A 
ATOM     76  C   UNL A   1      39.689  36.056  38.095  1.00  0.00     0.002 A 
ATOM     77  C   UNL A   1      38.648  34.234  39.307  1.00  0.00     0.091 A 
ATOM     78  F   UNL A   1      38.515  32.082  38.284  1.00  0.00    -0.205 F 
ATOM     79  C   UNL A   1      39.070  35.572  39.244  1.00  0.00     0.022 A 
BRANCH  77  80
ATOM     80  S   UNL A   1      37.740  33.727  40.773  1.00  0.00     0.127 S 
ATOM     81  O   UNL A   1      38.660  32.769  41.380  1.00  0.00    -0.237 OA
ATOM     82  O   UNL A   1      37.599  34.991  41.497  1.00  0.00    -0.237 OA
ATOM     83  O   UNL A   1      36.483  33.180  40.280  1.00  0.00    -0.744 OA
ENDBRANCH  77  80
ENDBRANCH  49  73
BRANCH  61  84
ATOM     84  C   UNL A   1      44.133  28.933  35.390  1.00  0.00     0.023 A 
ATOM     85  C   UNL A   1      45.399  29.529  35.237  1.00  0.00     0.012 A 
ATOM     86  C   UNL A   1      43.979  27.855  36.284  1.00  0.00     0.148 A 
ATOM     87  C   UNL A   1      46.500  29.047  35.942  1.00  0.00     0.002 A 
ATOM     88  C   UNL A   1      45.071  27.407  37.018  1.00  0.00     0.091 A 
ATOM     89  F   UNL A   1      42.770  27.287  36.401  1.00  0.00    -0.205 F 
ATOM     90  C   UNL A   1      46.334  27.995  36.841  1.00  0.00     0.022 A 
BRANCH  88  91
ATOM     91  S   UNL A   1      44.927  26.121  38.263  1.00  0.00     0.127 S 
ATOM     92  O   UNL A   1      43.976  26.717  39.199  1.00  0.00    -0.237 OA
ATOM     93  O   UNL A   1      44.400  24.995  37.492  1.00  0.00    -0.237 OA
ATOM     94  O   UNL A   1      46.273  25.916  38.780  1.00  0.00    -0.744 OA
ENDBRANCH  88  91
ENDBRANCH  61  84
ENDBRANCH  35  36
ENDBRANCH  27  30
ENDBRANCH  25  26
ENDBRANCH  24  25
ENDBRANCH   1  24
TORSDOF 18
ENDMDL
