MODEL 1
REMARK VINA RESULT:     -13.0      0.000      0.000
REMARK SMILES O=C(NCCCCNC(=O)[C@]1(NC(=O)C2CCN(C(=O)C3CC3)CC2)CCCc2ccccc21)c1ccc(-c2c3nc(c(-c4cccc(S(=O)(=O)[O-])c4F)c4ccc([nH]4)c(-c4cccc(S(=O)(=O)[O-])c4F)c4nc(c(-c5cccc(S(=O)(=O)[O-])c5F)c5ccc2[nH]5)C=C4)C=C3)cc1
REMARK SMILES IDX 5 1 4 2 3 3 1 4 2 5 35 7 36 8 97 9 37 10 96 11 38 12 39 13
REMARK SMILES IDX 40 14 90 15 41 16 95 17 89 18 91 19 42 20 94 21 88 22 87 23
REMARK SMILES IDX 43 25 75 26 55 27 74 28 56 29 59 30 73 31 92 32 57 33 58 34
REMARK SMILES IDX 72 36 93 37 60 38 44 39 45 40 53 41 46 42 48 43 54 44 47 45
REMARK SMILES IDX 49 46 50 47 51 48 52 49 76 50 77 51 85 52 78 53 80 54 86 55
REMARK SMILES IDX 79 56 81 57 82 58 83 59 84 60 61 61 62 62 70 63 63 64 65 65
REMARK SMILES IDX 71 66 64 67 66 68 67 69 68 70 69 71 6 72 7 73 8 74 9 75
REMARK SMILES IDX 10 77 11 78 26 79 34 80 27 81 29 82 33 83 28 84 30 85 32 86
REMARK SMILES IDX 31 87 12 88 13 89 14 91 15 92 16 93 25 94 17 95 24 96 18 97
REMARK SMILES IDX 19 98 20 99 21 100 22 101 23 102
REMARK H PARENT 3 6 91 24 59 35 8 76 12 90
REMARK Flexibility Score: inf
ROOT
ATOM      1  C   UNL A   1      37.897  19.932  24.640  1.00  0.00     0.023 C 
ENDROOT
BRANCH   1   2
ATOM      2  C   UNL A   1      38.864  20.247  25.778  1.00  0.00     0.116 C 
BRANCH   2   3
ATOM      3  N   UNL A   1      39.916  19.252  25.917  1.00  0.00    -0.352 N 
ATOM      4  O   UNL A   1      42.049  18.540  26.108  1.00  0.00    -0.269 OA
ATOM      5  C   UNL A   1      41.254  19.466  26.166  1.00  0.00     0.251 C 
ATOM      6  H   UNL A   1      39.638  18.312  25.823  1.00  0.00     0.163 HD
BRANCH   5   7
ATOM      7  C   UNL A   1      41.700  20.843  26.462  1.00  0.00     0.039 A 
ATOM      8  C   UNL A   1      41.809  21.274  27.787  1.00  0.00     0.014 A 
ATOM      9  C   UNL A   1      41.952  21.719  25.404  1.00  0.00     0.014 A 
ATOM     10  C   UNL A   1      42.056  22.616  28.052  1.00  0.00     0.010 A 
ATOM     11  C   UNL A   1      42.271  23.050  25.676  1.00  0.00     0.010 A 
ATOM     12  C   UNL A   1      42.301  23.515  27.000  1.00  0.00    -0.014 A 
BRANCH  12  13
ATOM     13  C   UNL A   1      42.696  24.912  27.310  1.00  0.00     0.031 A 
ATOM     14  C   UNL A   1      41.738  25.881  27.946  1.00  0.00     0.074 A 
ATOM     15  C   UNL A   1      43.940  25.306  26.974  1.00  0.00     0.049 A 
ATOM     16  N   UNL A   1      41.937  27.131  28.276  1.00  0.00    -0.248 NA
ATOM     17  C   UNL A   1      40.382  25.393  28.246  1.00  0.00     0.031 C 
ATOM     18  C   UNL A   1      44.933  24.465  26.299  1.00  0.00     0.029 A 
ATOM     19  N   UNL A   1      44.577  26.507  27.136  1.00  0.00    -0.354 N 
ATOM     20  C   UNL A   1      40.729  27.594  28.783  1.00  0.00     0.074 A 
ATOM     21  C   UNL A   1      39.797  26.488  28.719  1.00  0.00     0.031 C 
ATOM     22  C   UNL A   1      46.056  25.172  26.114  1.00  0.00     0.029 A 
ATOM     23  C   UNL A   1      45.851  26.526  26.616  1.00  0.00     0.049 A 
ATOM     24  H   UNL A   1      44.166  27.282  27.583  1.00  0.00     0.167 HD
ATOM     25  C   UNL A   1      40.434  28.823  29.269  1.00  0.00     0.034 A 
ATOM     26  C   UNL A   1      46.749  27.524  26.531  1.00  0.00     0.034 A 
ATOM     27  C   UNL A   1      41.382  29.902  29.370  1.00  0.00     0.049 A 
ATOM     28  C   UNL A   1      46.399  28.862  27.114  1.00  0.00     0.074 A 
ATOM     29  C   UNL A   1      41.204  31.153  29.935  1.00  0.00     0.029 A 
ATOM     30  N   UNL A   1      42.683  29.865  28.891  1.00  0.00    -0.354 N 
ATOM     31  N   UNL A   1      45.305  29.230  27.735  1.00  0.00    -0.248 NA
ATOM     32  C   UNL A   1      47.419  29.915  27.013  1.00  0.00     0.031 C 
ATOM     33  C   UNL A   1      42.388  31.879  29.779  1.00  0.00     0.029 A 
ATOM     34  C   UNL A   1      43.312  31.075  29.130  1.00  0.00     0.049 A 
ATOM     35  H   UNL A   1      43.098  29.090  28.445  1.00  0.00     0.167 HD
ATOM     36  C   UNL A   1      45.510  30.550  28.113  1.00  0.00     0.074 A 
ATOM     37  C   UNL A   1      46.847  30.905  27.683  1.00  0.00     0.031 C 
ATOM     38  C   UNL A   1      44.658  31.399  28.738  1.00  0.00     0.034 A 
BRANCH  25  39
ATOM     39  C   UNL A   1      39.040  29.074  29.784  1.00  0.00     0.023 A 
ATOM     40  C   UNL A   1      38.719  28.722  31.109  1.00  0.00     0.012 A 
ATOM     41  C   UNL A   1      38.091  29.763  29.000  1.00  0.00     0.148 A 
ATOM     42  C   UNL A   1      37.471  29.041  31.645  1.00  0.00     0.002 A 
ATOM     43  C   UNL A   1      36.862  30.107  29.553  1.00  0.00     0.091 A 
ATOM     44  F   UNL A   1      38.411  30.074  27.736  1.00  0.00    -0.205 F 
ATOM     45  C   UNL A   1      36.550  29.743  30.873  1.00  0.00     0.022 A 
BRANCH  43  46
ATOM     46  S   UNL A   1      35.633  31.073  28.667  1.00  0.00     0.127 S 
ATOM     47  O   UNL A   1      34.962  30.041  27.877  1.00  0.00    -0.237 OA
ATOM     48  O   UNL A   1      34.828  31.623  29.759  1.00  0.00    -0.237 OA
ATOM     49  O   UNL A   1      36.374  32.062  27.899  1.00  0.00    -0.744 OA
ENDBRANCH  43  46
ENDBRANCH  25  39
BRANCH  26  50
ATOM     50  C   UNL A   1      48.076  27.271  25.908  1.00  0.00     0.023 A 
ATOM     51  C   UNL A   1      49.130  26.776  26.698  1.00  0.00     0.012 A 
ATOM     52  C   UNL A   1      48.287  27.472  24.529  1.00  0.00     0.148 A 
ATOM     53  C   UNL A   1      50.378  26.511  26.134  1.00  0.00     0.002 A 
ATOM     54  C   UNL A   1      49.514  27.152  23.962  1.00  0.00     0.091 A 
ATOM     55  F   UNL A   1      47.280  27.965  23.795  1.00  0.00    -0.205 F 
ATOM     56  C   UNL A   1      50.566  26.686  24.765  1.00  0.00     0.022 A 
BRANCH  54  57
ATOM     57  S   UNL A   1      49.775  27.215  22.186  1.00  0.00     0.127 S 
ATOM     58  O   UNL A   1      49.554  28.629  21.900  1.00  0.00    -0.237 OA
ATOM     59  O   UNL A   1      51.163  26.770  22.057  1.00  0.00    -0.237 OA
ATOM     60  O   UNL A   1      48.800  26.287  21.627  1.00  0.00    -0.744 OA
ENDBRANCH  54  57
ENDBRANCH  26  50
BRANCH  38  61
ATOM     61  C   UNL A   1      45.150  32.796  29.003  1.00  0.00     0.023 A 
ATOM     62  C   UNL A   1      45.811  33.078  30.215  1.00  0.00     0.012 A 
ATOM     63  C   UNL A   1      45.010  33.810  28.037  1.00  0.00     0.148 A 
ATOM     64  C   UNL A   1      46.297  34.358  30.476  1.00  0.00     0.002 A 
ATOM     65  C   UNL A   1      45.536  35.073  28.285  1.00  0.00     0.091 A 
ATOM     66  F   UNL A   1      44.360  33.528  26.899  1.00  0.00    -0.205 F 
ATOM     67  C   UNL A   1      46.170  35.351  29.508  1.00  0.00     0.022 A 
BRANCH  65  68
ATOM     68  S   UNL A   1      45.495  36.385  27.060  1.00  0.00     0.127 S 
ATOM     69  O   UNL A   1      44.058  36.611  26.911  1.00  0.00    -0.237 OA
ATOM     70  O   UNL A   1      46.215  37.467  27.733  1.00  0.00    -0.237 OA
ATOM     71  O   UNL A   1      46.173  35.854  25.885  1.00  0.00    -0.744 OA
ENDBRANCH  65  68
ENDBRANCH  38  61
ENDBRANCH  12  13
ENDBRANCH   5   7
ENDBRANCH   2   3
ENDBRANCH   1   2
BRANCH   1  72
ATOM     72  C   UNL A   1      36.415  20.024  25.002  1.00  0.00     0.023 C 
BRANCH  72  73
ATOM     73  C   UNL A   1      35.782  21.364  24.660  1.00  0.00     0.116 C 
BRANCH  73  74
ATOM     74  N   UNL A   1      36.444  22.478  25.349  1.00  0.00    -0.354 N 
ATOM     75  C   UNL A   1      35.947  23.691  25.785  1.00  0.00     0.250 C 
ATOM     76  H   UNL A   1      37.401  22.337  25.530  1.00  0.00     0.163 HD
ATOM     77  O   UNL A   1      36.692  24.392  26.474  1.00  0.00    -0.272 OA
BRANCH  75  78
ATOM     78  C   UNL A   1      34.541  24.164  25.318  1.00  0.00     0.145 C 
ATOM     79  C   UNL A   1      33.632  24.097  26.603  1.00  0.00     0.044 C 
ATOM     80  C   UNL A   1      33.811  23.282  24.262  1.00  0.00    -0.010 A 
ATOM     81  C   UNL A   1      33.444  22.656  27.073  1.00  0.00     0.008 C 
ATOM     82  C   UNL A   1      32.871  22.283  24.646  1.00  0.00    -0.042 A 
ATOM     83  C   UNL A   1      33.952  23.512  22.880  1.00  0.00     0.007 A 
ATOM     84  C   UNL A   1      32.573  21.922  26.082  1.00  0.00     0.036 C 
ATOM     85  C   UNL A   1      32.085  21.624  23.680  1.00  0.00     0.004 A 
ATOM     86  C   UNL A   1      33.164  22.849  21.932  1.00  0.00     0.000 A 
ATOM     87  C   UNL A   1      32.218  21.918  22.331  1.00  0.00     0.000 A 
BRANCH  78  88
ATOM     88  N   UNL A   1      34.643  25.587  24.867  1.00  0.00    -0.338 N 
ATOM     89  C   UNL A   1      33.753  26.619  24.751  1.00  0.00     0.224 C 
ATOM     90  H   UNL A   1      35.555  25.836  24.590  1.00  0.00     0.164 HD
ATOM     91  O   UNL A   1      34.260  27.742  24.650  1.00  0.00    -0.275 OA
BRANCH  89  92
ATOM     92  C   UNL A   1      32.217  26.447  24.699  1.00  0.00     0.082 C 
ATOM     93  C   UNL A   1      31.632  26.522  23.284  1.00  0.00     0.035 C 
ATOM     94  C   UNL A   1      31.493  27.533  25.549  1.00  0.00     0.035 C 
ATOM     95  C   UNL A   1      31.780  27.917  22.696  1.00  0.00     0.120 C 
ATOM     96  C   UNL A   1      31.393  28.919  24.870  1.00  0.00     0.120 C 
ATOM     97  N   UNL A   1      30.940  28.806  23.483  1.00  0.00    -0.342 N 
ATOM     98  C   UNL A   1      29.798  29.299  22.844  1.00  0.00     0.225 C 
ATOM     99  O   UNL A   1      29.603  29.057  21.651  1.00  0.00    -0.275 OA
BRANCH  98 100
ATOM    100  C   UNL A   1      28.727  30.099  23.500  1.00  0.00     0.079 C 
ATOM    101  C   UNL A   1      28.675  31.593  23.626  1.00  0.00     0.014 C 
ATOM    102  C   UNL A   1      27.660  30.867  22.776  1.00  0.00     0.014 C 
ENDBRANCH  98 100
ENDBRANCH  89  92
ENDBRANCH  78  88
ENDBRANCH  75  78
ENDBRANCH  73  74
ENDBRANCH  72  73
ENDBRANCH   1  72
TORSDOF 17
ENDMDL
MODEL 2
REMARK VINA RESULT:     -12.8      5.452     11.135
REMARK SMILES O=C(NCCCCNC(=O)[C@]1(NC(=O)C2CCN(C(=O)C3CC3)CC2)CCCc2ccccc21)c1ccc(-c2c3nc(c(-c4cccc(S(=O)(=O)[O-])c4F)c4ccc([nH]4)c(-c4cccc(S(=O)(=O)[O-])c4F)c4nc(c(-c5cccc(S(=O)(=O)[O-])c5F)c5ccc2[nH]5)C=C4)C=C3)cc1
REMARK SMILES IDX 5 1 4 2 3 3 1 4 2 5 35 7 36 8 97 9 37 10 96 11 38 12 39 13
REMARK SMILES IDX 40 14 90 15 41 16 95 17 89 18 91 19 42 20 94 21 88 22 87 23
REMARK SMILES IDX 43 25 75 26 55 27 74 28 56 29 59 30 73 31 92 32 57 33 58 34
REMARK SMILES IDX 72 36 93 37 60 38 44 39 45 40 53 41 46 42 48 43 54 44 47 45
REMARK SMILES IDX 49 46 50 47 51 48 52 49 76 50 77 51 85 52 78 53 80 54 86 55
REMARK SMILES IDX 79 56 81 57 82 58 83 59 84 60 61 61 62 62 70 63 63 64 65 65
REMARK SMILES IDX 71 66 64 67 66 68 67 69 68 70 69 71 6 72 7 73 8 74 9 75
REMARK SMILES IDX 10 77 11 78 26 79 34 80 27 81 29 82 33 83 28 84 30 85 32 86
REMARK SMILES IDX 31 87 12 88 13 89 14 91 15 92 16 93 25 94 17 95 24 96 18 97
REMARK SMILES IDX 19 98 20 99 21 100 22 101 23 102
REMARK H PARENT 3 6 91 24 59 35 8 76 12 90
REMARK Flexibility Score: inf
ROOT
ATOM      1  C   UNL A   1      31.045  31.711  26.352  1.00  0.00     0.023 C 
ENDROOT
BRANCH   1   2
ATOM      2  C   UNL A   1      32.368  32.278  26.860  1.00  0.00     0.116 C 
BRANCH   2   3
ATOM      3  N   UNL A   1      32.268  33.671  27.266  1.00  0.00    -0.352 N 
ATOM      4  O   UNL A   1      32.749  35.472  28.537  1.00  0.00    -0.269 OA
ATOM      5  C   UNL A   1      33.045  34.340  28.186  1.00  0.00     0.251 C 
ATOM      6  H   UNL A   1      31.561  34.199  26.831  1.00  0.00     0.163 HD
BRANCH   5   7
ATOM      7  C   UNL A   1      34.212  33.639  28.760  1.00  0.00     0.039 A 
ATOM      8  C   UNL A   1      34.027  32.503  29.551  1.00  0.00     0.014 A 
ATOM      9  C   UNL A   1      35.490  34.161  28.548  1.00  0.00     0.014 A 
ATOM     10  C   UNL A   1      35.110  31.957  30.229  1.00  0.00     0.010 A 
ATOM     11  C   UNL A   1      36.587  33.566  29.174  1.00  0.00     0.010 A 
ATOM     12  C   UNL A   1      36.403  32.475  30.039  1.00  0.00    -0.014 A 
BRANCH  12  13
ATOM     13  C   UNL A   1      37.563  31.794  30.665  1.00  0.00     0.031 A 
ATOM     14  C   UNL A   1      38.350  30.742  29.934  1.00  0.00     0.074 A 
ATOM     15  C   UNL A   1      37.879  32.122  31.933  1.00  0.00     0.049 A 
ATOM     16  N   UNL A   1      39.386  30.059  30.350  1.00  0.00    -0.248 NA
ATOM     17  C   UNL A   1      37.922  30.403  28.568  1.00  0.00     0.031 C 
ATOM     18  C   UNL A   1      37.147  33.088  32.757  1.00  0.00     0.029 A 
ATOM     19  N   UNL A   1      38.880  31.676  32.755  1.00  0.00    -0.354 N 
ATOM     20  C   UNL A   1      39.711  29.185  29.319  1.00  0.00     0.074 A 
ATOM     21  C   UNL A   1      38.760  29.422  28.254  1.00  0.00     0.031 C 
ATOM     22  C   UNL A   1      37.727  33.169  33.962  1.00  0.00     0.029 A 
ATOM     23  C   UNL A   1      38.843  32.232  34.013  1.00  0.00     0.049 A 
ATOM     24  H   UNL A   1      39.559  31.021  32.474  1.00  0.00     0.167 HD
ATOM     25  C   UNL A   1      40.718  28.281  29.266  1.00  0.00     0.034 A 
ATOM     26  C   UNL A   1      39.609  32.002  35.095  1.00  0.00     0.034 A 
ATOM     27  C   UNL A   1      41.686  28.086  30.314  1.00  0.00     0.049 A 
ATOM     28  C   UNL A   1      40.738  31.020  34.987  1.00  0.00     0.074 A 
ATOM     29  C   UNL A   1      42.798  27.261  30.314  1.00  0.00     0.029 A 
ATOM     30  N   UNL A   1      41.656  28.713  31.550  1.00  0.00    -0.354 N 
ATOM     31  N   UNL A   1      41.126  30.321  33.947  1.00  0.00    -0.248 NA
ATOM     32  C   UNL A   1      41.556  30.816  36.190  1.00  0.00     0.031 C 
ATOM     33  C   UNL A   1      43.429  27.375  31.557  1.00  0.00     0.029 A 
ATOM     34  C   UNL A   1      42.719  28.282  32.327  1.00  0.00     0.049 A 
ATOM     35  H   UNL A   1      40.979  29.370  31.834  1.00  0.00     0.167 HD
ATOM     36  C   UNL A   1      42.241  29.608  34.365  1.00  0.00     0.074 A 
ATOM     37  C   UNL A   1      42.489  29.987  35.742  1.00  0.00     0.031 C 
ATOM     38  C   UNL A   1      42.980  28.703  33.678  1.00  0.00     0.034 A 
BRANCH  25  39
ATOM     39  C   UNL A   1      40.873  27.455  28.015  1.00  0.00     0.023 A 
ATOM     40  C   UNL A   1      41.487  28.024  26.883  1.00  0.00     0.012 A 
ATOM     41  C   UNL A   1      40.525  26.088  28.001  1.00  0.00     0.148 A 
ATOM     42  C   UNL A   1      41.741  27.251  25.749  1.00  0.00     0.002 A 
ATOM     43  C   UNL A   1      40.813  25.316  26.881  1.00  0.00     0.091 A 
ATOM     44  F   UNL A   1      39.928  25.570  29.084  1.00  0.00    -0.205 F 
ATOM     45  C   UNL A   1      41.416  25.897  25.753  1.00  0.00     0.022 A 
BRANCH  43  46
ATOM     46  S   UNL A   1      40.500  23.548  26.811  1.00  0.00     0.127 S 
ATOM     47  O   UNL A   1      41.479  23.115  25.814  1.00  0.00    -0.237 OA
ATOM     48  O   UNL A   1      40.800  23.128  28.180  1.00  0.00    -0.237 OA
ATOM     49  O   UNL A   1      39.106  23.399  26.421  1.00  0.00    -0.744 OA
ENDBRANCH  43  46
ENDBRANCH  25  39
BRANCH  26  50
ATOM     50  C   UNL A   1      39.351  32.753  36.353  1.00  0.00     0.023 A 
ATOM     51  C   UNL A   1      39.946  34.015  36.542  1.00  0.00     0.012 A 
ATOM     52  C   UNL A   1      38.484  32.248  37.342  1.00  0.00     0.148 A 
ATOM     53  C   UNL A   1      39.703  34.748  37.704  1.00  0.00     0.002 A 
ATOM     54  C   UNL A   1      38.201  33.008  38.470  1.00  0.00     0.091 A 
ATOM     55  F   UNL A   1      37.942  31.035  37.157  1.00  0.00    -0.205 F 
ATOM     56  C   UNL A   1      38.821  34.251  38.661  1.00  0.00     0.022 A 
BRANCH  54  57
ATOM     57  S   UNL A   1      36.964  32.492  39.666  1.00  0.00     0.127 S 
ATOM     58  O   UNL A   1      35.738  32.559  38.878  1.00  0.00    -0.237 OA
ATOM     59  O   UNL A   1      37.403  31.138  40.008  1.00  0.00    -0.237 OA
ATOM     60  O   UNL A   1      37.077  33.446  40.763  1.00  0.00    -0.744 OA
ENDBRANCH  54  57
ENDBRANCH  26  50
BRANCH  38  61
ATOM     61  C   UNL A   1      44.132  28.063  34.404  1.00  0.00     0.023 A 
ATOM     62  C   UNL A   1      45.382  28.713  34.425  1.00  0.00     0.012 A 
ATOM     63  C   UNL A   1      43.967  26.853  35.105  1.00  0.00     0.148 A 
ATOM     64  C   UNL A   1      46.460  28.154  35.109  1.00  0.00     0.002 A 
ATOM     65  C   UNL A   1      45.035  26.324  35.822  1.00  0.00     0.091 A 
ATOM     66  F   UNL A   1      42.777  26.239  35.054  1.00  0.00    -0.205 F 
ATOM     67  C   UNL A   1      46.284  26.967  35.816  1.00  0.00     0.022 A 
BRANCH  65  68
ATOM     68  S   UNL A   1      44.872  24.847  36.830  1.00  0.00     0.127 S 
ATOM     69  O   UNL A   1      43.794  25.224  37.742  1.00  0.00    -0.237 OA
ATOM     70  O   UNL A   1      44.505  23.831  35.842  1.00  0.00    -0.237 OA
ATOM     71  O   UNL A   1      46.176  24.640  37.447  1.00  0.00    -0.744 OA
ENDBRANCH  65  68
ENDBRANCH  38  61
ENDBRANCH  12  13
ENDBRANCH   5   7
ENDBRANCH   2   3
ENDBRANCH   1   2
BRANCH   1  72
ATOM     72  C   UNL A   1      31.171  30.563  25.351  1.00  0.00     0.023 C 
BRANCH  72  73
ATOM     73  C   UNL A   1      31.462  29.216  25.996  1.00  0.00     0.116 C 
BRANCH  73  74
ATOM     74  N   UNL A   1      32.871  29.084  26.381  1.00  0.00    -0.354 N 
ATOM     75  C   UNL A   1      33.810  28.125  26.052  1.00  0.00     0.250 C 
ATOM     76  H   UNL A   1      33.204  29.798  26.973  1.00  0.00     0.163 HD
ATOM     77  O   UNL A   1      34.976  28.334  26.395  1.00  0.00    -0.272 OA
BRANCH  75  78
ATOM     78  C   UNL A   1      33.358  26.803  25.369  1.00  0.00     0.145 C 
ATOM     79  C   UNL A   1      33.992  26.842  23.927  1.00  0.00     0.044 C 
ATOM     80  C   UNL A   1      31.830  26.614  25.131  1.00  0.00    -0.010 A 
ATOM     81  C   UNL A   1      33.388  27.964  23.087  1.00  0.00     0.008 C 
ATOM     82  C   UNL A   1      31.221  26.958  23.891  1.00  0.00    -0.042 A 
ATOM     83  C   UNL A   1      31.005  25.985  26.082  1.00  0.00     0.007 A 
ATOM     84  C   UNL A   1      31.959  27.615  22.748  1.00  0.00     0.036 C 
ATOM     85  C   UNL A   1      29.881  26.611  23.626  1.00  0.00     0.004 A 
ATOM     86  C   UNL A   1      29.675  25.647  25.805  1.00  0.00     0.000 A 
ATOM     87  C   UNL A   1      29.117  25.944  24.572  1.00  0.00     0.000 A 
BRANCH  78  88
ATOM     88  N   UNL A   1      33.941  25.652  26.127  1.00  0.00    -0.338 N 
ATOM     89  C   UNL A   1      34.153  24.331  25.844  1.00  0.00     0.224 C 
ATOM     90  H   UNL A   1      34.237  25.902  27.033  1.00  0.00     0.164 HD
ATOM     91  O   UNL A   1      34.950  23.755  26.592  1.00  0.00    -0.275 OA
BRANCH  89  92
ATOM     92  C   UNL A   1      33.439  23.553  24.714  1.00  0.00     0.082 C 
ATOM     93  C   UNL A   1      32.331  22.616  25.209  1.00  0.00     0.035 C 
ATOM     94  C   UNL A   1      34.441  22.683  23.900  1.00  0.00     0.035 C 
ATOM     95  C   UNL A   1      32.903  21.466  26.025  1.00  0.00     0.120 C 
ATOM     96  C   UNL A   1      34.854  21.363  24.590  1.00  0.00     0.120 C 
ATOM     97  N   UNL A   1      33.692  20.648  25.120  1.00  0.00    -0.342 N 
ATOM     98  C   UNL A   1      33.167  19.390  24.811  1.00  0.00     0.225 C 
ATOM     99  O   UNL A   1      32.146  18.990  25.374  1.00  0.00    -0.275 OA
BRANCH  98 100
ATOM    100  C   UNL A   1      33.726  18.451  23.799  1.00  0.00     0.079 C 
ATOM    101  C   UNL A   1      33.678  16.952  23.844  1.00  0.00     0.014 C 
ATOM    102  C   UNL A   1      32.920  17.704  22.777  1.00  0.00     0.014 C 
ENDBRANCH  98 100
ENDBRANCH  89  92
ENDBRANCH  78  88
ENDBRANCH  75  78
ENDBRANCH  73  74
ENDBRANCH  72  73
ENDBRANCH   1  72
TORSDOF 17
ENDMDL
MODEL 3
REMARK VINA RESULT:     -12.4      5.257      8.949
REMARK SMILES O=C(NCCCCNC(=O)[C@]1(NC(=O)C2CCN(C(=O)C3CC3)CC2)CCCc2ccccc21)c1ccc(-c2c3nc(c(-c4cccc(S(=O)(=O)[O-])c4F)c4ccc([nH]4)c(-c4cccc(S(=O)(=O)[O-])c4F)c4nc(c(-c5cccc(S(=O)(=O)[O-])c5F)c5ccc2[nH]5)C=C4)C=C3)cc1
REMARK SMILES IDX 5 1 4 2 3 3 1 4 2 5 35 7 36 8 97 9 37 10 96 11 38 12 39 13
REMARK SMILES IDX 40 14 90 15 41 16 95 17 89 18 91 19 42 20 94 21 88 22 87 23
REMARK SMILES IDX 43 25 75 26 55 27 74 28 56 29 59 30 73 31 92 32 57 33 58 34
REMARK SMILES IDX 72 36 93 37 60 38 44 39 45 40 53 41 46 42 48 43 54 44 47 45
REMARK SMILES IDX 49 46 50 47 51 48 52 49 76 50 77 51 85 52 78 53 80 54 86 55
REMARK SMILES IDX 79 56 81 57 82 58 83 59 84 60 61 61 62 62 70 63 63 64 65 65
REMARK SMILES IDX 71 66 64 67 66 68 67 69 68 70 69 71 6 72 7 73 8 74 9 75
REMARK SMILES IDX 10 77 11 78 26 79 34 80 27 81 29 82 33 83 28 84 30 85 32 86
REMARK SMILES IDX 31 87 12 88 13 89 14 91 15 92 16 93 25 94 17 95 24 96 18 97
REMARK SMILES IDX 19 98 20 99 21 100 22 101 23 102
REMARK H PARENT 3 6 91 24 59 35 8 76 12 90
REMARK Flexibility Score: inf
ROOT
ATOM      1  C   UNL A   1      32.049  28.963  25.824  1.00  0.00     0.023 C 
ENDROOT
BRANCH   1   2
ATOM      2  C   UNL A   1      33.262  29.881  25.945  1.00  0.00     0.116 C 
BRANCH   2   3
ATOM      3  N   UNL A   1      32.912  31.232  26.355  1.00  0.00    -0.352 N 
ATOM      4  O   UNL A   1      33.024  33.069  27.661  1.00  0.00    -0.269 OA
ATOM      5  C   UNL A   1      33.521  32.007  27.316  1.00  0.00     0.251 C 
ATOM      6  H   UNL A   1      32.147  31.640  25.889  1.00  0.00     0.163 HD
BRANCH   5   7
ATOM      7  C   UNL A   1      34.761  31.502  27.942  1.00  0.00     0.039 A 
ATOM      8  C   UNL A   1      34.791  30.225  28.507  1.00  0.00     0.014 A 
ATOM      9  C   UNL A   1      35.877  32.340  28.011  1.00  0.00     0.014 A 
ATOM     10  C   UNL A   1      35.899  29.828  29.246  1.00  0.00     0.010 A 
ATOM     11  C   UNL A   1      37.016  31.909  28.694  1.00  0.00     0.010 A 
ATOM     12  C   UNL A   1      37.028  30.661  29.337  1.00  0.00    -0.014 A 
BRANCH  12  13
ATOM     13  C   UNL A   1      38.250  30.164  30.016  1.00  0.00     0.031 A 
ATOM     14  C   UNL A   1      38.627  30.621  31.398  1.00  0.00     0.074 A 
ATOM     15  C   UNL A   1      39.041  29.305  29.343  1.00  0.00     0.049 A 
ATOM     16  N   UNL A   1      39.663  30.276  32.119  1.00  0.00    -0.248 NA
ATOM     17  C   UNL A   1      37.739  31.592  32.055  1.00  0.00     0.031 C 
ATOM     18  C   UNL A   1      38.801  28.840  27.974  1.00  0.00     0.029 A 
ATOM     19  N   UNL A   1      40.207  28.685  29.705  1.00  0.00    -0.354 N 
ATOM     20  C   UNL A   1      39.577  31.012  33.294  1.00  0.00     0.074 A 
ATOM     21  C   UNL A   1      38.384  31.826  33.192  1.00  0.00     0.031 C 
ATOM     22  C   UNL A   1      39.782  28.001  27.615  1.00  0.00     0.029 A 
ATOM     23  C   UNL A   1      40.743  27.902  28.708  1.00  0.00     0.049 A 
ATOM     24  H   UNL A   1      40.622  28.787  30.592  1.00  0.00     0.167 HD
ATOM     25  C   UNL A   1      40.410  30.996  34.362  1.00  0.00     0.034 A 
ATOM     26  C   UNL A   1      41.888  27.197  28.667  1.00  0.00     0.034 A 
ATOM     27  C   UNL A   1      41.568  30.148  34.472  1.00  0.00     0.049 A 
ATOM     28  C   UNL A   1      42.767  27.174  29.883  1.00  0.00     0.074 A 
ATOM     29  C   UNL A   1      42.420  29.992  35.553  1.00  0.00     0.029 A 
ATOM     30  N   UNL A   1      42.045  29.320  33.468  1.00  0.00    -0.354 N 
ATOM     31  N   UNL A   1      42.582  27.753  31.045  1.00  0.00    -0.248 NA
ATOM     32  C   UNL A   1      43.998  26.377  29.796  1.00  0.00     0.031 C 
ATOM     33  C   UNL A   1      43.422  29.085  35.195  1.00  0.00     0.029 A 
ATOM     34  C   UNL A   1      43.187  28.664  33.895  1.00  0.00     0.049 A 
ATOM     35  H   UNL A   1      41.631  29.214  32.580  1.00  0.00     0.167 HD
ATOM     36  C   UNL A   1      43.662  27.377  31.832  1.00  0.00     0.074 A 
ATOM     37  C   UNL A   1      44.478  26.491  31.026  1.00  0.00     0.031 C 
ATOM     38  C   UNL A   1      43.963  27.750  33.099  1.00  0.00     0.034 A 
BRANCH  25  39
ATOM     39  C   UNL A   1      40.085  31.884  35.536  1.00  0.00     0.023 A 
ATOM     40  C   UNL A   1      40.744  33.121  35.671  1.00  0.00     0.012 A 
ATOM     41  C   UNL A   1      39.048  31.550  36.432  1.00  0.00     0.148 A 
ATOM     42  C   UNL A   1      40.387  34.009  36.686  1.00  0.00     0.002 A 
ATOM     43  C   UNL A   1      38.674  32.456  37.420  1.00  0.00     0.091 A 
ATOM     44  F   UNL A   1      38.444  30.361  36.296  1.00  0.00    -0.205 F 
ATOM     45  C   UNL A   1      39.346  33.682  37.550  1.00  0.00     0.022 A 
BRANCH  43  46
ATOM     46  S   UNL A   1      37.299  32.162  38.538  1.00  0.00     0.127 S 
ATOM     47  O   UNL A   1      37.128  30.714  38.420  1.00  0.00    -0.237 OA
ATOM     48  O   UNL A   1      37.845  32.607  39.821  1.00  0.00    -0.237 OA
ATOM     49  O   UNL A   1      36.192  32.963  38.037  1.00  0.00    -0.744 OA
ENDBRANCH  43  46
ENDBRANCH  25  39
BRANCH  26  50
ATOM     50  C   UNL A   1      42.235  26.425  27.443  1.00  0.00     0.023 A 
ATOM     51  C   UNL A   1      42.902  27.068  26.384  1.00  0.00     0.012 A 
ATOM     52  C   UNL A   1      41.950  25.049  27.342  1.00  0.00     0.148 A 
ATOM     53  C   UNL A   1      43.257  26.361  25.234  1.00  0.00     0.002 A 
ATOM     54  C   UNL A   1      42.357  24.338  26.219  1.00  0.00     0.091 A 
ATOM     55  F   UNL A   1      41.295  24.456  28.350  1.00  0.00    -0.205 F 
ATOM     56  C   UNL A   1      42.997  24.995  25.158  1.00  0.00     0.022 A 
BRANCH  54  57
ATOM     57  S   UNL A   1      42.184  22.553  26.122  1.00  0.00     0.127 S 
ATOM     58  O   UNL A   1      42.777  22.265  24.820  1.00  0.00    -0.237 OA
ATOM     59  O   UNL A   1      42.970  22.099  27.271  1.00  0.00    -0.237 OA
ATOM     60  O   UNL A   1      40.754  22.303  26.247  1.00  0.00    -0.744 OA
ENDBRANCH  54  57
ENDBRANCH  26  50
BRANCH  38  61
ATOM     61  C   UNL A   1      45.228  27.196  33.697  1.00  0.00     0.023 A 
ATOM     62  C   UNL A   1      46.420  27.942  33.606  1.00  0.00     0.012 A 
ATOM     63  C   UNL A   1      45.227  25.972  34.393  1.00  0.00     0.148 A 
ATOM     64  C   UNL A   1      47.600  27.463  34.171  1.00  0.00     0.002 A 
ATOM     65  C   UNL A   1      46.397  25.522  34.993  1.00  0.00     0.091 A 
ATOM     66  F   UNL A   1      44.088  25.268  34.450  1.00  0.00    -0.205 F 
ATOM     67  C   UNL A   1      47.586  26.260  34.873  1.00  0.00     0.022 A 
BRANCH  65  68
ATOM     68  S   UNL A   1      46.449  24.028  35.989  1.00  0.00     0.127 S 
ATOM     69  O   UNL A   1      46.392  22.985  34.967  1.00  0.00    -0.237 OA
ATOM     70  O   UNL A   1      47.741  24.148  36.667  1.00  0.00    -0.237 OA
ATOM     71  O   UNL A   1      45.296  24.103  36.877  1.00  0.00    -0.744 OA
ENDBRANCH  65  68
ENDBRANCH  38  61
ENDBRANCH  12  13
ENDBRANCH   5   7
ENDBRANCH   2   3
ENDBRANCH   1   2
BRANCH   1  72
ATOM     72  C   UNL A   1      31.689  28.192  27.094  1.00  0.00     0.023 C 
BRANCH  72  73
ATOM     73  C   UNL A   1      31.422  26.713  26.858  1.00  0.00     0.116 C 
BRANCH  73  74
ATOM     74  N   UNL A   1      32.663  25.955  26.661  1.00  0.00    -0.354 N 
ATOM     75  C   UNL A   1      33.106  25.215  25.581  1.00  0.00     0.250 C 
ATOM     76  H   UNL A   1      33.283  25.976  27.426  1.00  0.00     0.163 HD
ATOM     77  O   UNL A   1      34.265  24.796  25.620  1.00  0.00    -0.272 OA
BRANCH  75  78
ATOM     78  C   UNL A   1      32.121  24.860  24.431  1.00  0.00     0.145 C 
ATOM     79  C   UNL A   1      33.033  24.514  23.193  1.00  0.00     0.044 C 
ATOM     80  C   UNL A   1      31.177  25.993  23.931  1.00  0.00    -0.010 A 
ATOM     81  C   UNL A   1      33.799  25.743  22.711  1.00  0.00     0.008 C 
ATOM     82  C   UNL A   1      31.514  26.804  22.809  1.00  0.00    -0.042 A 
ATOM     83  C   UNL A   1      29.897  26.189  24.484  1.00  0.00     0.007 A 
ATOM     84  C   UNL A   1      32.831  26.712  22.076  1.00  0.00     0.036 C 
ATOM     85  C   UNL A   1      30.574  27.696  22.257  1.00  0.00     0.004 A 
ATOM     86  C   UNL A   1      28.973  27.080  23.924  1.00  0.00     0.000 A 
ATOM     87  C   UNL A   1      29.304  27.821  22.800  1.00  0.00     0.000 A 
BRANCH  78  88
ATOM     88  N   UNL A   1      31.350  23.639  24.824  1.00  0.00    -0.338 N 
ATOM     89  C   UNL A   1      31.686  22.339  25.082  1.00  0.00     0.224 C 
ATOM     90  H   UNL A   1      30.384  23.811  24.918  1.00  0.00     0.164 HD
ATOM     91  O   UNL A   1      30.832  21.686  25.692  1.00  0.00    -0.275 OA
BRANCH  89  92
ATOM     92  C   UNL A   1      33.003  21.669  24.626  1.00  0.00     0.082 C 
ATOM     93  C   UNL A   1      32.959  21.125  23.193  1.00  0.00     0.035 C 
ATOM     94  C   UNL A   1      33.388  20.479  25.553  1.00  0.00     0.035 C 
ATOM     95  C   UNL A   1      31.992  19.956  23.074  1.00  0.00     0.120 C 
ATOM     96  C   UNL A   1      32.597  19.176  25.288  1.00  0.00     0.120 C 
ATOM     97  N   UNL A   1      32.541  18.863  23.860  1.00  0.00    -0.342 N 
ATOM     98  C   UNL A   1      33.027  17.770  23.138  1.00  0.00     0.225 C 
ATOM     99  O   UNL A   1      32.886  17.724  21.914  1.00  0.00    -0.275 OA
BRANCH  98 100
ATOM    100  C   UNL A   1      33.761  16.613  23.723  1.00  0.00     0.079 C 
ATOM    101  C   UNL A   1      34.783  16.664  24.821  1.00  0.00     0.014 C 
ATOM    102  C   UNL A   1      33.456  15.981  25.049  1.00  0.00     0.014 C 
ENDBRANCH  98 100
ENDBRANCH  89  92
ENDBRANCH  78  88
ENDBRANCH  75  78
ENDBRANCH  73  74
ENDBRANCH  72  73
ENDBRANCH   1  72
TORSDOF 17
ENDMDL
