MODEL 1
REMARK VINA RESULT:     -14.6      0.000      0.000
REMARK SMILES COc1cccc([C@@H]2CC(c3cccc(C)c3)=NN2C(=O)CCC(=O)NCCCCNC(=O)c2ccc(-c3c4nc(c(-c5cccc(S(=O)(=O)[O-])c5F)c5ccc([nH]5)c(-c5cccc(S(=O)(=O)[O-])c5F)c5nc(c(-c6cccc(S(=O)(=O)[O-])c6F)c6ccc3[nH]6)C=C5)C=C4)cc2)c1
REMARK SMILES IDX 27 1 26 2 24 3 25 4 23 6 22 7 20 8 21 9 19 10 8 11 9 12
REMARK SMILES IDX 10 13 18 14 7 15 3 16 4 17 97 18 5 19 6 20 2 21 1 22 11 23
REMARK SMILES IDX 12 24 17 25 13 26 15 27 14 28 16 29 28 30 29 31 30 32 31 33
REMARK SMILES IDX 32 34 33 36 34 37 35 38 96 39 36 40 95 41 37 42 38 43 39 44
REMARK SMILES IDX 89 45 40 46 94 47 88 48 90 49 41 50 93 51 87 52 86 53 42 55
REMARK SMILES IDX 74 56 54 57 73 58 55 59 58 60 72 61 91 62 56 63 57 64 71 66
REMARK SMILES IDX 92 67 59 68 43 69 44 70 52 71 45 72 47 73 53 74 46 75 48 76
REMARK SMILES IDX 49 77 50 78 51 79 75 80 76 81 84 82 77 83 79 84 85 85 78 86
REMARK SMILES IDX 80 87 81 88 82 89 83 90 60 91 61 92 69 93 62 94 64 95 70 96
REMARK SMILES IDX 63 97 65 98 66 99 67 100 68 101
REMARK H PARENT 26 5 31 35 90 54 58 65
REMARK Flexibility Score: inf
ROOT
ATOM      1  C   UNL A   1      30.573  28.799  23.788  1.00  0.00     0.116 C 
ENDROOT
BRANCH   1   2
ATOM      2  N   UNL A   1      29.205  27.966  23.757  1.00  0.00    -0.356 N 
ATOM      3  C   UNL A   1      28.870  26.670  23.977  1.00  0.00     0.220 C 
ATOM      4  O   UNL A   1      27.694  26.362  23.766  1.00  0.00    -0.275 OA
ATOM      5  H   UNL A   1      28.427  28.524  23.526  1.00  0.00     0.163 HD
BRANCH   3   6
ATOM      6  C   UNL A   1      29.873  25.653  24.466  1.00  0.00     0.110 C 
BRANCH   6   7
ATOM      7  C   UNL A   1      30.175  25.539  25.962  1.00  0.00     0.112 C 
BRANCH   7   8
ATOM      8  C   UNL A   1      30.541  24.120  26.416  1.00  0.00     0.243 C 
ATOM      9  O   UNL A   1      29.967  23.601  27.371  1.00  0.00    -0.273 OA
BRANCH   8  10
ATOM     10  N   UNL A   1      31.684  23.594  25.768  1.00  0.00    -0.225 N 
ATOM     11  C   UNL A   1      33.371  24.332  26.096  1.00  0.00     0.147 C 
ATOM     12  C   UNL A   1      34.504  22.645  26.376  1.00  0.00     0.091 C 
ATOM     13  C   UNL A   1      33.135  21.137  25.726  1.00  0.00     0.071 C 
ATOM     14  N   UNL A   1      31.722  21.775  25.526  1.00  0.00    -0.174 NA
BRANCH  11  15
ATOM     15  C   UNL A   1      33.396  25.501  24.981  1.00  0.00    -0.019 A 
ATOM     16  C   UNL A   1      33.642  26.210  22.667  1.00  0.00     0.119 A 
ATOM     17  C   UNL A   1      33.954  27.512  23.073  1.00  0.00     0.046 A 
ATOM     18  C   UNL A   1      33.343  25.208  23.611  1.00  0.00     0.052 A 
ATOM     19  C   UNL A   1      33.968  27.838  24.416  1.00  0.00     0.004 A 
ATOM     20  C   UNL A   1      33.704  26.845  25.350  1.00  0.00     0.006 A 
BRANCH  16  21
ATOM     21  O   UNL A   1      33.727  26.046  21.310  1.00  0.00    -0.497 OA
ATOM     22  C   UNL A   1      32.578  25.535  20.656  1.00  0.00     0.278 C 
ENDBRANCH  16  21
ENDBRANCH  11  15
BRANCH  13  23
ATOM     23  C   UNL A   1      33.295  19.695  24.747  1.00  0.00    -0.002 A 
ATOM     24  C   UNL A   1      32.250  19.378  23.906  1.00  0.00     0.010 A 
ATOM     25  C   UNL A   1      34.473  18.830  24.518  1.00  0.00     0.013 A 
ATOM     26  C   UNL A   1      32.450  18.351  22.969  1.00  0.00     0.001 A 
ATOM     27  C   UNL A   1      34.592  17.416  24.136  1.00  0.00    -0.050 A 
ATOM     28  C   UNL A   1      33.570  17.442  23.045  1.00  0.00     0.003 A 
ATOM     29  C   UNL A   1      35.329  15.812  25.347  1.00  0.00     0.044 C 
ENDBRANCH  13  23
ENDBRANCH   8  10
ENDBRANCH   7   8
ENDBRANCH   6   7
ENDBRANCH   3   6
ENDBRANCH   1   2
BRANCH   1  30
ATOM     30  C   UNL A   1      31.206  30.396  25.206  1.00  0.00     0.023 C 
BRANCH  30  31
ATOM     31  C   UNL A   1      32.044  29.752  26.804  1.00  0.00     0.023 C 
BRANCH  31  32
ATOM     32  C   UNL A   1      33.598  30.527  27.384  1.00  0.00     0.116 C 
BRANCH  32  33
ATOM     33  N   UNL A   1      33.648  31.893  28.307  1.00  0.00    -0.352 N 
ATOM     34  C   UNL A   1      34.524  32.558  29.245  1.00  0.00     0.251 C 
ATOM     35  H   UNL A   1      32.825  32.420  28.182  1.00  0.00     0.163 HD
ATOM     36  O   UNL A   1      34.106  33.451  29.972  1.00  0.00    -0.269 OA
BRANCH  34  37
ATOM     37  C   UNL A   1      35.955  32.143  29.321  1.00  0.00     0.039 A 
ATOM     38  C   UNL A   1      37.564  33.010  28.968  1.00  0.00     0.014 A 
ATOM     39  C   UNL A   1      35.941  30.713  30.419  1.00  0.00     0.014 A 
ATOM     40  C   UNL A   1      39.128  32.369  29.778  1.00  0.00     0.010 A 
ATOM     41  C   UNL A   1      37.393  30.223  31.313  1.00  0.00     0.010 A 
ATOM     42  C   UNL A   1      38.994  30.968  30.988  1.00  0.00    -0.014 A 
BRANCH  42  43
ATOM     43  C   UNL A   1      39.969  29.925  31.555  1.00  0.00     0.031 A 
ATOM     44  C   UNL A   1      40.975  30.353  32.667  1.00  0.00     0.074 A 
ATOM     45  C   UNL A   1      40.428  28.970  30.706  1.00  0.00     0.049 A 
ATOM     46  N   UNL A   1      42.179  29.894  32.952  1.00  0.00    -0.248 NA
ATOM     47  C   UNL A   1      40.622  31.516  33.494  1.00  0.00     0.031 C 
ATOM     48  C   UNL A   1      39.818  28.613  29.425  1.00  0.00     0.029 A 
ATOM     49  N   UNL A   1      41.583  28.205  30.737  1.00  0.00    -0.354 N 
ATOM     50  C   UNL A   1      42.706  30.732  33.944  1.00  0.00     0.074 A 
ATOM     51  C   UNL A   1      41.746  31.786  34.139  1.00  0.00     0.031 C 
ATOM     52  C   UNL A   1      40.601  27.720  28.791  1.00  0.00     0.029 A 
ATOM     53  C   UNL A   1      41.785  27.441  29.603  1.00  0.00     0.049 A 
ATOM     54  H   UNL A   1      42.205  28.205  31.500  1.00  0.00     0.167 HD
ATOM     55  C   UNL A   1      43.833  30.636  34.700  1.00  0.00     0.034 A 
ATOM     56  C   UNL A   1      42.794  26.612  29.245  1.00  0.00     0.034 A 
ATOM     57  C   UNL A   1      44.799  29.585  34.581  1.00  0.00     0.049 A 
ATOM     58  C   UNL A   1      43.978  26.397  30.164  1.00  0.00     0.074 A 
ATOM     59  C   UNL A   1      45.892  29.315  35.387  1.00  0.00     0.029 A 
ATOM     60  N   UNL A   1      44.788  28.632  33.584  1.00  0.00    -0.354 N 
ATOM     61  N   UNL A   1      44.284  27.016  31.276  1.00  0.00    -0.248 NA
ATOM     62  C   UNL A   1      44.932  25.329  29.803  1.00  0.00     0.031 C 
ATOM     63  C   UNL A   1      46.547  28.193  34.872  1.00  0.00     0.029 A 
ATOM     64  C   UNL A   1      45.844  27.760  33.760  1.00  0.00     0.049 A 
ATOM     65  H   UNL A   1      44.125  28.579  32.858  1.00  0.00     0.167 HD
ATOM     66  C   UNL A   1      45.414  26.369  31.778  1.00  0.00     0.074 A 
ATOM     67  C   UNL A   1      45.746  25.314  30.850  1.00  0.00     0.031 C 
ATOM     68  C   UNL A   1      46.114  26.638  32.905  1.00  0.00     0.034 A 
BRANCH  55  69
ATOM     69  C   UNL A   1      44.014  31.614  35.849  1.00  0.00     0.023 A 
ATOM     70  C   UNL A   1      44.791  32.771  35.625  1.00  0.00     0.012 A 
ATOM     71  C   UNL A   1      43.359  31.463  37.089  1.00  0.00     0.148 A 
ATOM     72  C   UNL A   1      44.956  33.733  36.620  1.00  0.00     0.002 A 
ATOM     73  C   UNL A   1      43.492  32.450  38.064  1.00  0.00     0.091 A 
ATOM     74  F   UNL A   1      42.616  30.366  37.292  1.00  0.00    -0.205 F 
ATOM     75  C   UNL A   1      44.300  33.577  37.835  1.00  0.00     0.022 A 
BRANCH  73  76
ATOM     76  S   UNL A   1      42.635  32.399  39.645  1.00  0.00     0.127 S 
ATOM     77  O   UNL A   1      41.244  32.236  39.222  1.00  0.00    -0.237 OA
ATOM     78  O   UNL A   1      43.222  31.215  40.273  1.00  0.00    -0.237 OA
ATOM     79  O   UNL A   1      42.936  33.659  40.309  1.00  0.00    -0.744 OA
ENDBRANCH  73  76
ENDBRANCH  55  69
BRANCH  56  80
ATOM     80  C   UNL A   1      42.681  25.780  28.005  1.00  0.00     0.023 A 
ATOM     81  C   UNL A   1      43.100  26.342  26.781  1.00  0.00     0.012 A 
ATOM     82  C   UNL A   1      42.161  24.473  28.011  1.00  0.00     0.148 A 
ATOM     83  C   UNL A   1      42.963  25.641  25.583  1.00  0.00     0.002 A 
ATOM     84  C   UNL A   1      42.078  23.757  26.817  1.00  0.00     0.091 A 
ATOM     85  F   UNL A   1      41.747  23.955  29.176  1.00  0.00    -0.205 F 
ATOM     86  C   UNL A   1      42.461  24.345  25.602  1.00  0.00     0.022 A 
BRANCH  84  87
ATOM     87  S   UNL A   1      41.560  22.036  26.766  1.00  0.00     0.127 S 
ATOM     88  O   UNL A   1      41.987  21.633  25.429  1.00  0.00    -0.237 OA
ATOM     89  O   UNL A   1      42.333  21.449  27.862  1.00  0.00    -0.237 OA
ATOM     90  O   UNL A   1      40.123  22.063  26.999  1.00  0.00    -0.744 OA
ENDBRANCH  84  87
ENDBRANCH  56  80
BRANCH  68  91
ATOM     91  C   UNL A   1      47.252  25.738  33.301  1.00  0.00     0.023 A 
ATOM     92  C   UNL A   1      47.073  24.758  34.295  1.00  0.00     0.012 A 
ATOM     93  C   UNL A   1      48.459  25.774  32.571  1.00  0.00     0.148 A 
ATOM     94  C   UNL A   1      48.083  23.834  34.565  1.00  0.00     0.002 A 
ATOM     95  C   UNL A   1      49.442  24.822  32.815  1.00  0.00     0.091 A 
ATOM     96  F   UNL A   1      48.613  26.725  31.639  1.00  0.00    -0.205 F 
ATOM     97  C   UNL A   1      49.259  23.857  33.817  1.00  0.00     0.022 A 
BRANCH  95  98
ATOM     98  S   UNL A   1      50.941  24.714  31.829  1.00  0.00     0.127 S 
ATOM     99  O   UNL A   1      51.759  25.776  32.414  1.00  0.00    -0.237 OA
ATOM    100  O   UNL A   1      51.405  23.357  32.120  1.00  0.00    -0.237 OA
ATOM    101  O   UNL A   1      50.531  24.930  30.448  1.00  0.00    -0.744 OA
ENDBRANCH  95  98
ENDBRANCH  68  91
ENDBRANCH  42  43
ENDBRANCH  34  37
ENDBRANCH  32  33
ENDBRANCH  31  32
ENDBRANCH  30  31
ENDBRANCH   1  30
TORSDOF 20
ENDMDL
MODEL 2
REMARK VINA RESULT:     -14.4      3.551      9.675
REMARK SMILES COc1cccc([C@@H]2CC(c3cccc(C)c3)=NN2C(=O)CCC(=O)NCCCCNC(=O)c2ccc(-c3c4nc(c(-c5cccc(S(=O)(=O)[O-])c5F)c5ccc([nH]5)c(-c5cccc(S(=O)(=O)[O-])c5F)c5nc(c(-c6cccc(S(=O)(=O)[O-])c6F)c6ccc3[nH]6)C=C5)C=C4)cc2)c1
REMARK SMILES IDX 27 1 26 2 24 3 25 4 23 6 22 7 20 8 21 9 19 10 8 11 9 12
REMARK SMILES IDX 10 13 18 14 7 15 3 16 4 17 97 18 5 19 6 20 2 21 1 22 11 23
REMARK SMILES IDX 12 24 17 25 13 26 15 27 14 28 16 29 28 30 29 31 30 32 31 33
REMARK SMILES IDX 32 34 33 36 34 37 35 38 96 39 36 40 95 41 37 42 38 43 39 44
REMARK SMILES IDX 89 45 40 46 94 47 88 48 90 49 41 50 93 51 87 52 86 53 42 55
REMARK SMILES IDX 74 56 54 57 73 58 55 59 58 60 72 61 91 62 56 63 57 64 71 66
REMARK SMILES IDX 92 67 59 68 43 69 44 70 52 71 45 72 47 73 53 74 46 75 48 76
REMARK SMILES IDX 49 77 50 78 51 79 75 80 76 81 84 82 77 83 79 84 85 85 78 86
REMARK SMILES IDX 80 87 81 88 82 89 83 90 60 91 61 92 69 93 62 94 64 95 70 96
REMARK SMILES IDX 63 97 65 98 66 99 67 100 68 101
REMARK H PARENT 26 5 31 35 90 54 58 65
REMARK Flexibility Score: inf
ROOT
ATOM      1  C   UNL A   1      36.790  23.557  25.715  1.00  0.00     0.116 C 
ENDROOT
BRANCH   1   2
ATOM      2  N   UNL A   1      35.283  23.406  26.235  1.00  0.00    -0.356 N 
ATOM      3  C   UNL A   1      34.149  24.139  26.105  1.00  0.00     0.220 C 
ATOM      4  O   UNL A   1      33.166  23.750  26.741  1.00  0.00    -0.275 OA
ATOM      5  H   UNL A   1      35.149  22.593  26.775  1.00  0.00     0.163 HD
BRANCH   3   6
ATOM      6  C   UNL A   1      34.080  25.360  25.221  1.00  0.00     0.110 C 
BRANCH   6   7
ATOM      7  C   UNL A   1      33.523  26.673  25.777  1.00  0.00     0.112 C 
BRANCH   7   8
ATOM      8  C   UNL A   1      32.012  26.646  26.037  1.00  0.00     0.243 C 
ATOM      9  O   UNL A   1      31.572  26.339  27.144  1.00  0.00    -0.273 OA
BRANCH   8  10
ATOM     10  N   UNL A   1      31.231  26.810  24.868  1.00  0.00    -0.225 N 
ATOM     11  C   UNL A   1      30.101  25.436  24.293  1.00  0.00     0.147 C 
ATOM     12  C   UNL A   1      28.381  26.473  23.876  1.00  0.00     0.091 C 
ATOM     13  C   UNL A   1      29.098  28.485  23.981  1.00  0.00     0.071 C 
ATOM     14  N   UNL A   1      30.544  28.487  24.573  1.00  0.00    -0.174 NA
BRANCH  11  15
ATOM     15  C   UNL A   1      31.124  24.587  23.375  1.00  0.00    -0.019 A 
ATOM     16  C   UNL A   1      32.584  22.667  23.056  1.00  0.00     0.119 A 
ATOM     17  C   UNL A   1      33.283  23.335  22.044  1.00  0.00     0.046 A 
ATOM     18  C   UNL A   1      31.495  23.277  23.709  1.00  0.00     0.052 A 
ATOM     19  C   UNL A   1      32.907  24.610  21.664  1.00  0.00     0.004 A 
ATOM     20  C   UNL A   1      31.853  25.225  22.327  1.00  0.00     0.006 A 
BRANCH  16  21
ATOM     21  O   UNL A   1      33.119  21.441  23.345  1.00  0.00    -0.497 OA
ATOM     22  C   UNL A   1      32.423  20.648  24.291  1.00  0.00     0.278 C 
ENDBRANCH  16  21
ENDBRANCH  11  15
BRANCH  13  23
ATOM     23  C   UNL A   1      28.837  29.917  23.008  1.00  0.00    -0.002 A 
ATOM     24  C   UNL A   1      28.800  29.758  21.640  1.00  0.00     0.010 A 
ATOM     25  C   UNL A   1      28.449  31.284  23.419  1.00  0.00     0.013 A 
ATOM     26  C   UNL A   1      28.386  30.853  20.863  1.00  0.00     0.001 A 
ATOM     27  C   UNL A   1      28.665  32.595  22.790  1.00  0.00    -0.050 A 
ATOM     28  C   UNL A   1      28.283  32.189  21.402  1.00  0.00     0.003 A 
ATOM     29  C   UNL A   1      29.912  34.180  23.508  1.00  0.00     0.044 C 
ENDBRANCH  13  23
ENDBRANCH   8  10
ENDBRANCH   7   8
ENDBRANCH   6   7
ENDBRANCH   3   6
ENDBRANCH   1   2
BRANCH   1  30
ATOM     30  C   UNL A   1      38.440  22.060  25.754  1.00  0.00     0.023 C 
BRANCH  30  31
ATOM     31  C   UNL A   1      39.974  22.597  26.768  1.00  0.00     0.023 C 
BRANCH  31  32
ATOM     32  C   UNL A   1      41.193  21.338  27.296  1.00  0.00     0.116 C 
BRANCH  32  33
ATOM     33  N   UNL A   1      42.725  21.238  26.690  1.00  0.00    -0.352 N 
ATOM     34  C   UNL A   1      43.747  22.095  26.133  1.00  0.00     0.251 C 
ATOM     35  H   UNL A   1      43.040  20.306  26.714  1.00  0.00     0.163 HD
ATOM     36  O   UNL A   1      44.692  21.623  25.512  1.00  0.00    -0.269 OA
BRANCH  34  37
ATOM     37  C   UNL A   1      43.641  23.570  26.323  1.00  0.00     0.039 A 
ATOM     38  C   UNL A   1      43.430  25.004  25.155  1.00  0.00     0.014 A 
ATOM     39  C   UNL A   1      43.164  23.758  28.052  1.00  0.00     0.014 A 
ATOM     40  C   UNL A   1      42.716  26.605  25.815  1.00  0.00     0.010 A 
ATOM     41  C   UNL A   1      42.331  25.216  28.624  1.00  0.00     0.010 A 
ATOM     42  C   UNL A   1      42.142  26.663  27.579  1.00  0.00    -0.014 A 
BRANCH  42  43
ATOM     43  C   UNL A   1      41.877  27.781  28.600  1.00  0.00     0.031 A 
ATOM     44  C   UNL A   1      42.510  27.674  30.022  1.00  0.00     0.074 A 
ATOM     45  C   UNL A   1      40.667  28.393  28.559  1.00  0.00     0.049 A 
ATOM     46  N   UNL A   1      42.086  28.138  31.182  1.00  0.00    -0.248 NA
ATOM     47  C   UNL A   1      43.720  26.852  30.169  1.00  0.00     0.031 C 
ATOM     48  C   UNL A   1      39.739  28.358  27.427  1.00  0.00     0.029 A 
ATOM     49  N   UNL A   1      39.955  29.068  29.537  1.00  0.00    -0.354 N 
ATOM     50  C   UNL A   1      42.952  27.629  32.160  1.00  0.00     0.074 A 
ATOM     51  C   UNL A   1      43.858  26.742  31.480  1.00  0.00     0.031 C 
ATOM     52  C   UNL A   1      38.588  28.963  27.774  1.00  0.00     0.029 A 
ATOM     53  C   UNL A   1      38.673  29.423  29.160  1.00  0.00     0.049 A 
ATOM     54  H   UNL A   1      40.329  29.277  30.423  1.00  0.00     0.167 HD
ATOM     55  C   UNL A   1      43.072  27.901  33.487  1.00  0.00     0.034 A 
ATOM     56  C   UNL A   1      37.676  30.044  29.836  1.00  0.00     0.034 A 
ATOM     57  C   UNL A   1      42.227  28.809  34.205  1.00  0.00     0.049 A 
ATOM     58  C   UNL A   1      37.872  30.477  31.273  1.00  0.00     0.074 A 
ATOM     59  C   UNL A   1      42.351  29.264  35.508  1.00  0.00     0.029 A 
ATOM     60  N   UNL A   1      41.097  29.399  33.678  1.00  0.00    -0.354 N 
ATOM     61  N   UNL A   1      38.869  30.226  32.083  1.00  0.00    -0.248 NA
ATOM     62  C   UNL A   1      36.824  31.325  31.875  1.00  0.00     0.031 C 
ATOM     63  C   UNL A   1      41.286  30.130  35.769  1.00  0.00     0.029 A 
ATOM     64  C   UNL A   1      40.519  30.226  34.621  1.00  0.00     0.049 A 
ATOM     65  H   UNL A   1      40.755  29.253  32.766  1.00  0.00     0.167 HD
ATOM     66  C   UNL A   1      38.603  30.940  33.253  1.00  0.00     0.074 A 
ATOM     67  C   UNL A   1      37.350  31.629  33.054  1.00  0.00     0.031 C 
ATOM     68  C   UNL A   1      39.335  31.004  34.390  1.00  0.00     0.034 A 
BRANCH  55  69
ATOM     69  C   UNL A   1      44.264  27.328  34.235  1.00  0.00     0.023 A 
ATOM     70  C   UNL A   1      45.454  28.088  34.276  1.00  0.00     0.012 A 
ATOM     71  C   UNL A   1      44.198  26.125  34.966  1.00  0.00     0.148 A 
ATOM     72  C   UNL A   1      46.568  27.644  34.986  1.00  0.00     0.002 A 
ATOM     73  C   UNL A   1      45.301  25.709  35.711  1.00  0.00     0.091 A 
ATOM     74  F   UNL A   1      43.063  25.413  34.929  1.00  0.00    -0.205 F 
ATOM     75  C   UNL A   1      46.489  26.460  35.710  1.00  0.00     0.022 A 
BRANCH  73  76
ATOM     76  S   UNL A   1      45.296  24.237  36.745  1.00  0.00     0.127 S 
ATOM     77  O   UNL A   1      46.700  24.152  37.145  1.00  0.00    -0.237 OA
ATOM     78  O   UNL A   1      44.380  24.620  37.819  1.00  0.00    -0.237 OA
ATOM     79  O   UNL A   1      44.827  23.150  35.897  1.00  0.00    -0.744 OA
ENDBRANCH  73  76
ENDBRANCH  55  69
BRANCH  56  80
ATOM     80  C   UNL A   1      36.422  30.446  29.123  1.00  0.00     0.023 A 
ATOM     81  C   UNL A   1      35.613  29.432  28.568  1.00  0.00     0.012 A 
ATOM     82  C   UNL A   1      36.029  31.788  28.974  1.00  0.00     0.148 A 
ATOM     83  C   UNL A   1      34.465  29.746  27.840  1.00  0.00     0.002 A 
ATOM     84  C   UNL A   1      34.852  32.092  28.292  1.00  0.00     0.091 A 
ATOM     85  F   UNL A   1      36.816  32.745  29.487  1.00  0.00    -0.205 F 
ATOM     86  C   UNL A   1      34.079  31.075  27.710  1.00  0.00     0.022 A 
BRANCH  84  87
ATOM     87  S   UNL A   1      34.211  33.769  28.184  1.00  0.00     0.127 S 
ATOM     88  O   UNL A   1      34.342  34.231  29.563  1.00  0.00    -0.237 OA
ATOM     89  O   UNL A   1      35.136  34.392  27.235  1.00  0.00    -0.237 OA
ATOM     90  O   UNL A   1      32.851  33.626  27.682  1.00  0.00    -0.744 OA
ENDBRANCH  84  87
ENDBRANCH  56  80
BRANCH  68  91
ATOM     91  C   UNL A   1      38.897  31.923  35.498  1.00  0.00     0.023 A 
ATOM     92  C   UNL A   1      38.992  33.319  35.344  1.00  0.00     0.012 A 
ATOM     93  C   UNL A   1      38.252  31.393  36.634  1.00  0.00     0.148 A 
ATOM     94  C   UNL A   1      38.461  34.173  36.311  1.00  0.00     0.002 A 
ATOM     95  C   UNL A   1      37.686  32.250  37.570  1.00  0.00     0.091 A 
ATOM     96  F   UNL A   1      38.186  30.060  36.766  1.00  0.00    -0.205 F 
ATOM     97  C   UNL A   1      37.797  33.641  37.415  1.00  0.00     0.022 A 
BRANCH  95  98
ATOM     98  S   UNL A   1      36.723  31.650  38.965  1.00  0.00     0.127 S 
ATOM     99  O   UNL A   1      35.530  32.492  38.887  1.00  0.00    -0.237 OA
ATOM    100  O   UNL A   1      36.505  30.248  38.610  1.00  0.00    -0.237 OA
ATOM    101  O   UNL A   1      37.554  31.854  40.144  1.00  0.00    -0.744 OA
ENDBRANCH  95  98
ENDBRANCH  68  91
ENDBRANCH  42  43
ENDBRANCH  34  37
ENDBRANCH  32  33
ENDBRANCH  31  32
ENDBRANCH  30  31
ENDBRANCH   1  30
TORSDOF 20
ENDMDL
MODEL 3
REMARK VINA RESULT:     -13.5      3.489      8.811
REMARK SMILES COc1cccc([C@@H]2CC(c3cccc(C)c3)=NN2C(=O)CCC(=O)NCCCCNC(=O)c2ccc(-c3c4nc(c(-c5cccc(S(=O)(=O)[O-])c5F)c5ccc([nH]5)c(-c5cccc(S(=O)(=O)[O-])c5F)c5nc(c(-c6cccc(S(=O)(=O)[O-])c6F)c6ccc3[nH]6)C=C5)C=C4)cc2)c1
REMARK SMILES IDX 27 1 26 2 24 3 25 4 23 6 22 7 20 8 21 9 19 10 8 11 9 12
REMARK SMILES IDX 10 13 18 14 7 15 3 16 4 17 97 18 5 19 6 20 2 21 1 22 11 23
REMARK SMILES IDX 12 24 17 25 13 26 15 27 14 28 16 29 28 30 29 31 30 32 31 33
REMARK SMILES IDX 32 34 33 36 34 37 35 38 96 39 36 40 95 41 37 42 38 43 39 44
REMARK SMILES IDX 89 45 40 46 94 47 88 48 90 49 41 50 93 51 87 52 86 53 42 55
REMARK SMILES IDX 74 56 54 57 73 58 55 59 58 60 72 61 91 62 56 63 57 64 71 66
REMARK SMILES IDX 92 67 59 68 43 69 44 70 52 71 45 72 47 73 53 74 46 75 48 76
REMARK SMILES IDX 49 77 50 78 51 79 75 80 76 81 84 82 77 83 79 84 85 85 78 86
REMARK SMILES IDX 80 87 81 88 82 89 83 90 60 91 61 92 69 93 62 94 64 95 70 96
REMARK SMILES IDX 63 97 65 98 66 99 67 100 68 101
REMARK H PARENT 26 5 31 35 90 54 58 65
REMARK Flexibility Score: inf
ROOT
ATOM      1  C   UNL A   1      30.526  25.878  25.934  1.00  0.00     0.116 C 
ENDROOT
BRANCH   1   2
ATOM      2  N   UNL A   1      30.309  24.296  25.814  1.00  0.00    -0.356 N 
ATOM      3  C   UNL A   1      30.877  23.207  26.389  1.00  0.00     0.220 C 
ATOM      4  O   UNL A   1      30.505  22.107  25.972  1.00  0.00    -0.275 OA
ATOM      5  H   UNL A   1      29.597  24.059  25.176  1.00  0.00     0.163 HD
BRANCH   3   6
ATOM      6  C   UNL A   1      31.904  23.324  27.490  1.00  0.00     0.110 C 
BRANCH   6   7
ATOM      7  C   UNL A   1      33.228  22.564  27.382  1.00  0.00     0.112 C 
BRANCH   7   8
ATOM      8  C   UNL A   1      34.283  23.273  26.525  1.00  0.00     0.243 C 
ATOM      9  O   UNL A   1      34.182  24.471  26.271  1.00  0.00    -0.273 OA
BRANCH   8  10
ATOM     10  N   UNL A   1      35.219  22.391  25.932  1.00  0.00    -0.225 N 
ATOM     11  C   UNL A   1      35.076  21.949  24.121  1.00  0.00     0.147 C 
ATOM     12  C   UNL A   1      37.019  22.159  23.498  1.00  0.00     0.091 C 
ATOM     13  C   UNL A   1      38.018  22.355  25.378  1.00  0.00     0.071 C 
ATOM     14  N   UNL A   1      36.956  22.533  26.511  1.00  0.00    -0.174 NA
BRANCH  11  15
ATOM     15  C   UNL A   1      34.081  20.679  24.212  1.00  0.00    -0.019 A 
ATOM     16  C   UNL A   1      33.724  18.289  24.499  1.00  0.00     0.119 A 
ATOM     17  C   UNL A   1      32.474  18.377  23.877  1.00  0.00     0.046 A 
ATOM     18  C   UNL A   1      34.521  19.436  24.687  1.00  0.00     0.052 A 
ATOM     19  C   UNL A   1      31.997  19.598  23.441  1.00  0.00     0.004 A 
ATOM     20  C   UNL A   1      32.794  20.725  23.597  1.00  0.00     0.006 A 
BRANCH  16  21
ATOM     21  O   UNL A   1      34.066  17.003  24.818  1.00  0.00    -0.497 OA
ATOM     22  C   UNL A   1      33.229  16.331  25.743  1.00  0.00     0.278 C 
ENDBRANCH  16  21
ENDBRANCH  11  15
BRANCH  13  23
ATOM     23  C   UNL A   1      39.504  21.703  26.036  1.00  0.00    -0.002 A 
ATOM     24  C   UNL A   1      39.603  20.333  26.144  1.00  0.00     0.010 A 
ATOM     25  C   UNL A   1      40.787  22.377  26.330  1.00  0.00     0.013 A 
ATOM     26  C   UNL A   1      40.857  19.789  26.470  1.00  0.00     0.001 A 
ATOM     27  C   UNL A   1      41.866  22.060  27.275  1.00  0.00    -0.050 A 
ATOM     28  C   UNL A   1      41.944  20.598  26.970  1.00  0.00     0.003 A 
ATOM     29  C   UNL A   1      42.423  23.173  29.017  1.00  0.00     0.044 C 
ENDBRANCH  13  23
ENDBRANCH   8  10
ENDBRANCH   7   8
ENDBRANCH   6   7
ENDBRANCH   3   6
ENDBRANCH   1   2
BRANCH   1  30
ATOM     30  C   UNL A   1      32.051  26.995  27.114  1.00  0.00     0.023 C 
BRANCH  30  31
ATOM     31  C   UNL A   1      33.485  27.722  26.071  1.00  0.00     0.023 C 
BRANCH  31  32
ATOM     32  C   UNL A   1      33.394  29.456  25.496  1.00  0.00     0.116 C 
BRANCH  32  33
ATOM     33  N   UNL A   1      32.373  30.581  26.142  1.00  0.00    -0.352 N 
ATOM     34  C   UNL A   1      32.391  31.667  27.095  1.00  0.00     0.251 C 
ATOM     35  H   UNL A   1      31.470  30.479  25.761  1.00  0.00     0.163 HD
ATOM     36  O   UNL A   1      31.348  32.125  27.546  1.00  0.00    -0.269 OA
BRANCH  34  37
ATOM     37  C   UNL A   1      33.701  32.232  27.527  1.00  0.00     0.039 A 
ATOM     38  C   UNL A   1      34.310  33.959  27.859  1.00  0.00     0.014 A 
ATOM     39  C   UNL A   1      34.559  30.832  28.273  1.00  0.00     0.014 A 
ATOM     40  C   UNL A   1      35.798  34.191  28.974  1.00  0.00     0.010 A 
ATOM     41  C   UNL A   1      35.855  31.072  29.461  1.00  0.00     0.010 A 
ATOM     42  C   UNL A   1      36.537  32.699  29.793  1.00  0.00    -0.014 A 
BRANCH  42  43
ATOM     43  C   UNL A   1      37.899  32.368  30.423  1.00  0.00     0.031 A 
ATOM     44  C   UNL A   1      38.688  31.122  29.914  1.00  0.00     0.074 A 
ATOM     45  C   UNL A   1      38.063  32.648  31.741  1.00  0.00     0.049 A 
ATOM     46  N   UNL A   1      39.536  30.333  30.545  1.00  0.00    -0.248 NA
ATOM     47  C   UNL A   1      38.403  30.645  28.553  1.00  0.00     0.031 C 
ATOM     48  C   UNL A   1      37.225  33.557  32.524  1.00  0.00     0.029 A 
ATOM     49  N   UNL A   1      38.920  32.107  32.687  1.00  0.00    -0.354 N 
ATOM     50  C   UNL A   1      39.834  29.280  29.669  1.00  0.00     0.074 A 
ATOM     51  C   UNL A   1      39.003  29.467  28.510  1.00  0.00     0.031 C 
ATOM     52  C   UNL A   1      37.593  33.501  33.818  1.00  0.00     0.029 A 
ATOM     53  C   UNL A   1      38.686  32.543  33.977  1.00  0.00     0.049 A 
ATOM     54  H   UNL A   1      39.633  31.468  32.459  1.00  0.00     0.167 HD
ATOM     55  C   UNL A   1      40.752  28.279  29.742  1.00  0.00     0.034 A 
ATOM     56  C   UNL A   1      39.271  32.221  35.156  1.00  0.00     0.034 A 
ATOM     57  C   UNL A   1      41.636  28.073  30.851  1.00  0.00     0.049 A 
ATOM     58  C   UNL A   1      40.397  31.210  35.206  1.00  0.00     0.074 A 
ATOM     59  C   UNL A   1      42.694  27.186  30.965  1.00  0.00     0.029 A 
ATOM     60  N   UNL A   1      41.561  28.764  32.042  1.00  0.00    -0.354 N 
ATOM     61  N   UNL A   1      40.859  30.438  34.255  1.00  0.00    -0.248 NA
ATOM     62  C   UNL A   1      41.120  31.063  36.486  1.00  0.00     0.031 C 
ATOM     63  C   UNL A   1      43.257  27.340  32.234  1.00  0.00     0.029 A 
ATOM     64  C   UNL A   1      42.560  28.338  32.894  1.00  0.00     0.049 A 
ATOM     65  H   UNL A   1      40.895  29.459  32.252  1.00  0.00     0.167 HD
ATOM     66  C   UNL A   1      41.960  29.775  34.798  1.00  0.00     0.074 A 
ATOM     67  C   UNL A   1      42.098  30.228  36.162  1.00  0.00     0.031 C 
ATOM     68  C   UNL A   1      42.774  28.866  34.212  1.00  0.00     0.034 A 
BRANCH  55  69
ATOM     69  C   UNL A   1      40.968  27.409  28.515  1.00  0.00     0.023 A 
ATOM     70  C   UNL A   1      39.986  26.445  28.199  1.00  0.00     0.012 A 
ATOM     71  C   UNL A   1      42.052  27.593  27.632  1.00  0.00     0.148 A 
ATOM     72  C   UNL A   1      40.097  25.649  27.060  1.00  0.00     0.002 A 
ATOM     73  C   UNL A   1      42.134  26.824  26.472  1.00  0.00     0.091 A 
ATOM     74  F   UNL A   1      42.977  28.515  27.935  1.00  0.00    -0.205 F 
ATOM     75  C   UNL A   1      41.166  25.845  26.193  1.00  0.00     0.022 A 
BRANCH  73  76
ATOM     76  S   UNL A   1      43.426  27.035  25.237  1.00  0.00     0.127 S 
ATOM     77  O   UNL A   1      44.510  27.602  26.038  1.00  0.00    -0.237 OA
ATOM     78  O   UNL A   1      43.653  25.659  24.794  1.00  0.00    -0.237 OA
ATOM     79  O   UNL A   1      42.874  27.923  24.224  1.00  0.00    -0.744 OA
ENDBRANCH  73  76
ENDBRANCH  55  69
BRANCH  56  80
ATOM     80  C   UNL A   1      38.916  32.971  36.402  1.00  0.00     0.023 A 
ATOM     81  C   UNL A   1      39.390  34.293  36.545  1.00  0.00     0.012 A 
ATOM     82  C   UNL A   1      38.146  32.409  37.436  1.00  0.00     0.148 A 
ATOM     83  C   UNL A   1      39.145  35.022  37.708  1.00  0.00     0.002 A 
ATOM     84  C   UNL A   1      37.859  33.163  38.572  1.00  0.00     0.091 A 
ATOM     85  F   UNL A   1      37.718  31.146  37.299  1.00  0.00    -0.205 F 
ATOM     86  C   UNL A   1      38.372  34.462  38.718  1.00  0.00     0.022 A 
BRANCH  84  87
ATOM     87  S   UNL A   1      36.765  32.566  39.869  1.00  0.00     0.127 S 
ATOM     88  O   UNL A   1      35.502  32.414  39.151  1.00  0.00    -0.237 OA
ATOM     89  O   UNL A   1      37.407  31.309  40.259  1.00  0.00    -0.237 OA
ATOM     90  O   UNL A   1      36.797  33.595  40.898  1.00  0.00    -0.744 OA
ENDBRANCH  84  87
ENDBRANCH  56  80
BRANCH  68  91
ATOM     91  C   UNL A   1      43.969  28.351  34.966  1.00  0.00     0.023 A 
ATOM     92  C   UNL A   1      45.219  28.986  34.840  1.00  0.00     0.012 A 
ATOM     93  C   UNL A   1      43.807  27.323  35.919  1.00  0.00     0.148 A 
ATOM     94  C   UNL A   1      46.293  28.597  35.640  1.00  0.00     0.002 A 
ATOM     95  C   UNL A   1      44.868  26.972  36.744  1.00  0.00     0.091 A 
ATOM     96  F   UNL A   1      42.612  26.723  36.011  1.00  0.00    -0.205 F 
ATOM     97  C   UNL A   1      46.115  27.602  36.601  1.00  0.00     0.022 A 
BRANCH  95  98
ATOM     98  S   UNL A   1      44.696  25.776  38.075  1.00  0.00     0.127 S 
ATOM     99  O   UNL A   1      43.948  24.706  37.418  1.00  0.00    -0.237 OA
ATOM    100  O   UNL A   1      46.090  25.449  38.379  1.00  0.00    -0.237 OA
ATOM    101  O   UNL A   1      43.990  26.466  39.146  1.00  0.00    -0.744 OA
ENDBRANCH  95  98
ENDBRANCH  68  91
ENDBRANCH  42  43
ENDBRANCH  34  37
ENDBRANCH  32  33
ENDBRANCH  31  32
ENDBRANCH  30  31
ENDBRANCH   1  30
TORSDOF 20
ENDMDL
