MODEL 1
REMARK VINA RESULT:     -12.7      0.000      0.000
REMARK SMILES CC1(C)C(NC(=O)[C@@H]2CCC[C@@H](C(=O)NCCCCNC(=O)c3ccc(-c4c5nc(c(-c6cccc(S(=O)(=O)[O-])c6F)c6ccc([nH]6)c(-c6cccc(S(=O)(=O)[O-])c6F)c6nc(c(-c7cccc(S(=O)(=O)[O-])c7F)c7ccc4[nH]7)C=C6)C=C5)cc3)C2)C1(C)C
REMARK SMILES IDX 18 1 17 2 16 3 15 4 13 5 14 6 12 8 8 9 9 10 86 11 10 12
REMARK SMILES IDX 11 13 6 14 5 15 7 17 4 18 1 19 2 20 3 21 87 22 88 23 89 24
REMARK SMILES IDX 19 25 20 26 21 27 22 29 23 30 24 31 85 32 25 33 84 34 26 35
REMARK SMILES IDX 27 36 28 37 78 38 29 39 83 40 77 41 79 42 30 43 82 44 76 45
REMARK SMILES IDX 75 46 31 48 63 49 43 50 62 51 44 52 47 53 61 54 80 55 45 56
REMARK SMILES IDX 46 57 60 59 81 60 48 61 32 62 33 63 41 64 34 65 36 66 42 67
REMARK SMILES IDX 35 68 37 69 38 70 39 71 40 72 64 73 65 74 73 75 66 76 68 77
REMARK SMILES IDX 74 78 67 79 69 80 70 81 71 82 72 83 49 84 50 85 58 86 51 87
REMARK SMILES IDX 53 88 59 89 52 90 54 91 55 92 56 93 57 94
REMARK H PARENT 15 7 5 16 20 28 79 47 47 58
REMARK Flexibility Score: inf
ROOT
ATOM      1  C   UNL A   1      31.513  32.092  26.906  1.00  0.00     0.023 C 
ENDROOT
BRANCH   1   2
ATOM      2  C   UNL A   1      31.798  30.714  26.309  1.00  0.00     0.023 C 
BRANCH   2   3
ATOM      3  C   UNL A   1      32.714  29.830  27.149  1.00  0.00     0.116 C 
BRANCH   3   4
ATOM      4  N   UNL A   1      32.131  28.524  27.388  1.00  0.00    -0.356 N 
ATOM      5  C   UNL A   1      31.794  27.540  26.509  1.00  0.00     0.223 C 
ATOM      6  O   UNL A   1      31.262  26.517  26.938  1.00  0.00    -0.275 OA
ATOM      7  H   UNL A   1      31.949  28.316  28.333  1.00  0.00     0.163 HD
BRANCH   5   8
ATOM      8  C   UNL A   1      32.065  27.747  25.027  1.00  0.00     0.079 C 
ATOM      9  C   UNL A   1      32.610  25.481  23.830  1.00  0.00     0.079 C 
ATOM     10  C   UNL A   1      31.234  25.563  23.160  1.00  0.00     0.013 C 
ATOM     11  C   UNL A   1      33.118  26.747  24.536  1.00  0.00     0.027 C 
ATOM     12  C   UNL A   1      30.227  26.351  23.978  1.00  0.00     0.002 C 
ATOM     13  C   UNL A   1      30.747  27.754  24.249  1.00  0.00     0.013 C 
BRANCH   9  14
ATOM     14  C   UNL A   1      33.628  24.930  22.827  1.00  0.00     0.223 C 
ATOM     15  N   UNL A   1      34.343  23.790  23.098  1.00  0.00    -0.352 N 
ATOM     16  H   UNL A   1      35.033  23.561  22.434  1.00  0.00     0.163 HD
ATOM     17  O   UNL A   1      33.868  25.527  21.774  1.00  0.00    -0.275 OA
BRANCH  15  18
ATOM     18  C   UNL A   1      34.233  22.887  24.200  1.00  0.00     0.094 C 
ATOM     19  C   UNL A   1      35.099  20.558  24.963  1.00  0.00     0.014 C 
ATOM     20  C   UNL A   1      35.403  22.001  24.610  1.00  0.00    -0.007 C 
ATOM     21  C   UNL A   1      36.731  22.141  23.897  1.00  0.00     0.014 C 
ATOM     22  C   UNL A   1      34.893  23.121  25.540  1.00  0.00    -0.007 C 
ATOM     23  C   UNL A   1      34.059  22.763  26.756  1.00  0.00     0.014 C 
ATOM     24  C   UNL A   1      35.694  24.383  25.759  1.00  0.00     0.014 C 
ENDBRANCH  15  18
ENDBRANCH   9  14
ENDBRANCH   5   8
ENDBRANCH   3   4
ENDBRANCH   2   3
ENDBRANCH   1   2
BRANCH   1  25
ATOM     25  C   UNL A   1      32.726  32.814  27.481  1.00  0.00     0.116 C 
BRANCH  25  26
ATOM     26  N   UNL A   1      32.471  34.222  27.745  1.00  0.00    -0.352 N 
ATOM     27  C   UNL A   1      33.077  35.047  28.664  1.00  0.00     0.251 C 
ATOM     28  H   UNL A   1      31.772  34.640  27.193  1.00  0.00     0.163 HD
ATOM     29  O   UNL A   1      32.649  36.177  28.853  1.00  0.00    -0.269 OA
BRANCH  27  30
ATOM     30  C   UNL A   1      34.231  34.542  29.442  1.00  0.00     0.039 A 
ATOM     31  C   UNL A   1      34.003  33.983  30.701  1.00  0.00     0.014 A 
ATOM     32  C   UNL A   1      35.524  34.590  28.913  1.00  0.00     0.014 A 
ATOM     33  C   UNL A   1      35.067  33.416  31.406  1.00  0.00     0.010 A 
ATOM     34  C   UNL A   1      36.568  33.958  29.584  1.00  0.00     0.010 A 
ATOM     35  C   UNL A   1      36.352  33.369  30.839  1.00  0.00    -0.014 A 
BRANCH  35  36
ATOM     36  C   UNL A   1      37.479  32.700  31.539  1.00  0.00     0.031 A 
ATOM     37  C   UNL A   1      38.185  31.536  30.897  1.00  0.00     0.074 A 
ATOM     38  C   UNL A   1      37.812  33.086  32.787  1.00  0.00     0.049 A 
ATOM     39  N   UNL A   1      39.158  30.801  31.370  1.00  0.00    -0.248 NA
ATOM     40  C   UNL A   1      37.721  31.126  29.561  1.00  0.00     0.031 C 
ATOM     41  C   UNL A   1      37.147  34.143  33.553  1.00  0.00     0.029 A 
ATOM     42  N   UNL A   1      38.777  32.617  33.643  1.00  0.00    -0.354 N 
ATOM     43  C   UNL A   1      39.397  29.824  30.410  1.00  0.00     0.074 A 
ATOM     44  C   UNL A   1      38.443  30.036  29.345  1.00  0.00     0.031 C 
ATOM     45  C   UNL A   1      37.728  34.246  34.759  1.00  0.00     0.029 A 
ATOM     46  C   UNL A   1      38.789  33.249  34.865  1.00  0.00     0.049 A 
ATOM     47  H   UNL A   1      39.404  31.895  33.404  1.00  0.00     0.167 HD
ATOM     48  C   UNL A   1      40.346  28.857  30.400  1.00  0.00     0.034 A 
ATOM     49  C   UNL A   1      39.565  33.048  35.948  1.00  0.00     0.034 A 
ATOM     50  C   UNL A   1      41.324  28.679  31.440  1.00  0.00     0.049 A 
ATOM     51  C   UNL A   1      40.648  32.006  35.887  1.00  0.00     0.074 A 
ATOM     52  C   UNL A   1      42.378  27.784  31.484  1.00  0.00     0.029 A 
ATOM     53  N   UNL A   1      41.368  29.407  32.617  1.00  0.00    -0.354 N 
ATOM     54  N   UNL A   1      40.962  31.198  34.902  1.00  0.00    -0.248 NA
ATOM     55  C   UNL A   1      41.513  31.874  37.068  1.00  0.00     0.031 C 
ATOM     56  C   UNL A   1      43.051  27.962  32.696  1.00  0.00     0.029 A 
ATOM     57  C   UNL A   1      42.432  28.984  33.396  1.00  0.00     0.049 A 
ATOM     58  H   UNL A   1      40.736  30.121  32.863  1.00  0.00     0.167 HD
ATOM     59  C   UNL A   1      42.085  30.497  35.327  1.00  0.00     0.074 A 
ATOM     60  C   UNL A   1      42.407  30.986  36.652  1.00  0.00     0.031 C 
ATOM     61  C   UNL A   1      42.780  29.526  34.684  1.00  0.00     0.034 A 
BRANCH  48  62
ATOM     62  C   UNL A   1      40.414  27.956  29.195  1.00  0.00     0.023 A 
ATOM     63  C   UNL A   1      39.496  26.893  29.073  1.00  0.00     0.012 A 
ATOM     64  C   UNL A   1      41.337  28.193  28.158  1.00  0.00     0.148 A 
ATOM     65  C   UNL A   1      39.518  26.058  27.956  1.00  0.00     0.002 A 
ATOM     66  C   UNL A   1      41.323  27.385  27.027  1.00  0.00     0.091 A 
ATOM     67  F   UNL A   1      42.216  29.196  28.300  1.00  0.00    -0.205 F 
ATOM     68  C   UNL A   1      40.422  26.311  26.930  1.00  0.00     0.022 A 
BRANCH  66  69
ATOM     69  S   UNL A   1      42.394  27.675  25.613  1.00  0.00     0.127 S 
ATOM     70  O   UNL A   1      43.711  27.728  26.246  1.00  0.00    -0.237 OA
ATOM     71  O   UNL A   1      42.156  26.483  24.798  1.00  0.00    -0.237 OA
ATOM     72  O   UNL A   1      41.937  28.921  25.014  1.00  0.00    -0.744 OA
ENDBRANCH  66  69
ENDBRANCH  48  62
BRANCH  49  73
ATOM     73  C   UNL A   1      39.402  33.910  37.154  1.00  0.00     0.023 A 
ATOM     74  C   UNL A   1      39.848  35.245  37.112  1.00  0.00     0.012 A 
ATOM     75  C   UNL A   1      38.792  33.427  38.327  1.00  0.00     0.148 A 
ATOM     76  C   UNL A   1      39.725  36.074  38.227  1.00  0.00     0.002 A 
ATOM     77  C   UNL A   1      38.621  34.275  39.417  1.00  0.00     0.091 A 
ATOM     78  F   UNL A   1      38.384  32.150  38.352  1.00  0.00    -0.205 F 
ATOM     79  C   UNL A   1      39.103  35.592  39.375  1.00  0.00     0.022 A 
BRANCH  77  80
ATOM     80  S   UNL A   1      37.715  33.779  40.886  1.00  0.00     0.127 S 
ATOM     81  O   UNL A   1      36.513  33.183  40.308  1.00  0.00    -0.237 OA
ATOM     82  O   UNL A   1      38.638  32.827  41.506  1.00  0.00    -0.237 OA
ATOM     83  O   UNL A   1      37.515  35.001  41.653  1.00  0.00    -0.744 OA
ENDBRANCH  77  80
ENDBRANCH  49  73
BRANCH  61  84
ATOM     84  C   UNL A   1      43.992  28.960  35.372  1.00  0.00     0.023 A 
ATOM     85  C   UNL A   1      45.256  29.555  35.176  1.00  0.00     0.012 A 
ATOM     86  C   UNL A   1      43.866  27.885  36.274  1.00  0.00     0.148 A 
ATOM     87  C   UNL A   1      46.379  29.066  35.842  1.00  0.00     0.002 A 
ATOM     88  C   UNL A   1      44.982  27.436  36.971  1.00  0.00     0.091 A 
ATOM     89  F   UNL A   1      42.662  27.320  36.431  1.00  0.00    -0.205 F 
ATOM     90  C   UNL A   1      46.240  28.016  36.748  1.00  0.00     0.022 A 
BRANCH  88  91
ATOM     91  S   UNL A   1      44.876  26.155  38.227  1.00  0.00     0.127 S 
ATOM     92  O   UNL A   1      43.976  26.767  39.202  1.00  0.00    -0.237 OA
ATOM     93  O   UNL A   1      44.300  25.035  37.483  1.00  0.00    -0.237 OA
ATOM     94  O   UNL A   1      46.241  25.933  38.685  1.00  0.00    -0.744 OA
ENDBRANCH  88  91
ENDBRANCH  61  84
ENDBRANCH  35  36
ENDBRANCH  27  30
ENDBRANCH  25  26
ENDBRANCH   1  25
TORSDOF 16
ENDMDL
MODEL 2
REMARK VINA RESULT:     -12.4      6.351     10.012
REMARK SMILES CC1(C)C(NC(=O)[C@@H]2CCC[C@@H](C(=O)NCCCCNC(=O)c3ccc(-c4c5nc(c(-c6cccc(S(=O)(=O)[O-])c6F)c6ccc([nH]6)c(-c6cccc(S(=O)(=O)[O-])c6F)c6nc(c(-c7cccc(S(=O)(=O)[O-])c7F)c7ccc4[nH]7)C=C6)C=C5)cc3)C2)C1(C)C
REMARK SMILES IDX 18 1 17 2 16 3 15 4 13 5 14 6 12 8 8 9 9 10 86 11 10 12
REMARK SMILES IDX 11 13 6 14 5 15 7 17 4 18 1 19 2 20 3 21 87 22 88 23 89 24
REMARK SMILES IDX 19 25 20 26 21 27 22 29 23 30 24 31 85 32 25 33 84 34 26 35
REMARK SMILES IDX 27 36 28 37 78 38 29 39 83 40 77 41 79 42 30 43 82 44 76 45
REMARK SMILES IDX 75 46 31 48 63 49 43 50 62 51 44 52 47 53 61 54 80 55 45 56
REMARK SMILES IDX 46 57 60 59 81 60 48 61 32 62 33 63 41 64 34 65 36 66 42 67
REMARK SMILES IDX 35 68 37 69 38 70 39 71 40 72 64 73 65 74 73 75 66 76 68 77
REMARK SMILES IDX 74 78 67 79 69 80 70 81 71 82 72 83 49 84 50 85 58 86 51 87
REMARK SMILES IDX 53 88 59 89 52 90 54 91 55 92 56 93 57 94
REMARK H PARENT 15 7 5 16 20 28 79 47 47 58
REMARK Flexibility Score: inf
ROOT
ATOM      1  C   UNL A   1      38.540  19.554  24.990  1.00  0.00     0.023 C 
ENDROOT
BRANCH   1   2
ATOM      2  C   UNL A   1      37.231  20.336  24.874  1.00  0.00     0.023 C 
BRANCH   2   3
ATOM      3  C   UNL A   1      37.376  21.849  24.993  1.00  0.00     0.116 C 
BRANCH   3   4
ATOM      4  N   UNL A   1      36.649  22.543  23.946  1.00  0.00    -0.356 N 
ATOM      5  C   UNL A   1      35.313  22.759  23.803  1.00  0.00     0.223 C 
ATOM      6  O   UNL A   1      34.911  23.342  22.798  1.00  0.00    -0.275 OA
ATOM      7  H   UNL A   1      37.210  22.915  23.227  1.00  0.00     0.163 HD
BRANCH   5   8
ATOM      8  C   UNL A   1      34.362  22.254  24.877  1.00  0.00     0.079 C 
ATOM      9  C   UNL A   1      32.314  23.863  25.172  1.00  0.00     0.079 C 
ATOM     10  C   UNL A   1      31.446  22.796  24.495  1.00  0.00     0.013 C 
ATOM     11  C   UNL A   1      33.721  23.436  25.615  1.00  0.00     0.027 C 
ATOM     12  C   UNL A   1      32.233  21.912  23.545  1.00  0.00     0.002 C 
ATOM     13  C   UNL A   1      33.385  21.241  24.278  1.00  0.00     0.013 C 
BRANCH   9  14
ATOM     14  C   UNL A   1      31.521  24.513  26.309  1.00  0.00     0.223 C 
ATOM     15  N   UNL A   1      31.306  25.868  26.337  1.00  0.00    -0.352 N 
ATOM     16  H   UNL A   1      30.861  26.204  27.148  1.00  0.00     0.163 HD
ATOM     17  O   UNL A   1      31.102  23.840  27.255  1.00  0.00    -0.275 OA
BRANCH  15  18
ATOM     18  C   UNL A   1      31.631  26.861  25.363  1.00  0.00     0.094 C 
ATOM     19  C   UNL A   1      31.225  29.383  24.875  1.00  0.00     0.014 C 
ATOM     20  C   UNL A   1      31.837  28.317  25.764  1.00  0.00    -0.007 C 
ATOM     21  C   UNL A   1      31.783  28.704  27.226  1.00  0.00     0.014 C 
ATOM     22  C   UNL A   1      33.008  27.472  25.221  1.00  0.00    -0.007 C 
ATOM     23  C   UNL A   1      33.488  27.686  23.798  1.00  0.00     0.014 C 
ATOM     24  C   UNL A   1      34.121  27.003  26.127  1.00  0.00     0.014 C 
ENDBRANCH  15  18
ENDBRANCH   9  14
ENDBRANCH   5   8
ENDBRANCH   3   4
ENDBRANCH   2   3
ENDBRANCH   1   2
BRANCH   1  25
ATOM     25  C   UNL A   1      39.435  19.958  26.157  1.00  0.00     0.116 C 
BRANCH  25  26
ATOM     26  N   UNL A   1      40.734  19.304  26.122  1.00  0.00    -0.352 N 
ATOM     27  C   UNL A   1      41.983  19.864  26.270  1.00  0.00     0.251 C 
ATOM     28  H   UNL A   1      40.718  18.331  25.972  1.00  0.00     0.163 HD
ATOM     29  O   UNL A   1      42.985  19.190  26.078  1.00  0.00    -0.269 OA
BRANCH  27  30
ATOM     30  C   UNL A   1      42.097  21.293  26.634  1.00  0.00     0.039 A 
ATOM     31  C   UNL A   1      42.214  21.640  27.982  1.00  0.00     0.014 A 
ATOM     32  C   UNL A   1      42.121  22.282  25.646  1.00  0.00     0.014 A 
ATOM     33  C   UNL A   1      42.418  22.976  28.335  1.00  0.00     0.010 A 
ATOM     34  C   UNL A   1      42.399  23.600  25.995  1.00  0.00     0.010 A 
ATOM     35  C   UNL A   1      42.545  23.962  27.343  1.00  0.00    -0.014 A 
BRANCH  35  36
ATOM     36  C   UNL A   1      42.841  25.375  27.696  1.00  0.00     0.031 A 
ATOM     37  C   UNL A   1      44.255  25.890  27.640  1.00  0.00     0.074 A 
ATOM     38  C   UNL A   1      41.851  26.172  28.145  1.00  0.00     0.049 A 
ATOM     39  N   UNL A   1      44.712  27.074  27.951  1.00  0.00    -0.248 NA
ATOM     40  C   UNL A   1      45.295  24.942  27.207  1.00  0.00     0.031 C 
ATOM     41  C   UNL A   1      40.455  25.767  28.327  1.00  0.00     0.029 A 
ATOM     42  N   UNL A   1      41.870  27.482  28.555  1.00  0.00    -0.354 N 
ATOM     43  C   UNL A   1      46.091  27.005  27.785  1.00  0.00     0.074 A 
ATOM     44  C   UNL A   1      46.400  25.652  27.383  1.00  0.00     0.031 C 
ATOM     45  C   UNL A   1      39.753  26.807  28.804  1.00  0.00     0.029 A 
ATOM     46  C   UNL A   1      40.649  27.945  28.987  1.00  0.00     0.049 A 
ATOM     47  H   UNL A   1      42.683  28.038  28.542  1.00  0.00     0.167 HD
ATOM     48  C   UNL A   1      47.014  27.987  27.923  1.00  0.00     0.034 A 
ATOM     49  C   UNL A   1      40.291  29.149  29.474  1.00  0.00     0.034 A 
ATOM     50  C   UNL A   1      46.697  29.345  28.277  1.00  0.00     0.049 A 
ATOM     51  C   UNL A   1      41.326  30.238  29.562  1.00  0.00     0.074 A 
ATOM     52  C   UNL A   1      47.548  30.432  28.360  1.00  0.00     0.029 A 
ATOM     53  N   UNL A   1      45.432  29.801  28.606  1.00  0.00    -0.354 N 
ATOM     54  N   UNL A   1      42.598  30.196  29.245  1.00  0.00    -0.248 NA
ATOM     55  C   UNL A   1      40.869  31.553  30.034  1.00  0.00     0.031 C 
ATOM     56  C   UNL A   1      46.798  31.544  28.755  1.00  0.00     0.029 A 
ATOM     57  C   UNL A   1      45.475  31.156  28.894  1.00  0.00     0.049 A 
ATOM     58  H   UNL A   1      44.619  29.245  28.632  1.00  0.00     0.167 HD
ATOM     59  C   UNL A   1      43.081  31.485  29.435  1.00  0.00     0.074 A 
ATOM     60  C   UNL A   1      41.961  32.290  29.880  1.00  0.00     0.031 C 
ATOM     61  C   UNL A   1      44.341  31.958  29.270  1.00  0.00     0.034 A 
BRANCH  48  62
ATOM     62  C   UNL A   1      48.450  27.644  27.627  1.00  0.00     0.023 A 
ATOM     63  C   UNL A   1      49.249  27.074  28.638  1.00  0.00     0.012 A 
ATOM     64  C   UNL A   1      48.993  27.826  26.339  1.00  0.00     0.148 A 
ATOM     65  C   UNL A   1      50.574  26.722  28.386  1.00  0.00     0.002 A 
ATOM     66  C   UNL A   1      50.300  27.431  26.082  1.00  0.00     0.091 A 
ATOM     67  F   UNL A   1      48.226  28.388  25.394  1.00  0.00    -0.205 F 
ATOM     68  C   UNL A   1      51.095  26.890  27.108  1.00  0.00     0.022 A 
BRANCH  66  69
ATOM     69  S   UNL A   1      51.042  27.529  24.449  1.00  0.00     0.127 S 
ATOM     70  O   UNL A   1      52.356  26.935  24.685  1.00  0.00    -0.237 OA
ATOM     71  O   UNL A   1      50.134  26.705  23.649  1.00  0.00    -0.237 OA
ATOM     72  O   UNL A   1      51.048  28.942  24.096  1.00  0.00    -0.744 OA
ENDBRANCH  66  69
ENDBRANCH  48  62
BRANCH  49  73
ATOM     73  C   UNL A   1      38.869  29.415  29.838  1.00  0.00     0.023 A 
ATOM     74  C   UNL A   1      38.427  29.129  31.144  1.00  0.00     0.012 A 
ATOM     75  C   UNL A   1      37.963  29.964  28.912  1.00  0.00     0.148 A 
ATOM     76  C   UNL A   1      37.100  29.351  31.513  1.00  0.00     0.002 A 
ATOM     77  C   UNL A   1      36.655  30.236  29.301  1.00  0.00     0.091 A 
ATOM     78  F   UNL A   1      38.399  30.219  27.670  1.00  0.00    -0.205 F 
ATOM     79  C   UNL A   1      36.217  29.914  30.595  1.00  0.00     0.022 A 
BRANCH  77  80
ATOM     80  S   UNL A   1      35.489  31.079  28.227  1.00  0.00     0.127 S 
ATOM     81  O   UNL A   1      34.465  31.509  29.176  1.00  0.00    -0.237 OA
ATOM     82  O   UNL A   1      36.310  32.158  27.675  1.00  0.00    -0.237 OA
ATOM     83  O   UNL A   1      35.072  30.086  27.247  1.00  0.00    -0.744 OA
ENDBRANCH  77  80
ENDBRANCH  49  73
BRANCH  61  84
ATOM     84  C   UNL A   1      44.577  33.424  29.515  1.00  0.00     0.023 A 
ATOM     85  C   UNL A   1      45.004  33.867  30.784  1.00  0.00     0.012 A 
ATOM     86  C   UNL A   1      44.449  34.354  28.464  1.00  0.00     0.148 A 
ATOM     87  C   UNL A   1      45.268  35.217  31.010  1.00  0.00     0.002 A 
ATOM     88  C   UNL A   1      44.761  35.691  28.685  1.00  0.00     0.091 A 
ATOM     89  F   UNL A   1      44.023  33.917  27.271  1.00  0.00    -0.205 F 
ATOM     90  C   UNL A   1      45.159  36.127  29.958  1.00  0.00     0.022 A 
BRANCH  88  91
ATOM     91  S   UNL A   1      44.742  36.910  27.365  1.00  0.00     0.127 S 
ATOM     92  O   UNL A   1      45.766  36.389  26.462  1.00  0.00    -0.237 OA
ATOM     93  O   UNL A   1      43.373  36.805  26.862  1.00  0.00    -0.237 OA
ATOM     94  O   UNL A   1      45.053  38.186  27.998  1.00  0.00    -0.744 OA
ENDBRANCH  88  91
ENDBRANCH  61  84
ENDBRANCH  35  36
ENDBRANCH  27  30
ENDBRANCH  25  26
ENDBRANCH   1  25
TORSDOF 16
ENDMDL
MODEL 3
REMARK VINA RESULT:     -12.2      5.683      9.028
REMARK SMILES CC1(C)C(NC(=O)[C@@H]2CCC[C@@H](C(=O)NCCCCNC(=O)c3ccc(-c4c5nc(c(-c6cccc(S(=O)(=O)[O-])c6F)c6ccc([nH]6)c(-c6cccc(S(=O)(=O)[O-])c6F)c6nc(c(-c7cccc(S(=O)(=O)[O-])c7F)c7ccc4[nH]7)C=C6)C=C5)cc3)C2)C1(C)C
REMARK SMILES IDX 18 1 17 2 16 3 15 4 13 5 14 6 12 8 8 9 9 10 86 11 10 12
REMARK SMILES IDX 11 13 6 14 5 15 7 17 4 18 1 19 2 20 3 21 87 22 88 23 89 24
REMARK SMILES IDX 19 25 20 26 21 27 22 29 23 30 24 31 85 32 25 33 84 34 26 35
REMARK SMILES IDX 27 36 28 37 78 38 29 39 83 40 77 41 79 42 30 43 82 44 76 45
REMARK SMILES IDX 75 46 31 48 63 49 43 50 62 51 44 52 47 53 61 54 80 55 45 56
REMARK SMILES IDX 46 57 60 59 81 60 48 61 32 62 33 63 41 64 34 65 36 66 42 67
REMARK SMILES IDX 35 68 37 69 38 70 39 71 40 72 64 73 65 74 73 75 66 76 68 77
REMARK SMILES IDX 74 78 67 79 69 80 70 81 71 82 72 83 49 84 50 85 58 86 51 87
REMARK SMILES IDX 53 88 59 89 52 90 54 91 55 92 56 93 57 94
REMARK H PARENT 15 7 5 16 20 28 79 47 47 58
REMARK Flexibility Score: inf
ROOT
ATOM      1  C   UNL A   1      35.853  21.610  24.419  1.00  0.00     0.023 C 
ENDROOT
BRANCH   1   2
ATOM      2  C   UNL A   1      34.804  20.593  24.867  1.00  0.00     0.023 C 
BRANCH   2   3
ATOM      3  C   UNL A   1      33.378  21.131  24.935  1.00  0.00     0.116 C 
BRANCH   3   4
ATOM      4  N   UNL A   1      33.020  21.534  26.281  1.00  0.00    -0.356 N 
ATOM      5  C   UNL A   1      32.477  22.698  26.732  1.00  0.00     0.223 C 
ATOM      6  O   UNL A   1      32.297  22.841  27.940  1.00  0.00    -0.275 OA
ATOM      7  H   UNL A   1      33.197  20.862  26.978  1.00  0.00     0.163 HD
BRANCH   5   8
ATOM      8  C   UNL A   1      32.134  23.791  25.732  1.00  0.00     0.079 C 
ATOM      9  C   UNL A   1      32.320  26.171  26.815  1.00  0.00     0.079 C 
ATOM     10  C   UNL A   1      33.589  26.392  25.986  1.00  0.00     0.013 C 
ATOM     11  C   UNL A   1      31.446  24.963  26.442  1.00  0.00     0.027 C 
ATOM     12  C   UNL A   1      34.306  25.097  25.647  1.00  0.00     0.002 C 
ATOM     13  C   UNL A   1      33.371  24.154  24.907  1.00  0.00     0.013 C 
BRANCH   9  14
ATOM     14  C   UNL A   1      31.516  27.473  26.866  1.00  0.00     0.223 C 
ATOM     15  N   UNL A   1      31.300  28.216  25.733  1.00  0.00    -0.352 N 
ATOM     16  H   UNL A   1      30.848  29.078  25.877  1.00  0.00     0.163 HD
ATOM     17  O   UNL A   1      31.090  27.914  27.937  1.00  0.00    -0.275 OA
BRANCH  15  18
ATOM     18  C   UNL A   1      31.633  27.922  24.374  1.00  0.00     0.094 C 
ATOM     19  C   UNL A   1      31.322  26.038  22.609  1.00  0.00     0.014 C 
ATOM     20  C   UNL A   1      30.698  27.098  23.497  1.00  0.00    -0.007 C 
ATOM     21  C   UNL A   1      29.356  26.660  24.041  1.00  0.00     0.014 C 
ATOM     22  C   UNL A   1      30.969  28.585  23.189  1.00  0.00    -0.007 C 
ATOM     23  C   UNL A   1      31.891  28.956  22.042  1.00  0.00     0.014 C 
ATOM     24  C   UNL A   1      29.914  29.639  23.427  1.00  0.00     0.014 C 
ENDBRANCH  15  18
ENDBRANCH   9  14
ENDBRANCH   5   8
ENDBRANCH   3   4
ENDBRANCH   2   3
ENDBRANCH   1   2
BRANCH   1  25
ATOM     25  C   UNL A   1      36.884  21.988  25.476  1.00  0.00     0.116 C 
BRANCH  25  26
ATOM     26  N   UNL A   1      37.887  20.953  25.680  1.00  0.00    -0.352 N 
ATOM     27  C   UNL A   1      39.179  21.086  26.133  1.00  0.00     0.251 C 
ATOM     28  H   UNL A   1      37.602  20.036  25.465  1.00  0.00     0.163 HD
ATOM     29  O   UNL A   1      39.938  20.127  26.118  1.00  0.00    -0.269 OA
BRANCH  27  30
ATOM     30  C   UNL A   1      39.648  22.407  26.608  1.00  0.00     0.039 A 
ATOM     31  C   UNL A   1      40.681  22.459  27.546  1.00  0.00     0.014 A 
ATOM     32  C   UNL A   1      39.091  23.586  26.104  1.00  0.00     0.014 A 
ATOM     33  C   UNL A   1      41.198  23.698  27.934  1.00  0.00     0.010 A 
ATOM     34  C   UNL A   1      39.659  24.814  26.434  1.00  0.00     0.010 A 
ATOM     35  C   UNL A   1      40.714  24.883  27.356  1.00  0.00    -0.014 A 
BRANCH  35  36
ATOM     36  C   UNL A   1      41.306  26.203  27.696  1.00  0.00     0.031 A 
ATOM     37  C   UNL A   1      42.722  26.524  27.298  1.00  0.00     0.074 A 
ATOM     38  C   UNL A   1      40.598  27.081  28.435  1.00  0.00     0.049 A 
ATOM     39  N   UNL A   1      43.421  27.601  27.542  1.00  0.00    -0.248 NA
ATOM     40  C   UNL A   1      43.458  25.489  26.553  1.00  0.00     0.031 C 
ATOM     41  C   UNL A   1      39.248  26.854  28.957  1.00  0.00     0.029 A 
ATOM     42  N   UNL A   1      40.924  28.331  28.898  1.00  0.00    -0.354 N 
ATOM     43  C   UNL A   1      44.685  27.362  27.014  1.00  0.00     0.074 A 
ATOM     44  C   UNL A   1      44.668  26.023  26.470  1.00  0.00     0.031 C 
ATOM     45  C   UNL A   1      38.860  27.930  29.659  1.00  0.00     0.029 A 
ATOM     46  C   UNL A   1      39.939  28.913  29.662  1.00  0.00     0.049 A 
ATOM     47  H   UNL A   1      41.783  28.771  28.701  1.00  0.00     0.167 HD
ATOM     48  C   UNL A   1      45.754  28.192  26.958  1.00  0.00     0.034 A 
ATOM     49  C   UNL A   1      39.908  30.104  30.292  1.00  0.00     0.034 A 
ATOM     50  C   UNL A   1      45.752  29.541  27.458  1.00  0.00     0.049 A 
ATOM     51  C   UNL A   1      41.087  31.029  30.164  1.00  0.00     0.074 A 
ATOM     52  C   UNL A   1      46.755  30.490  27.374  1.00  0.00     0.029 A 
ATOM     53  N   UNL A   1      44.698  30.131  28.135  1.00  0.00    -0.354 N 
ATOM     54  N   UNL A   1      42.215  30.844  29.521  1.00  0.00    -0.248 NA
ATOM     55  C   UNL A   1      40.975  32.343  30.813  1.00  0.00     0.031 C 
ATOM     56  C   UNL A   1      46.312  31.651  28.014  1.00  0.00     0.029 A 
ATOM     57  C   UNL A   1      45.023  31.434  28.475  1.00  0.00     0.049 A 
ATOM     58  H   UNL A   1      43.842  29.690  28.343  1.00  0.00     0.167 HD
ATOM     59  C   UNL A   1      42.925  32.033  29.648  1.00  0.00     0.074 A 
ATOM     60  C   UNL A   1      42.094  32.937  30.417  1.00  0.00     0.031 C 
ATOM     61  C   UNL A   1      44.160  32.343  29.182  1.00  0.00     0.034 A 
BRANCH  48  62
ATOM     62  C   UNL A   1      46.997  27.687  26.274  1.00  0.00     0.023 A 
ATOM     63  C   UNL A   1      47.925  26.918  27.004  1.00  0.00     0.012 A 
ATOM     64  C   UNL A   1      47.219  27.916  24.902  1.00  0.00     0.148 A 
ATOM     65  C   UNL A   1      49.073  26.415  26.391  1.00  0.00     0.002 A 
ATOM     66  C   UNL A   1      48.341  27.373  24.286  1.00  0.00     0.091 A 
ATOM     67  F   UNL A   1      46.336  28.666  24.226  1.00  0.00    -0.205 F 
ATOM     68  C   UNL A   1      49.274  26.633  25.033  1.00  0.00     0.022 A 
BRANCH  66  69
ATOM     69  S   UNL A   1      48.652  27.527  22.524  1.00  0.00     0.127 S 
ATOM     70  O   UNL A   1      49.943  28.214  22.511  1.00  0.00    -0.237 OA
ATOM     71  O   UNL A   1      48.702  26.128  22.097  1.00  0.00    -0.237 OA
ATOM     72  O   UNL A   1      47.533  28.287  21.984  1.00  0.00    -0.744 OA
ENDBRANCH  66  69
ENDBRANCH  48  62
BRANCH  49  73
ATOM     73  C   UNL A   1      38.683  30.524  31.033  1.00  0.00     0.023 A 
ATOM     74  C   UNL A   1      38.595  30.275  32.416  1.00  0.00     0.012 A 
ATOM     75  C   UNL A   1      37.622  31.184  30.386  1.00  0.00     0.148 A 
ATOM     76  C   UNL A   1      37.458  30.641  33.136  1.00  0.00     0.002 A 
ATOM     77  C   UNL A   1      36.514  31.597  31.120  1.00  0.00     0.091 A 
ATOM     78  F   UNL A   1      37.719  31.403  29.067  1.00  0.00    -0.205 F 
ATOM     79  C   UNL A   1      36.422  31.311  32.490  1.00  0.00     0.022 A 
BRANCH  77  80
ATOM     80  S   UNL A   1      35.196  32.580  30.397  1.00  0.00     0.127 S 
ATOM     81  O   UNL A   1      34.253  32.678  31.508  1.00  0.00    -0.237 OA
ATOM     82  O   UNL A   1      35.892  33.825  30.067  1.00  0.00    -0.237 OA
ATOM     83  O   UNL A   1      34.738  31.827  29.237  1.00  0.00    -0.744 OA
ENDBRANCH  77  80
ENDBRANCH  49  73
BRANCH  61  84
ATOM     84  C   UNL A   1      44.675  33.735  29.437  1.00  0.00     0.023 A 
ATOM     85  C   UNL A   1      45.333  34.031  30.649  1.00  0.00     0.012 A 
ATOM     86  C   UNL A   1      44.575  34.728  28.443  1.00  0.00     0.148 A 
ATOM     87  C   UNL A   1      45.853  35.305  30.878  1.00  0.00     0.002 A 
ATOM     88  C   UNL A   1      45.139  35.980  28.660  1.00  0.00     0.091 A 
ATOM     89  F   UNL A   1      43.928  34.433  27.307  1.00  0.00    -0.205 F 
ATOM     90  C   UNL A   1      45.767  36.274  29.880  1.00  0.00     0.022 A 
BRANCH  88  91
ATOM     91  S   UNL A   1      45.160  37.254  27.394  1.00  0.00     0.127 S 
ATOM     92  O   UNL A   1      45.910  36.600  26.324  1.00  0.00    -0.237 OA
ATOM     93  O   UNL A   1      43.736  37.441  27.115  1.00  0.00    -0.237 OA
ATOM     94  O   UNL A   1      45.809  38.409  28.001  1.00  0.00    -0.744 OA
ENDBRANCH  88  91
ENDBRANCH  61  84
ENDBRANCH  35  36
ENDBRANCH  27  30
ENDBRANCH  25  26
ENDBRANCH   1  25
TORSDOF 16
ENDMDL
