MODEL 1
REMARK VINA RESULT:     -11.4      0.000      0.000
REMARK SMILES COCCCNC(=O)[C@@H]1[C@@H](C(=O)NCCCCNC(=O)c2ccc(-c3c4nc(c(-c5cccc(S(=O)(=O)[O-])c5F)c5ccc([nH]5)c(-c5cccc(S(=O)(=O)[O-])c5F)c5nc(c(-c6cccc(S(=O)(=O)[O-])c6F)c6ccc3[nH]6)C=C5)C=C4)cc2)[C@@H]2C=C[C@H]1C2
REMARK SMILES IDX 14 1 13 2 11 3 12 4 10 6 9 7 87 8 84 9 86 10 88 11 85 12
REMARK SMILES IDX 7 13 6 14 8 16 5 17 4 18 3 19 2 20 1 21 15 22 16 23 17 24
REMARK SMILES IDX 18 25 19 26 20 28 21 29 22 30 83 31 23 32 82 33 24 34 25 35
REMARK SMILES IDX 26 36 76 37 27 38 81 39 75 40 77 41 28 42 80 43 74 44 73 45
REMARK SMILES IDX 29 47 61 48 41 49 60 50 42 51 45 52 59 53 78 54 43 55 44 56
REMARK SMILES IDX 58 58 79 59 46 60 30 61 31 62 39 63 32 64 34 65 40 66 33 67
REMARK SMILES IDX 35 68 36 69 37 70 38 71 62 72 63 73 71 74 64 75 66 76 72 77
REMARK SMILES IDX 65 78 67 79 68 80 69 81 70 82 47 83 48 84 56 85 49 86 51 87
REMARK SMILES IDX 57 88 50 89 52 90 53 91 54 92 55 93
REMARK H PARENT 13 5 6 15 18 27 77 46 45 57
REMARK Flexibility Score: inf
ROOT
ATOM      1  C   UNL A   1      30.764  26.438  25.718  1.00  0.00     0.116 C 
ENDROOT
BRANCH   1   2
ATOM      2  N   UNL A   1      30.922  25.231  26.523  1.00  0.00    -0.356 N 
ATOM      3  C   UNL A   1      31.707  24.118  26.424  1.00  0.00     0.224 C 
ATOM      4  O   UNL A   1      31.696  23.367  27.408  1.00  0.00    -0.275 OA
ATOM      5  H   UNL A   1      30.333  25.216  27.311  1.00  0.00     0.163 HD
BRANCH   3   6
ATOM      6  C   UNL A   1      32.492  23.674  25.179  1.00  0.00     0.098 C 
ATOM      7  C   UNL A   1      32.871  22.182  25.095  1.00  0.00     0.098 C 
ATOM      8  C   UNL A   1      34.427  22.228  25.125  1.00  0.00     0.025 C 
ATOM      9  C   UNL A   1      33.872  24.390  25.147  1.00  0.00     0.025 C 
ATOM     10  C   UNL A   1      34.899  22.817  23.813  1.00  0.00    -0.027 C 
ATOM     11  C   UNL A   1      34.732  23.453  25.997  1.00  0.00     0.017 C 
ATOM     12  C   UNL A   1      34.543  24.111  23.817  1.00  0.00    -0.027 C 
BRANCH   7  13
ATOM     13  C   UNL A   1      32.343  21.360  23.936  1.00  0.00     0.224 C 
ATOM     14  N   UNL A   1      32.511  19.997  24.029  1.00  0.00    -0.356 N 
ATOM     15  H   UNL A   1      32.123  19.467  23.296  1.00  0.00     0.163 HD
ATOM     16  O   UNL A   1      31.772  21.831  22.957  1.00  0.00    -0.275 OA
BRANCH  14  17
ATOM     17  C   UNL A   1      33.191  19.234  25.072  1.00  0.00     0.118 C 
BRANCH  17  18
ATOM     18  C   UNL A   1      34.270  18.298  24.545  1.00  0.00     0.050 C 
BRANCH  18  19
ATOM     19  C   UNL A   1      33.772  17.092  23.756  1.00  0.00     0.161 C 
BRANCH  19  20
ATOM     20  O   UNL A   1      34.004  15.852  24.418  1.00  0.00    -0.385 OA
ATOM     21  C   UNL A   1      32.875  15.305  25.080  1.00  0.00     0.194 C 
ENDBRANCH  19  20
ENDBRANCH  18  19
ENDBRANCH  17  18
ENDBRANCH  14  17
ENDBRANCH   7  13
ENDBRANCH   3   6
ENDBRANCH   1   2
BRANCH   1  22
ATOM     22  C   UNL A   1      31.985  27.343  25.670  1.00  0.00     0.023 C 
BRANCH  22  23
ATOM     23  C   UNL A   1      31.817  28.708  26.314  1.00  0.00     0.023 C 
BRANCH  23  24
ATOM     24  C   UNL A   1      32.696  29.812  25.740  1.00  0.00     0.116 C 
BRANCH  24  25
ATOM     25  N   UNL A   1      32.408  31.135  26.283  1.00  0.00    -0.352 N 
ATOM     26  C   UNL A   1      33.129  31.893  27.183  1.00  0.00     0.251 C 
ATOM     27  H   UNL A   1      31.577  31.550  25.958  1.00  0.00     0.163 HD
ATOM     28  O   UNL A   1      32.676  32.949  27.596  1.00  0.00    -0.269 OA
BRANCH  26  29
ATOM     29  C   UNL A   1      34.432  31.391  27.670  1.00  0.00     0.039 A 
ATOM     30  C   UNL A   1      35.430  32.308  28.009  1.00  0.00     0.014 A 
ATOM     31  C   UNL A   1      34.643  30.023  27.850  1.00  0.00     0.014 A 
ATOM     32  C   UNL A   1      36.600  31.858  28.626  1.00  0.00     0.010 A 
ATOM     33  C   UNL A   1      35.763  29.588  28.551  1.00  0.00     0.010 A 
ATOM     34  C   UNL A   1      36.753  30.499  28.949  1.00  0.00    -0.014 A 
BRANCH  34  35
ATOM     35  C   UNL A   1      37.925  30.007  29.721  1.00  0.00     0.031 A 
ATOM     36  C   UNL A   1      38.178  30.518  31.115  1.00  0.00     0.074 A 
ATOM     37  C   UNL A   1      38.822  29.191  29.128  1.00  0.00     0.049 A 
ATOM     38  N   UNL A   1      39.189  30.278  31.908  1.00  0.00    -0.248 NA
ATOM     39  C   UNL A   1      37.185  31.449  31.680  1.00  0.00     0.031 C 
ATOM     40  C   UNL A   1      38.745  28.701  27.749  1.00  0.00     0.029 A 
ATOM     41  N   UNL A   1      39.997  28.657  29.600  1.00  0.00    -0.354 N 
ATOM     42  C   UNL A   1      38.982  31.063  33.037  1.00  0.00     0.074 A 
ATOM     43  C   UNL A   1      37.762  31.807  32.818  1.00  0.00     0.031 C 
ATOM     44  C   UNL A   1      39.821  27.940  27.489  1.00  0.00     0.029 A 
ATOM     45  C   UNL A   1      40.682  27.911  28.667  1.00  0.00     0.049 A 
ATOM     46  H   UNL A   1      40.320  28.795  30.519  1.00  0.00     0.167 HD
ATOM     47  C   UNL A   1      39.724  31.136  34.166  1.00  0.00     0.034 A 
ATOM     48  C   UNL A   1      41.872  27.283  28.747  1.00  0.00     0.034 A 
ATOM     49  C   UNL A   1      40.893  30.339  34.413  1.00  0.00     0.049 A 
ATOM     50  C   UNL A   1      42.634  27.325  30.046  1.00  0.00     0.074 A 
ATOM     51  C   UNL A   1      41.639  30.249  35.575  1.00  0.00     0.029 A 
ATOM     52  N   UNL A   1      41.490  29.502  33.487  1.00  0.00    -0.354 N 
ATOM     53  N   UNL A   1      42.317  27.922  31.169  1.00  0.00    -0.248 NA
ATOM     54  C   UNL A   1      43.899  26.578  30.101  1.00  0.00     0.031 C 
ATOM     55  C   UNL A   1      42.701  29.371  35.344  1.00  0.00     0.029 A 
ATOM     56  C   UNL A   1      42.603  28.898  34.047  1.00  0.00     0.049 A 
ATOM     57  H   UNL A   1      41.172  29.358  32.567  1.00  0.00     0.167 HD
ATOM     58  C   UNL A   1      43.318  27.587  32.074  1.00  0.00     0.074 A 
ATOM     59  C   UNL A   1      44.241  26.717  31.375  1.00  0.00     0.031 C 
ATOM     60  C   UNL A   1      43.472  27.978  33.362  1.00  0.00     0.034 A 
BRANCH  47  61
ATOM     61  C   UNL A   1      39.266  32.063  35.259  1.00  0.00     0.023 A 
ATOM     62  C   UNL A   1      38.339  31.605  36.217  1.00  0.00     0.012 A 
ATOM     63  C   UNL A   1      39.831  33.347  35.399  1.00  0.00     0.148 A 
ATOM     64  C   UNL A   1      37.965  32.418  37.286  1.00  0.00     0.002 A 
ATOM     65  C   UNL A   1      39.487  34.133  36.491  1.00  0.00     0.091 A 
ATOM     66  F   UNL A   1      40.696  33.767  34.465  1.00  0.00    -0.205 F 
ATOM     67  C   UNL A   1      38.548  33.675  37.430  1.00  0.00     0.022 A 
BRANCH  65  68
ATOM     68  S   UNL A   1      40.241  35.731  36.815  1.00  0.00     0.127 S 
ATOM     69  O   UNL A   1      39.634  36.559  35.773  1.00  0.00    -0.237 OA
ATOM     70  O   UNL A   1      39.774  36.019  38.171  1.00  0.00    -0.237 OA
ATOM     71  O   UNL A   1      41.678  35.532  36.691  1.00  0.00    -0.744 OA
ENDBRANCH  65  68
ENDBRANCH  47  61
BRANCH  48  72
ATOM     72  C   UNL A   1      42.398  26.506  27.589  1.00  0.00     0.023 A 
ATOM     73  C   UNL A   1      43.206  27.152  26.632  1.00  0.00     0.012 A 
ATOM     74  C   UNL A   1      42.099  25.140  27.419  1.00  0.00     0.148 A 
ATOM     75  C   UNL A   1      43.664  26.468  25.505  1.00  0.00     0.002 A 
ATOM     76  C   UNL A   1      42.608  24.449  26.324  1.00  0.00     0.091 A 
ATOM     77  F   UNL A   1      41.317  24.542  28.329  1.00  0.00    -0.205 F 
ATOM     78  C   UNL A   1      43.373  25.116  25.355  1.00  0.00     0.022 A 
BRANCH  76  79
ATOM     79  S   UNL A   1      42.390  22.676  26.133  1.00  0.00     0.127 S 
ATOM     80  O   UNL A   1      43.027  22.163  27.342  1.00  0.00    -0.237 OA
ATOM     81  O   UNL A   1      40.932  22.548  26.102  1.00  0.00    -0.237 OA
ATOM     82  O   UNL A   1      43.041  22.344  24.873  1.00  0.00    -0.744 OA
ENDBRANCH  76  79
ENDBRANCH  48  72
BRANCH  60  83
ATOM     83  C   UNL A   1      44.650  27.436  34.127  1.00  0.00     0.023 A 
ATOM     84  C   UNL A   1      45.873  28.133  34.117  1.00  0.00     0.012 A 
ATOM     85  C   UNL A   1      44.516  26.280  34.922  1.00  0.00     0.148 A 
ATOM     86  C   UNL A   1      46.957  27.671  34.862  1.00  0.00     0.002 A 
ATOM     87  C   UNL A   1      45.584  25.855  35.701  1.00  0.00     0.091 A 
ATOM     88  F   UNL A   1      43.348  25.621  34.903  1.00  0.00    -0.205 F 
ATOM     89  C   UNL A   1      46.809  26.541  35.663  1.00  0.00     0.022 A 
BRANCH  87  90
ATOM     90  S   UNL A   1      45.451  24.470  36.837  1.00  0.00     0.127 S 
ATOM     91  O   UNL A   1      45.123  23.370  35.932  1.00  0.00    -0.237 OA
ATOM     92  O   UNL A   1      46.795  24.407  37.412  1.00  0.00    -0.237 OA
ATOM     93  O   UNL A   1      44.407  24.831  37.788  1.00  0.00    -0.744 OA
ENDBRANCH  87  90
ENDBRANCH  60  83
ENDBRANCH  34  35
ENDBRANCH  26  29
ENDBRANCH  24  25
ENDBRANCH  23  24
ENDBRANCH  22  23
ENDBRANCH   1  22
TORSDOF 19
ENDMDL
MODEL 2
REMARK VINA RESULT:     -11.4      1.934      3.690
REMARK SMILES COCCCNC(=O)[C@@H]1[C@@H](C(=O)NCCCCNC(=O)c2ccc(-c3c4nc(c(-c5cccc(S(=O)(=O)[O-])c5F)c5ccc([nH]5)c(-c5cccc(S(=O)(=O)[O-])c5F)c5nc(c(-c6cccc(S(=O)(=O)[O-])c6F)c6ccc3[nH]6)C=C5)C=C4)cc2)[C@@H]2C=C[C@H]1C2
REMARK SMILES IDX 14 1 13 2 11 3 12 4 10 6 9 7 87 8 84 9 86 10 88 11 85 12
REMARK SMILES IDX 7 13 6 14 8 16 5 17 4 18 3 19 2 20 1 21 15 22 16 23 17 24
REMARK SMILES IDX 18 25 19 26 20 28 21 29 22 30 83 31 23 32 82 33 24 34 25 35
REMARK SMILES IDX 26 36 76 37 27 38 81 39 75 40 77 41 28 42 80 43 74 44 73 45
REMARK SMILES IDX 29 47 61 48 41 49 60 50 42 51 45 52 59 53 78 54 43 55 44 56
REMARK SMILES IDX 58 58 79 59 46 60 30 61 31 62 39 63 32 64 34 65 40 66 33 67
REMARK SMILES IDX 35 68 36 69 37 70 38 71 62 72 63 73 71 74 64 75 66 76 72 77
REMARK SMILES IDX 65 78 67 79 68 80 69 81 70 82 47 83 48 84 56 85 49 86 51 87
REMARK SMILES IDX 57 88 50 89 52 90 53 91 54 92 55 93
REMARK H PARENT 13 5 6 15 18 27 77 46 45 57
REMARK Flexibility Score: inf
ROOT
ATOM      1  C   UNL A   1      33.610  27.342  25.735  1.00  0.00     0.116 C 
ENDROOT
BRANCH   1   2
ATOM      2  N   UNL A   1      34.296  26.071  25.944  1.00  0.00    -0.356 N 
ATOM      3  C   UNL A   1      34.351  24.894  25.253  1.00  0.00     0.224 C 
ATOM      4  O   UNL A   1      35.195  24.081  25.649  1.00  0.00    -0.275 OA
ATOM      5  H   UNL A   1      34.840  26.059  26.764  1.00  0.00     0.163 HD
BRANCH   3   6
ATOM      6  C   UNL A   1      33.397  24.463  24.127  1.00  0.00     0.098 C 
ATOM      7  C   UNL A   1      32.420  25.532  23.598  1.00  0.00     0.098 C 
ATOM      8  C   UNL A   1      31.032  24.933  23.971  1.00  0.00     0.025 C 
ATOM      9  C   UNL A   1      32.448  23.344  24.645  1.00  0.00     0.025 C 
ATOM     10  C   UNL A   1      30.795  23.728  23.085  1.00  0.00    -0.027 C 
ATOM     11  C   UNL A   1      31.312  24.158  25.265  1.00  0.00     0.017 C 
ATOM     12  C   UNL A   1      31.664  22.783  23.476  1.00  0.00    -0.027 C 
BRANCH   7  13
ATOM     13  C   UNL A   1      32.501  25.934  22.139  1.00  0.00     0.224 C 
ATOM     14  N   UNL A   1      32.080  27.209  21.835  1.00  0.00    -0.356 N 
ATOM     15  H   UNL A   1      32.180  27.480  20.894  1.00  0.00     0.163 HD
ATOM     16  O   UNL A   1      32.926  25.211  21.244  1.00  0.00    -0.275 OA
BRANCH  14  17
ATOM     17  C   UNL A   1      31.504  28.213  22.725  1.00  0.00     0.118 C 
BRANCH  17  18
ATOM     18  C   UNL A   1      30.035  28.506  22.453  1.00  0.00     0.050 C 
BRANCH  18  19
ATOM     19  C   UNL A   1      29.722  29.914  21.961  1.00  0.00     0.161 C 
BRANCH  19  20
ATOM     20  O   UNL A   1      28.535  29.986  21.176  1.00  0.00    -0.385 OA
ATOM     21  C   UNL A   1      28.045  31.297  20.948  1.00  0.00     0.194 C 
ENDBRANCH  19  20
ENDBRANCH  18  19
ENDBRANCH  17  18
ENDBRANCH  14  17
ENDBRANCH   7  13
ENDBRANCH   3   6
ENDBRANCH   1   2
BRANCH   1  22
ATOM     22  C   UNL A   1      32.336  27.525  26.544  1.00  0.00     0.023 C 
BRANCH  22  23
ATOM     23  C   UNL A   1      31.762  28.932  26.558  1.00  0.00     0.023 C 
BRANCH  23  24
ATOM     24  C   UNL A   1      32.621  29.993  25.884  1.00  0.00     0.116 C 
BRANCH  24  25
ATOM     25  N   UNL A   1      32.410  31.339  26.405  1.00  0.00    -0.352 N 
ATOM     26  C   UNL A   1      33.181  32.075  27.280  1.00  0.00     0.251 C 
ATOM     27  H   UNL A   1      31.597  31.790  26.083  1.00  0.00     0.163 HD
ATOM     28  O   UNL A   1      32.789  33.161  27.679  1.00  0.00    -0.269 OA
BRANCH  26  29
ATOM     29  C   UNL A   1      34.464  31.515  27.760  1.00  0.00     0.039 A 
ATOM     30  C   UNL A   1      35.549  32.373  27.953  1.00  0.00     0.014 A 
ATOM     31  C   UNL A   1      34.572  30.161  28.077  1.00  0.00     0.014 A 
ATOM     32  C   UNL A   1      36.710  31.890  28.561  1.00  0.00     0.010 A 
ATOM     33  C   UNL A   1      35.688  29.706  28.771  1.00  0.00     0.010 A 
ATOM     34  C   UNL A   1      36.770  30.563  29.023  1.00  0.00    -0.014 A 
BRANCH  34  35
ATOM     35  C   UNL A   1      37.937  30.054  29.790  1.00  0.00     0.031 A 
ATOM     36  C   UNL A   1      38.181  30.534  31.198  1.00  0.00     0.074 A 
ATOM     37  C   UNL A   1      38.839  29.253  29.184  1.00  0.00     0.049 A 
ATOM     38  N   UNL A   1      39.188  30.276  31.991  1.00  0.00    -0.248 NA
ATOM     39  C   UNL A   1      37.184  31.450  31.777  1.00  0.00     0.031 C 
ATOM     40  C   UNL A   1      38.770  28.795  27.794  1.00  0.00     0.029 A 
ATOM     41  N   UNL A   1      40.011  28.709  29.651  1.00  0.00    -0.354 N 
ATOM     42  C   UNL A   1      38.973  31.034  33.136  1.00  0.00     0.074 A 
ATOM     43  C   UNL A   1      37.754  31.783  32.927  1.00  0.00     0.031 C 
ATOM     44  C   UNL A   1      39.848  28.041  27.523  1.00  0.00     0.029 A 
ATOM     45  C   UNL A   1      40.702  27.986  28.705  1.00  0.00     0.049 A 
ATOM     46  H   UNL A   1      40.328  28.826  30.575  1.00  0.00     0.167 HD
ATOM     47  C   UNL A   1      39.709  31.082  34.271  1.00  0.00     0.034 A 
ATOM     48  C   UNL A   1      41.892  27.356  28.778  1.00  0.00     0.034 A 
ATOM     49  C   UNL A   1      40.877  30.280  34.506  1.00  0.00     0.049 A 
ATOM     50  C   UNL A   1      42.646  27.369  30.082  1.00  0.00     0.074 A 
ATOM     51  C   UNL A   1      41.615  30.163  35.671  1.00  0.00     0.029 A 
ATOM     52  N   UNL A   1      41.480  29.465  33.565  1.00  0.00    -0.354 N 
ATOM     53  N   UNL A   1      42.322  27.939  31.217  1.00  0.00    -0.248 NA
ATOM     54  C   UNL A   1      43.911  26.622  30.128  1.00  0.00     0.031 C 
ATOM     55  C   UNL A   1      42.680  29.292  35.426  1.00  0.00     0.029 A 
ATOM     56  C   UNL A   1      42.590  28.849  34.117  1.00  0.00     0.049 A 
ATOM     57  H   UNL A   1      41.168  29.342  32.640  1.00  0.00     0.167 HD
ATOM     58  C   UNL A   1      43.318  27.584  32.120  1.00  0.00     0.074 A 
ATOM     59  C   UNL A   1      44.245  26.731  31.406  1.00  0.00     0.031 C 
ATOM     60  C   UNL A   1      43.464  27.946  33.417  1.00  0.00     0.034 A 
BRANCH  47  61
ATOM     61  C   UNL A   1      39.243  31.983  35.382  1.00  0.00     0.023 A 
ATOM     62  C   UNL A   1      38.381  31.476  36.375  1.00  0.00     0.012 A 
ATOM     63  C   UNL A   1      39.741  33.296  35.502  1.00  0.00     0.148 A 
ATOM     64  C   UNL A   1      38.005  32.267  37.459  1.00  0.00     0.002 A 
ATOM     65  C   UNL A   1      39.398  34.064  36.607  1.00  0.00     0.091 A 
ATOM     66  F   UNL A   1      40.545  33.763  34.535  1.00  0.00    -0.205 F 
ATOM     67  C   UNL A   1      38.523  33.555  37.582  1.00  0.00     0.022 A 
BRANCH  65  68
ATOM     68  S   UNL A   1      40.075  35.701  36.903  1.00  0.00     0.127 S 
ATOM     69  O   UNL A   1      39.570  36.441  35.747  1.00  0.00    -0.237 OA
ATOM     70  O   UNL A   1      39.451  36.063  38.177  1.00  0.00    -0.237 OA
ATOM     71  O   UNL A   1      41.520  35.537  36.954  1.00  0.00    -0.744 OA
ENDBRANCH  65  68
ENDBRANCH  47  61
BRANCH  48  72
ATOM     72  C   UNL A   1      42.426  26.606  27.605  1.00  0.00     0.023 A 
ATOM     73  C   UNL A   1      43.215  27.282  26.653  1.00  0.00     0.012 A 
ATOM     74  C   UNL A   1      42.152  25.238  27.417  1.00  0.00     0.148 A 
ATOM     75  C   UNL A   1      43.679  26.624  25.513  1.00  0.00     0.002 A 
ATOM     76  C   UNL A   1      42.668  24.573  26.309  1.00  0.00     0.091 A 
ATOM     77  F   UNL A   1      41.388  24.611  28.323  1.00  0.00    -0.205 F 
ATOM     78  C   UNL A   1      43.413  25.269  25.346  1.00  0.00     0.022 A 
BRANCH  76  79
ATOM     79  S   UNL A   1      42.483  22.799  26.093  1.00  0.00     0.127 S 
ATOM     80  O   UNL A   1      41.032  22.641  26.142  1.00  0.00    -0.237 OA
ATOM     81  O   UNL A   1      43.083  22.586  24.776  1.00  0.00    -0.237 OA
ATOM     82  O   UNL A   1      43.230  22.199  27.190  1.00  0.00    -0.744 OA
ENDBRANCH  76  79
ENDBRANCH  48  72
BRANCH  60  83
ATOM     83  C   UNL A   1      44.638  27.387  34.176  1.00  0.00     0.023 A 
ATOM     84  C   UNL A   1      45.863  28.081  34.184  1.00  0.00     0.012 A 
ATOM     85  C   UNL A   1      44.498  26.217  34.949  1.00  0.00     0.148 A 
ATOM     86  C   UNL A   1      46.942  27.603  34.925  1.00  0.00     0.002 A 
ATOM     87  C   UNL A   1      45.563  25.775  35.725  1.00  0.00     0.091 A 
ATOM     88  F   UNL A   1      43.329  25.562  34.913  1.00  0.00    -0.205 F 
ATOM     89  C   UNL A   1      46.789  26.459  35.704  1.00  0.00     0.022 A 
BRANCH  87  90
ATOM     90  S   UNL A   1      45.422  24.370  36.835  1.00  0.00     0.127 S 
ATOM     91  O   UNL A   1      46.745  24.346  37.456  1.00  0.00    -0.237 OA
ATOM     92  O   UNL A   1      44.336  24.783  37.725  1.00  0.00    -0.237 OA
ATOM     93  O   UNL A   1      45.105  23.224  35.992  1.00  0.00    -0.744 OA
ENDBRANCH  87  90
ENDBRANCH  60  83
ENDBRANCH  34  35
ENDBRANCH  26  29
ENDBRANCH  24  25
ENDBRANCH  23  24
ENDBRANCH  22  23
ENDBRANCH   1  22
TORSDOF 19
ENDMDL
MODEL 3
REMARK VINA RESULT:     -11.3      1.602      7.697
REMARK SMILES COCCCNC(=O)[C@@H]1[C@@H](C(=O)NCCCCNC(=O)c2ccc(-c3c4nc(c(-c5cccc(S(=O)(=O)[O-])c5F)c5ccc([nH]5)c(-c5cccc(S(=O)(=O)[O-])c5F)c5nc(c(-c6cccc(S(=O)(=O)[O-])c6F)c6ccc3[nH]6)C=C5)C=C4)cc2)[C@@H]2C=C[C@H]1C2
REMARK SMILES IDX 14 1 13 2 11 3 12 4 10 6 9 7 87 8 84 9 86 10 88 11 85 12
REMARK SMILES IDX 7 13 6 14 8 16 5 17 4 18 3 19 2 20 1 21 15 22 16 23 17 24
REMARK SMILES IDX 18 25 19 26 20 28 21 29 22 30 83 31 23 32 82 33 24 34 25 35
REMARK SMILES IDX 26 36 76 37 27 38 81 39 75 40 77 41 28 42 80 43 74 44 73 45
REMARK SMILES IDX 29 47 61 48 41 49 60 50 42 51 45 52 59 53 78 54 43 55 44 56
REMARK SMILES IDX 58 58 79 59 46 60 30 61 31 62 39 63 32 64 34 65 40 66 33 67
REMARK SMILES IDX 35 68 36 69 37 70 38 71 62 72 63 73 71 74 64 75 66 76 72 77
REMARK SMILES IDX 65 78 67 79 68 80 69 81 70 82 47 83 48 84 56 85 49 86 51 87
REMARK SMILES IDX 57 88 50 89 52 90 53 91 54 92 55 93
REMARK H PARENT 13 5 6 15 18 27 77 46 45 57
REMARK Flexibility Score: inf
ROOT
ATOM      1  C   UNL A   1      30.690  26.606  26.097  1.00  0.00     0.116 C 
ENDROOT
BRANCH   1   2
ATOM      2  N   UNL A   1      30.993  25.341  26.758  1.00  0.00    -0.356 N 
ATOM      3  C   UNL A   1      31.843  24.307  26.491  1.00  0.00     0.224 C 
ATOM      4  O   UNL A   1      31.959  23.463  27.389  1.00  0.00    -0.275 OA
ATOM      5  H   UNL A   1      30.468  25.202  27.579  1.00  0.00     0.163 HD
BRANCH   3   6
ATOM      6  C   UNL A   1      32.561  24.050  25.155  1.00  0.00     0.098 C 
ATOM      7  C   UNL A   1      33.176  22.650  24.957  1.00  0.00     0.098 C 
ATOM      8  C   UNL A   1      34.696  22.963  24.843  1.00  0.00     0.025 C 
ATOM      9  C   UNL A   1      33.790  24.995  25.032  1.00  0.00     0.025 C 
ATOM     10  C   UNL A   1      34.926  23.671  23.525  1.00  0.00    -0.027 C 
ATOM     11  C   UNL A   1      34.878  24.191  25.745  1.00  0.00     0.017 C 
ATOM     12  C   UNL A   1      34.359  24.883  23.631  1.00  0.00    -0.027 C 
BRANCH   7  13
ATOM     13  C   UNL A   1      32.677  21.792  23.812  1.00  0.00     0.224 C 
ATOM     14  N   UNL A   1      32.823  20.431  23.963  1.00  0.00    -0.356 N 
ATOM     15  H   UNL A   1      32.454  19.878  23.237  1.00  0.00     0.163 HD
ATOM     16  O   UNL A   1      32.150  22.232  22.796  1.00  0.00    -0.275 OA
BRANCH  14  17
ATOM     17  C   UNL A   1      33.453  19.700  25.058  1.00  0.00     0.118 C 
BRANCH  17  18
ATOM     18  C   UNL A   1      33.214  18.197  25.013  1.00  0.00     0.050 C 
BRANCH  18  19
ATOM     19  C   UNL A   1      32.266  17.711  23.922  1.00  0.00     0.161 C 
BRANCH  19  20
ATOM     20  O   UNL A   1      32.940  17.176  22.788  1.00  0.00    -0.385 OA
ATOM     21  C   UNL A   1      34.209  16.603  23.059  1.00  0.00     0.194 C 
ENDBRANCH  19  20
ENDBRANCH  18  19
ENDBRANCH  17  18
ENDBRANCH  14  17
ENDBRANCH   7  13
ENDBRANCH   3   6
ENDBRANCH   1   2
BRANCH   1  22
ATOM     22  C   UNL A   1      31.487  27.800  26.598  1.00  0.00     0.023 C 
BRANCH  22  23
ATOM     23  C   UNL A   1      31.381  29.061  25.758  1.00  0.00     0.023 C 
BRANCH  23  24
ATOM     24  C   UNL A   1      32.563  30.016  25.863  1.00  0.00     0.116 C 
BRANCH  24  25
ATOM     25  N   UNL A   1      32.209  31.336  26.372  1.00  0.00    -0.352 N 
ATOM     26  C   UNL A   1      32.895  32.156  27.245  1.00  0.00     0.251 C 
ATOM     27  H   UNL A   1      31.354  31.697  26.044  1.00  0.00     0.163 HD
ATOM     28  O   UNL A   1      32.389  33.197  27.633  1.00  0.00    -0.269 OA
BRANCH  26  29
ATOM     29  C   UNL A   1      34.227  31.738  27.733  1.00  0.00     0.039 A 
ATOM     30  C   UNL A   1      35.195  32.713  27.985  1.00  0.00     0.014 A 
ATOM     31  C   UNL A   1      34.495  30.395  28.001  1.00  0.00     0.014 A 
ATOM     32  C   UNL A   1      36.395  32.351  28.602  1.00  0.00     0.010 A 
ATOM     33  C   UNL A   1      35.646  30.051  28.703  1.00  0.00     0.010 A 
ATOM     34  C   UNL A   1      36.608  31.024  29.014  1.00  0.00    -0.014 A 
BRANCH  34  35
ATOM     35  C   UNL A   1      37.815  30.631  29.788  1.00  0.00     0.031 A 
ATOM     36  C   UNL A   1      38.804  29.657  29.200  1.00  0.00     0.074 A 
ATOM     37  C   UNL A   1      37.962  31.056  31.061  1.00  0.00     0.049 A 
ATOM     38  N   UNL A   1      39.863  29.127  29.753  1.00  0.00    -0.248 NA
ATOM     39  C   UNL A   1      38.551  29.191  27.826  1.00  0.00     0.031 C 
ATOM     40  C   UNL A   1      37.026  31.923  31.781  1.00  0.00     0.029 A 
ATOM     41  N   UNL A   1      38.941  30.789  31.988  1.00  0.00    -0.354 N 
ATOM     42  C   UNL A   1      40.371  28.231  28.819  1.00  0.00     0.074 A 
ATOM     43  C   UNL A   1      39.490  28.269  27.673  1.00  0.00     0.031 C 
ATOM     44  C   UNL A   1      37.474  32.116  33.033  1.00  0.00     0.029 A 
ATOM     45  C   UNL A   1      38.711  31.365  33.217  1.00  0.00     0.049 A 
ATOM     46  H   UNL A   1      39.731  30.237  31.792  1.00  0.00     0.167 HD
ATOM     47  C   UNL A   1      41.485  27.467  28.896  1.00  0.00     0.034 A 
ATOM     48  C   UNL A   1      39.413  31.289  34.367  1.00  0.00     0.034 A 
ATOM     49  C   UNL A   1      42.399  27.488  30.004  1.00  0.00     0.049 A 
ATOM     50  C   UNL A   1      40.689  30.488  34.392  1.00  0.00     0.074 A 
ATOM     51  C   UNL A   1      43.620  26.847  30.119  1.00  0.00     0.029 A 
ATOM     52  N   UNL A   1      42.195  28.178  31.186  1.00  0.00    -0.354 N 
ATOM     53  N   UNL A   1      41.251  29.801  33.428  1.00  0.00    -0.248 NA
ATOM     54  C   UNL A   1      41.447  30.482  35.651  1.00  0.00     0.031 C 
ATOM     55  C   UNL A   1      44.145  27.133  31.382  1.00  0.00     0.029 A 
ATOM     56  C   UNL A   1      43.262  27.971  32.043  1.00  0.00     0.049 A 
ATOM     57  H   UNL A   1      41.408  28.733  31.388  1.00  0.00     0.167 HD
ATOM     58  C   UNL A   1      42.446  29.318  33.950  1.00  0.00     0.074 A 
ATOM     59  C   UNL A   1      42.538  29.810  35.309  1.00  0.00     0.031 C 
ATOM     60  C   UNL A   1      43.375  28.525  33.365  1.00  0.00     0.034 A 
BRANCH  47  61
ATOM     61  C   UNL A   1      41.824  26.585  27.725  1.00  0.00     0.023 A 
ATOM     62  C   UNL A   1      42.626  27.090  26.683  1.00  0.00     0.012 A 
ATOM     63  C   UNL A   1      41.439  25.229  27.710  1.00  0.00     0.148 A 
ATOM     64  C   UNL A   1      43.023  26.266  25.631  1.00  0.00     0.002 A 
ATOM     65  C   UNL A   1      41.875  24.403  26.681  1.00  0.00     0.091 A 
ATOM     66  F   UNL A   1      40.661  24.776  28.703  1.00  0.00    -0.205 F 
ATOM     67  C   UNL A   1      42.659  24.921  25.637  1.00  0.00     0.022 A 
BRANCH  65  68
ATOM     68  S   UNL A   1      41.533  22.641  26.638  1.00  0.00     0.127 S 
ATOM     69  O   UNL A   1      42.174  22.247  25.384  1.00  0.00    -0.237 OA
ATOM     70  O   UNL A   1      42.213  22.168  27.844  1.00  0.00    -0.237 OA
ATOM     71  O   UNL A   1      40.083  22.510  26.662  1.00  0.00    -0.744 OA
ENDBRANCH  65  68
ENDBRANCH  47  61
BRANCH  48  72
ATOM     72  C   UNL A   1      38.966  32.036  35.577  1.00  0.00     0.023 A 
ATOM     73  C   UNL A   1      39.242  33.414  35.681  1.00  0.00     0.012 A 
ATOM     74  C   UNL A   1      38.283  31.396  36.629  1.00  0.00     0.148 A 
ATOM     75  C   UNL A   1      38.892  34.128  36.828  1.00  0.00     0.002 A 
ATOM     76  C   UNL A   1      37.883  32.126  37.743  1.00  0.00     0.091 A 
ATOM     77  F   UNL A   1      38.040  30.081  36.523  1.00  0.00    -0.205 F 
ATOM     78  C   UNL A   1      38.205  33.487  37.854  1.00  0.00     0.022 A 
BRANCH  76  79
ATOM     79  S   UNL A   1      36.878  31.402  39.044  1.00  0.00     0.127 S 
ATOM     80  O   UNL A   1      36.645  30.056  38.529  1.00  0.00    -0.237 OA
ATOM     81  O   UNL A   1      37.773  31.475  40.200  1.00  0.00    -0.237 OA
ATOM     82  O   UNL A   1      35.706  32.262  39.146  1.00  0.00    -0.744 OA
ENDBRANCH  76  79
ENDBRANCH  48  72
BRANCH  60  83
ATOM     83  C   UNL A   1      44.601  28.172  34.164  1.00  0.00     0.023 A 
ATOM     84  C   UNL A   1      45.653  29.101  34.282  1.00  0.00     0.012 A 
ATOM     85  C   UNL A   1      44.672  26.951  34.865  1.00  0.00     0.148 A 
ATOM     86  C   UNL A   1      46.771  28.808  35.060  1.00  0.00     0.002 A 
ATOM     87  C   UNL A   1      45.767  26.688  35.679  1.00  0.00     0.091 A 
ATOM     88  F   UNL A   1      43.668  26.073  34.724  1.00  0.00    -0.205 F 
ATOM     89  C   UNL A   1      46.823  27.609  35.768  1.00  0.00     0.022 A 
BRANCH  87  90
ATOM     90  S   UNL A   1      45.869  25.217  36.703  1.00  0.00     0.127 S 
ATOM     91  O   UNL A   1      46.971  25.554  37.602  1.00  0.00    -0.237 OA
ATOM     92  O   UNL A   1      44.550  25.186  37.338  1.00  0.00    -0.237 OA
ATOM     93  O   UNL A   1      46.121  24.109  35.790  1.00  0.00    -0.744 OA
ENDBRANCH  87  90
ENDBRANCH  60  83
ENDBRANCH  34  35
ENDBRANCH  26  29
ENDBRANCH  24  25
ENDBRANCH  23  24
ENDBRANCH  22  23
ENDBRANCH   1  22
TORSDOF 19
ENDMDL
