MODEL 1
REMARK VINA RESULT:     -12.6      0.000      0.000
REMARK SMILES O=C(COc1ccccc1/C=C1\C(=O)Nc2ccccc21)NCCCCNC(=O)c1ccc(-c2c3nc(c(-c4cccc(S(=O)(=O)[O-])c4F)c4ccc([nH]4)c(-c4cccc(S(=O)(=O)[O-])c4F)c4nc(c(-c5cccc(S(=O)(=O)[O-])c5F)c5ccc2[nH]5)C=C4)C=C3)cc1
REMARK SMILES IDX 24 1 23 2 22 3 1 4 2 5 3 7 4 8 5 9 6 10 10 11 7 12 9 13 8 14
REMARK SMILES IDX 11 15 12 16 13 17 21 18 14 19 15 20 16 21 20 22 17 24 19 25
REMARK SMILES IDX 18 26 25 27 26 28 27 29 28 30 29 32 30 33 31 34 92 35 32 36
REMARK SMILES IDX 91 37 33 38 34 39 35 40 85 41 36 42 90 43 84 44 86 45 37 46
REMARK SMILES IDX 89 47 83 48 82 49 38 51 70 52 50 53 69 54 51 55 54 56 68 57
REMARK SMILES IDX 87 58 52 59 53 60 67 62 88 63 55 64 39 65 40 66 48 67 41 68
REMARK SMILES IDX 43 69 49 70 42 71 44 72 45 73 46 74 47 75 71 76 72 77 80 78
REMARK SMILES IDX 73 79 75 80 81 81 74 82 76 83 77 84 78 85 79 86 56 87 57 88
REMARK SMILES IDX 65 89 58 90 60 91 66 92 59 93 61 94 62 95 63 96 64 97
REMARK H PARENT 22 6 15 23 27 31 86 50 54 61
REMARK Flexibility Score: inf
ROOT
ATOM      1  C   UNL A   1      34.978  22.490  26.238  1.00  0.00     0.023 C 
ENDROOT
BRANCH   1   2
ATOM      2  C   UNL A   1      34.039  21.952  27.301  1.00  0.00     0.116 C 
BRANCH   2   3
ATOM      3  N   UNL A   1      32.665  21.752  26.911  1.00  0.00    -0.353 N 
ATOM      4  O   UNL A   1      31.840  23.774  27.665  1.00  0.00    -0.271 OA
ATOM      5  C   UNL A   1      31.755  22.801  26.922  1.00  0.00     0.257 C 
ATOM      6  H   UNL A   1      32.368  20.855  26.632  1.00  0.00     0.163 HD
BRANCH   5   7
ATOM      7  C   UNL A   1      30.663  22.668  25.860  1.00  0.00     0.329 C 
BRANCH   7   8
ATOM      8  O   UNL A   1      30.764  23.868  25.087  1.00  0.00    -0.483 OA
BRANCH   8   9
ATOM      9  C   UNL A   1      31.670  23.828  24.059  1.00  0.00     0.127 A 
ATOM     10  C   UNL A   1      31.614  22.702  23.226  1.00  0.00     0.047 A 
ATOM     11  C   UNL A   1      32.774  24.711  24.043  1.00  0.00     0.017 A 
ATOM     12  C   UNL A   1      32.697  22.390  22.412  1.00  0.00     0.004 A 
ATOM     13  C   UNL A   1      33.890  24.293  23.310  1.00  0.00     0.012 A 
ATOM     14  C   UNL A   1      33.851  23.160  22.488  1.00  0.00     0.001 A 
BRANCH  11  15
ATOM     15  C   UNL A   1      32.776  25.985  24.816  1.00  0.00     0.026 C 
ATOM     16  C   UNL A   1      32.131  27.152  24.601  1.00  0.00     0.050 C 
ATOM     17  C   UNL A   1      31.220  27.563  23.457  1.00  0.00     0.256 C 
ATOM     18  C   UNL A   1      32.194  28.337  25.492  1.00  0.00     0.011 A 
ATOM     19  O   UNL A   1      30.783  26.910  22.532  1.00  0.00    -0.269 OA
ATOM     20  N   UNL A   1      30.929  28.900  23.676  1.00  0.00    -0.321 N 
ATOM     21  C   UNL A   1      31.470  29.354  24.867  1.00  0.00     0.049 A 
ATOM     22  C   UNL A   1      32.741  28.581  26.738  1.00  0.00     0.011 A 
ATOM     23  H   UNL A   1      30.400  29.458  23.061  1.00  0.00     0.170 HD
ATOM     24  C   UNL A   1      31.294  30.611  25.415  1.00  0.00     0.027 A 
ATOM     25  C   UNL A   1      32.578  29.845  27.324  1.00  0.00     0.001 A 
ATOM     26  C   UNL A   1      31.862  30.854  26.665  1.00  0.00     0.002 A 
ENDBRANCH  11  15
ENDBRANCH   8   9
ENDBRANCH   7   8
ENDBRANCH   5   7
ENDBRANCH   2   3
ENDBRANCH   1   2
BRANCH   1  27
ATOM     27  C   UNL A   1      35.634  21.449  25.334  1.00  0.00     0.023 C 
BRANCH  27  28
ATOM     28  C   UNL A   1      37.087  21.707  24.941  1.00  0.00     0.116 C 
BRANCH  28  29
ATOM     29  N   UNL A   1      37.994  20.629  25.311  1.00  0.00    -0.352 N 
ATOM     30  C   UNL A   1      39.207  20.673  25.962  1.00  0.00     0.251 C 
ATOM     31  H   UNL A   1      37.693  19.727  25.057  1.00  0.00     0.163 HD
ATOM     32  O   UNL A   1      39.875  19.649  26.072  1.00  0.00    -0.269 OA
BRANCH  30  33
ATOM     33  C   UNL A   1      39.728  21.952  26.502  1.00  0.00     0.039 A 
ATOM     34  C   UNL A   1      40.792  21.920  27.408  1.00  0.00     0.014 A 
ATOM     35  C   UNL A   1      39.178  23.177  26.118  1.00  0.00     0.014 A 
ATOM     36  C   UNL A   1      41.364  23.118  27.853  1.00  0.00     0.010 A 
ATOM     37  C   UNL A   1      39.798  24.366  26.499  1.00  0.00     0.010 A 
ATOM     38  C   UNL A   1      40.902  24.351  27.366  1.00  0.00    -0.014 A 
BRANCH  38  39
ATOM     39  C   UNL A   1      41.576  25.631  27.716  1.00  0.00     0.031 A 
ATOM     40  C   UNL A   1      40.842  26.696  28.487  1.00  0.00     0.074 A 
ATOM     41  C   UNL A   1      42.817  25.880  27.249  1.00  0.00     0.049 A 
ATOM     42  N   UNL A   1      41.241  27.898  28.818  1.00  0.00    -0.248 NA
ATOM     43  C   UNL A   1      39.471  26.382  28.920  1.00  0.00     0.031 C 
ATOM     44  C   UNL A   1      43.607  24.969  26.418  1.00  0.00     0.029 A 
ATOM     45  N   UNL A   1      43.620  26.987  27.379  1.00  0.00    -0.354 N 
ATOM     46  C   UNL A   1      40.161  28.497  29.454  1.00  0.00     0.074 A 
ATOM     47  C   UNL A   1      39.080  27.537  29.442  1.00  0.00     0.031 C 
ATOM     48  C   UNL A   1      44.780  25.551  26.118  1.00  0.00     0.029 A 
ATOM     49  C   UNL A   1      44.816  26.885  26.709  1.00  0.00     0.049 A 
ATOM     50  H   UNL A   1      43.363  27.780  27.904  1.00  0.00     0.167 HD
ATOM     51  C   UNL A   1      40.083  29.723  30.025  1.00  0.00     0.034 A 
ATOM     52  C   UNL A   1      45.829  27.765  26.579  1.00  0.00     0.034 A 
ATOM     53  C   UNL A   1      41.177  30.655  30.091  1.00  0.00     0.049 A 
ATOM     54  C   UNL A   1      45.738  29.098  27.270  1.00  0.00     0.074 A 
ATOM     55  C   UNL A   1      41.227  31.876  30.742  1.00  0.00     0.029 A 
ATOM     56  N   UNL A   1      42.409  30.475  29.484  1.00  0.00    -0.354 N 
ATOM     57  N   UNL A   1      44.772  29.576  28.016  1.00  0.00    -0.248 NA
ATOM     58  C   UNL A   1      46.892  30.000  27.133  1.00  0.00     0.031 C 
ATOM     59  C   UNL A   1      42.487  32.441  30.516  1.00  0.00     0.029 A 
ATOM     60  C   UNL A   1      43.225  31.565  29.737  1.00  0.00     0.049 A 
ATOM     61  H   UNL A   1      42.667  29.688  28.951  1.00  0.00     0.167 HD
ATOM     62  C   UNL A   1      45.214  30.814  28.466  1.00  0.00     0.074 A 
ATOM     63  C   UNL A   1      46.544  31.006  27.925  1.00  0.00     0.031 C 
ATOM     64  C   UNL A   1      44.570  31.719  29.244  1.00  0.00     0.034 A 
BRANCH  51  65
ATOM     65  C   UNL A   1      38.784  30.108  30.684  1.00  0.00     0.023 A 
ATOM     66  C   UNL A   1      38.533  29.701  32.010  1.00  0.00     0.012 A 
ATOM     67  C   UNL A   1      37.844  30.920  30.021  1.00  0.00     0.148 A 
ATOM     68  C   UNL A   1      37.353  30.066  32.655  1.00  0.00     0.002 A 
ATOM     69  C   UNL A   1      36.688  31.316  30.686  1.00  0.00     0.091 A 
ATOM     70  F   UNL A   1      38.088  31.280  28.754  1.00  0.00    -0.205 F 
ATOM     71  C   UNL A   1      36.436  30.881  31.997  1.00  0.00     0.022 A 
BRANCH  69  72
ATOM     72  S   UNL A   1      35.484  32.429  29.951  1.00  0.00     0.127 S 
ATOM     73  O   UNL A   1      34.427  32.428  30.961  1.00  0.00    -0.237 OA
ATOM     74  O   UNL A   1      36.236  33.682  29.858  1.00  0.00    -0.237 OA
ATOM     75  O   UNL A   1      35.128  31.841  28.667  1.00  0.00    -0.744 OA
ENDBRANCH  69  72
ENDBRANCH  51  65
BRANCH  52  76
ATOM     76  C   UNL A   1      47.058  27.380  25.826  1.00  0.00     0.023 A 
ATOM     77  C   UNL A   1      48.053  26.625  26.479  1.00  0.00     0.012 A 
ATOM     78  C   UNL A   1      47.236  27.728  24.474  1.00  0.00     0.148 A 
ATOM     79  C   UNL A   1      49.216  26.248  25.807  1.00  0.00     0.002 A 
ATOM     80  C   UNL A   1      48.374  27.303  23.794  1.00  0.00     0.091 A 
ATOM     81  F   UNL A   1      46.286  28.459  23.874  1.00  0.00    -0.205 F 
ATOM     82  C   UNL A   1      49.372  26.578  24.463  1.00  0.00     0.022 A 
BRANCH  80  83
ATOM     83  S   UNL A   1      48.596  27.572  22.033  1.00  0.00     0.127 S 
ATOM     84  O   UNL A   1      49.753  28.463  22.009  1.00  0.00    -0.237 OA
ATOM     85  O   UNL A   1      48.853  26.215  21.548  1.00  0.00    -0.237 OA
ATOM     86  O   UNL A   1      47.342  28.145  21.564  1.00  0.00    -0.744 OA
ENDBRANCH  80  83
ENDBRANCH  52  76
BRANCH  64  87
ATOM     87  C   UNL A   1      45.299  32.990  29.591  1.00  0.00     0.023 A 
ATOM     88  C   UNL A   1      46.154  33.022  30.710  1.00  0.00     0.012 A 
ATOM     89  C   UNL A   1      45.198  34.127  28.765  1.00  0.00     0.148 A 
ATOM     90  C   UNL A   1      46.877  34.174  31.017  1.00  0.00     0.002 A 
ATOM     91  C   UNL A   1      45.956  35.257  29.051  1.00  0.00     0.091 A 
ATOM     92  F   UNL A   1      44.362  34.085  27.717  1.00  0.00    -0.205 F 
ATOM     93  C   UNL A   1      46.788  35.286  30.182  1.00  0.00     0.022 A 
BRANCH  91  94
ATOM     94  S   UNL A   1      45.975  36.698  27.978  1.00  0.00     0.127 S 
ATOM     95  O   UNL A   1      44.584  37.140  28.047  1.00  0.00    -0.237 OA
ATOM     96  O   UNL A   1      46.930  37.578  28.651  1.00  0.00    -0.237 OA
ATOM     97  O   UNL A   1      46.416  36.217  26.674  1.00  0.00    -0.744 OA
ENDBRANCH  91  94
ENDBRANCH  64  87
ENDBRANCH  38  39
ENDBRANCH  30  33
ENDBRANCH  28  29
ENDBRANCH  27  28
ENDBRANCH   1  27
TORSDOF 17
ENDMDL
MODEL 2
REMARK VINA RESULT:     -12.6      5.379     10.417
REMARK SMILES O=C(COc1ccccc1/C=C1\C(=O)Nc2ccccc21)NCCCCNC(=O)c1ccc(-c2c3nc(c(-c4cccc(S(=O)(=O)[O-])c4F)c4ccc([nH]4)c(-c4cccc(S(=O)(=O)[O-])c4F)c4nc(c(-c5cccc(S(=O)(=O)[O-])c5F)c5ccc2[nH]5)C=C4)C=C3)cc1
REMARK SMILES IDX 24 1 23 2 22 3 1 4 2 5 3 7 4 8 5 9 6 10 10 11 7 12 9 13 8 14
REMARK SMILES IDX 11 15 12 16 13 17 21 18 14 19 15 20 16 21 20 22 17 24 19 25
REMARK SMILES IDX 18 26 25 27 26 28 27 29 28 30 29 32 30 33 31 34 92 35 32 36
REMARK SMILES IDX 91 37 33 38 34 39 35 40 85 41 36 42 90 43 84 44 86 45 37 46
REMARK SMILES IDX 89 47 83 48 82 49 38 51 70 52 50 53 69 54 51 55 54 56 68 57
REMARK SMILES IDX 87 58 52 59 53 60 67 62 88 63 55 64 39 65 40 66 48 67 41 68
REMARK SMILES IDX 43 69 49 70 42 71 44 72 45 73 46 74 47 75 71 76 72 77 80 78
REMARK SMILES IDX 73 79 75 80 81 81 74 82 76 83 77 84 78 85 79 86 56 87 57 88
REMARK SMILES IDX 65 89 58 90 60 91 66 92 59 93 61 94 62 95 63 96 64 97
REMARK H PARENT 22 6 15 23 27 31 86 50 54 61
REMARK Flexibility Score: inf
ROOT
ATOM      1  C   UNL A   1      31.052  30.821  25.769  1.00  0.00     0.023 C 
ENDROOT
BRANCH   1   2
ATOM      2  C   UNL A   1      31.752  29.748  26.581  1.00  0.00     0.116 C 
BRANCH   2   3
ATOM      3  N   UNL A   1      31.966  28.479  25.931  1.00  0.00    -0.353 N 
ATOM      4  O   UNL A   1      34.269  28.593  25.796  1.00  0.00    -0.271 OA
ATOM      5  C   UNL A   1      33.238  27.929  25.826  1.00  0.00     0.257 C 
ATOM      6  H   UNL A   1      31.196  27.994  25.554  1.00  0.00     0.163 HD
BRANCH   5   7
ATOM      7  C   UNL A   1      33.240  26.400  25.826  1.00  0.00     0.329 C 
BRANCH   7   8
ATOM      8  O   UNL A   1      31.864  26.039  25.983  1.00  0.00    -0.483 OA
BRANCH   8   9
ATOM      9  C   UNL A   1      31.466  24.930  25.284  1.00  0.00     0.127 A 
ATOM     10  C   UNL A   1      32.119  23.730  25.597  1.00  0.00     0.047 A 
ATOM     11  C   UNL A   1      30.676  25.065  24.118  1.00  0.00     0.017 A 
ATOM     12  C   UNL A   1      32.061  22.659  24.712  1.00  0.00     0.004 A 
ATOM     13  C   UNL A   1      30.749  24.014  23.197  1.00  0.00     0.012 A 
ATOM     14  C   UNL A   1      31.413  22.818  23.493  1.00  0.00     0.001 A 
BRANCH  11  15
ATOM     15  C   UNL A   1      29.863  26.284  23.853  1.00  0.00     0.026 C 
ATOM     16  C   UNL A   1      30.164  27.424  23.193  1.00  0.00     0.050 C 
ATOM     17  C   UNL A   1      31.467  27.855  22.543  1.00  0.00     0.256 C 
ATOM     18  C   UNL A   1      29.226  28.551  22.968  1.00  0.00     0.011 A 
ATOM     19  O   UNL A   1      32.499  27.239  22.377  1.00  0.00    -0.269 OA
ATOM     20  N   UNL A   1      31.256  29.156  22.116  1.00  0.00    -0.321 N 
ATOM     21  C   UNL A   1      29.951  29.563  22.336  1.00  0.00     0.049 A 
ATOM     22  C   UNL A   1      27.876  28.745  23.195  1.00  0.00     0.011 A 
ATOM     23  H   UNL A   1      31.949  29.722  21.704  1.00  0.00     0.170 HD
ATOM     24  C   UNL A   1      29.397  30.770  21.951  1.00  0.00     0.027 A 
ATOM     25  C   UNL A   1      27.282  29.957  22.814  1.00  0.00     0.001 A 
ATOM     26  C   UNL A   1      28.039  30.964  22.199  1.00  0.00     0.002 A 
ENDBRANCH  11  15
ENDBRANCH   8   9
ENDBRANCH   7   8
ENDBRANCH   5   7
ENDBRANCH   2   3
ENDBRANCH   1   2
BRANCH   1  27
ATOM     27  C   UNL A   1      31.166  32.247  26.303  1.00  0.00     0.023 C 
BRANCH  27  28
ATOM     28  C   UNL A   1      32.522  32.654  26.875  1.00  0.00     0.116 C 
BRANCH  28  29
ATOM     29  N   UNL A   1      32.515  33.956  27.529  1.00  0.00    -0.352 N 
ATOM     30  C   UNL A   1      33.349  34.465  28.500  1.00  0.00     0.251 C 
ATOM     31  H   UNL A   1      31.805  34.568  27.229  1.00  0.00     0.163 HD
ATOM     32  O   UNL A   1      33.095  35.555  29.007  1.00  0.00    -0.269 OA
BRANCH  30  33
ATOM     33  C   UNL A   1      34.528  33.696  28.963  1.00  0.00     0.039 A 
ATOM     34  C   UNL A   1      35.805  34.225  28.754  1.00  0.00     0.014 A 
ATOM     35  C   UNL A   1      34.383  32.463  29.603  1.00  0.00     0.014 A 
ATOM     36  C   UNL A   1      36.926  33.564  29.269  1.00  0.00     0.010 A 
ATOM     37  C   UNL A   1      35.490  31.847  30.183  1.00  0.00     0.010 A 
ATOM     38  C   UNL A   1      36.774  32.393  30.030  1.00  0.00    -0.014 A 
BRANCH  38  39
ATOM     39  C   UNL A   1      37.932  31.744  30.703  1.00  0.00     0.031 A 
ATOM     40  C   UNL A   1      38.724  30.674  29.999  1.00  0.00     0.074 A 
ATOM     41  C   UNL A   1      38.208  32.041  31.989  1.00  0.00     0.049 A 
ATOM     42  N   UNL A   1      39.714  29.948  30.453  1.00  0.00    -0.248 NA
ATOM     43  C   UNL A   1      38.337  30.357  28.615  1.00  0.00     0.031 C 
ATOM     44  C   UNL A   1      37.466  32.997  32.815  1.00  0.00     0.029 A 
ATOM     45  N   UNL A   1      39.168  31.548  32.839  1.00  0.00    -0.354 N 
ATOM     46  C   UNL A   1      40.037  29.063  29.431  1.00  0.00     0.074 A 
ATOM     47  C   UNL A   1      39.121  29.323  28.343  1.00  0.00     0.031 C 
ATOM     48  C   UNL A   1      37.999  33.023  34.047  1.00  0.00     0.029 A 
ATOM     49  C   UNL A   1      39.101  32.069  34.111  1.00  0.00     0.049 A 
ATOM     50  H   UNL A   1      39.840  30.883  32.564  1.00  0.00     0.167 HD
ATOM     51  C   UNL A   1      41.025  28.136  29.389  1.00  0.00     0.034 A 
ATOM     52  C   UNL A   1      39.840  31.807  35.207  1.00  0.00     0.034 A 
ATOM     53  C   UNL A   1      41.974  27.918  30.447  1.00  0.00     0.049 A 
ATOM     54  C   UNL A   1      40.967  30.813  35.115  1.00  0.00     0.074 A 
ATOM     55  C   UNL A   1      43.076  27.079  30.454  1.00  0.00     0.029 A 
ATOM     56  N   UNL A   1      41.936  28.537  31.686  1.00  0.00    -0.354 N 
ATOM     57  N   UNL A   1      41.365  30.112  34.082  1.00  0.00    -0.248 NA
ATOM     58  C   UNL A   1      41.770  30.601  36.329  1.00  0.00     0.031 C 
ATOM     59  C   UNL A   1      43.695  27.180  31.704  1.00  0.00     0.029 A 
ATOM     60  C   UNL A   1      42.988  28.093  32.470  1.00  0.00     0.049 A 
ATOM     61  H   UNL A   1      41.260  29.194  31.969  1.00  0.00     0.167 HD
ATOM     62  C   UNL A   1      42.483  29.405  34.509  1.00  0.00     0.074 A 
ATOM     63  C   UNL A   1      42.712  29.778  35.889  1.00  0.00     0.031 C 
ATOM     64  C   UNL A   1      43.243  28.516  33.823  1.00  0.00     0.034 A 
BRANCH  51  65
ATOM     65  C   UNL A   1      41.172  27.326  28.127  1.00  0.00     0.023 A 
ATOM     66  C   UNL A   1      41.770  27.913  26.993  1.00  0.00     0.012 A 
ATOM     67  C   UNL A   1      40.781  25.975  28.079  1.00  0.00     0.148 A 
ATOM     68  C   UNL A   1      41.946  27.180  25.822  1.00  0.00     0.002 A 
ATOM     69  C   UNL A   1      40.998  25.236  26.921  1.00  0.00     0.091 A 
ATOM     70  F   UNL A   1      40.195  25.439  29.159  1.00  0.00    -0.205 F 
ATOM     71  C   UNL A   1      41.569  25.840  25.789  1.00  0.00     0.022 A 
BRANCH  69  72
ATOM     72  S   UNL A   1      40.619  23.484  26.806  1.00  0.00     0.127 S 
ATOM     73  O   UNL A   1      40.940  23.024  28.157  1.00  0.00    -0.237 OA
ATOM     74  O   UNL A   1      39.189  23.496  26.490  1.00  0.00    -0.237 OA
ATOM     75  O   UNL A   1      41.468  22.960  25.746  1.00  0.00    -0.744 OA
ENDBRANCH  69  72
ENDBRANCH  51  65
BRANCH  52  76
ATOM     76  C   UNL A   1      39.591  32.560  36.471  1.00  0.00     0.023 A 
ATOM     77  C   UNL A   1      40.320  33.739  36.720  1.00  0.00     0.012 A 
ATOM     78  C   UNL A   1      38.627  32.137  37.405  1.00  0.00     0.148 A 
ATOM     79  C   UNL A   1      40.114  34.469  37.891  1.00  0.00     0.002 A 
ATOM     80  C   UNL A   1      38.389  32.897  38.545  1.00  0.00     0.091 A 
ATOM     81  F   UNL A   1      37.954  31.004  37.157  1.00  0.00    -0.205 F 
ATOM     82  C   UNL A   1      39.143  34.054  38.798  1.00  0.00     0.022 A 
BRANCH  80  83
ATOM     83  S   UNL A   1      37.070  32.509  39.701  1.00  0.00     0.127 S 
ATOM     84  O   UNL A   1      35.885  32.644  38.861  1.00  0.00    -0.237 OA
ATOM     85  O   UNL A   1      37.399  31.136  40.088  1.00  0.00    -0.237 OA
ATOM     86  O   UNL A   1      37.199  33.480  40.780  1.00  0.00    -0.744 OA
ENDBRANCH  80  83
ENDBRANCH  52  76
BRANCH  64  87
ATOM     87  C   UNL A   1      44.417  27.899  34.536  1.00  0.00     0.023 A 
ATOM     88  C   UNL A   1      45.672  28.539  34.499  1.00  0.00     0.012 A 
ATOM     89  C   UNL A   1      44.259  26.731  35.309  1.00  0.00     0.148 A 
ATOM     90  C   UNL A   1      46.757  28.011  35.197  1.00  0.00     0.002 A 
ATOM     91  C   UNL A   1      45.334  26.236  36.038  1.00  0.00     0.091 A 
ATOM     92  F   UNL A   1      43.062  26.124  35.315  1.00  0.00    -0.205 F 
ATOM     93  C   UNL A   1      46.586  26.869  35.975  1.00  0.00     0.022 A 
BRANCH  91  94
ATOM     94  S   UNL A   1      45.178  24.826  37.140  1.00  0.00     0.127 S 
ATOM     95  O   UNL A   1      44.847  23.752  36.206  1.00  0.00    -0.237 OA
ATOM     96  O   UNL A   1      46.517  24.735  37.724  1.00  0.00    -0.237 OA
ATOM     97  O   UNL A   1      44.130  25.176  38.090  1.00  0.00    -0.744 OA
ENDBRANCH  91  94
ENDBRANCH  64  87
ENDBRANCH  38  39
ENDBRANCH  30  33
ENDBRANCH  28  29
ENDBRANCH  27  28
ENDBRANCH   1  27
TORSDOF 17
ENDMDL
MODEL 3
REMARK VINA RESULT:     -12.5      4.959      9.665
REMARK SMILES O=C(COc1ccccc1/C=C1\C(=O)Nc2ccccc21)NCCCCNC(=O)c1ccc(-c2c3nc(c(-c4cccc(S(=O)(=O)[O-])c4F)c4ccc([nH]4)c(-c4cccc(S(=O)(=O)[O-])c4F)c4nc(c(-c5cccc(S(=O)(=O)[O-])c5F)c5ccc2[nH]5)C=C4)C=C3)cc1
REMARK SMILES IDX 24 1 23 2 22 3 1 4 2 5 3 7 4 8 5 9 6 10 10 11 7 12 9 13 8 14
REMARK SMILES IDX 11 15 12 16 13 17 21 18 14 19 15 20 16 21 20 22 17 24 19 25
REMARK SMILES IDX 18 26 25 27 26 28 27 29 28 30 29 32 30 33 31 34 92 35 32 36
REMARK SMILES IDX 91 37 33 38 34 39 35 40 85 41 36 42 90 43 84 44 86 45 37 46
REMARK SMILES IDX 89 47 83 48 82 49 38 51 70 52 50 53 69 54 51 55 54 56 68 57
REMARK SMILES IDX 87 58 52 59 53 60 67 62 88 63 55 64 39 65 40 66 48 67 41 68
REMARK SMILES IDX 43 69 49 70 42 71 44 72 45 73 46 74 47 75 71 76 72 77 80 78
REMARK SMILES IDX 73 79 75 80 81 81 74 82 76 83 77 84 78 85 79 86 56 87 57 88
REMARK SMILES IDX 65 89 58 90 60 91 66 92 59 93 61 94 62 95 63 96 64 97
REMARK H PARENT 22 6 15 23 27 31 86 50 54 61
REMARK Flexibility Score: inf
ROOT
ATOM      1  C   UNL A   1      32.050  27.676  26.972  1.00  0.00     0.023 C 
ENDROOT
BRANCH   1   2
ATOM      2  C   UNL A   1      31.547  26.337  26.466  1.00  0.00     0.116 C 
BRANCH   2   3
ATOM      3  N   UNL A   1      32.177  25.160  27.011  1.00  0.00    -0.353 N 
ATOM      4  O   UNL A   1      30.324  23.783  26.980  1.00  0.00    -0.271 OA
ATOM      5  C   UNL A   1      31.542  23.925  26.982  1.00  0.00     0.257 C 
ATOM      6  H   UNL A   1      33.075  25.234  27.411  1.00  0.00     0.163 HD
BRANCH   5   7
ATOM      7  C   UNL A   1      32.510  22.747  26.878  1.00  0.00     0.329 C 
BRANCH   7   8
ATOM      8  O   UNL A   1      33.045  22.837  25.554  1.00  0.00    -0.483 OA
BRANCH   8   9
ATOM      9  C   UNL A   1      32.487  21.984  24.637  1.00  0.00     0.127 A 
ATOM     10  C   UNL A   1      32.844  20.634  24.746  1.00  0.00     0.047 A 
ATOM     11  C   UNL A   1      31.850  22.495  23.482  1.00  0.00     0.017 A 
ATOM     12  C   UNL A   1      32.642  19.775  23.671  1.00  0.00     0.004 A 
ATOM     13  C   UNL A   1      31.782  21.633  22.382  1.00  0.00     0.012 A 
ATOM     14  C   UNL A   1      32.152  20.286  22.475  1.00  0.00     0.001 A 
BRANCH  11  15
ATOM     15  C   UNL A   1      31.336  23.891  23.417  1.00  0.00     0.026 C 
ATOM     16  C   UNL A   1      31.937  25.040  23.035  1.00  0.00     0.050 C 
ATOM     17  C   UNL A   1      33.368  25.285  22.589  1.00  0.00     0.256 C 
ATOM     18  C   UNL A   1      31.279  26.368  22.979  1.00  0.00     0.011 A 
ATOM     19  O   UNL A   1      34.267  24.499  22.377  1.00  0.00    -0.269 OA
ATOM     20  N   UNL A   1      33.476  26.657  22.428  1.00  0.00    -0.321 N 
ATOM     21  C   UNL A   1      32.263  27.295  22.629  1.00  0.00     0.049 A 
ATOM     22  C   UNL A   1      29.979  26.810  23.139  1.00  0.00     0.011 A 
ATOM     23  H   UNL A   1      34.313  27.123  22.198  1.00  0.00     0.170 HD
ATOM     24  C   UNL A   1      32.014  28.644  22.464  1.00  0.00     0.027 A 
ATOM     25  C   UNL A   1      29.691  28.173  22.974  1.00  0.00     0.001 A 
ATOM     26  C   UNL A   1      30.704  29.084  22.643  1.00  0.00     0.002 A 
ENDBRANCH  11  15
ENDBRANCH   8   9
ENDBRANCH   7   8
ENDBRANCH   5   7
ENDBRANCH   2   3
ENDBRANCH   1   2
BRANCH   1  27
ATOM     27  C   UNL A   1      31.500  28.910  26.261  1.00  0.00     0.023 C 
BRANCH  27  28
ATOM     28  C   UNL A   1      32.521  29.965  25.840  1.00  0.00     0.116 C 
BRANCH  28  29
ATOM     29  N   UNL A   1      32.225  31.300  26.341  1.00  0.00    -0.352 N 
ATOM     30  C   UNL A   1      32.913  32.083  27.242  1.00  0.00     0.251 C 
ATOM     31  H   UNL A   1      31.405  31.708  25.980  1.00  0.00     0.163 HD
ATOM     32  O   UNL A   1      32.424  33.142  27.624  1.00  0.00    -0.269 OA
BRANCH  30  33
ATOM     33  C   UNL A   1      34.222  31.641  27.779  1.00  0.00     0.039 A 
ATOM     34  C   UNL A   1      35.231  32.591  27.968  1.00  0.00     0.014 A 
ATOM     35  C   UNL A   1      34.459  30.303  28.100  1.00  0.00     0.014 A 
ATOM     36  C   UNL A   1      36.439  32.214  28.566  1.00  0.00     0.010 A 
ATOM     37  C   UNL A   1      35.630  29.945  28.766  1.00  0.00     0.010 A 
ATOM     38  C   UNL A   1      36.632  30.897  29.013  1.00  0.00    -0.014 A 
BRANCH  38  39
ATOM     39  C   UNL A   1      37.850  30.501  29.771  1.00  0.00     0.031 A 
ATOM     40  C   UNL A   1      38.826  29.513  29.189  1.00  0.00     0.074 A 
ATOM     41  C   UNL A   1      38.025  30.948  31.032  1.00  0.00     0.049 A 
ATOM     42  N   UNL A   1      39.898  28.996  29.731  1.00  0.00    -0.248 NA
ATOM     43  C   UNL A   1      38.547  29.021  27.830  1.00  0.00     0.031 C 
ATOM     44  C   UNL A   1      37.112  31.841  31.747  1.00  0.00     0.029 A 
ATOM     45  N   UNL A   1      39.016  30.689  31.947  1.00  0.00    -0.354 N 
ATOM     46  C   UNL A   1      40.394  28.088  28.804  1.00  0.00     0.074 A 
ATOM     47  C   UNL A   1      39.492  28.105  27.673  1.00  0.00     0.031 C 
ATOM     48  C   UNL A   1      37.586  32.059  32.985  1.00  0.00     0.029 A 
ATOM     49  C   UNL A   1      38.820  31.300  33.163  1.00  0.00     0.049 A 
ATOM     50  H   UNL A   1      39.795  30.118  31.750  1.00  0.00     0.167 HD
ATOM     51  C   UNL A   1      41.515  27.330  28.871  1.00  0.00     0.034 A 
ATOM     52  C   UNL A   1      39.547  31.255  34.297  1.00  0.00     0.034 A 
ATOM     53  C   UNL A   1      42.445  27.358  29.968  1.00  0.00     0.049 A 
ATOM     54  C   UNL A   1      40.818  30.449  34.325  1.00  0.00     0.074 A 
ATOM     55  C   UNL A   1      43.663  26.708  30.079  1.00  0.00     0.029 A 
ATOM     56  N   UNL A   1      42.263  28.067  31.144  1.00  0.00    -0.354 N 
ATOM     57  N   UNL A   1      41.360  29.733  33.370  1.00  0.00    -0.248 NA
ATOM     58  C   UNL A   1      41.595  30.472  35.573  1.00  0.00     0.031 C 
ATOM     59  C   UNL A   1      44.210  27.014  31.330  1.00  0.00     0.029 A 
ATOM     60  C   UNL A   1      43.339  27.865  31.991  1.00  0.00     0.049 A 
ATOM     61  H   UNL A   1      41.482  28.631  31.348  1.00  0.00     0.167 HD
ATOM     62  C   UNL A   1      42.557  29.252  33.888  1.00  0.00     0.074 A 
ATOM     63  C   UNL A   1      42.671  29.775  35.234  1.00  0.00     0.031 C 
ATOM     64  C   UNL A   1      43.472  28.438  33.305  1.00  0.00     0.034 A 
BRANCH  51  65
ATOM     65  C   UNL A   1      41.836  26.448  27.693  1.00  0.00     0.023 A 
ATOM     66  C   UNL A   1      42.528  26.989  26.590  1.00  0.00     0.012 A 
ATOM     67  C   UNL A   1      41.514  25.077  27.700  1.00  0.00     0.148 A 
ATOM     68  C   UNL A   1      42.863  26.190  25.499  1.00  0.00     0.002 A 
ATOM     69  C   UNL A   1      41.890  24.276  26.626  1.00  0.00     0.091 A 
ATOM     70  F   UNL A   1      40.839  24.583  28.747  1.00  0.00    -0.205 F 
ATOM     71  C   UNL A   1      42.553  24.833  25.521  1.00  0.00     0.022 A 
BRANCH  69  72
ATOM     72  S   UNL A   1      41.606  22.503  26.597  1.00  0.00     0.127 S 
ATOM     73  O   UNL A   1      40.146  22.439  26.547  1.00  0.00    -0.237 OA
ATOM     74  O   UNL A   1      42.276  22.101  25.359  1.00  0.00    -0.237 OA
ATOM     75  O   UNL A   1      42.216  21.980  27.812  1.00  0.00    -0.744 OA
ENDBRANCH  69  72
ENDBRANCH  51  65
BRANCH  52  76
ATOM     76  C   UNL A   1      39.135  32.065  35.480  1.00  0.00     0.023 A 
ATOM     77  C   UNL A   1      38.241  31.507  36.415  1.00  0.00     0.012 A 
ATOM     78  C   UNL A   1      39.639  33.361  35.700  1.00  0.00     0.148 A 
ATOM     79  C   UNL A   1      37.833  32.236  37.532  1.00  0.00     0.002 A 
ATOM     80  C   UNL A   1      39.269  34.062  36.844  1.00  0.00     0.091 A 
ATOM     81  F   UNL A   1      40.477  33.881  34.792  1.00  0.00    -0.205 F 
ATOM     82  C   UNL A   1      38.354  33.508  37.752  1.00  0.00     0.022 A 
BRANCH  80  83
ATOM     83  S   UNL A   1      39.990  35.650  37.272  1.00  0.00     0.127 S 
ATOM     84  O   UNL A   1      39.648  36.460  36.106  1.00  0.00    -0.237 OA
ATOM     85  O   UNL A   1      39.264  35.994  38.496  1.00  0.00    -0.237 OA
ATOM     86  O   UNL A   1      41.410  35.393  37.473  1.00  0.00    -0.744 OA
ENDBRANCH  80  83
ENDBRANCH  52  76
BRANCH  64  87
ATOM     87  C   UNL A   1      44.700  28.080  34.102  1.00  0.00     0.023 A 
ATOM     88  C   UNL A   1      45.833  28.916  34.054  1.00  0.00     0.012 A 
ATOM     89  C   UNL A   1      44.702  26.961  34.958  1.00  0.00     0.148 A 
ATOM     90  C   UNL A   1      46.958  28.629  34.824  1.00  0.00     0.002 A 
ATOM     91  C   UNL A   1      45.810  26.707  35.757  1.00  0.00     0.091 A 
ATOM     92  F   UNL A   1      43.622  26.165  34.974  1.00  0.00    -0.205 F 
ATOM     93  C   UNL A   1      46.943  27.533  35.684  1.00  0.00     0.022 A 
BRANCH  91  94
ATOM     94  S   UNL A   1      45.841  25.374  36.961  1.00  0.00     0.127 S 
ATOM     95  O   UNL A   1      44.694  25.705  37.803  1.00  0.00    -0.237 OA
ATOM     96  O   UNL A   1      45.660  24.189  36.122  1.00  0.00    -0.237 OA
ATOM     97  O   UNL A   1      47.142  25.455  37.613  1.00  0.00    -0.744 OA
ENDBRANCH  91  94
ENDBRANCH  64  87
ENDBRANCH  38  39
ENDBRANCH  30  33
ENDBRANCH  28  29
ENDBRANCH  27  28
ENDBRANCH   1  27
TORSDOF 17
ENDMDL
