MODEL 1
REMARK VINA RESULT:     -12.8      0.000      0.000
REMARK SMILES NC(=O)C[C@@H](C(=O)NCCCCNC(=O)c1ccc(-c2c3nc(c(-c4cccc(S(=O)(=O)[O-])c4F)c4ccc([nH]4)c(-c4cccc(S(=O)(=O)[O-])c4F)c4nc(c(-c5cccc(S(=O)(=O)[O-])c5F)c5ccc2[nH]5)C=C4)C=C3)cc1)N1C(=O)/C(=C/c2ccccc2)SC1=S
REMARK SMILES IDX 11 1 10 2 9 3 8 4 6 5 7 6 5 8 4 9 2 10 1 11 3 14 79 15 80 16
REMARK SMILES IDX 91 17 81 18 82 19 90 20 92 21 83 22 84 23 85 24 89 25 86 26
REMARK SMILES IDX 88 27 87 28 12 29 13 30 14 31 15 33 16 34 17 35 78 36 18 37
REMARK SMILES IDX 77 38 19 39 20 40 21 41 71 42 22 43 76 44 70 45 72 46 23 47
REMARK SMILES IDX 75 48 69 49 68 50 24 52 56 53 36 54 55 55 37 56 40 57 54 58
REMARK SMILES IDX 73 59 38 60 39 61 53 63 74 64 41 65 25 66 26 67 34 68 27 69
REMARK SMILES IDX 29 70 35 71 28 72 30 73 31 74 32 75 33 76 57 77 58 78 66 79
REMARK SMILES IDX 59 80 61 81 67 82 60 83 62 84 63 85 64 86 65 87 42 88 43 89
REMARK SMILES IDX 51 90 44 91 46 92 52 93 45 94 47 95 48 96 49 97 50 98
REMARK H PARENT 8 7 1 12 1 13 13 32 72 51 40 62
REMARK Flexibility Score: inf
ROOT
ATOM      1  C   UNL A   1      32.951  29.310  24.965  1.00  0.00     0.023 C 
ENDROOT
BRANCH   1   2
ATOM      2  C   UNL A   1      33.468  27.941  24.548  1.00  0.00     0.023 C 
BRANCH   2   3
ATOM      3  C   UNL A   1      33.723  26.955  25.697  1.00  0.00     0.116 C 
BRANCH   3   4
ATOM      4  N   UNL A   1      32.608  26.027  25.805  1.00  0.00    -0.354 N 
ATOM      5  C   UNL A   1      32.182  25.019  24.989  1.00  0.00     0.243 C 
ATOM      6  O   UNL A   1      31.074  24.532  25.240  1.00  0.00    -0.273 OA
ATOM      7  H   UNL A   1      32.061  26.148  26.614  1.00  0.00     0.163 HD
BRANCH   5   8
ATOM      8  C   UNL A   1      33.027  24.499  23.797  1.00  0.00     0.190 C 
BRANCH   8   9
ATOM      9  C   UNL A   1      32.291  24.667  22.472  1.00  0.00     0.135 C 
BRANCH   9  10
ATOM     10  C   UNL A   1      32.771  25.658  21.453  1.00  0.00     0.220 C 
ATOM     11  N   UNL A   1      31.954  25.762  20.360  1.00  0.00    -0.370 N 
ATOM     12  H   UNL A   1      32.181  26.387  19.633  1.00  0.00     0.159 HD
ATOM     13  H   UNL A   1      31.139  25.212  20.300  1.00  0.00     0.159 HD
ATOM     14  O   UNL A   1      33.818  26.276  21.542  1.00  0.00    -0.275 OA
ENDBRANCH   9  10
ENDBRANCH   8   9
BRANCH   8  15
ATOM     15  N   UNL A   1      33.321  23.033  24.116  1.00  0.00    -0.280 N 
ATOM     16  C   UNL A   1      32.508  22.078  23.495  1.00  0.00     0.266 C 
ATOM     17  C   UNL A   1      34.376  22.506  24.854  1.00  0.00     0.149 C 
ATOM     18  O   UNL A   1      31.534  22.315  22.793  1.00  0.00    -0.268 OA
ATOM     19  C   UNL A   1      32.956  20.689  23.825  1.00  0.00     0.081 C 
ATOM     20  S   UNL A   1      34.342  20.757  24.827  1.00  0.00    -0.054 SA
ATOM     21  S   UNL A   1      35.588  23.193  25.781  1.00  0.00    -0.052 S 
ATOM     22  C   UNL A   1      32.363  19.548  23.435  1.00  0.00     0.029 C 
BRANCH  22  23
ATOM     23  C   UNL A   1      32.790  18.233  23.952  1.00  0.00    -0.024 A 
ATOM     24  C   UNL A   1      33.709  17.434  23.263  1.00  0.00     0.008 A 
ATOM     25  C   UNL A   1      32.371  17.837  25.233  1.00  0.00     0.008 A 
ATOM     26  C   UNL A   1      34.215  16.272  23.858  1.00  0.00     0.001 A 
ATOM     27  C   UNL A   1      32.886  16.684  25.828  1.00  0.00     0.001 A 
ATOM     28  C   UNL A   1      33.812  15.903  25.142  1.00  0.00     0.000 A 
ENDBRANCH  22  23
ENDBRANCH   8  15
ENDBRANCH   5   8
ENDBRANCH   3   4
ENDBRANCH   2   3
ENDBRANCH   1   2
BRANCH   1  29
ATOM     29  C   UNL A   1      33.049  29.590  26.452  1.00  0.00     0.116 C 
BRANCH  29  30
ATOM     30  N   UNL A   1      32.903  31.003  26.786  1.00  0.00    -0.352 N 
ATOM     31  C   UNL A   1      33.724  31.803  27.553  1.00  0.00     0.251 C 
ATOM     32  H   UNL A   1      32.107  31.447  26.414  1.00  0.00     0.163 HD
ATOM     33  O   UNL A   1      33.387  32.941  27.843  1.00  0.00    -0.269 OA
BRANCH  31  34
ATOM     34  C   UNL A   1      35.005  31.248  28.045  1.00  0.00     0.039 A 
ATOM     35  C   UNL A   1      36.154  32.040  28.019  1.00  0.00     0.014 A 
ATOM     36  C   UNL A   1      35.047  29.964  28.590  1.00  0.00     0.014 A 
ATOM     37  C   UNL A   1      37.328  31.565  28.608  1.00  0.00     0.010 A 
ATOM     38  C   UNL A   1      36.168  29.555  29.294  1.00  0.00     0.010 A 
ATOM     39  C   UNL A   1      37.335  30.333  29.284  1.00  0.00    -0.014 A 
BRANCH  39  40
ATOM     40  C   UNL A   1      38.556  29.799  29.939  1.00  0.00     0.031 A 
ATOM     41  C   UNL A   1      38.950  30.322  31.300  1.00  0.00     0.074 A 
ATOM     42  C   UNL A   1      39.348  28.921  29.291  1.00  0.00     0.049 A 
ATOM     43  N   UNL A   1      40.029  30.080  31.997  1.00  0.00    -0.248 NA
ATOM     44  C   UNL A   1      38.030  31.280  31.942  1.00  0.00     0.031 C 
ATOM     45  C   UNL A   1      39.125  28.408  27.938  1.00  0.00     0.029 A 
ATOM     46  N   UNL A   1      40.523  28.325  29.678  1.00  0.00    -0.354 N 
ATOM     47  C   UNL A   1      39.933  30.880  33.130  1.00  0.00     0.074 A 
ATOM     48  C   UNL A   1      38.729  31.666  32.998  1.00  0.00     0.031 C 
ATOM     49  C   UNL A   1      40.121  27.569  27.612  1.00  0.00     0.029 A 
ATOM     50  C   UNL A   1      41.073  27.509  28.715  1.00  0.00     0.049 A 
ATOM     51  H   UNL A   1      40.933  28.467  30.561  1.00  0.00     0.167 HD
ATOM     52  C   UNL A   1      40.745  30.923  34.213  1.00  0.00     0.034 A 
ATOM     53  C   UNL A   1      42.220  26.801  28.724  1.00  0.00     0.034 A 
ATOM     54  C   UNL A   1      41.906  30.094  34.369  1.00  0.00     0.049 A 
ATOM     55  C   UNL A   1      43.077  26.826  29.963  1.00  0.00     0.074 A 
ATOM     56  C   UNL A   1      42.764  30.010  35.450  1.00  0.00     0.029 A 
ATOM     57  N   UNL A   1      42.364  29.195  33.420  1.00  0.00    -0.354 N 
ATOM     58  N   UNL A   1      42.900  27.495  31.077  1.00  0.00    -0.248 NA
ATOM     59  C   UNL A   1      44.268  25.964  29.966  1.00  0.00     0.031 C 
ATOM     60  C   UNL A   1      43.750  29.066  35.149  1.00  0.00     0.029 A 
ATOM     61  C   UNL A   1      43.483  28.539  33.895  1.00  0.00     0.049 A 
ATOM     62  H   UNL A   1      41.952  29.045  32.538  1.00  0.00     0.167 HD
ATOM     63  C   UNL A   1      43.923  27.097  31.929  1.00  0.00     0.074 A 
ATOM     64  C   UNL A   1      44.707  26.114  31.208  1.00  0.00     0.031 C 
ATOM     65  C   UNL A   1      44.201  27.512  33.189  1.00  0.00     0.034 A 
BRANCH  52  66
ATOM     66  C   UNL A   1      40.357  31.838  35.345  1.00  0.00     0.023 A 
ATOM     67  C   UNL A   1      40.993  33.090  35.472  1.00  0.00     0.012 A 
ATOM     68  C   UNL A   1      39.330  31.490  36.243  1.00  0.00     0.148 A 
ATOM     69  C   UNL A   1      40.638  33.969  36.495  1.00  0.00     0.002 A 
ATOM     70  C   UNL A   1      38.947  32.392  37.229  1.00  0.00     0.091 A 
ATOM     71  F   UNL A   1      38.751  30.288  36.118  1.00  0.00    -0.205 F 
ATOM     72  C   UNL A   1      39.609  33.624  37.365  1.00  0.00     0.022 A 
BRANCH  70  73
ATOM     73  S   UNL A   1      37.578  32.086  38.351  1.00  0.00     0.127 S 
ATOM     74  O   UNL A   1      37.258  30.691  38.054  1.00  0.00    -0.237 OA
ATOM     75  O   UNL A   1      38.200  32.305  39.657  1.00  0.00    -0.237 OA
ATOM     76  O   UNL A   1      36.543  33.047  37.997  1.00  0.00    -0.744 OA
ENDBRANCH  70  73
ENDBRANCH  52  66
BRANCH  53  77
ATOM     77  C   UNL A   1      42.606  25.965  27.550  1.00  0.00     0.023 A 
ATOM     78  C   UNL A   1      43.389  26.526  26.520  1.00  0.00     0.012 A 
ATOM     79  C   UNL A   1      42.190  24.625  27.437  1.00  0.00     0.148 A 
ATOM     80  C   UNL A   1      43.699  25.788  25.377  1.00  0.00     0.002 A 
ATOM     81  C   UNL A   1      42.554  23.876  26.325  1.00  0.00     0.091 A 
ATOM     82  F   UNL A   1      41.440  24.108  28.421  1.00  0.00    -0.205 F 
ATOM     83  C   UNL A   1      43.289  24.461  25.282  1.00  0.00     0.022 A 
BRANCH  81  84
ATOM     84  S   UNL A   1      42.180  22.124  26.185  1.00  0.00     0.127 S 
ATOM     85  O   UNL A   1      42.644  21.615  27.473  1.00  0.00    -0.237 OA
ATOM     86  O   UNL A   1      40.727  22.137  26.014  1.00  0.00    -0.237 OA
ATOM     87  O   UNL A   1      42.914  21.662  25.015  1.00  0.00    -0.744 OA
ENDBRANCH  81  84
ENDBRANCH  53  77
BRANCH  65  88
ATOM     88  C   UNL A   1      45.349  26.853  33.905  1.00  0.00     0.023 A 
ATOM     89  C   UNL A   1      46.646  27.396  33.816  1.00  0.00     0.012 A 
ATOM     90  C   UNL A   1      45.119  25.734  34.729  1.00  0.00     0.148 A 
ATOM     91  C   UNL A   1      47.705  26.807  34.506  1.00  0.00     0.002 A 
ATOM     92  C   UNL A   1      46.167  25.188  35.456  1.00  0.00     0.091 A 
ATOM     93  F   UNL A   1      43.880  25.225  34.785  1.00  0.00    -0.205 F 
ATOM     94  C   UNL A   1      47.464  25.713  35.334  1.00  0.00     0.022 A 
BRANCH  92  95
ATOM     95  S   UNL A   1      45.927  23.847  36.626  1.00  0.00     0.127 S 
ATOM     96  O   UNL A   1      45.371  22.801  35.769  1.00  0.00    -0.237 OA
ATOM     97  O   UNL A   1      47.292  23.593  37.090  1.00  0.00    -0.237 OA
ATOM     98  O   UNL A   1      45.027  24.362  37.649  1.00  0.00    -0.744 OA
ENDBRANCH  92  95
ENDBRANCH  65  88
ENDBRANCH  39  40
ENDBRANCH  31  34
ENDBRANCH  29  30
ENDBRANCH   1  29
TORSDOF 18
ENDMDL
MODEL 2
REMARK VINA RESULT:     -12.3      1.270      7.527
REMARK SMILES NC(=O)C[C@@H](C(=O)NCCCCNC(=O)c1ccc(-c2c3nc(c(-c4cccc(S(=O)(=O)[O-])c4F)c4ccc([nH]4)c(-c4cccc(S(=O)(=O)[O-])c4F)c4nc(c(-c5cccc(S(=O)(=O)[O-])c5F)c5ccc2[nH]5)C=C4)C=C3)cc1)N1C(=O)/C(=C/c2ccccc2)SC1=S
REMARK SMILES IDX 11 1 10 2 9 3 8 4 6 5 7 6 5 8 4 9 2 10 1 11 3 14 79 15 80 16
REMARK SMILES IDX 91 17 81 18 82 19 90 20 92 21 83 22 84 23 85 24 89 25 86 26
REMARK SMILES IDX 88 27 87 28 12 29 13 30 14 31 15 33 16 34 17 35 78 36 18 37
REMARK SMILES IDX 77 38 19 39 20 40 21 41 71 42 22 43 76 44 70 45 72 46 23 47
REMARK SMILES IDX 75 48 69 49 68 50 24 52 56 53 36 54 55 55 37 56 40 57 54 58
REMARK SMILES IDX 73 59 38 60 39 61 53 63 74 64 41 65 25 66 26 67 34 68 27 69
REMARK SMILES IDX 29 70 35 71 28 72 30 73 31 74 32 75 33 76 57 77 58 78 66 79
REMARK SMILES IDX 59 80 61 81 67 82 60 83 62 84 63 85 64 86 65 87 42 88 43 89
REMARK SMILES IDX 51 90 44 91 46 92 52 93 45 94 47 95 48 96 49 97 50 98
REMARK H PARENT 8 7 1 12 1 13 13 32 72 51 40 62
REMARK Flexibility Score: inf
ROOT
ATOM      1  C   UNL A   1      32.703  27.977  24.735  1.00  0.00     0.023 C 
ENDROOT
BRANCH   1   2
ATOM      2  C   UNL A   1      31.279  27.915  25.267  1.00  0.00     0.023 C 
BRANCH   2   3
ATOM      3  C   UNL A   1      30.380  26.852  24.619  1.00  0.00     0.116 C 
BRANCH   3   4
ATOM      4  N   UNL A   1      30.337  25.665  25.461  1.00  0.00    -0.354 N 
ATOM      5  C   UNL A   1      31.023  24.487  25.405  1.00  0.00     0.243 C 
ATOM      6  O   UNL A   1      30.623  23.576  26.138  1.00  0.00    -0.273 OA
ATOM      7  H   UNL A   1      29.696  25.723  26.204  1.00  0.00     0.163 HD
BRANCH   5   8
ATOM      8  C   UNL A   1      32.243  24.276  24.471  1.00  0.00     0.190 C 
BRANCH   8   9
ATOM      9  C   UNL A   1      31.883  24.528  23.011  1.00  0.00     0.135 C 
BRANCH   9  10
ATOM     10  C   UNL A   1      32.926  24.987  22.036  1.00  0.00     0.220 C 
ATOM     11  N   UNL A   1      32.528  24.914  20.728  1.00  0.00    -0.370 N 
ATOM     12  H   UNL A   1      33.141  25.193  20.010  1.00  0.00     0.159 HD
ATOM     13  H   UNL A   1      31.628  24.582  20.506  1.00  0.00     0.159 HD
ATOM     14  O   UNL A   1      34.050  25.337  22.353  1.00  0.00    -0.275 OA
ENDBRANCH   9  10
ENDBRANCH   8   9
BRANCH   8  15
ATOM     15  N   UNL A   1      32.699  22.838  24.717  1.00  0.00    -0.280 N 
ATOM     16  C   UNL A   1      32.177  21.857  23.866  1.00  0.00     0.266 C 
ATOM     17  C   UNL A   1      33.668  22.380  25.605  1.00  0.00     0.149 C 
ATOM     18  O   UNL A   1      31.325  22.037  23.005  1.00  0.00    -0.268 OA
ATOM     19  C   UNL A   1      32.768  20.515  24.160  1.00  0.00     0.081 C 
ATOM     20  S   UNL A   1      33.914  20.657  25.423  1.00  0.00    -0.054 SA
ATOM     21  S   UNL A   1      34.562  23.116  26.812  1.00  0.00    -0.052 S 
ATOM     22  C   UNL A   1      32.444  19.355  23.563  1.00  0.00     0.029 C 
BRANCH  22  23
ATOM     23  C   UNL A   1      32.968  18.060  24.042  1.00  0.00    -0.024 A 
ATOM     24  C   UNL A   1      34.119  17.484  23.493  1.00  0.00     0.008 A 
ATOM     25  C   UNL A   1      32.379  17.462  25.167  1.00  0.00     0.008 A 
ATOM     26  C   UNL A   1      34.681  16.342  24.077  1.00  0.00     0.001 A 
ATOM     27  C   UNL A   1      32.948  16.330  25.755  1.00  0.00     0.001 A 
ATOM     28  C   UNL A   1      34.101  15.773  25.212  1.00  0.00     0.000 A 
ENDBRANCH  22  23
ENDBRANCH   8  15
ENDBRANCH   5   8
ENDBRANCH   3   4
ENDBRANCH   2   3
ENDBRANCH   1   2
BRANCH   1  29
ATOM     29  C   UNL A   1      33.318  29.363  24.750  1.00  0.00     0.116 C 
BRANCH  29  30
ATOM     30  N   UNL A   1      32.508  30.349  25.458  1.00  0.00    -0.352 N 
ATOM     31  C   UNL A   1      32.769  30.991  26.650  1.00  0.00     0.251 C 
ATOM     32  H   UNL A   1      31.657  30.588  25.025  1.00  0.00     0.163 HD
ATOM     33  O   UNL A   1      31.921  31.698  27.173  1.00  0.00    -0.269 OA
BRANCH  31  34
ATOM     34  C   UNL A   1      34.082  30.784  27.302  1.00  0.00     0.039 A 
ATOM     35  C   UNL A   1      34.871  31.887  27.630  1.00  0.00     0.014 A 
ATOM     36  C   UNL A   1      34.496  29.495  27.642  1.00  0.00     0.014 A 
ATOM     37  C   UNL A   1      36.043  31.698  28.366  1.00  0.00     0.010 A 
ATOM     38  C   UNL A   1      35.581  29.325  28.488  1.00  0.00     0.010 A 
ATOM     39  C   UNL A   1      36.388  30.419  28.834  1.00  0.00    -0.014 A 
BRANCH  39  40
ATOM     40  C   UNL A   1      37.616  30.176  29.634  1.00  0.00     0.031 A 
ATOM     41  C   UNL A   1      38.686  29.265  29.082  1.00  0.00     0.074 A 
ATOM     42  C   UNL A   1      37.735  30.694  30.873  1.00  0.00     0.049 A 
ATOM     43  N   UNL A   1      39.775  28.828  29.656  1.00  0.00    -0.248 NA
ATOM     44  C   UNL A   1      38.481  28.739  27.719  1.00  0.00     0.031 C 
ATOM     45  C   UNL A   1      36.732  31.515  31.555  1.00  0.00     0.029 A 
ATOM     46  N   UNL A   1      38.747  30.581  31.794  1.00  0.00    -0.354 N 
ATOM     47  C   UNL A   1      40.358  27.954  28.745  1.00  0.00     0.074 A 
ATOM     48  C   UNL A   1      39.470  27.866  27.609  1.00  0.00     0.031 C 
ATOM     49  C   UNL A   1      37.182  31.839  32.778  1.00  0.00     0.029 A 
ATOM     50  C   UNL A   1      38.487  31.222  32.984  1.00  0.00     0.049 A 
ATOM     51  H   UNL A   1      39.580  30.087  31.620  1.00  0.00     0.167 HD
ATOM     52  C   UNL A   1      41.550  27.318  28.818  1.00  0.00     0.034 A 
ATOM     53  C   UNL A   1      39.219  31.294  34.115  1.00  0.00     0.034 A 
ATOM     54  C   UNL A   1      42.459  27.458  29.920  1.00  0.00     0.049 A 
ATOM     55  C   UNL A   1      40.567  30.621  34.148  1.00  0.00     0.074 A 
ATOM     56  C   UNL A   1      43.720  26.911  30.070  1.00  0.00     0.029 A 
ATOM     57  N   UNL A   1      42.210  28.212  31.055  1.00  0.00    -0.354 N 
ATOM     58  N   UNL A   1      41.154  29.901  33.222  1.00  0.00    -0.248 NA
ATOM     59  C   UNL A   1      41.373  30.807  35.363  1.00  0.00     0.031 C 
ATOM     60  C   UNL A   1      44.229  27.324  31.305  1.00  0.00     0.029 A 
ATOM     61  C   UNL A   1      43.298  28.157  31.905  1.00  0.00     0.049 A 
ATOM     62  H   UNL A   1      41.379  28.712  31.230  1.00  0.00     0.167 HD
ATOM     63  C   UNL A   1      42.415  29.593  33.721  1.00  0.00     0.074 A 
ATOM     64  C   UNL A   1      42.512  30.220  35.023  1.00  0.00     0.031 C 
ATOM     65  C   UNL A   1      43.400  28.850  33.162  1.00  0.00     0.034 A 
BRANCH  52  66
ATOM     66  C   UNL A   1      41.974  26.482  27.639  1.00  0.00     0.023 A 
ATOM     67  C   UNL A   1      42.680  27.087  26.578  1.00  0.00     0.012 A 
ATOM     68  C   UNL A   1      41.729  25.095  27.604  1.00  0.00     0.148 A 
ATOM     69  C   UNL A   1      43.106  26.334  25.485  1.00  0.00     0.002 A 
ATOM     70  C   UNL A   1      42.202  24.342  26.535  1.00  0.00     0.091 A 
ATOM     71  F   UNL A   1      41.040  24.542  28.611  1.00  0.00    -0.205 F 
ATOM     72  C   UNL A   1      42.877  24.962  25.470  1.00  0.00     0.022 A 
BRANCH  70  73
ATOM     73  S   UNL A   1      42.036  22.556  26.453  1.00  0.00     0.127 S 
ATOM     74  O   UNL A   1      40.587  22.389  26.554  1.00  0.00    -0.237 OA
ATOM     75  O   UNL A   1      42.593  22.259  25.133  1.00  0.00    -0.237 OA
ATOM     76  O   UNL A   1      42.800  22.027  27.574  1.00  0.00    -0.744 OA
ENDBRANCH  70  73
ENDBRANCH  52  66
BRANCH  53  77
ATOM     77  C   UNL A   1      38.729  32.073  35.289  1.00  0.00     0.023 A 
ATOM     78  C   UNL A   1      38.793  33.481  35.269  1.00  0.00     0.012 A 
ATOM     79  C   UNL A   1      38.215  31.429  36.431  1.00  0.00     0.148 A 
ATOM     80  C   UNL A   1      38.411  34.228  36.385  1.00  0.00     0.002 A 
ATOM     81  C   UNL A   1      37.779  32.181  37.515  1.00  0.00     0.091 A 
ATOM     82  F   UNL A   1      38.167  30.089  36.437  1.00  0.00    -0.205 F 
ATOM     83  C   UNL A   1      37.896  33.579  37.504  1.00  0.00     0.022 A 
BRANCH  81  84
ATOM     84  S   UNL A   1      36.983  31.434  38.941  1.00  0.00     0.127 S 
ATOM     85  O   UNL A   1      35.758  32.224  39.048  1.00  0.00    -0.237 OA
ATOM     86  O   UNL A   1      36.789  30.055  38.493  1.00  0.00    -0.237 OA
ATOM     87  O   UNL A   1      37.932  31.578  40.037  1.00  0.00    -0.744 OA
ENDBRANCH  81  84
ENDBRANCH  53  77
BRANCH  65  88
ATOM     88  C   UNL A   1      44.701  28.735  33.910  1.00  0.00     0.023 A 
ATOM     89  C   UNL A   1      45.726  29.678  33.699  1.00  0.00     0.012 A 
ATOM     90  C   UNL A   1      44.871  27.729  34.880  1.00  0.00     0.148 A 
ATOM     91  C   UNL A   1      46.919  29.593  34.415  1.00  0.00     0.002 A 
ATOM     92  C   UNL A   1      46.038  27.686  35.629  1.00  0.00     0.091 A 
ATOM     93  F   UNL A   1      43.888  26.833  35.053  1.00  0.00    -0.205 F 
ATOM     94  C   UNL A   1      47.070  28.607  35.388  1.00  0.00     0.022 A 
BRANCH  92  95
ATOM     95  S   UNL A   1      46.275  26.517  36.972  1.00  0.00     0.127 S 
ATOM     96  O   UNL A   1      45.076  26.744  37.779  1.00  0.00    -0.237 OA
ATOM     97  O   UNL A   1      46.301  25.235  36.266  1.00  0.00    -0.237 OA
ATOM     98  O   UNL A   1      47.534  26.884  37.607  1.00  0.00    -0.744 OA
ENDBRANCH  92  95
ENDBRANCH  65  88
ENDBRANCH  39  40
ENDBRANCH  31  34
ENDBRANCH  29  30
ENDBRANCH   1  29
TORSDOF 18
ENDMDL
MODEL 3
REMARK VINA RESULT:     -12.1      2.898      4.944
REMARK SMILES NC(=O)C[C@@H](C(=O)NCCCCNC(=O)c1ccc(-c2c3nc(c(-c4cccc(S(=O)(=O)[O-])c4F)c4ccc([nH]4)c(-c4cccc(S(=O)(=O)[O-])c4F)c4nc(c(-c5cccc(S(=O)(=O)[O-])c5F)c5ccc2[nH]5)C=C4)C=C3)cc1)N1C(=O)/C(=C/c2ccccc2)SC1=S
REMARK SMILES IDX 11 1 10 2 9 3 8 4 6 5 7 6 5 8 4 9 2 10 1 11 3 14 79 15 80 16
REMARK SMILES IDX 91 17 81 18 82 19 90 20 92 21 83 22 84 23 85 24 89 25 86 26
REMARK SMILES IDX 88 27 87 28 12 29 13 30 14 31 15 33 16 34 17 35 78 36 18 37
REMARK SMILES IDX 77 38 19 39 20 40 21 41 71 42 22 43 76 44 70 45 72 46 23 47
REMARK SMILES IDX 75 48 69 49 68 50 24 52 56 53 36 54 55 55 37 56 40 57 54 58
REMARK SMILES IDX 73 59 38 60 39 61 53 63 74 64 41 65 25 66 26 67 34 68 27 69
REMARK SMILES IDX 29 70 35 71 28 72 30 73 31 74 32 75 33 76 57 77 58 78 66 79
REMARK SMILES IDX 59 80 61 81 67 82 60 83 62 84 63 85 64 86 65 87 42 88 43 89
REMARK SMILES IDX 51 90 44 91 46 92 52 93 45 94 47 95 48 96 49 97 50 98
REMARK H PARENT 8 7 1 12 1 13 13 32 72 51 40 62
REMARK Flexibility Score: inf
ROOT
ATOM      1  C   UNL A   1      33.876  27.994  26.689  1.00  0.00     0.023 C 
ENDROOT
BRANCH   1   2
ATOM      2  C   UNL A   1      33.531  27.061  25.537  1.00  0.00     0.023 C 
BRANCH   2   3
ATOM      3  C   UNL A   1      33.995  25.608  25.705  1.00  0.00     0.116 C 
BRANCH   3   4
ATOM      4  N   UNL A   1      34.517  25.110  24.441  1.00  0.00    -0.354 N 
ATOM      5  C   UNL A   1      34.055  24.157  23.579  1.00  0.00     0.243 C 
ATOM      6  O   UNL A   1      34.825  23.800  22.681  1.00  0.00    -0.273 OA
ATOM      7  H   UNL A   1      35.357  25.537  24.156  1.00  0.00     0.163 HD
BRANCH   5   8
ATOM      8  C   UNL A   1      32.640  23.536  23.706  1.00  0.00     0.190 C 
BRANCH   8   9
ATOM      9  C   UNL A   1      32.269  22.725  22.469  1.00  0.00     0.135 C 
BRANCH   9  10
ATOM     10  C   UNL A   1      32.072  21.240  22.561  1.00  0.00     0.220 C 
ATOM     11  N   UNL A   1      31.633  20.671  21.396  1.00  0.00    -0.370 N 
ATOM     12  H   UNL A   1      31.473  19.700  21.352  1.00  0.00     0.159 HD
ATOM     13  H   UNL A   1      31.477  21.232  20.602  1.00  0.00     0.159 HD
ATOM     14  O   UNL A   1      32.223  20.593  23.583  1.00  0.00    -0.275 OA
ENDBRANCH   9  10
ENDBRANCH   8   9
BRANCH   8  15
ATOM     15  N   UNL A   1      31.696  24.717  23.929  1.00  0.00    -0.280 N 
ATOM     16  C   UNL A   1      31.636  25.676  22.912  1.00  0.00     0.266 C 
ATOM     17  C   UNL A   1      30.787  24.912  24.965  1.00  0.00     0.149 C 
ATOM     18  O   UNL A   1      32.332  25.697  21.906  1.00  0.00    -0.268 OA
ATOM     19  C   UNL A   1      30.616  26.727  23.218  1.00  0.00     0.081 C 
ATOM     20  S   UNL A   1      29.848  26.365  24.704  1.00  0.00    -0.054 SA
ATOM     21  S   UNL A   1      30.473  24.092  26.389  1.00  0.00    -0.052 S 
ATOM     22  C   UNL A   1      30.347  27.815  22.477  1.00  0.00     0.029 C 
BRANCH  22  23
ATOM     23  C   UNL A   1      29.437  28.877  22.953  1.00  0.00    -0.024 A 
ATOM     24  C   UNL A   1      29.921  30.063  23.517  1.00  0.00     0.008 A 
ATOM     25  C   UNL A   1      28.061  28.753  22.706  1.00  0.00     0.008 A 
ATOM     26  C   UNL A   1      29.042  31.113  23.805  1.00  0.00     0.001 A 
ATOM     27  C   UNL A   1      27.188  29.807  22.985  1.00  0.00     0.001 A 
ATOM     28  C   UNL A   1      27.679  30.989  23.531  1.00  0.00     0.000 A 
ENDBRANCH  22  23
ENDBRANCH   8  15
ENDBRANCH   5   8
ENDBRANCH   3   4
ENDBRANCH   2   3
ENDBRANCH   1   2
BRANCH   1  29
ATOM     29  C   UNL A   1      34.616  29.251  26.277  1.00  0.00     0.116 C 
BRANCH  29  30
ATOM     30  N   UNL A   1      34.130  30.454  26.945  1.00  0.00    -0.352 N 
ATOM     31  C   UNL A   1      34.644  31.101  28.050  1.00  0.00     0.251 C 
ATOM     32  H   UNL A   1      33.324  30.861  26.554  1.00  0.00     0.163 HD
ATOM     33  O   UNL A   1      34.038  32.030  28.563  1.00  0.00    -0.269 OA
BRANCH  31  34
ATOM     34  C   UNL A   1      35.925  30.629  28.623  1.00  0.00     0.039 A 
ATOM     35  C   UNL A   1      35.914  29.688  29.652  1.00  0.00     0.014 A 
ATOM     36  C   UNL A   1      37.135  31.078  28.090  1.00  0.00     0.014 A 
ATOM     37  C   UNL A   1      37.122  29.144  30.097  1.00  0.00     0.010 A 
ATOM     38  C   UNL A   1      38.314  30.437  28.435  1.00  0.00     0.010 A 
ATOM     39  C   UNL A   1      38.329  29.486  29.466  1.00  0.00    -0.014 A 
BRANCH  39  40
ATOM     40  C   UNL A   1      39.633  28.918  29.895  1.00  0.00     0.031 A 
ATOM     41  C   UNL A   1      40.416  29.613  30.983  1.00  0.00     0.074 A 
ATOM     42  C   UNL A   1      40.150  27.846  29.263  1.00  0.00     0.049 A 
ATOM     43  N   UNL A   1      41.617  29.357  31.428  1.00  0.00    -0.248 NA
ATOM     44  C   UNL A   1      39.781  30.779  31.625  1.00  0.00     0.031 C 
ATOM     45  C   UNL A   1      39.534  27.139  28.137  1.00  0.00     0.029 A 
ATOM     46  N   UNL A   1      41.333  27.177  29.461  1.00  0.00    -0.354 N 
ATOM     47  C   UNL A   1      41.892  30.346  32.366  1.00  0.00     0.074 A 
ATOM     48  C   UNL A   1      40.764  31.248  32.378  1.00  0.00     0.031 C 
ATOM     49  C   UNL A   1      40.336  26.133  27.753  1.00  0.00     0.029 A 
ATOM     50  C   UNL A   1      41.539  26.142  28.577  1.00  0.00     0.049 A 
ATOM     51  H   UNL A   1      41.974  27.416  30.169  1.00  0.00     0.167 HD
ATOM     52  C   UNL A   1      42.963  30.470  33.184  1.00  0.00     0.034 A 
ATOM     53  C   UNL A   1      42.586  25.302  28.446  1.00  0.00     0.034 A 
ATOM     54  C   UNL A   1      44.052  29.537  33.214  1.00  0.00     0.049 A 
ATOM     55  C   UNL A   1      43.740  25.430  29.406  1.00  0.00     0.074 A 
ATOM     56  C   UNL A   1      45.157  29.530  34.046  1.00  0.00     0.029 A 
ATOM     57  N   UNL A   1      44.167  28.434  32.383  1.00  0.00    -0.354 N 
ATOM     58  N   UNL A   1      43.920  26.299  30.371  1.00  0.00    -0.248 NA
ATOM     59  C   UNL A   1      44.815  24.433  29.291  1.00  0.00     0.031 C 
ATOM     60  C   UNL A   1      45.948  28.427  33.708  1.00  0.00     0.029 A 
ATOM     61  C   UNL A   1      45.315  27.731  32.691  1.00  0.00     0.049 A 
ATOM     62  H   UNL A   1      43.524  28.189  31.677  1.00  0.00     0.167 HD
ATOM     63  C   UNL A   1      45.098  25.924  31.008  1.00  0.00     0.074 A 
ATOM     64  C   UNL A   1      45.579  24.738  30.330  1.00  0.00     0.031 C 
ATOM     65  C   UNL A   1      45.734  26.511  32.051  1.00  0.00     0.034 A 
BRANCH  52  66
ATOM     66  C   UNL A   1      42.966  31.610  34.169  1.00  0.00     0.023 A 
ATOM     67  C   UNL A   1      43.531  32.847  33.794  1.00  0.00     0.012 A 
ATOM     68  C   UNL A   1      42.362  31.481  35.434  1.00  0.00     0.148 A 
ATOM     69  C   UNL A   1      43.526  33.928  34.675  1.00  0.00     0.002 A 
ATOM     70  C   UNL A   1      42.316  32.578  36.287  1.00  0.00     0.091 A 
ATOM     71  F   UNL A   1      41.848  30.292  35.779  1.00  0.00    -0.205 F 
ATOM     72  C   UNL A   1      42.910  33.796  35.915  1.00  0.00     0.022 A 
BRANCH  70  73
ATOM     73  S   UNL A   1      41.475  32.544  37.873  1.00  0.00     0.127 S 
ATOM     74  O   UNL A   1      42.275  31.568  38.612  1.00  0.00    -0.237 OA
ATOM     75  O   UNL A   1      41.626  33.926  38.328  1.00  0.00    -0.237 OA
ATOM     76  O   UNL A   1      40.105  32.138  37.595  1.00  0.00    -0.744 OA
ENDBRANCH  70  73
ENDBRANCH  52  66
BRANCH  53  77
ATOM     77  C   UNL A   1      42.576  24.233  27.407  1.00  0.00     0.023 A 
ATOM     78  C   UNL A   1      43.156  24.479  26.146  1.00  0.00     0.012 A 
ATOM     79  C   UNL A   1      41.983  22.980  27.651  1.00  0.00     0.148 A 
ATOM     80  C   UNL A   1      43.094  23.522  25.132  1.00  0.00     0.002 A 
ATOM     81  C   UNL A   1      41.978  22.007  26.658  1.00  0.00     0.091 A 
ATOM     82  F   UNL A   1      41.429  22.762  28.853  1.00  0.00    -0.205 F 
ATOM     83  C   UNL A   1      42.512  22.283  25.390  1.00  0.00     0.022 A 
BRANCH  81  84
ATOM     84  S   UNL A   1      41.368  20.343  26.949  1.00  0.00     0.127 S 
ATOM     85  O   UNL A   1      40.337  20.218  25.921  1.00  0.00    -0.237 OA
ATOM     86  O   UNL A   1      42.567  19.536  26.721  1.00  0.00    -0.237 OA
ATOM     87  O   UNL A   1      40.897  20.337  28.327  1.00  0.00    -0.744 OA
ENDBRANCH  81  84
ENDBRANCH  53  77
BRANCH  65  88
ATOM     88  C   UNL A   1      46.973  25.843  32.581  1.00  0.00     0.023 A 
ATOM     89  C   UNL A   1      46.892  24.966  33.680  1.00  0.00     0.012 A 
ATOM     90  C   UNL A   1      48.210  26.032  31.934  1.00  0.00     0.148 A 
ATOM     91  C   UNL A   1      48.033  24.320  34.152  1.00  0.00     0.002 A 
ATOM     92  C   UNL A   1      49.329  25.342  32.374  1.00  0.00     0.091 A 
ATOM     93  F   UNL A   1      48.267  26.884  30.899  1.00  0.00    -0.205 F 
ATOM     94  C   UNL A   1      49.247  24.497  33.493  1.00  0.00     0.022 A 
BRANCH  92  95
ATOM     95  S   UNL A   1      50.908  25.429  31.522  1.00  0.00     0.127 S 
ATOM     96  O   UNL A   1      51.716  24.487  32.296  1.00  0.00    -0.237 OA
ATOM     97  O   UNL A   1      50.559  24.970  30.177  1.00  0.00    -0.237 OA
ATOM     98  O   UNL A   1      51.329  26.821  31.596  1.00  0.00    -0.744 OA
ENDBRANCH  92  95
ENDBRANCH  65  88
ENDBRANCH  39  40
ENDBRANCH  31  34
ENDBRANCH  29  30
ENDBRANCH   1  29
TORSDOF 18
ENDMDL
