MODEL 1
REMARK VINA RESULT:     -11.1      0.000      0.000
REMARK SMILES COc1ccc([C@@H]2C(C#N)=C(N)N3C(=O)[C@H](CC(=O)NCCCCNC(=O)c4ccc(-c5c6nc(c(-c7cccc(S(=O)(=O)[O-])c7F)c7ccc([nH]7)c(-c7cccc(S(=O)(=O)[O-])c7F)c7nc(c(-c8cccc(S(=O)(=O)[O-])c8F)c8ccc5[nH]8)C=C7)C=C6)cc4)SC3=C2C#N)cc1
REMARK SMILES IDX 22 1 21 2 20 3 18 4 19 5 17 7 16 8 7 9 8 10 93 11 11 12
REMARK SMILES IDX 92 13 13 14 91 15 14 16 15 17 6 18 3 19 4 20 97 21 5 22
REMARK SMILES IDX 96 23 2 24 1 25 9 26 10 27 94 28 95 29 12 30 23 33 24 34
REMARK SMILES IDX 25 35 26 36 27 38 28 39 29 40 90 41 30 42 89 43 31 44 32 45
REMARK SMILES IDX 33 46 83 47 34 48 88 49 82 50 84 51 35 52 87 53 81 54 80 55
REMARK SMILES IDX 36 57 68 58 48 59 67 60 49 61 52 62 66 63 85 64 50 65 51 66
REMARK SMILES IDX 65 68 86 69 53 70 37 71 38 72 46 73 39 74 41 75 47 76 40 77
REMARK SMILES IDX 42 78 43 79 44 80 45 81 69 82 70 83 78 84 71 85 73 86 79 87
REMARK SMILES IDX 72 88 74 89 75 90 76 91 77 92 54 93 55 94 63 95 56 96 58 97
REMARK SMILES IDX 64 98 57 99 59 100 60 101 61 102 62 103
REMARK H PARENT 20 6 12 31 12 32 25 37 84 56 52 67
REMARK Flexibility Score: inf
ROOT
ATOM      1  C   UNL A   1      38.759  21.920  25.783  1.00  0.00     0.023 C 
ENDROOT
BRANCH   1   2
ATOM      2  C   UNL A   1      37.416  22.513  25.357  1.00  0.00     0.116 C 
BRANCH   2   3
ATOM      3  N   UNL A   1      36.386  22.199  26.326  1.00  0.00    -0.356 N 
ATOM      4  C   UNL A   1      35.274  21.426  26.185  1.00  0.00     0.221 C 
ATOM      5  O   UNL A   1      34.422  21.438  27.073  1.00  0.00    -0.275 OA
ATOM      6  H   UNL A   1      36.507  22.603  27.214  1.00  0.00     0.163 HD
BRANCH   4   7
ATOM      7  C   UNL A   1      35.108  20.533  24.970  1.00  0.00     0.125 C 
BRANCH   7   8
ATOM      8  C   UNL A   1      34.062  21.079  24.007  1.00  0.00     0.152 C 
ATOM      9  C   UNL A   1      31.268  25.092  24.123  1.00  0.00     0.107 C 
ATOM     10  C   UNL A   1      30.900  24.362  25.397  1.00  0.00     0.083 C 
ATOM     11  C   UNL A   1      32.604  24.646  23.549  1.00  0.00     0.073 C 
ATOM     12  C   UNL A   1      31.556  23.240  25.772  1.00  0.00     0.126 C 
ATOM     13  C   UNL A   1      33.162  23.517  24.004  1.00  0.00     0.099 C 
ATOM     14  N   UNL A   1      32.546  22.723  24.935  1.00  0.00    -0.258 N 
ATOM     15  S   UNL A   1      34.563  22.728  23.350  1.00  0.00    -0.093 SA
ATOM     16  C   UNL A   1      32.735  21.369  24.685  1.00  0.00     0.247 C 
ATOM     17  O   UNL A   1      31.872  20.518  24.842  1.00  0.00    -0.273 OA
BRANCH   9  18
ATOM     18  C   UNL A   1      31.254  26.600  24.313  1.00  0.00    -0.034 A 
ATOM     19  C   UNL A   1      31.093  29.343  24.815  1.00  0.00     0.118 A 
ATOM     20  C   UNL A   1      31.966  28.546  25.555  1.00  0.00     0.047 A 
ATOM     21  C   UNL A   1      30.344  28.780  23.782  1.00  0.00     0.047 A 
ATOM     22  C   UNL A   1      32.047  27.179  25.311  1.00  0.00     0.008 A 
ATOM     23  C   UNL A   1      30.424  27.414  23.528  1.00  0.00     0.008 A 
BRANCH  19  24
ATOM     24  O   UNL A   1      31.067  30.667  25.155  1.00  0.00    -0.497 OA
ATOM     25  C   UNL A   1      31.782  30.983  26.344  1.00  0.00     0.278 C 
ENDBRANCH  19  24
ENDBRANCH   9  18
BRANCH  10  26
ATOM     26  C   UNL A   1      29.816  24.867  26.184  1.00  0.00     0.100 C 
ATOM     27  N   UNL A   1      28.947  25.268  26.838  1.00  0.00    -0.193 NA
ENDBRANCH  10  26
BRANCH  11  28
ATOM     28  C   UNL A   1      33.153  25.353  22.441  1.00  0.00     0.098 C 
ATOM     29  N   UNL A   1      33.610  25.907  21.527  1.00  0.00    -0.193 NA
ENDBRANCH  11  28
BRANCH  12  30
ATOM     30  N   UNL A   1      31.300  22.641  26.979  1.00  0.00    -0.384 N 
ATOM     31  H   UNL A   1      31.251  21.659  27.041  1.00  0.00     0.158 HD
ATOM     32  H   UNL A   1      31.167  23.192  27.784  1.00  0.00     0.158 HD
ENDBRANCH  12  30
ENDBRANCH   7   8
ENDBRANCH   4   7
ENDBRANCH   2   3
ENDBRANCH   1   2
BRANCH   1  33
ATOM     33  C   UNL A   1      39.018  20.487  25.394  1.00  0.00     0.023 C 
BRANCH  33  34
ATOM     34  C   UNL A   1      39.721  19.683  26.457  1.00  0.00     0.116 C 
BRANCH  34  35
ATOM     35  N   UNL A   1      40.930  19.014  25.984  1.00  0.00    -0.352 N 
ATOM     36  C   UNL A   1      42.184  19.550  25.796  1.00  0.00     0.251 C 
ATOM     37  H   UNL A   1      40.837  18.057  25.772  1.00  0.00     0.163 HD
ATOM     38  O   UNL A   1      43.075  18.889  25.274  1.00  0.00    -0.269 OA
BRANCH  36  39
ATOM     39  C   UNL A   1      42.408  20.951  26.203  1.00  0.00     0.039 A 
ATOM     40  C   UNL A   1      42.718  21.240  27.531  1.00  0.00     0.014 A 
ATOM     41  C   UNL A   1      42.452  21.948  25.227  1.00  0.00     0.014 A 
ATOM     42  C   UNL A   1      43.159  22.521  27.858  1.00  0.00     0.010 A 
ATOM     43  C   UNL A   1      43.047  23.161  25.527  1.00  0.00     0.010 A 
ATOM     44  C   UNL A   1      43.378  23.476  26.850  1.00  0.00    -0.014 A 
BRANCH  44  45
ATOM     45  C   UNL A   1      43.924  24.822  27.155  1.00  0.00     0.031 A 
ATOM     46  C   UNL A   1      43.021  25.876  27.742  1.00  0.00     0.074 A 
ATOM     47  C   UNL A   1      45.202  25.118  26.845  1.00  0.00     0.049 A 
ATOM     48  N   UNL A   1      43.293  27.117  28.044  1.00  0.00    -0.248 NA
ATOM     49  C   UNL A   1      41.616  25.499  27.987  1.00  0.00     0.031 C 
ATOM     50  C   UNL A   1      46.152  24.211  26.195  1.00  0.00     0.029 A 
ATOM     51  N   UNL A   1      45.919  26.275  27.022  1.00  0.00    -0.354 N 
ATOM     52  C   UNL A   1      42.096  27.672  28.477  1.00  0.00     0.074 A 
ATOM     53  C   UNL A   1      41.080  26.656  28.341  1.00  0.00     0.031 C 
ATOM     54  C   UNL A   1      47.333  24.835  26.056  1.00  0.00     0.029 A 
ATOM     55  C   UNL A   1      47.213  26.198  26.560  1.00  0.00     0.049 A 
ATOM     56  H   UNL A   1      45.544  27.083  27.440  1.00  0.00     0.167 HD
ATOM     57  C   UNL A   1      41.864  28.907  28.977  1.00  0.00     0.034 A 
ATOM     58  C   UNL A   1      48.188  27.127  26.535  1.00  0.00     0.034 A 
ATOM     59  C   UNL A   1      42.883  29.905  29.138  1.00  0.00     0.049 A 
ATOM     60  C   UNL A   1      47.910  28.489  27.110  1.00  0.00     0.074 A 
ATOM     61  C   UNL A   1      42.771  31.160  29.708  1.00  0.00     0.029 A 
ATOM     62  N   UNL A   1      44.194  29.773  28.709  1.00  0.00    -0.354 N 
ATOM     63  N   UNL A   1      46.806  28.948  27.650  1.00  0.00    -0.248 NA
ATOM     64  C   UNL A   1      49.020  29.451  27.104  1.00  0.00     0.031 C 
ATOM     65  C   UNL A   1      44.003  31.807  29.574  1.00  0.00     0.029 A 
ATOM     66  C   UNL A   1      44.898  30.931  28.982  1.00  0.00     0.049 A 
ATOM     67  H   UNL A   1      44.568  28.973  28.275  1.00  0.00     0.167 HD
ATOM     68  C   UNL A   1      47.101  30.234  28.085  1.00  0.00     0.074 A 
ATOM     69  C   UNL A   1      48.493  30.474  27.763  1.00  0.00     0.031 C 
ATOM     70  C   UNL A   1      46.293  31.138  28.692  1.00  0.00     0.034 A 
BRANCH  57  71
ATOM     71  C   UNL A   1      40.459  29.234  29.409  1.00  0.00     0.023 A 
ATOM     72  C   UNL A   1      39.540  29.774  28.483  1.00  0.00     0.012 A 
ATOM     73  C   UNL A   1      40.034  28.967  30.725  1.00  0.00     0.148 A 
ATOM     74  C   UNL A   1      38.237  30.080  28.871  1.00  0.00     0.002 A 
ATOM     75  C   UNL A   1      38.719  29.223  31.088  1.00  0.00     0.091 A 
ATOM     76  F   UNL A   1      40.928  28.477  31.596  1.00  0.00    -0.205 F 
ATOM     77  C   UNL A   1      37.823  29.794  30.168  1.00  0.00     0.022 A 
BRANCH  75  78
ATOM     78  S   UNL A   1      38.065  28.812  32.709  1.00  0.00     0.127 S 
ATOM     79  O   UNL A   1      36.664  29.206  32.568  1.00  0.00    -0.237 OA
ATOM     80  O   UNL A   1      38.290  27.368  32.770  1.00  0.00    -0.237 OA
ATOM     81  O   UNL A   1      38.836  29.593  33.666  1.00  0.00    -0.744 OA
ENDBRANCH  75  78
ENDBRANCH  57  71
BRANCH  58  82
ATOM     82  C   UNL A   1      49.531  26.793  25.980  1.00  0.00     0.023 A 
ATOM     83  C   UNL A   1      50.454  26.071  26.761  1.00  0.00     0.012 A 
ATOM     84  C   UNL A   1      49.895  27.186  24.677  1.00  0.00     0.148 A 
ATOM     85  C   UNL A   1      51.729  25.783  26.272  1.00  0.00     0.002 A 
ATOM     86  C   UNL A   1      51.144  26.845  24.175  1.00  0.00     0.091 A 
ATOM     87  F   UNL A   1      49.003  27.876  23.952  1.00  0.00    -0.205 F 
ATOM     88  C   UNL A   1      52.071  26.164  24.978  1.00  0.00     0.022 A 
BRANCH  86  89
ATOM     89  S   UNL A   1      51.626  27.184  22.479  1.00  0.00     0.127 S 
ATOM     90  O   UNL A   1      51.839  28.629  22.512  1.00  0.00    -0.237 OA
ATOM     91  O   UNL A   1      52.842  26.382  22.348  1.00  0.00    -0.237 OA
ATOM     92  O   UNL A   1      50.514  26.732  21.653  1.00  0.00    -0.744 OA
ENDBRANCH  86  89
ENDBRANCH  58  82
BRANCH  70  93
ATOM     93  C   UNL A   1      46.903  32.452  29.106  1.00  0.00     0.023 A 
ATOM     94  C   UNL A   1      47.481  32.602  30.382  1.00  0.00     0.012 A 
ATOM     95  C   UNL A   1      46.954  33.525  28.192  1.00  0.00     0.148 A 
ATOM     96  C   UNL A   1      48.059  33.814  30.759  1.00  0.00     0.002 A 
ATOM     97  C   UNL A   1      47.585  34.707  28.553  1.00  0.00     0.091 A 
ATOM     98  F   UNL A   1      46.387  33.366  26.987  1.00  0.00    -0.205 F 
ATOM     99  C   UNL A   1      48.122  34.860  29.841  1.00  0.00     0.022 A 
BRANCH  97 100
ATOM    100  S   UNL A   1      47.804  36.070  27.404  1.00  0.00     0.127 S 
ATOM    101  O   UNL A   1      48.496  37.051  28.237  1.00  0.00    -0.237 OA
ATOM    102  O   UNL A   1      48.631  35.462  26.361  1.00  0.00    -0.237 OA
ATOM    103  O   UNL A   1      46.468  36.454  26.971  1.00  0.00    -0.744 OA
ENDBRANCH  97 100
ENDBRANCH  70  93
ENDBRANCH  44  45
ENDBRANCH  36  39
ENDBRANCH  34  35
ENDBRANCH  33  34
ENDBRANCH   1  33
TORSDOF 20
ENDMDL
MODEL 2
REMARK VINA RESULT:     -11.1      1.753      7.398
REMARK SMILES COc1ccc([C@@H]2C(C#N)=C(N)N3C(=O)[C@H](CC(=O)NCCCCNC(=O)c4ccc(-c5c6nc(c(-c7cccc(S(=O)(=O)[O-])c7F)c7ccc([nH]7)c(-c7cccc(S(=O)(=O)[O-])c7F)c7nc(c(-c8cccc(S(=O)(=O)[O-])c8F)c8ccc5[nH]8)C=C7)C=C6)cc4)SC3=C2C#N)cc1
REMARK SMILES IDX 22 1 21 2 20 3 18 4 19 5 17 7 16 8 7 9 8 10 93 11 11 12
REMARK SMILES IDX 92 13 13 14 91 15 14 16 15 17 6 18 3 19 4 20 97 21 5 22
REMARK SMILES IDX 96 23 2 24 1 25 9 26 10 27 94 28 95 29 12 30 23 33 24 34
REMARK SMILES IDX 25 35 26 36 27 38 28 39 29 40 90 41 30 42 89 43 31 44 32 45
REMARK SMILES IDX 33 46 83 47 34 48 88 49 82 50 84 51 35 52 87 53 81 54 80 55
REMARK SMILES IDX 36 57 68 58 48 59 67 60 49 61 52 62 66 63 85 64 50 65 51 66
REMARK SMILES IDX 65 68 86 69 53 70 37 71 38 72 46 73 39 74 41 75 47 76 40 77
REMARK SMILES IDX 42 78 43 79 44 80 45 81 69 82 70 83 78 84 71 85 73 86 79 87
REMARK SMILES IDX 72 88 74 89 75 90 76 91 77 92 54 93 55 94 63 95 56 96 58 97
REMARK SMILES IDX 64 98 57 99 59 100 60 101 61 102 62 103
REMARK H PARENT 20 6 12 31 12 32 25 37 84 56 52 67
REMARK Flexibility Score: inf
ROOT
ATOM      1  C   UNL A   1      38.618  22.835  26.087  1.00  0.00     0.023 C 
ENDROOT
BRANCH   1   2
ATOM      2  C   UNL A   1      37.195  23.287  25.759  1.00  0.00     0.116 C 
BRANCH   2   3
ATOM      3  N   UNL A   1      36.231  22.588  26.582  1.00  0.00    -0.356 N 
ATOM      4  C   UNL A   1      35.328  21.631  26.232  1.00  0.00     0.221 C 
ATOM      5  O   UNL A   1      34.466  21.298  27.044  1.00  0.00    -0.275 OA
ATOM      6  H   UNL A   1      36.227  22.842  27.532  1.00  0.00     0.163 HD
BRANCH   4   7
ATOM      7  C   UNL A   1      35.409  20.958  24.875  1.00  0.00     0.125 C 
BRANCH   7   8
ATOM      8  C   UNL A   1      34.369  21.508  23.909  1.00  0.00     0.152 C 
ATOM      9  C   UNL A   1      31.429  25.411  24.119  1.00  0.00     0.107 C 
ATOM     10  C   UNL A   1      31.056  24.614  25.351  1.00  0.00     0.083 C 
ATOM     11  C   UNL A   1      32.794  25.037  23.562  1.00  0.00     0.073 C 
ATOM     12  C   UNL A   1      31.743  23.501  25.696  1.00  0.00     0.126 C 
ATOM     13  C   UNL A   1      33.381  23.910  23.984  1.00  0.00     0.099 C 
ATOM     14  N   UNL A   1      32.772  23.056  24.864  1.00  0.00    -0.258 N 
ATOM     15  S   UNL A   1      34.826  23.200  23.335  1.00  0.00    -0.093 SA
ATOM     16  C   UNL A   1      33.016  21.721  24.563  1.00  0.00     0.247 C 
ATOM     17  O   UNL A   1      32.181  20.835  24.661  1.00  0.00    -0.273 OA
BRANCH   9  18
ATOM     18  C   UNL A   1      31.356  26.907  24.372  1.00  0.00    -0.034 A 
ATOM     19  C   UNL A   1      31.079  29.620  24.982  1.00  0.00     0.118 A 
ATOM     20  C   UNL A   1      31.945  28.819  25.727  1.00  0.00     0.047 A 
ATOM     21  C   UNL A   1      30.396  29.079  23.892  1.00  0.00     0.047 A 
ATOM     22  C   UNL A   1      32.083  27.468  25.430  1.00  0.00     0.008 A 
ATOM     23  C   UNL A   1      30.534  27.728  23.585  1.00  0.00     0.008 A 
BRANCH  19  24
ATOM     24  O   UNL A   1      30.993  30.926  25.376  1.00  0.00    -0.497 OA
ATOM     25  C   UNL A   1      31.763  31.244  26.530  1.00  0.00     0.278 C 
ENDBRANCH  19  24
ENDBRANCH   9  18
BRANCH  10  26
ATOM     26  C   UNL A   1      29.935  25.046  26.129  1.00  0.00     0.100 C 
ATOM     27  N   UNL A   1      29.031  25.381  26.773  1.00  0.00    -0.193 NA
ENDBRANCH  10  26
BRANCH  11  28
ATOM     28  C   UNL A   1      33.345  25.810  22.500  1.00  0.00     0.098 C 
ATOM     29  N   UNL A   1      33.809  26.421  21.627  1.00  0.00    -0.193 NA
ENDBRANCH  11  28
BRANCH  12  30
ATOM     30  N   UNL A   1      31.478  22.842  26.869  1.00  0.00    -0.384 N 
ATOM     31  H   UNL A   1      30.554  22.586  27.093  1.00  0.00     0.158 HD
ATOM     32  H   UNL A   1      32.212  22.623  27.487  1.00  0.00     0.158 HD
ENDBRANCH  12  30
ENDBRANCH   7   8
ENDBRANCH   4   7
ENDBRANCH   2   3
ENDBRANCH   1   2
BRANCH   1  33
ATOM     33  C   UNL A   1      39.008  21.452  25.632  1.00  0.00     0.023 C 
BRANCH  33  34
ATOM     34  C   UNL A   1      39.705  20.635  26.690  1.00  0.00     0.116 C 
BRANCH  34  35
ATOM     35  N   UNL A   1      40.698  19.707  26.156  1.00  0.00    -0.352 N 
ATOM     36  C   UNL A   1      42.020  19.950  25.859  1.00  0.00     0.251 C 
ATOM     37  H   UNL A   1      40.382  18.791  25.985  1.00  0.00     0.163 HD
ATOM     38  O   UNL A   1      42.702  19.100  25.299  1.00  0.00    -0.269 OA
BRANCH  36  39
ATOM     39  C   UNL A   1      42.575  21.275  26.199  1.00  0.00     0.039 A 
ATOM     40  C   UNL A   1      42.693  22.246  25.206  1.00  0.00     0.014 A 
ATOM     41  C   UNL A   1      42.833  21.585  27.536  1.00  0.00     0.014 A 
ATOM     42  C   UNL A   1      42.988  23.557  25.576  1.00  0.00     0.010 A 
ATOM     43  C   UNL A   1      42.960  22.913  27.909  1.00  0.00     0.010 A 
ATOM     44  C   UNL A   1      43.072  23.912  26.934  1.00  0.00    -0.014 A 
BRANCH  44  45
ATOM     45  C   UNL A   1      43.305  25.313  27.363  1.00  0.00     0.031 A 
ATOM     46  C   UNL A   1      44.699  25.881  27.322  1.00  0.00     0.074 A 
ATOM     47  C   UNL A   1      42.285  26.048  27.849  1.00  0.00     0.049 A 
ATOM     48  N   UNL A   1      45.116  27.065  27.686  1.00  0.00    -0.248 NA
ATOM     49  C   UNL A   1      45.776  24.993  26.845  1.00  0.00     0.031 C 
ATOM     50  C   UNL A   1      40.905  25.582  28.020  1.00  0.00     0.029 A 
ATOM     51  N   UNL A   1      42.254  27.342  28.306  1.00  0.00    -0.354 N 
ATOM     52  C   UNL A   1      46.495  27.048  27.517  1.00  0.00     0.074 A 
ATOM     53  C   UNL A   1      46.855  25.722  27.077  1.00  0.00     0.031 C 
ATOM     54  C   UNL A   1      40.160  26.584  28.514  1.00  0.00     0.029 A 
ATOM     55  C   UNL A   1      41.013  27.745  28.741  1.00  0.00     0.049 A 
ATOM     56  H   UNL A   1      43.046  27.927  28.320  1.00  0.00     0.167 HD
ATOM     57  C   UNL A   1      47.382  28.056  27.678  1.00  0.00     0.034 A 
ATOM     58  C   UNL A   1      40.612  28.914  29.275  1.00  0.00     0.034 A 
ATOM     59  C   UNL A   1      47.016  29.382  28.087  1.00  0.00     0.049 A 
ATOM     60  C   UNL A   1      41.615  30.025  29.431  1.00  0.00     0.074 A 
ATOM     61  C   UNL A   1      47.824  30.497  28.203  1.00  0.00     0.029 A 
ATOM     62  N   UNL A   1      45.740  29.768  28.468  1.00  0.00    -0.354 N 
ATOM     63  N   UNL A   1      42.891  30.034  29.127  1.00  0.00    -0.248 NA
ATOM     64  C   UNL A   1      41.118  31.297  29.972  1.00  0.00     0.031 C 
ATOM     65  C   UNL A   1      47.047  31.545  28.708  1.00  0.00     0.029 A 
ATOM     66  C   UNL A   1      45.742  31.099  28.840  1.00  0.00     0.049 A 
ATOM     67  H   UNL A   1      44.950  29.180  28.471  1.00  0.00     0.167 HD
ATOM     68  C   UNL A   1      43.337  31.321  29.399  1.00  0.00     0.074 A 
ATOM     69  C   UNL A   1      42.191  32.068  29.874  1.00  0.00     0.031 C 
ATOM     70  C   UNL A   1      44.585  31.838  29.273  1.00  0.00     0.034 A 
BRANCH  57  71
ATOM     71  C   UNL A   1      48.831  27.766  27.385  1.00  0.00     0.023 A 
ATOM     72  C   UNL A   1      49.690  27.335  28.419  1.00  0.00     0.012 A 
ATOM     73  C   UNL A   1      49.333  27.878  26.075  1.00  0.00     0.148 A 
ATOM     74  C   UNL A   1      51.032  27.063  28.161  1.00  0.00     0.002 A 
ATOM     75  C   UNL A   1      50.657  27.552  25.815  1.00  0.00     0.091 A 
ATOM     76  F   UNL A   1      48.507  28.312  25.111  1.00  0.00    -0.205 F 
ATOM     77  C   UNL A   1      51.512  27.159  26.858  1.00  0.00     0.022 A 
BRANCH  75  78
ATOM     78  S   UNL A   1      51.349  27.562  24.159  1.00  0.00     0.127 S 
ATOM     79  O   UNL A   1      51.569  28.991  23.941  1.00  0.00    -0.237 OA
ATOM     80  O   UNL A   1      52.570  26.776  24.335  1.00  0.00    -0.237 OA
ATOM     81  O   UNL A   1      50.346  26.951  23.297  1.00  0.00    -0.744 OA
ENDBRANCH  75  78
ENDBRANCH  57  71
BRANCH  58  82
ATOM     82  C   UNL A   1      39.187  29.113  29.668  1.00  0.00     0.023 A 
ATOM     83  C   UNL A   1      38.760  28.760  30.963  1.00  0.00     0.012 A 
ATOM     84  C   UNL A   1      38.255  29.654  28.762  1.00  0.00     0.148 A 
ATOM     85  C   UNL A   1      37.423  28.902  31.335  1.00  0.00     0.002 A 
ATOM     86  C   UNL A   1      36.938  29.848  29.157  1.00  0.00     0.091 A 
ATOM     87  F   UNL A   1      38.681  29.979  27.533  1.00  0.00    -0.205 F 
ATOM     88  C   UNL A   1      36.514  29.453  30.435  1.00  0.00     0.022 A 
BRANCH  86  89
ATOM     89  S   UNL A   1      35.727  30.663  28.111  1.00  0.00     0.127 S 
ATOM     90  O   UNL A   1      36.432  31.888  27.738  1.00  0.00    -0.237 OA
ATOM     91  O   UNL A   1      35.564  29.691  27.031  1.00  0.00    -0.237 OA
ATOM     92  O   UNL A   1      34.545  30.847  28.942  1.00  0.00    -0.744 OA
ENDBRANCH  86  89
ENDBRANCH  58  82
BRANCH  70  93
ATOM     93  C   UNL A   1      44.771  33.298  29.594  1.00  0.00     0.023 A 
ATOM     94  C   UNL A   1      45.115  33.706  30.897  1.00  0.00     0.012 A 
ATOM     95  C   UNL A   1      44.663  34.264  28.572  1.00  0.00     0.148 A 
ATOM     96  C   UNL A   1      45.303  35.057  31.189  1.00  0.00     0.002 A 
ATOM     97  C   UNL A   1      44.911  35.599  28.857  1.00  0.00     0.091 A 
ATOM     98  F   UNL A   1      44.322  33.856  27.340  1.00  0.00    -0.205 F 
ATOM     99  C   UNL A   1      45.213  36.000  30.168  1.00  0.00     0.022 A 
BRANCH  97 100
ATOM    100  S   UNL A   1      44.919  36.869  27.587  1.00  0.00     0.127 S 
ATOM    101  O   UNL A   1      45.443  38.019  28.321  1.00  0.00    -0.237 OA
ATOM    102  O   UNL A   1      45.837  36.306  26.596  1.00  0.00    -0.237 OA
ATOM    103  O   UNL A   1      43.542  36.997  27.133  1.00  0.00    -0.744 OA
ENDBRANCH  97 100
ENDBRANCH  70  93
ENDBRANCH  44  45
ENDBRANCH  36  39
ENDBRANCH  34  35
ENDBRANCH  33  34
ENDBRANCH   1  33
TORSDOF 20
ENDMDL
MODEL 3
REMARK VINA RESULT:     -11.1      5.548      9.958
REMARK SMILES COc1ccc([C@@H]2C(C#N)=C(N)N3C(=O)[C@H](CC(=O)NCCCCNC(=O)c4ccc(-c5c6nc(c(-c7cccc(S(=O)(=O)[O-])c7F)c7ccc([nH]7)c(-c7cccc(S(=O)(=O)[O-])c7F)c7nc(c(-c8cccc(S(=O)(=O)[O-])c8F)c8ccc5[nH]8)C=C7)C=C6)cc4)SC3=C2C#N)cc1
REMARK SMILES IDX 22 1 21 2 20 3 18 4 19 5 17 7 16 8 7 9 8 10 93 11 11 12
REMARK SMILES IDX 92 13 13 14 91 15 14 16 15 17 6 18 3 19 4 20 97 21 5 22
REMARK SMILES IDX 96 23 2 24 1 25 9 26 10 27 94 28 95 29 12 30 23 33 24 34
REMARK SMILES IDX 25 35 26 36 27 38 28 39 29 40 90 41 30 42 89 43 31 44 32 45
REMARK SMILES IDX 33 46 83 47 34 48 88 49 82 50 84 51 35 52 87 53 81 54 80 55
REMARK SMILES IDX 36 57 68 58 48 59 67 60 49 61 52 62 66 63 85 64 50 65 51 66
REMARK SMILES IDX 65 68 86 69 53 70 37 71 38 72 46 73 39 74 41 75 47 76 40 77
REMARK SMILES IDX 42 78 43 79 44 80 45 81 69 82 70 83 78 84 71 85 73 86 79 87
REMARK SMILES IDX 72 88 74 89 75 90 76 91 77 92 54 93 55 94 63 95 56 96 58 97
REMARK SMILES IDX 64 98 57 99 59 100 60 101 61 102 62 103
REMARK H PARENT 20 6 12 31 12 32 25 37 84 56 52 67
REMARK Flexibility Score: inf
ROOT
ATOM      1  C   UNL A   1      34.673  30.600  27.743  1.00  0.00     0.023 C 
ENDROOT
BRANCH   1   2
ATOM      2  C   UNL A   1      34.246  29.287  27.086  1.00  0.00     0.116 C 
BRANCH   2   3
ATOM      3  N   UNL A   1      34.246  29.411  25.644  1.00  0.00    -0.356 N 
ATOM      4  C   UNL A   1      33.193  29.458  24.781  1.00  0.00     0.221 C 
ATOM      5  O   UNL A   1      33.408  29.374  23.573  1.00  0.00    -0.275 OA
ATOM      6  H   UNL A   1      35.134  29.470  25.226  1.00  0.00     0.163 HD
BRANCH   4   7
ATOM      7  C   UNL A   1      31.781  29.650  25.301  1.00  0.00     0.125 C 
BRANCH   7   8
ATOM      8  C   UNL A   1      30.954  28.378  25.172  1.00  0.00     0.152 C 
ATOM      9  C   UNL A   1      32.162  23.775  24.040  1.00  0.00     0.107 C 
ATOM     10  C   UNL A   1      32.622  24.573  22.838  1.00  0.00     0.083 C 
ATOM     11  C   UNL A   1      31.965  24.633  25.280  1.00  0.00     0.073 C 
ATOM     12  C   UNL A   1      32.553  25.924  22.830  1.00  0.00     0.126 C 
ATOM     13  C   UNL A   1      31.917  25.965  25.149  1.00  0.00     0.099 C 
ATOM     14  N   UNL A   1      31.992  26.580  23.927  1.00  0.00    -0.258 N 
ATOM     15  S   UNL A   1      31.502  27.105  26.389  1.00  0.00    -0.093 SA
ATOM     16  C   UNL A   1      31.151  27.683  23.837  1.00  0.00     0.247 C 
ATOM     17  O   UNL A   1      30.511  27.975  22.838  1.00  0.00    -0.273 OA
BRANCH   9  18
ATOM     18  C   UNL A   1      33.100  22.620  24.343  1.00  0.00    -0.034 A 
ATOM     19  C   UNL A   1      34.882  20.498  24.701  1.00  0.00     0.118 A 
ATOM     20  C   UNL A   1      35.340  21.814  24.765  1.00  0.00     0.047 A 
ATOM     21  C   UNL A   1      33.523  20.242  24.519  1.00  0.00     0.047 A 
ATOM     22  C   UNL A   1      34.457  22.874  24.583  1.00  0.00     0.008 A 
ATOM     23  C   UNL A   1      32.633  21.297  24.342  1.00  0.00     0.008 A 
BRANCH  19  24
ATOM     24  O   UNL A   1      35.836  19.531  24.861  1.00  0.00    -0.497 OA
ATOM     25  C   UNL A   1      37.170  20.023  24.904  1.00  0.00     0.278 C 
ENDBRANCH  19  24
ENDBRANCH   9  18
BRANCH  10  26
ATOM     26  C   UNL A   1      33.104  23.864  21.693  1.00  0.00     0.100 C 
ATOM     27  N   UNL A   1      33.490  23.305  20.753  1.00  0.00    -0.193 NA
ENDBRANCH  10  26
BRANCH  11  28
ATOM     28  C   UNL A   1      31.685  23.998  26.525  1.00  0.00     0.098 C 
ATOM     29  N   UNL A   1      31.432  23.485  27.536  1.00  0.00    -0.193 NA
ENDBRANCH  11  28
BRANCH  12  30
ATOM     30  N   UNL A   1      33.071  26.652  21.790  1.00  0.00    -0.384 N 
ATOM     31  H   UNL A   1      32.610  27.466  21.480  1.00  0.00     0.158 HD
ATOM     32  H   UNL A   1      33.905  26.363  21.354  1.00  0.00     0.158 HD
ENDBRANCH  12  30
ENDBRANCH   7   8
ENDBRANCH   4   7
ENDBRANCH   2   3
ENDBRANCH   1   2
BRANCH   1  33
ATOM     33  C   UNL A   1      33.592  31.626  27.965  1.00  0.00     0.023 C 
BRANCH  33  34
ATOM     34  C   UNL A   1      34.030  33.042  27.691  1.00  0.00     0.116 C 
BRANCH  34  35
ATOM     35  N   UNL A   1      33.275  34.045  28.438  1.00  0.00    -0.352 N 
ATOM     36  C   UNL A   1      33.458  34.456  29.740  1.00  0.00     0.251 C 
ATOM     37  H   UNL A   1      32.541  34.482  27.950  1.00  0.00     0.163 HD
ATOM     38  O   UNL A   1      32.663  35.223  30.270  1.00  0.00    -0.269 OA
BRANCH  36  39
ATOM     39  C   UNL A   1      34.613  33.915  30.482  1.00  0.00     0.039 A 
ATOM     40  C   UNL A   1      34.424  32.861  31.374  1.00  0.00     0.014 A 
ATOM     41  C   UNL A   1      35.897  34.365  30.171  1.00  0.00     0.014 A 
ATOM     42  C   UNL A   1      35.540  32.202  31.887  1.00  0.00     0.010 A 
ATOM     43  C   UNL A   1      36.990  33.604  30.550  1.00  0.00     0.010 A 
ATOM     44  C   UNL A   1      36.830  32.533  31.438  1.00  0.00    -0.014 A 
BRANCH  44  45
ATOM     45  C   UNL A   1      38.032  31.797  31.902  1.00  0.00     0.031 A 
ATOM     46  C   UNL A   1      38.697  32.199  33.193  1.00  0.00     0.074 A 
ATOM     47  C   UNL A   1      38.562  30.821  31.139  1.00  0.00     0.049 A 
ATOM     48  N   UNL A   1      39.772  31.709  33.751  1.00  0.00    -0.248 NA
ATOM     49  C   UNL A   1      38.101  33.323  33.938  1.00  0.00     0.031 C 
ATOM     50  C   UNL A   1      38.061  30.398  29.828  1.00  0.00     0.029 A 
ATOM     51  N   UNL A   1      39.654  30.016  31.348  1.00  0.00    -0.354 N 
ATOM     52  C   UNL A   1      39.997  32.483  34.882  1.00  0.00     0.074 A 
ATOM     53  C   UNL A   1      38.986  33.513  34.902  1.00  0.00     0.031 C 
ATOM     54  C   UNL A   1      38.824  29.394  29.367  1.00  0.00     0.029 A 
ATOM     55  C   UNL A   1      39.895  29.133  30.321  1.00  0.00     0.049 A 
ATOM     56  H   UNL A   1      40.212  30.066  32.158  1.00  0.00     0.167 HD
ATOM     57  C   UNL A   1      40.937  32.331  35.842  1.00  0.00     0.034 A 
ATOM     58  C   UNL A   1      40.877  28.225  30.163  1.00  0.00     0.034 A 
ATOM     59  C   UNL A   1      41.922  31.288  35.834  1.00  0.00     0.049 A 
ATOM     60  C   UNL A   1      41.904  28.066  31.251  1.00  0.00     0.074 A 
ATOM     61  C   UNL A   1      42.870  30.996  36.798  1.00  0.00     0.029 A 
ATOM     62  N   UNL A   1      42.101  30.378  34.804  1.00  0.00    -0.354 N 
ATOM     63  N   UNL A   1      42.011  28.714  32.386  1.00  0.00    -0.248 NA
ATOM     64  C   UNL A   1      42.924  27.029  31.053  1.00  0.00     0.031 C 
ATOM     65  C   UNL A   1      43.659  29.943  36.324  1.00  0.00     0.029 A 
ATOM     66  C   UNL A   1      43.158  29.536  35.098  1.00  0.00     0.049 A 
ATOM     67  H   UNL A   1      41.556  30.337  33.986  1.00  0.00     0.167 HD
ATOM     68  C   UNL A   1      43.083  28.135  33.055  1.00  0.00     0.074 A 
ATOM     69  C   UNL A   1      43.578  27.072  32.206  1.00  0.00     0.031 C 
ATOM     70  C   UNL A   1      43.613  28.457  34.260  1.00  0.00     0.034 A 
BRANCH  57  71
ATOM     71  C   UNL A   1      40.927  33.305  36.992  1.00  0.00     0.023 A 
ATOM     72  C   UNL A   1      40.029  33.123  38.065  1.00  0.00     0.012 A 
ATOM     73  C   UNL A   1      41.837  34.378  37.030  1.00  0.00     0.148 A 
ATOM     74  C   UNL A   1      40.010  34.016  39.135  1.00  0.00     0.002 A 
ATOM     75  C   UNL A   1      41.850  35.231  38.125  1.00  0.00     0.091 A 
ATOM     76  F   UNL A   1      42.667  34.548  35.989  1.00  0.00    -0.205 F 
ATOM     77  C   UNL A   1      40.928  35.061  39.171  1.00  0.00     0.022 A 
BRANCH  75  78
ATOM     78  S   UNL A   1      43.048  36.556  38.306  1.00  0.00     0.127 S 
ATOM     79  O   UNL A   1      42.532  37.258  39.480  1.00  0.00    -0.237 OA
ATOM     80  O   UNL A   1      44.289  35.815  38.533  1.00  0.00    -0.237 OA
ATOM     81  O   UNL A   1      43.005  37.312  37.062  1.00  0.00    -0.744 OA
ENDBRANCH  75  78
ENDBRANCH  57  71
BRANCH  58  82
ATOM     82  C   UNL A   1      40.918  27.367  28.944  1.00  0.00     0.023 A 
ATOM     83  C   UNL A   1      40.018  26.292  28.811  1.00  0.00     0.012 A 
ATOM     84  C   UNL A   1      41.844  27.617  27.912  1.00  0.00     0.148 A 
ATOM     85  C   UNL A   1      40.068  25.455  27.696  1.00  0.00     0.002 A 
ATOM     86  C   UNL A   1      41.849  26.817  26.777  1.00  0.00     0.091 A 
ATOM     87  F   UNL A   1      42.694  28.643  28.060  1.00  0.00    -0.205 F 
ATOM     88  C   UNL A   1      40.977  25.722  26.676  1.00  0.00     0.022 A 
BRANCH  86  89
ATOM     89  S   UNL A   1      42.899  27.159  25.362  1.00  0.00     0.127 S 
ATOM     90  O   UNL A   1      44.186  27.423  26.002  1.00  0.00    -0.237 OA
ATOM     91  O   UNL A   1      42.824  25.899  24.623  1.00  0.00    -0.237 OA
ATOM     92  O   UNL A   1      42.290  28.294  24.682  1.00  0.00    -0.744 OA
ENDBRANCH  86  89
ENDBRANCH  58  82
BRANCH  70  93
ATOM     93  C   UNL A   1      44.754  27.614  34.769  1.00  0.00     0.023 A 
ATOM     94  C   UNL A   1      46.088  28.018  34.567  1.00  0.00     0.012 A 
ATOM     95  C   UNL A   1      44.489  26.443  35.508  1.00  0.00     0.148 A 
ATOM     96  C   UNL A   1      47.142  27.245  35.052  1.00  0.00     0.002 A 
ATOM     97  C   UNL A   1      45.542  25.712  36.040  1.00  0.00     0.091 A 
ATOM     98  F   UNL A   1      43.212  26.069  35.678  1.00  0.00    -0.205 F 
ATOM     99  C   UNL A   1      46.869  26.100  35.798  1.00  0.00     0.022 A 
BRANCH  97 100
ATOM    100  S   UNL A   1      45.284  24.284  37.097  1.00  0.00     0.127 S 
ATOM    101  O   UNL A   1      44.637  23.348  36.180  1.00  0.00    -0.237 OA
ATOM    102  O   UNL A   1      46.653  23.926  37.470  1.00  0.00    -0.237 OA
ATOM    103  O   UNL A   1      44.455  24.743  38.203  1.00  0.00    -0.744 OA
ENDBRANCH  97 100
ENDBRANCH  70  93
ENDBRANCH  44  45
ENDBRANCH  36  39
ENDBRANCH  34  35
ENDBRANCH  33  34
ENDBRANCH   1  33
TORSDOF 20
ENDMDL
