MODEL 1
REMARK VINA RESULT:     -11.5      0.000      0.000
REMARK SMILES C[C@H]([NH2+][C@@H]1CCOC2(CCC2)C1)C(=O)NCCCCNC(=O)c1ccc(-c2c3nc(c(-c4cccc(S(=O)(=O)[O-])c4F)c4ccc([nH]4)c(-c4cccc(S(=O)(=O)[O-])c4F)c4nc(c(-c5cccc(S(=O)(=O)[O-])c5F)c5ccc2[nH]5)C=C4)C=C3)cc1
REMARK SMILES IDX 18 1 17 2 16 3 15 4 13 5 14 6 2 8 1 9 3 10 4 13 5 14 12 15
REMARK SMILES IDX 6 16 8 17 7 18 9 19 11 20 10 21 19 22 20 23 21 24 22 26
REMARK SMILES IDX 23 27 24 28 85 29 25 30 84 31 26 32 27 33 28 34 78 35 29 36
REMARK SMILES IDX 83 37 77 38 79 39 30 40 82 41 76 42 75 43 31 45 63 46 43 47
REMARK SMILES IDX 62 48 44 49 47 50 61 51 80 52 45 53 46 54 60 56 81 57 48 58
REMARK SMILES IDX 32 59 33 60 41 61 34 62 36 63 42 64 35 65 37 66 38 67 39 68
REMARK SMILES IDX 40 69 64 70 65 71 73 72 66 73 68 74 74 75 67 76 69 77 70 78
REMARK SMILES IDX 71 79 72 80 49 81 50 82 58 83 51 84 53 85 59 86 52 87 54 88
REMARK SMILES IDX 55 89 56 90 57 91
REMARK H PARENT 15 7 3 11 3 12 20 25 79 44 47 55
REMARK Flexibility Score: inf
ROOT
ATOM      1  C   UNL A   1      31.725  28.801  25.627  1.00  0.00     0.023 C 
ENDROOT
BRANCH   1   2
ATOM      2  C   UNL A   1      31.155  28.804  24.207  1.00  0.00     0.023 C 
BRANCH   2   3
ATOM      3  C   UNL A   1      30.876  27.415  23.644  1.00  0.00     0.116 C 
BRANCH   3   4
ATOM      4  N   UNL A   1      31.894  27.040  22.694  1.00  0.00    -0.351 N 
ATOM      5  C   UNL A   1      32.974  26.237  22.862  1.00  0.00     0.277 C 
ATOM      6  O   UNL A   1      33.820  26.216  21.962  1.00  0.00    -0.268 OA
ATOM      7  H   UNL A   1      31.791  27.423  21.793  1.00  0.00     0.163 HD
BRANCH   5   8
ATOM      8  C   UNL A   1      33.125  25.351  24.109  1.00  0.00     0.269 C 
ATOM      9  C   UNL A   1      34.090  25.927  25.142  1.00  0.00     0.086 C 
BRANCH   8  10
ATOM     10  N   UNL A   1      33.345  23.955  23.734  1.00  0.00    -0.334 N 
ATOM     11  H   UNL A   1      33.819  23.507  24.520  1.00  0.00     0.347 HD
ATOM     12  H   UNL A   1      33.865  24.017  22.860  1.00  0.00     0.347 HD
BRANCH  10  13
ATOM     13  C   UNL A   1      32.189  23.113  23.395  1.00  0.00     0.188 C 
ATOM     14  C   UNL A   1      31.178  23.219  24.548  1.00  0.00     0.093 C 
ATOM     15  C   UNL A   1      32.367  21.633  22.984  1.00  0.00     0.100 C 
ATOM     16  C   UNL A   1      31.560  22.281  25.682  1.00  0.00     0.167 C 
ATOM     17  C   UNL A   1      32.539  20.651  24.156  1.00  0.00     0.074 C 
ATOM     18  O   UNL A   1      31.556  20.942  25.185  1.00  0.00    -0.375 OA
ATOM     19  C   UNL A   1      32.479  19.174  23.639  1.00  0.00     0.036 C 
ATOM     20  C   UNL A   1      33.967  20.263  24.681  1.00  0.00     0.036 C 
ATOM     21  C   UNL A   1      33.506  18.805  24.723  1.00  0.00     0.006 C 
ENDBRANCH  10  13
ENDBRANCH   8  10
ENDBRANCH   5   8
ENDBRANCH   3   4
ENDBRANCH   2   3
ENDBRANCH   1   2
BRANCH   1  22
ATOM     22  C   UNL A   1      32.956  29.677  25.829  1.00  0.00     0.116 C 
BRANCH  22  23
ATOM     23  N   UNL A   1      32.626  31.017  26.295  1.00  0.00    -0.352 N 
ATOM     24  C   UNL A   1      33.308  31.797  27.196  1.00  0.00     0.251 C 
ATOM     25  H   UNL A   1      31.809  31.414  25.915  1.00  0.00     0.163 HD
ATOM     26  O   UNL A   1      32.857  32.873  27.557  1.00  0.00    -0.269 OA
BRANCH  24  27
ATOM     27  C   UNL A   1      34.576  31.284  27.745  1.00  0.00     0.039 A 
ATOM     28  C   UNL A   1      35.643  32.169  27.903  1.00  0.00     0.014 A 
ATOM     29  C   UNL A   1      34.674  29.955  28.168  1.00  0.00     0.014 A 
ATOM     30  C   UNL A   1      36.802  31.731  28.543  1.00  0.00     0.010 A 
ATOM     31  C   UNL A   1      35.804  29.543  28.864  1.00  0.00     0.010 A 
ATOM     32  C   UNL A   1      36.879  30.425  29.053  1.00  0.00    -0.014 A 
BRANCH  32  33
ATOM     33  C   UNL A   1      38.077  29.963  29.794  1.00  0.00     0.031 A 
ATOM     34  C   UNL A   1      38.337  30.469  31.186  1.00  0.00     0.074 A 
ATOM     35  C   UNL A   1      38.969  29.161  29.182  1.00  0.00     0.049 A 
ATOM     36  N   UNL A   1      39.346  30.217  31.977  1.00  0.00    -0.248 NA
ATOM     37  C   UNL A   1      37.349  31.403  31.752  1.00  0.00     0.031 C 
ATOM     38  C   UNL A   1      38.865  28.676  27.803  1.00  0.00     0.029 A 
ATOM     39  N   UNL A   1      40.151  28.631  29.630  1.00  0.00    -0.354 N 
ATOM     40  C   UNL A   1      39.137  30.989  33.113  1.00  0.00     0.074 A 
ATOM     41  C   UNL A   1      37.922  31.743  32.897  1.00  0.00     0.031 C 
ATOM     42  C   UNL A   1      39.935  27.916  27.522  1.00  0.00     0.029 A 
ATOM     43  C   UNL A   1      40.811  27.877  28.688  1.00  0.00     0.049 A 
ATOM     44  H   UNL A   1      40.495  28.777  30.541  1.00  0.00     0.167 HD
ATOM     45  C   UNL A   1      39.874  31.040  34.247  1.00  0.00     0.034 A 
ATOM     46  C   UNL A   1      41.990  27.226  28.761  1.00  0.00     0.034 A 
ATOM     47  C   UNL A   1      41.048  30.244  34.476  1.00  0.00     0.049 A 
ATOM     48  C   UNL A   1      42.756  27.254  30.055  1.00  0.00     0.074 A 
ATOM     49  C   UNL A   1      41.806  30.142  35.629  1.00  0.00     0.029 A 
ATOM     50  N   UNL A   1      41.636  29.415  33.533  1.00  0.00    -0.354 N 
ATOM     51  N   UNL A   1      42.451  27.851  31.183  1.00  0.00    -0.248 NA
ATOM     52  C   UNL A   1      44.011  26.489  30.102  1.00  0.00     0.031 C 
ATOM     53  C   UNL A   1      42.864  29.262  35.377  1.00  0.00     0.029 A 
ATOM     54  C   UNL A   1      42.753  28.803  34.075  1.00  0.00     0.049 A 
ATOM     55  H   UNL A   1      41.308  29.282  32.615  1.00  0.00     0.167 HD
ATOM     56  C   UNL A   1      43.453  27.503  32.081  1.00  0.00     0.074 A 
ATOM     57  C   UNL A   1      44.363  26.628  31.373  1.00  0.00     0.031 C 
ATOM     58  C   UNL A   1      43.614  27.886  33.372  1.00  0.00     0.034 A 
BRANCH  45  59
ATOM     59  C   UNL A   1      39.394  31.943  35.352  1.00  0.00     0.023 A 
ATOM     60  C   UNL A   1      38.489  31.446  36.312  1.00  0.00     0.012 A 
ATOM     61  C   UNL A   1      39.878  33.260  35.476  1.00  0.00     0.148 A 
ATOM     62  C   UNL A   1      38.047  32.253  37.357  1.00  0.00     0.002 A 
ATOM     63  C   UNL A   1      39.465  34.045  36.546  1.00  0.00     0.091 A 
ATOM     64  F   UNL A   1      40.719  33.724  34.540  1.00  0.00    -0.205 F 
ATOM     65  C   UNL A   1      38.543  33.548  37.481  1.00  0.00     0.022 A 
BRANCH  63  66
ATOM     66  S   UNL A   1      40.105  35.699  36.837  1.00  0.00     0.127 S 
ATOM     67  O   UNL A   1      39.576  36.426  35.683  1.00  0.00    -0.237 OA
ATOM     68  O   UNL A   1      39.484  36.050  38.114  1.00  0.00    -0.237 OA
ATOM     69  O   UNL A   1      41.554  35.566  36.883  1.00  0.00    -0.744 OA
ENDBRANCH  63  66
ENDBRANCH  45  59
BRANCH  46  70
ATOM     70  C   UNL A   1      42.473  26.425  27.601  1.00  0.00     0.023 A 
ATOM     71  C   UNL A   1      43.319  27.030  26.652  1.00  0.00     0.012 A 
ATOM     72  C   UNL A   1      42.125  25.069  27.444  1.00  0.00     0.148 A 
ATOM     73  C   UNL A   1      43.785  26.312  25.551  1.00  0.00     0.002 A 
ATOM     74  C   UNL A   1      42.635  24.344  26.373  1.00  0.00     0.091 A 
ATOM     75  F   UNL A   1      41.308  24.513  28.351  1.00  0.00    -0.205 F 
ATOM     76  C   UNL A   1      43.451  24.967  25.416  1.00  0.00     0.022 A 
BRANCH  74  77
ATOM     77  S   UNL A   1      42.363  22.577  26.193  1.00  0.00     0.127 S 
ATOM     78  O   UNL A   1      43.066  22.292  24.945  1.00  0.00    -0.237 OA
ATOM     79  O   UNL A   1      43.005  22.047  27.397  1.00  0.00    -0.237 OA
ATOM     80  O   UNL A   1      40.917  22.406  26.164  1.00  0.00    -0.744 OA
ENDBRANCH  74  77
ENDBRANCH  46  70
BRANCH  58  81
ATOM     81  C   UNL A   1      44.799  27.339  34.121  1.00  0.00     0.023 A 
ATOM     82  C   UNL A   1      46.019  28.043  34.109  1.00  0.00     0.012 A 
ATOM     83  C   UNL A   1      44.679  26.172  34.901  1.00  0.00     0.148 A 
ATOM     84  C   UNL A   1      47.112  27.578  34.840  1.00  0.00     0.002 A 
ATOM     85  C   UNL A   1      45.757  25.741  35.666  1.00  0.00     0.091 A 
ATOM     86  F   UNL A   1      43.515  25.506  34.883  1.00  0.00    -0.205 F 
ATOM     87  C   UNL A   1      46.976  26.436  35.628  1.00  0.00     0.022 A 
BRANCH  85  88
ATOM     88  S   UNL A   1      45.641  24.339  36.783  1.00  0.00     0.127 S 
ATOM     89  O   UNL A   1      45.331  23.248  35.861  1.00  0.00    -0.237 OA
ATOM     90  O   UNL A   1      46.984  24.287  37.360  1.00  0.00    -0.237 OA
ATOM     91  O   UNL A   1      44.589  24.674  37.734  1.00  0.00    -0.744 OA
ENDBRANCH  85  88
ENDBRANCH  58  81
ENDBRANCH  32  33
ENDBRANCH  24  27
ENDBRANCH  22  23
ENDBRANCH   1  22
TORSDOF 16
ENDMDL
MODEL 2
REMARK VINA RESULT:     -11.5      1.168      1.740
REMARK SMILES C[C@H]([NH2+][C@@H]1CCOC2(CCC2)C1)C(=O)NCCCCNC(=O)c1ccc(-c2c3nc(c(-c4cccc(S(=O)(=O)[O-])c4F)c4ccc([nH]4)c(-c4cccc(S(=O)(=O)[O-])c4F)c4nc(c(-c5cccc(S(=O)(=O)[O-])c5F)c5ccc2[nH]5)C=C4)C=C3)cc1
REMARK SMILES IDX 18 1 17 2 16 3 15 4 13 5 14 6 2 8 1 9 3 10 4 13 5 14 12 15
REMARK SMILES IDX 6 16 8 17 7 18 9 19 11 20 10 21 19 22 20 23 21 24 22 26
REMARK SMILES IDX 23 27 24 28 85 29 25 30 84 31 26 32 27 33 28 34 78 35 29 36
REMARK SMILES IDX 83 37 77 38 79 39 30 40 82 41 76 42 75 43 31 45 63 46 43 47
REMARK SMILES IDX 62 48 44 49 47 50 61 51 80 52 45 53 46 54 60 56 81 57 48 58
REMARK SMILES IDX 32 59 33 60 41 61 34 62 36 63 42 64 35 65 37 66 38 67 39 68
REMARK SMILES IDX 40 69 64 70 65 71 73 72 66 73 68 74 74 75 67 76 69 77 70 78
REMARK SMILES IDX 71 79 72 80 49 81 50 82 58 83 51 84 53 85 59 86 52 87 54 88
REMARK SMILES IDX 55 89 56 90 57 91
REMARK H PARENT 15 7 3 11 3 12 20 25 79 44 47 55
REMARK Flexibility Score: inf
ROOT
ATOM      1  C   UNL A   1      31.779  29.306  24.995  1.00  0.00     0.023 C 
ENDROOT
BRANCH   1   2
ATOM      2  C   UNL A   1      31.162  27.924  25.220  1.00  0.00     0.023 C 
BRANCH   2   3
ATOM      3  C   UNL A   1      32.121  26.902  25.819  1.00  0.00     0.116 C 
BRANCH   3   4
ATOM      4  N   UNL A   1      31.392  25.873  26.520  1.00  0.00    -0.351 N 
ATOM      5  C   UNL A   1      30.985  24.656  26.081  1.00  0.00     0.277 C 
ATOM      6  O   UNL A   1      30.203  24.020  26.794  1.00  0.00    -0.268 OA
ATOM      7  H   UNL A   1      31.156  26.084  27.452  1.00  0.00     0.163 HD
BRANCH   5   8
ATOM      8  C   UNL A   1      31.508  24.067  24.760  1.00  0.00     0.269 C 
ATOM      9  C   UNL A   1      30.644  24.432  23.556  1.00  0.00     0.086 C 
BRANCH   8  10
ATOM     10  N   UNL A   1      31.830  22.649  24.913  1.00  0.00    -0.334 N 
ATOM     11  H   UNL A   1      30.943  22.146  24.963  1.00  0.00     0.347 HD
ATOM     12  H   UNL A   1      32.421  22.622  25.743  1.00  0.00     0.347 HD
BRANCH  10  13
ATOM     13  C   UNL A   1      32.641  21.983  23.884  1.00  0.00     0.188 C 
ATOM     14  C   UNL A   1      32.915  20.548  24.360  1.00  0.00     0.093 C 
ATOM     15  C   UNL A   1      33.946  22.620  23.353  1.00  0.00     0.100 C 
ATOM     16  C   UNL A   1      34.082  20.521  25.333  1.00  0.00     0.167 C 
ATOM     17  C   UNL A   1      35.181  22.404  24.243  1.00  0.00     0.074 C 
ATOM     18  O   UNL A   1      35.243  21.015  24.664  1.00  0.00    -0.375 OA
ATOM     19  C   UNL A   1      36.475  22.886  23.503  1.00  0.00     0.036 C 
ATOM     20  C   UNL A   1      35.583  23.456  25.337  1.00  0.00     0.036 C 
ATOM     21  C   UNL A   1      37.033  23.326  24.867  1.00  0.00     0.006 C 
ENDBRANCH  10  13
ENDBRANCH   8  10
ENDBRANCH   5   8
ENDBRANCH   3   4
ENDBRANCH   2   3
ENDBRANCH   1   2
BRANCH   1  22
ATOM     22  C   UNL A   1      32.680  29.800  26.120  1.00  0.00     0.116 C 
BRANCH  22  23
ATOM     23  N   UNL A   1      32.446  31.197  26.460  1.00  0.00    -0.352 N 
ATOM     24  C   UNL A   1      33.209  32.021  27.249  1.00  0.00     0.251 C 
ATOM     25  H   UNL A   1      31.636  31.603  26.072  1.00  0.00     0.163 HD
ATOM     26  O   UNL A   1      32.834  33.152  27.516  1.00  0.00    -0.269 OA
BRANCH  24  27
ATOM     27  C   UNL A   1      34.469  31.490  27.800  1.00  0.00     0.039 A 
ATOM     28  C   UNL A   1      35.513  32.380  28.058  1.00  0.00     0.014 A 
ATOM     29  C   UNL A   1      34.580  30.136  28.126  1.00  0.00     0.014 A 
ATOM     30  C   UNL A   1      36.660  31.915  28.701  1.00  0.00     0.010 A 
ATOM     31  C   UNL A   1      35.696  29.692  28.826  1.00  0.00     0.010 A 
ATOM     32  C   UNL A   1      36.747  30.576  29.114  1.00  0.00    -0.014 A 
BRANCH  32  33
ATOM     33  C   UNL A   1      37.930  30.082  29.858  1.00  0.00     0.031 A 
ATOM     34  C   UNL A   1      38.197  30.574  31.253  1.00  0.00     0.074 A 
ATOM     35  C   UNL A   1      38.804  29.261  29.245  1.00  0.00     0.049 A 
ATOM     36  N   UNL A   1      39.196  30.293  32.047  1.00  0.00    -0.248 NA
ATOM     37  C   UNL A   1      37.230  31.529  31.820  1.00  0.00     0.031 C 
ATOM     38  C   UNL A   1      38.694  28.786  27.863  1.00  0.00     0.029 A 
ATOM     39  N   UNL A   1      39.971  28.699  29.695  1.00  0.00    -0.354 N 
ATOM     40  C   UNL A   1      39.002  31.064  33.186  1.00  0.00     0.074 A 
ATOM     41  C   UNL A   1      37.807  31.849  32.969  1.00  0.00     0.031 C 
ATOM     42  C   UNL A   1      39.746  28.000  27.582  1.00  0.00     0.029 A 
ATOM     43  C   UNL A   1      40.617  27.934  28.752  1.00  0.00     0.049 A 
ATOM     44  H   UNL A   1      40.316  28.832  30.608  1.00  0.00     0.167 HD
ATOM     45  C   UNL A   1      39.736  31.091  34.324  1.00  0.00     0.034 A 
ATOM     46  C   UNL A   1      41.778  27.254  28.826  1.00  0.00     0.034 A 
ATOM     47  C   UNL A   1      40.888  30.265  34.553  1.00  0.00     0.049 A 
ATOM     48  C   UNL A   1      42.540  27.256  30.123  1.00  0.00     0.074 A 
ATOM     49  C   UNL A   1      41.639  30.138  35.708  1.00  0.00     0.029 A 
ATOM     50  N   UNL A   1      41.460  29.427  33.608  1.00  0.00    -0.354 N 
ATOM     51  N   UNL A   1      42.245  27.855  31.253  1.00  0.00    -0.248 NA
ATOM     52  C   UNL A   1      43.775  26.460  30.171  1.00  0.00     0.031 C 
ATOM     53  C   UNL A   1      42.676  29.234  35.456  1.00  0.00     0.029 A 
ATOM     54  C   UNL A   1      42.559  28.785  34.150  1.00  0.00     0.049 A 
ATOM     55  H   UNL A   1      41.132  29.306  32.688  1.00  0.00     0.167 HD
ATOM     56  C   UNL A   1      43.235  27.478  32.153  1.00  0.00     0.074 A 
ATOM     57  C   UNL A   1      44.126  26.584  31.444  1.00  0.00     0.031 C 
ATOM     58  C   UNL A   1      43.400  27.850  33.446  1.00  0.00     0.034 A 
BRANCH  45  59
ATOM     59  C   UNL A   1      39.274  32.000  35.431  1.00  0.00     0.023 A 
ATOM     60  C   UNL A   1      38.350  31.522  36.383  1.00  0.00     0.012 A 
ATOM     61  C   UNL A   1      39.792  33.303  35.566  1.00  0.00     0.148 A 
ATOM     62  C   UNL A   1      37.924  32.335  37.431  1.00  0.00     0.002 A 
ATOM     63  C   UNL A   1      39.394  34.092  36.639  1.00  0.00     0.091 A 
ATOM     64  F   UNL A   1      40.651  33.750  34.637  1.00  0.00    -0.205 F 
ATOM     65  C   UNL A   1      38.454  33.614  37.565  1.00  0.00     0.022 A 
BRANCH  63  66
ATOM     66  S   UNL A   1      40.076  35.727  36.942  1.00  0.00     0.127 S 
ATOM     67  O   UNL A   1      39.653  36.450  35.744  1.00  0.00    -0.237 OA
ATOM     68  O   UNL A   1      39.386  36.125  38.170  1.00  0.00    -0.237 OA
ATOM     69  O   UNL A   1      41.513  35.541  37.088  1.00  0.00    -0.744 OA
ENDBRANCH  63  66
ENDBRANCH  45  59
BRANCH  46  70
ATOM     70  C   UNL A   1      42.246  26.447  27.664  1.00  0.00     0.023 A 
ATOM     71  C   UNL A   1      43.106  27.038  26.719  1.00  0.00     0.012 A 
ATOM     72  C   UNL A   1      41.869  25.100  27.501  1.00  0.00     0.148 A 
ATOM     73  C   UNL A   1      43.559  26.314  25.615  1.00  0.00     0.002 A 
ATOM     74  C   UNL A   1      42.365  24.368  26.428  1.00  0.00     0.091 A 
ATOM     75  F   UNL A   1      41.039  24.558  28.404  1.00  0.00    -0.205 F 
ATOM     76  C   UNL A   1      43.197  24.976  25.474  1.00  0.00     0.022 A 
BRANCH  74  77
ATOM     77  S   UNL A   1      42.056  22.608  26.241  1.00  0.00     0.127 S 
ATOM     78  O   UNL A   1      42.636  22.071  27.469  1.00  0.00    -0.237 OA
ATOM     79  O   UNL A   1      40.594  22.561  26.178  1.00  0.00    -0.237 OA
ATOM     80  O   UNL A   1      42.719  22.225  25.002  1.00  0.00    -0.744 OA
ENDBRANCH  74  77
ENDBRANCH  46  70
BRANCH  58  81
ATOM     81  C   UNL A   1      44.568  27.270  34.197  1.00  0.00     0.023 A 
ATOM     82  C   UNL A   1      45.815  27.923  34.161  1.00  0.00     0.012 A 
ATOM     83  C   UNL A   1      44.408  26.125  35.001  1.00  0.00     0.148 A 
ATOM     84  C   UNL A   1      46.895  27.429  34.894  1.00  0.00     0.002 A 
ATOM     85  C   UNL A   1      45.474  25.665  35.766  1.00  0.00     0.091 A 
ATOM     86  F   UNL A   1      43.218  25.506  35.005  1.00  0.00    -0.205 F 
ATOM     87  C   UNL A   1      46.720  26.310  35.704  1.00  0.00     0.022 A 
BRANCH  85  88
ATOM     88  S   UNL A   1      45.311  24.292  36.912  1.00  0.00     0.127 S 
ATOM     89  O   UNL A   1      44.895  23.209  36.022  1.00  0.00    -0.237 OA
ATOM     90  O   UNL A   1      46.669  24.161  37.439  1.00  0.00    -0.237 OA
ATOM     91  O   UNL A   1      44.320  24.709  37.896  1.00  0.00    -0.744 OA
ENDBRANCH  85  88
ENDBRANCH  58  81
ENDBRANCH  32  33
ENDBRANCH  24  27
ENDBRANCH  22  23
ENDBRANCH   1  22
TORSDOF 16
ENDMDL
MODEL 3
REMARK VINA RESULT:     -11.1      5.465      8.687
REMARK SMILES C[C@H]([NH2+][C@@H]1CCOC2(CCC2)C1)C(=O)NCCCCNC(=O)c1ccc(-c2c3nc(c(-c4cccc(S(=O)(=O)[O-])c4F)c4ccc([nH]4)c(-c4cccc(S(=O)(=O)[O-])c4F)c4nc(c(-c5cccc(S(=O)(=O)[O-])c5F)c5ccc2[nH]5)C=C4)C=C3)cc1
REMARK SMILES IDX 18 1 17 2 16 3 15 4 13 5 14 6 2 8 1 9 3 10 4 13 5 14 12 15
REMARK SMILES IDX 6 16 8 17 7 18 9 19 11 20 10 21 19 22 20 23 21 24 22 26
REMARK SMILES IDX 23 27 24 28 85 29 25 30 84 31 26 32 27 33 28 34 78 35 29 36
REMARK SMILES IDX 83 37 77 38 79 39 30 40 82 41 76 42 75 43 31 45 63 46 43 47
REMARK SMILES IDX 62 48 44 49 47 50 61 51 80 52 45 53 46 54 60 56 81 57 48 58
REMARK SMILES IDX 32 59 33 60 41 61 34 62 36 63 42 64 35 65 37 66 38 67 39 68
REMARK SMILES IDX 40 69 64 70 65 71 73 72 66 73 68 74 74 75 67 76 69 77 70 78
REMARK SMILES IDX 71 79 72 80 49 81 50 82 58 83 51 84 53 85 59 86 52 87 54 88
REMARK SMILES IDX 55 89 56 90 57 91
REMARK H PARENT 15 7 3 11 3 12 20 25 79 44 47 55
REMARK Flexibility Score: inf
ROOT
ATOM      1  C   UNL A   1      37.577  19.810  24.678  1.00  0.00     0.023 C 
ENDROOT
BRANCH   1   2
ATOM      2  C   UNL A   1      36.104  20.042  25.024  1.00  0.00     0.023 C 
BRANCH   2   3
ATOM      3  C   UNL A   1      35.783  21.465  25.465  1.00  0.00     0.116 C 
BRANCH   3   4
ATOM      4  N   UNL A   1      35.022  21.456  26.690  1.00  0.00    -0.351 N 
ATOM      5  C   UNL A   1      33.751  21.875  26.917  1.00  0.00     0.277 C 
ATOM      6  O   UNL A   1      33.373  21.954  28.089  1.00  0.00    -0.268 OA
ATOM      7  H   UNL A   1      35.491  21.095  27.476  1.00  0.00     0.163 HD
BRANCH   5   8
ATOM      8  C   UNL A   1      32.799  22.202  25.755  1.00  0.00     0.269 C 
ATOM      9  C   UNL A   1      32.508  21.000  24.860  1.00  0.00     0.086 C 
BRANCH   8  10
ATOM     10  N   UNL A   1      33.212  23.426  25.071  1.00  0.00    -0.334 N 
ATOM     11  H   UNL A   1      32.562  23.568  24.296  1.00  0.00     0.347 HD
ATOM     12  H   UNL A   1      34.186  23.250  24.825  1.00  0.00     0.347 HD
BRANCH  10  13
ATOM     13  C   UNL A   1      33.264  24.687  25.824  1.00  0.00     0.188 C 
ATOM     14  C   UNL A   1      31.822  25.074  26.189  1.00  0.00     0.093 C 
ATOM     15  C   UNL A   1      34.018  25.920  25.275  1.00  0.00     0.100 C 
ATOM     16  C   UNL A   1      31.143  25.771  25.020  1.00  0.00     0.167 C 
ATOM     17  C   UNL A   1      33.236  26.751  24.244  1.00  0.00     0.074 C 
ATOM     18  O   UNL A   1      31.877  26.957  24.711  1.00  0.00    -0.375 OA
ATOM     19  C   UNL A   1      33.995  28.086  23.935  1.00  0.00     0.036 C 
ATOM     20  C   UNL A   1      33.383  26.475  22.705  1.00  0.00     0.036 C 
ATOM     21  C   UNL A   1      33.484  27.985  22.488  1.00  0.00     0.006 C 
ENDBRANCH  10  13
ENDBRANCH   8  10
ENDBRANCH   5   8
ENDBRANCH   3   4
ENDBRANCH   2   3
ENDBRANCH   1   2
BRANCH   1  22
ATOM     22  C   UNL A   1      38.564  20.202  25.771  1.00  0.00     0.116 C 
BRANCH  22  23
ATOM     23  N   UNL A   1      39.712  19.308  25.843  1.00  0.00    -0.352 N 
ATOM     24  C   UNL A   1      41.011  19.614  26.166  1.00  0.00     0.251 C 
ATOM     25  H   UNL A   1      39.533  18.363  25.634  1.00  0.00     0.163 HD
ATOM     26  O   UNL A   1      41.887  18.767  26.097  1.00  0.00    -0.269 OA
BRANCH  24  27
ATOM     27  C   UNL A   1      41.326  21.001  26.556  1.00  0.00     0.039 A 
ATOM     28  C   UNL A   1      42.209  21.213  27.616  1.00  0.00     0.014 A 
ATOM     29  C   UNL A   1      40.806  22.073  25.827  1.00  0.00     0.014 A 
ATOM     30  C   UNL A   1      42.619  22.512  27.910  1.00  0.00     0.010 A 
ATOM     31  C   UNL A   1      41.269  23.358  26.081  1.00  0.00     0.010 A 
ATOM     32  C   UNL A   1      42.174  23.590  27.127  1.00  0.00    -0.014 A 
BRANCH  32  33
ATOM     33  C   UNL A   1      42.652  24.969  27.384  1.00  0.00     0.031 A 
ATOM     34  C   UNL A   1      41.738  25.970  28.034  1.00  0.00     0.074 A 
ATOM     35  C   UNL A   1      43.874  25.340  26.954  1.00  0.00     0.049 A 
ATOM     36  N   UNL A   1      41.955  27.230  28.303  1.00  0.00    -0.248 NA
ATOM     37  C   UNL A   1      40.391  25.501  28.404  1.00  0.00     0.031 C 
ATOM     38  C   UNL A   1      44.816  24.479  26.234  1.00  0.00     0.029 A 
ATOM     39  N   UNL A   1      44.525  26.544  27.038  1.00  0.00    -0.354 N 
ATOM     40  C   UNL A   1      40.766  27.714  28.834  1.00  0.00     0.074 A 
ATOM     41  C   UNL A   1      39.820  26.621  28.820  1.00  0.00     0.031 C 
ATOM     42  C   UNL A   1      45.924  25.181  25.949  1.00  0.00     0.029 A 
ATOM     43  C   UNL A   1      45.765  26.545  26.443  1.00  0.00     0.049 A 
ATOM     44  H   UNL A   1      44.140  27.334  27.482  1.00  0.00     0.167 HD
ATOM     45  C   UNL A   1      40.498  28.949  29.319  1.00  0.00     0.034 A 
ATOM     46  C   UNL A   1      46.670  27.535  26.313  1.00  0.00     0.034 A 
ATOM     47  C   UNL A   1      41.463  30.011  29.381  1.00  0.00     0.049 A 
ATOM     48  C   UNL A   1      46.366  28.880  26.915  1.00  0.00     0.074 A 
ATOM     49  C   UNL A   1      41.326  31.266  29.950  1.00  0.00     0.029 A 
ATOM     50  N   UNL A   1      42.744  29.947  28.855  1.00  0.00    -0.354 N 
ATOM     51  N   UNL A   1      45.300  29.268  27.572  1.00  0.00    -0.248 NA
ATOM     52  C   UNL A   1      47.405  29.914  26.792  1.00  0.00     0.031 C 
ATOM     53  C   UNL A   1      42.520  31.966  29.752  1.00  0.00     0.029 A 
ATOM     54  C   UNL A   1      43.407  31.142  29.078  1.00  0.00     0.049 A 
ATOM     55  H   UNL A   1      43.126  29.167  28.392  1.00  0.00     0.167 HD
ATOM     56  C   UNL A   1      45.553  30.575  27.972  1.00  0.00     0.074 A 
ATOM     57  C   UNL A   1      46.883  30.905  27.502  1.00  0.00     0.031 C 
ATOM     58  C   UNL A   1      44.753  31.430  28.655  1.00  0.00     0.034 A 
BRANCH  45  59
ATOM     59  C   UNL A   1      39.123  29.196  29.877  1.00  0.00     0.023 A 
ATOM     60  C   UNL A   1      38.811  28.748  31.178  1.00  0.00     0.012 A 
ATOM     61  C   UNL A   1      38.160  29.918  29.147  1.00  0.00     0.148 A 
ATOM     62  C   UNL A   1      37.553  28.983  31.728  1.00  0.00     0.002 A 
ATOM     63  C   UNL A   1      36.922  30.187  29.719  1.00  0.00     0.091 A 
ATOM     64  F   UNL A   1      38.466  30.316  27.903  1.00  0.00    -0.205 F 
ATOM     65  C   UNL A   1      36.614  29.712  31.004  1.00  0.00     0.022 A 
BRANCH  63  66
ATOM     66  S   UNL A   1      35.672  31.183  28.898  1.00  0.00     0.127 S 
ATOM     67  O   UNL A   1      34.917  30.164  28.169  1.00  0.00    -0.237 OA
ATOM     68  O   UNL A   1      34.958  31.775  30.030  1.00  0.00    -0.237 OA
ATOM     69  O   UNL A   1      36.397  32.137  28.072  1.00  0.00    -0.744 OA
ENDBRANCH  63  66
ENDBRANCH  45  59
BRANCH  46  70
ATOM     70  C   UNL A   1      47.982  27.266  25.660  1.00  0.00     0.023 A 
ATOM     71  C   UNL A   1      49.039  26.744  26.429  1.00  0.00     0.012 A 
ATOM     72  C   UNL A   1      48.183  27.496  24.284  1.00  0.00     0.148 A 
ATOM     73  C   UNL A   1      50.282  26.486  25.852  1.00  0.00     0.002 A 
ATOM     74  C   UNL A   1      49.408  27.188  23.704  1.00  0.00     0.091 A 
ATOM     75  F   UNL A   1      47.169  28.005  23.570  1.00  0.00    -0.205 F 
ATOM     76  C   UNL A   1      50.465  26.698  24.488  1.00  0.00     0.022 A 
BRANCH  74  77
ATOM     77  S   UNL A   1      49.689  27.307  21.933  1.00  0.00     0.127 S 
ATOM     78  O   UNL A   1      51.091  26.910  21.826  1.00  0.00    -0.237 OA
ATOM     79  O   UNL A   1      48.730  26.333  21.407  1.00  0.00    -0.237 OA
ATOM     80  O   UNL A   1      49.388  28.688  21.583  1.00  0.00    -0.744 OA
ENDBRANCH  74  77
ENDBRANCH  46  70
BRANCH  58  81
ATOM     81  C   UNL A   1      45.298  32.798  28.967  1.00  0.00     0.023 A 
ATOM     82  C   UNL A   1      45.987  33.017  30.175  1.00  0.00     0.012 A 
ATOM     83  C   UNL A   1      45.198  33.843  28.026  1.00  0.00     0.148 A 
ATOM     84  C   UNL A   1      46.545  34.264  30.456  1.00  0.00     0.002 A 
ATOM     85  C   UNL A   1      45.797  35.068  28.292  1.00  0.00     0.091 A 
ATOM     86  F   UNL A   1      44.519  33.620  26.891  1.00  0.00    -0.205 F 
ATOM     87  C   UNL A   1      46.461  35.284  29.510  1.00  0.00     0.022 A 
BRANCH  85  88
ATOM     88  S   UNL A   1      45.823  36.404  27.091  1.00  0.00     0.127 S 
ATOM     89  O   UNL A   1      44.417  36.801  27.057  1.00  0.00    -0.237 OA
ATOM     90  O   UNL A   1      46.716  37.375  27.722  1.00  0.00    -0.237 OA
ATOM     91  O   UNL A   1      46.340  35.822  25.859  1.00  0.00    -0.744 OA
ENDBRANCH  85  88
ENDBRANCH  58  81
ENDBRANCH  32  33
ENDBRANCH  24  27
ENDBRANCH  22  23
ENDBRANCH   1  22
TORSDOF 16
ENDMDL
