MODEL 1
REMARK VINA RESULT:     -10.9      0.000      0.000
REMARK SMILES C[C@H](Nc1ccc(N(C)C)cc1)[C@@H](C)C(=O)NCCCCNC(=O)c1ccc(-c2c3nc(c(-c4cccc(S(=O)(=O)[O-])c4F)c4ccc([nH]4)c(-c4cccc(S(=O)(=O)[O-])c4F)c4nc(c(-c5cccc(S(=O)(=O)[O-])c5F)c5ccc2[nH]5)C=C4)C=C3)cc1
REMARK SMILES IDX 19 1 18 2 17 3 15 4 16 5 13 7 14 8 2 9 1 10 3 11 4 13 5 14
REMARK SMILES IDX 12 15 6 16 11 17 7 18 8 19 9 20 10 21 20 22 21 23 22 24
REMARK SMILES IDX 23 25 24 27 25 28 26 29 87 30 27 31 86 32 28 33 29 34 30 35
REMARK SMILES IDX 80 36 31 37 85 38 79 39 81 40 32 41 84 42 78 43 77 44 33 46
REMARK SMILES IDX 65 47 45 48 64 49 46 50 49 51 63 52 82 53 47 54 48 55 62 57
REMARK SMILES IDX 83 58 50 59 34 60 35 61 43 62 36 63 38 64 44 65 37 66 39 67
REMARK SMILES IDX 40 68 41 69 42 70 66 71 67 72 75 73 68 74 70 75 76 76 69 77
REMARK SMILES IDX 71 78 72 79 73 80 74 81 51 82 52 83 60 84 53 85 55 86 61 87
REMARK SMILES IDX 54 88 56 89 57 90 58 91 59 92
REMARK H PARENT 17 6 3 12 22 26 81 45 49 56
REMARK Flexibility Score: inf
ROOT
ATOM      1  C   UNL A   1      31.780  28.018  26.368  1.00  0.00     0.023 C 
ENDROOT
BRANCH   1   2
ATOM      2  C   UNL A   1      30.652  27.094  25.906  1.00  0.00     0.116 C 
BRANCH   2   3
ATOM      3  N   UNL A   1      30.624  25.838  26.632  1.00  0.00    -0.356 N 
ATOM      4  C   UNL A   1      31.165  24.619  26.357  1.00  0.00     0.224 C 
ATOM      5  O   UNL A   1      31.007  23.725  27.194  1.00  0.00    -0.275 OA
ATOM      6  H   UNL A   1      30.123  25.873  27.479  1.00  0.00     0.163 HD
BRANCH   4   7
ATOM      7  C   UNL A   1      31.948  24.326  25.077  1.00  0.00     0.097 C 
ATOM      8  C   UNL A   1      31.022  23.771  23.994  1.00  0.00     0.020 C 
BRANCH   7   9
ATOM      9  C   UNL A   1      33.221  23.505  25.368  1.00  0.00     0.088 C 
ATOM     10  C   UNL A   1      34.386  24.435  25.746  1.00  0.00     0.031 C 
BRANCH   9  11
ATOM     11  N   UNL A   1      33.616  22.694  24.211  1.00  0.00    -0.382 N 
ATOM     12  H   UNL A   1      33.882  23.146  23.379  1.00  0.00     0.160 HD
BRANCH  11  13
ATOM     13  C   UNL A   1      33.627  21.306  24.258  1.00  0.00     0.034 A 
ATOM     14  C   UNL A   1      34.778  20.644  24.679  1.00  0.00     0.028 A 
ATOM     15  C   UNL A   1      32.530  20.511  23.937  1.00  0.00     0.028 A 
ATOM     16  C   UNL A   1      34.803  19.246  24.848  1.00  0.00     0.028 A 
ATOM     17  C   UNL A   1      32.563  19.114  24.097  1.00  0.00     0.028 A 
ATOM     18  C   UNL A   1      33.690  18.435  24.586  1.00  0.00     0.036 A 
BRANCH  18  19
ATOM     19  N   UNL A   1      33.693  17.056  24.768  1.00  0.00    -0.378 N 
ATOM     20  C   UNL A   1      32.804  16.387  25.710  1.00  0.00     0.143 C 
ATOM     21  C   UNL A   1      34.311  16.192  23.765  1.00  0.00     0.143 C 
ENDBRANCH  18  19
ENDBRANCH  11  13
ENDBRANCH   9  11
ENDBRANCH   7   9
ENDBRANCH   4   7
ENDBRANCH   2   3
ENDBRANCH   1   2
BRANCH   1  22
ATOM     22  C   UNL A   1      33.006  28.059  25.459  1.00  0.00     0.023 C 
BRANCH  22  23
ATOM     23  C   UNL A   1      33.512  29.451  25.105  1.00  0.00     0.116 C 
BRANCH  23  24
ATOM     24  N   UNL A   1      32.807  30.520  25.802  1.00  0.00    -0.352 N 
ATOM     25  C   UNL A   1      33.208  31.201  26.928  1.00  0.00     0.251 C 
ATOM     26  H   UNL A   1      31.941  30.789  25.419  1.00  0.00     0.163 HD
ATOM     27  O   UNL A   1      32.464  32.021  27.460  1.00  0.00    -0.269 OA
BRANCH  25  28
ATOM     28  C   UNL A   1      34.530  30.897  27.513  1.00  0.00     0.039 A 
ATOM     29  C   UNL A   1      35.475  31.920  27.626  1.00  0.00     0.014 A 
ATOM     30  C   UNL A   1      34.801  29.619  28.009  1.00  0.00     0.014 A 
ATOM     31  C   UNL A   1      36.670  31.680  28.309  1.00  0.00     0.010 A 
ATOM     32  C   UNL A   1      35.958  29.404  28.749  1.00  0.00     0.010 A 
ATOM     33  C   UNL A   1      36.902  30.431  28.908  1.00  0.00    -0.014 A 
BRANCH  33  34
ATOM     34  C   UNL A   1      38.125  30.155  29.704  1.00  0.00     0.031 A 
ATOM     35  C   UNL A   1      39.150  29.190  29.175  1.00  0.00     0.074 A 
ATOM     36  C   UNL A   1      38.255  30.676  30.940  1.00  0.00     0.049 A 
ATOM     37  N   UNL A   1      40.201  28.693  29.771  1.00  0.00    -0.248 NA
ATOM     38  C   UNL A   1      38.944  28.688  27.805  1.00  0.00     0.031 C 
ATOM     39  C   UNL A   1      37.297  31.575  31.589  1.00  0.00     0.029 A 
ATOM     40  N   UNL A   1      39.231  30.495  31.888  1.00  0.00    -0.354 N 
ATOM     41  C   UNL A   1      40.755  27.791  28.871  1.00  0.00     0.074 A 
ATOM     42  C   UNL A   1      39.907  27.786  27.699  1.00  0.00     0.031 C 
ATOM     43  C   UNL A   1      37.732  31.864  32.826  1.00  0.00     0.029 A 
ATOM     44  C   UNL A   1      38.980  31.150  33.072  1.00  0.00     0.049 A 
ATOM     45  H   UNL A   1      40.035  29.948  31.735  1.00  0.00     0.167 HD
ATOM     46  C   UNL A   1      41.886  27.057  28.994  1.00  0.00     0.034 A 
ATOM     47  C   UNL A   1      39.677  31.164  34.226  1.00  0.00     0.034 A 
ATOM     48  C   UNL A   1      42.759  27.113  30.134  1.00  0.00     0.049 A 
ATOM     49  C   UNL A   1      40.960  30.380  34.314  1.00  0.00     0.074 A 
ATOM     50  C   UNL A   1      43.960  26.457  30.330  1.00  0.00     0.029 A 
ATOM     51  N   UNL A   1      42.531  27.882  31.264  1.00  0.00    -0.354 N 
ATOM     52  N   UNL A   1      41.533  29.631  33.404  1.00  0.00    -0.248 NA
ATOM     53  C   UNL A   1      41.711  30.472  35.575  1.00  0.00     0.031 C 
ATOM     54  C   UNL A   1      44.463  26.834  31.580  1.00  0.00     0.029 A 
ATOM     55  C   UNL A   1      43.577  27.730  32.156  1.00  0.00     0.049 A 
ATOM     56  H   UNL A   1      41.742  28.453  31.410  1.00  0.00     0.167 HD
ATOM     57  C   UNL A   1      42.731  29.202  33.962  1.00  0.00     0.074 A 
ATOM     58  C   UNL A   1      42.808  29.784  35.286  1.00  0.00     0.031 C 
ATOM     59  C   UNL A   1      43.676  28.386  33.434  1.00  0.00     0.034 A 
BRANCH  46  60
ATOM     60  C   UNL A   1      42.281  26.185  27.833  1.00  0.00     0.023 A 
ATOM     61  C   UNL A   1      43.102  26.721  26.819  1.00  0.00     0.012 A 
ATOM     62  C   UNL A   1      41.896  24.832  27.768  1.00  0.00     0.148 A 
ATOM     63  C   UNL A   1      43.507  25.935  25.743  1.00  0.00     0.002 A 
ATOM     64  C   UNL A   1      42.338  24.042  26.713  1.00  0.00     0.091 A 
ATOM     65  F   UNL A   1      41.097  24.346  28.729  1.00  0.00    -0.205 F 
ATOM     66  C   UNL A   1      43.135  24.595  25.695  1.00  0.00     0.022 A 
BRANCH  64  67
ATOM     67  S   UNL A   1      41.976  22.287  26.597  1.00  0.00     0.127 S 
ATOM     68  O   UNL A   1      42.562  21.783  27.839  1.00  0.00    -0.237 OA
ATOM     69  O   UNL A   1      40.514  22.274  26.564  1.00  0.00    -0.237 OA
ATOM     70  O   UNL A   1      42.614  21.827  25.372  1.00  0.00    -0.744 OA
ENDBRANCH  64  67
ENDBRANCH  46  60
BRANCH  47  71
ATOM     71  C   UNL A   1      39.226  32.014  35.366  1.00  0.00     0.023 A 
ATOM     72  C   UNL A   1      38.283  31.493  36.274  1.00  0.00     0.012 A 
ATOM     73  C   UNL A   1      39.724  33.315  35.567  1.00  0.00     0.148 A 
ATOM     74  C   UNL A   1      37.817  32.263  37.340  1.00  0.00     0.002 A 
ATOM     75  C   UNL A   1      39.294  34.059  36.661  1.00  0.00     0.091 A 
ATOM     76  F   UNL A   1      40.609  33.803  34.686  1.00  0.00    -0.205 F 
ATOM     77  C   UNL A   1      38.329  33.542  37.538  1.00  0.00     0.022 A 
BRANCH  75  78
ATOM     78  S   UNL A   1      39.998  35.664  37.059  1.00  0.00     0.127 S 
ATOM     79  O   UNL A   1      39.651  36.445  35.876  1.00  0.00    -0.237 OA
ATOM     80  O   UNL A   1      39.271  36.028  38.275  1.00  0.00    -0.237 OA
ATOM     81  O   UNL A   1      41.420  35.416  37.268  1.00  0.00    -0.744 OA
ENDBRANCH  75  78
ENDBRANCH  47  71
BRANCH  59  82
ATOM     82  C   UNL A   1      44.908  28.115  34.251  1.00  0.00     0.023 A 
ATOM     83  C   UNL A   1      46.027  28.962  34.133  1.00  0.00     0.012 A 
ATOM     84  C   UNL A   1      44.918  27.082  35.209  1.00  0.00     0.148 A 
ATOM     85  C   UNL A   1      47.146  28.772  34.941  1.00  0.00     0.002 A 
ATOM     86  C   UNL A   1      46.020  26.924  36.040  1.00  0.00     0.091 A 
ATOM     87  F   UNL A   1      43.850  26.274  35.290  1.00  0.00    -0.205 F 
ATOM     88  C   UNL A   1      47.138  27.763  35.902  1.00  0.00     0.022 A 
BRANCH  86  89
ATOM     89  S   UNL A   1      46.056  25.713  37.367  1.00  0.00     0.127 S 
ATOM     90  O   UNL A   1      46.303  24.474  36.632  1.00  0.00    -0.237 OA
ATOM     91  O   UNL A   1      47.180  26.174  38.182  1.00  0.00    -0.237 OA
ATOM     92  O   UNL A   1      44.759  25.805  38.025  1.00  0.00    -0.744 OA
ENDBRANCH  86  89
ENDBRANCH  59  82
ENDBRANCH  33  34
ENDBRANCH  25  28
ENDBRANCH  23  24
ENDBRANCH  22  23
ENDBRANCH   1  22
TORSDOF 18
ENDMDL
MODEL 2
REMARK VINA RESULT:     -10.9      1.760      3.669
REMARK SMILES C[C@H](Nc1ccc(N(C)C)cc1)[C@@H](C)C(=O)NCCCCNC(=O)c1ccc(-c2c3nc(c(-c4cccc(S(=O)(=O)[O-])c4F)c4ccc([nH]4)c(-c4cccc(S(=O)(=O)[O-])c4F)c4nc(c(-c5cccc(S(=O)(=O)[O-])c5F)c5ccc2[nH]5)C=C4)C=C3)cc1
REMARK SMILES IDX 19 1 18 2 17 3 15 4 16 5 13 7 14 8 2 9 1 10 3 11 4 13 5 14
REMARK SMILES IDX 12 15 6 16 11 17 7 18 8 19 9 20 10 21 20 22 21 23 22 24
REMARK SMILES IDX 23 25 24 27 25 28 26 29 87 30 27 31 86 32 28 33 29 34 30 35
REMARK SMILES IDX 80 36 31 37 85 38 79 39 81 40 32 41 84 42 78 43 77 44 33 46
REMARK SMILES IDX 65 47 45 48 64 49 46 50 49 51 63 52 82 53 47 54 48 55 62 57
REMARK SMILES IDX 83 58 50 59 34 60 35 61 43 62 36 63 38 64 44 65 37 66 39 67
REMARK SMILES IDX 40 68 41 69 42 70 66 71 67 72 75 73 68 74 70 75 76 76 69 77
REMARK SMILES IDX 71 78 72 79 73 80 74 81 51 82 52 83 60 84 53 85 55 86 61 87
REMARK SMILES IDX 54 88 56 89 57 90 58 91 59 92
REMARK H PARENT 17 6 3 12 22 26 81 45 49 56
REMARK Flexibility Score: inf
ROOT
ATOM      1  C   UNL A   1      32.325  26.868  25.768  1.00  0.00     0.023 C 
ENDROOT
BRANCH   1   2
ATOM      2  C   UNL A   1      33.766  26.359  25.847  1.00  0.00     0.116 C 
BRANCH   2   3
ATOM      3  N   UNL A   1      34.247  25.840  24.579  1.00  0.00    -0.356 N 
ATOM      4  C   UNL A   1      34.020  24.661  23.938  1.00  0.00     0.224 C 
ATOM      5  O   UNL A   1      34.544  24.507  22.830  1.00  0.00    -0.275 OA
ATOM      6  H   UNL A   1      34.844  26.453  24.093  1.00  0.00     0.163 HD
BRANCH   4   7
ATOM      7  C   UNL A   1      33.158  23.545  24.527  1.00  0.00     0.097 C 
ATOM      8  C   UNL A   1      34.025  22.358  24.950  1.00  0.00     0.020 C 
BRANCH   7   9
ATOM      9  C   UNL A   1      31.956  23.217  23.617  1.00  0.00     0.088 C 
ATOM     10  C   UNL A   1      32.152  21.852  22.938  1.00  0.00     0.031 C 
BRANCH   9  11
ATOM     11  N   UNL A   1      31.767  24.240  22.582  1.00  0.00    -0.382 N 
ATOM     12  H   UNL A   1      32.163  24.099  21.693  1.00  0.00     0.160 HD
BRANCH  11  13
ATOM     13  C   UNL A   1      31.046  25.402  22.822  1.00  0.00     0.034 A 
ATOM     14  C   UNL A   1      31.464  26.600  22.247  1.00  0.00     0.028 A 
ATOM     15  C   UNL A   1      29.883  25.449  23.587  1.00  0.00     0.028 A 
ATOM     16  C   UNL A   1      30.706  27.780  22.369  1.00  0.00     0.028 A 
ATOM     17  C   UNL A   1      29.135  26.632  23.715  1.00  0.00     0.028 A 
ATOM     18  C   UNL A   1      29.503  27.832  23.088  1.00  0.00     0.036 A 
BRANCH  18  19
ATOM     19  N   UNL A   1      28.733  28.985  23.199  1.00  0.00    -0.378 N 
ATOM     20  C   UNL A   1      29.290  30.320  23.019  1.00  0.00     0.143 C 
ATOM     21  C   UNL A   1      27.277  28.896  23.125  1.00  0.00     0.143 C 
ENDBRANCH  18  19
ENDBRANCH  11  13
ENDBRANCH   9  11
ENDBRANCH   7   9
ENDBRANCH   4   7
ENDBRANCH   2   3
ENDBRANCH   1   2
BRANCH   1  22
ATOM     22  C   UNL A   1      32.172  28.383  25.662  1.00  0.00     0.023 C 
BRANCH  22  23
ATOM     23  C   UNL A   1      32.387  29.154  26.958  1.00  0.00     0.116 C 
BRANCH  23  24
ATOM     24  N   UNL A   1      32.154  30.586  26.828  1.00  0.00    -0.352 N 
ATOM     25  C   UNL A   1      32.994  31.614  27.189  1.00  0.00     0.251 C 
ATOM     26  H   UNL A   1      31.292  30.851  26.433  1.00  0.00     0.163 HD
ATOM     27  O   UNL A   1      32.625  32.782  27.103  1.00  0.00    -0.269 OA
BRANCH  25  28
ATOM     28  C   UNL A   1      34.332  31.288  27.723  1.00  0.00     0.039 A 
ATOM     29  C   UNL A   1      35.234  32.323  27.980  1.00  0.00     0.014 A 
ATOM     30  C   UNL A   1      34.661  29.965  28.030  1.00  0.00     0.014 A 
ATOM     31  C   UNL A   1      36.443  32.040  28.620  1.00  0.00     0.010 A 
ATOM     32  C   UNL A   1      35.831  29.696  28.731  1.00  0.00     0.010 A 
ATOM     33  C   UNL A   1      36.732  30.729  29.034  1.00  0.00    -0.014 A 
BRANCH  33  34
ATOM     34  C   UNL A   1      37.971  30.396  29.781  1.00  0.00     0.031 A 
ATOM     35  C   UNL A   1      38.961  29.437  29.180  1.00  0.00     0.074 A 
ATOM     36  C   UNL A   1      38.146  30.858  31.035  1.00  0.00     0.049 A 
ATOM     37  N   UNL A   1      40.020  28.894  29.723  1.00  0.00    -0.248 NA
ATOM     38  C   UNL A   1      38.707  29.001  27.796  1.00  0.00     0.031 C 
ATOM     39  C   UNL A   1      37.225  31.744  31.751  1.00  0.00     0.029 A 
ATOM     40  N   UNL A   1      39.145  30.616  31.945  1.00  0.00    -0.354 N 
ATOM     41  C   UNL A   1      40.530  28.024  28.768  1.00  0.00     0.074 A 
ATOM     42  C   UNL A   1      39.649  28.087  27.622  1.00  0.00     0.031 C 
ATOM     43  C   UNL A   1      37.700  31.970  32.987  1.00  0.00     0.029 A 
ATOM     44  C   UNL A   1      38.941  31.222  33.164  1.00  0.00     0.049 A 
ATOM     45  H   UNL A   1      39.934  30.063  31.744  1.00  0.00     0.167 HD
ATOM     46  C   UNL A   1      41.649  27.264  28.825  1.00  0.00     0.034 A 
ATOM     47  C   UNL A   1      39.670  31.171  34.297  1.00  0.00     0.034 A 
ATOM     48  C   UNL A   1      42.555  27.253  29.940  1.00  0.00     0.049 A 
ATOM     49  C   UNL A   1      40.939  30.361  34.312  1.00  0.00     0.074 A 
ATOM     50  C   UNL A   1      43.748  26.567  30.072  1.00  0.00     0.029 A 
ATOM     51  N   UNL A   1      42.375  27.974  31.110  1.00  0.00    -0.354 N 
ATOM     52  N   UNL A   1      41.472  29.643  33.353  1.00  0.00    -0.248 NA
ATOM     53  C   UNL A   1      41.727  30.382  35.554  1.00  0.00     0.031 C 
ATOM     54  C   UNL A   1      44.293  26.877  31.323  1.00  0.00     0.029 A 
ATOM     55  C   UNL A   1      43.442  27.762  31.963  1.00  0.00     0.049 A 
ATOM     56  H   UNL A   1      41.601  28.553  31.304  1.00  0.00     0.167 HD
ATOM     57  C   UNL A   1      42.677  29.168  33.857  1.00  0.00     0.074 A 
ATOM     58  C   UNL A   1      42.802  29.688  35.203  1.00  0.00     0.031 C 
ATOM     59  C   UNL A   1      43.590  28.359  33.266  1.00  0.00     0.034 A 
BRANCH  46  60
ATOM     60  C   UNL A   1      41.994  26.438  27.616  1.00  0.00     0.023 A 
ATOM     61  C   UNL A   1      42.663  27.049  26.535  1.00  0.00     0.012 A 
ATOM     62  C   UNL A   1      41.714  25.059  27.565  1.00  0.00     0.148 A 
ATOM     63  C   UNL A   1      43.020  26.308  25.410  1.00  0.00     0.002 A 
ATOM     64  C   UNL A   1      42.109  24.318  26.457  1.00  0.00     0.091 A 
ATOM     65  F   UNL A   1      41.057  24.501  28.593  1.00  0.00    -0.205 F 
ATOM     66  C   UNL A   1      42.753  24.943  25.376  1.00  0.00     0.022 A 
BRANCH  64  67
ATOM     67  S   UNL A   1      41.879  22.540  26.348  1.00  0.00     0.127 S 
ATOM     68  O   UNL A   1      42.650  22.217  25.147  1.00  0.00    -0.237 OA
ATOM     69  O   UNL A   1      42.475  22.073  27.598  1.00  0.00    -0.237 OA
ATOM     70  O   UNL A   1      40.442  22.329  26.245  1.00  0.00    -0.744 OA
ENDBRANCH  64  67
ENDBRANCH  46  60
BRANCH  47  71
ATOM     71  C   UNL A   1      39.268  31.977  35.485  1.00  0.00     0.023 A 
ATOM     72  C   UNL A   1      38.429  31.392  36.454  1.00  0.00     0.012 A 
ATOM     73  C   UNL A   1      39.713  33.299  35.673  1.00  0.00     0.148 A 
ATOM     74  C   UNL A   1      38.011  32.119  37.569  1.00  0.00     0.002 A 
ATOM     75  C   UNL A   1      39.333  34.002  36.813  1.00  0.00     0.091 A 
ATOM     76  F   UNL A   1      40.497  33.848  34.735  1.00  0.00    -0.205 F 
ATOM     77  C   UNL A   1      38.469  33.420  37.753  1.00  0.00     0.022 A 
BRANCH  75  78
ATOM     78  S   UNL A   1      39.983  35.635  37.187  1.00  0.00     0.127 S 
ATOM     79  O   UNL A   1      39.278  35.964  38.422  1.00  0.00    -0.237 OA
ATOM     80  O   UNL A   1      41.414  35.369  37.344  1.00  0.00    -0.237 OA
ATOM     81  O   UNL A   1      39.656  36.453  36.024  1.00  0.00    -0.744 OA
ENDBRANCH  75  78
ENDBRANCH  47  71
BRANCH  59  82
ATOM     82  C   UNL A   1      44.839  28.029  34.034  1.00  0.00     0.023 A 
ATOM     83  C   UNL A   1      45.950  28.891  33.968  1.00  0.00     0.012 A 
ATOM     84  C   UNL A   1      44.873  26.917  34.899  1.00  0.00     0.148 A 
ATOM     85  C   UNL A   1      47.086  28.642  34.736  1.00  0.00     0.002 A 
ATOM     86  C   UNL A   1      45.992  26.698  35.693  1.00  0.00     0.091 A 
ATOM     87  F   UNL A   1      43.812  26.097  34.930  1.00  0.00    -0.205 F 
ATOM     88  C   UNL A   1      47.102  27.555  35.607  1.00  0.00     0.022 A 
BRANCH  86  89
ATOM     89  S   UNL A   1      46.061  25.378  36.911  1.00  0.00     0.127 S 
ATOM     90  O   UNL A   1      44.908  25.692  37.754  1.00  0.00    -0.237 OA
ATOM     91  O   UNL A   1      45.904  24.181  36.084  1.00  0.00    -0.237 OA
ATOM     92  O   UNL A   1      47.361  25.497  37.556  1.00  0.00    -0.744 OA
ENDBRANCH  86  89
ENDBRANCH  59  82
ENDBRANCH  33  34
ENDBRANCH  25  28
ENDBRANCH  23  24
ENDBRANCH  22  23
ENDBRANCH   1  22
TORSDOF 18
ENDMDL
MODEL 3
REMARK VINA RESULT:     -10.9      1.526      7.830
REMARK SMILES C[C@H](Nc1ccc(N(C)C)cc1)[C@@H](C)C(=O)NCCCCNC(=O)c1ccc(-c2c3nc(c(-c4cccc(S(=O)(=O)[O-])c4F)c4ccc([nH]4)c(-c4cccc(S(=O)(=O)[O-])c4F)c4nc(c(-c5cccc(S(=O)(=O)[O-])c5F)c5ccc2[nH]5)C=C4)C=C3)cc1
REMARK SMILES IDX 19 1 18 2 17 3 15 4 16 5 13 7 14 8 2 9 1 10 3 11 4 13 5 14
REMARK SMILES IDX 12 15 6 16 11 17 7 18 8 19 9 20 10 21 20 22 21 23 22 24
REMARK SMILES IDX 23 25 24 27 25 28 26 29 87 30 27 31 86 32 28 33 29 34 30 35
REMARK SMILES IDX 80 36 31 37 85 38 79 39 81 40 32 41 84 42 78 43 77 44 33 46
REMARK SMILES IDX 65 47 45 48 64 49 46 50 49 51 63 52 82 53 47 54 48 55 62 57
REMARK SMILES IDX 83 58 50 59 34 60 35 61 43 62 36 63 38 64 44 65 37 66 39 67
REMARK SMILES IDX 40 68 41 69 42 70 66 71 67 72 75 73 68 74 70 75 76 76 69 77
REMARK SMILES IDX 71 78 72 79 73 80 74 81 51 82 52 83 60 84 53 85 55 86 61 87
REMARK SMILES IDX 54 88 56 89 57 90 58 91 59 92
REMARK H PARENT 17 6 3 12 22 26 81 45 49 56
REMARK Flexibility Score: inf
ROOT
ATOM      1  C   UNL A   1      31.781  27.714  26.741  1.00  0.00     0.023 C 
ENDROOT
BRANCH   1   2
ATOM      2  C   UNL A   1      30.944  26.569  26.167  1.00  0.00     0.116 C 
BRANCH   2   3
ATOM      3  N   UNL A   1      31.327  25.274  26.700  1.00  0.00    -0.356 N 
ATOM      4  C   UNL A   1      31.801  24.150  26.097  1.00  0.00     0.224 C 
ATOM      5  O   UNL A   1      32.083  23.191  26.823  1.00  0.00    -0.275 OA
ATOM      6  H   UNL A   1      31.226  25.194  27.677  1.00  0.00     0.163 HD
BRANCH   4   7
ATOM      7  C   UNL A   1      31.996  24.035  24.586  1.00  0.00     0.097 C 
ATOM      8  C   UNL A   1      30.652  24.112  23.860  1.00  0.00     0.020 C 
BRANCH   7   9
ATOM      9  C   UNL A   1      32.897  22.837  24.220  1.00  0.00     0.088 C 
ATOM     10  C   UNL A   1      33.857  23.214  23.080  1.00  0.00     0.031 C 
BRANCH   9  11
ATOM     11  N   UNL A   1      32.106  21.672  23.811  1.00  0.00    -0.382 N 
ATOM     12  H   UNL A   1      31.290  21.811  23.278  1.00  0.00     0.160 HD
BRANCH  11  13
ATOM     13  C   UNL A   1      32.476  20.378  24.151  1.00  0.00     0.034 A 
ATOM     14  C   UNL A   1      32.827  20.089  25.467  1.00  0.00     0.028 A 
ATOM     15  C   UNL A   1      32.488  19.313  23.253  1.00  0.00     0.028 A 
ATOM     16  C   UNL A   1      33.103  18.773  25.884  1.00  0.00     0.028 A 
ATOM     17  C   UNL A   1      32.773  18.002  23.672  1.00  0.00     0.028 A 
ATOM     18  C   UNL A   1      33.062  17.680  25.007  1.00  0.00     0.036 A 
BRANCH  18  19
ATOM     19  N   UNL A   1      33.311  16.372  25.409  1.00  0.00    -0.378 N 
ATOM     20  C   UNL A   1      32.243  15.406  25.641  1.00  0.00     0.143 C 
ATOM     21  C   UNL A   1      34.648  15.805  25.251  1.00  0.00     0.143 C 
ENDBRANCH  18  19
ENDBRANCH  11  13
ENDBRANCH   9  11
ENDBRANCH   7   9
ENDBRANCH   4   7
ENDBRANCH   2   3
ENDBRANCH   1   2
BRANCH   1  22
ATOM     22  C   UNL A   1      31.959  28.918  25.820  1.00  0.00     0.023 C 
BRANCH  22  23
ATOM     23  C   UNL A   1      33.227  29.731  26.045  1.00  0.00     0.116 C 
BRANCH  23  24
ATOM     24  N   UNL A   1      32.976  31.061  26.586  1.00  0.00    -0.352 N 
ATOM     25  C   UNL A   1      33.739  31.761  27.493  1.00  0.00     0.251 C 
ATOM     26  H   UNL A   1      32.165  31.514  26.263  1.00  0.00     0.163 HD
ATOM     27  O   UNL A   1      33.354  32.842  27.929  1.00  0.00    -0.269 OA
BRANCH  25  28
ATOM     28  C   UNL A   1      35.007  31.169  27.964  1.00  0.00     0.039 A 
ATOM     29  C   UNL A   1      36.158  31.961  27.993  1.00  0.00     0.014 A 
ATOM     30  C   UNL A   1      35.035  29.856  28.441  1.00  0.00     0.014 A 
ATOM     31  C   UNL A   1      37.325  31.457  28.573  1.00  0.00     0.010 A 
ATOM     32  C   UNL A   1      36.175  29.384  29.081  1.00  0.00     0.010 A 
ATOM     33  C   UNL A   1      37.330  30.180  29.156  1.00  0.00    -0.014 A 
BRANCH  33  34
ATOM     34  C   UNL A   1      38.525  29.634  29.846  1.00  0.00     0.031 A 
ATOM     35  C   UNL A   1      38.916  30.181  31.192  1.00  0.00     0.074 A 
ATOM     36  C   UNL A   1      39.317  28.742  29.218  1.00  0.00     0.049 A 
ATOM     37  N   UNL A   1      39.998  29.960  31.890  1.00  0.00    -0.248 NA
ATOM     38  C   UNL A   1      37.982  31.132  31.818  1.00  0.00     0.031 C 
ATOM     39  C   UNL A   1      39.078  28.184  27.885  1.00  0.00     0.029 A 
ATOM     40  N   UNL A   1      40.505  28.173  29.606  1.00  0.00    -0.354 N 
ATOM     41  C   UNL A   1      39.897  30.774  33.012  1.00  0.00     0.074 A 
ATOM     42  C   UNL A   1      38.662  31.517  32.887  1.00  0.00     0.031 C 
ATOM     43  C   UNL A   1      40.086  27.357  27.566  1.00  0.00     0.029 A 
ATOM     44  C   UNL A   1      41.058  27.347  28.654  1.00  0.00     0.049 A 
ATOM     45  H   UNL A   1      40.921  28.341  30.482  1.00  0.00     0.167 HD
ATOM     46  C   UNL A   1      40.739  30.871  34.067  1.00  0.00     0.034 A 
ATOM     47  C   UNL A   1      42.223  26.667  28.659  1.00  0.00     0.034 A 
ATOM     48  C   UNL A   1      41.932  30.085  34.218  1.00  0.00     0.049 A 
ATOM     49  C   UNL A   1      43.112  26.752  29.871  1.00  0.00     0.074 A 
ATOM     50  C   UNL A   1      42.819  30.062  35.278  1.00  0.00     0.029 A 
ATOM     51  N   UNL A   1      42.395  29.169  33.286  1.00  0.00    -0.354 N 
ATOM     52  N   UNL A   1      42.936  27.432  30.978  1.00  0.00    -0.248 NA
ATOM     53  C   UNL A   1      44.344  25.950  29.851  1.00  0.00     0.031 C 
ATOM     54  C   UNL A   1      43.820  29.128  34.988  1.00  0.00     0.029 A 
ATOM     55  C   UNL A   1      43.548  28.565  33.752  1.00  0.00     0.049 A 
ATOM     56  H   UNL A   1      41.966  28.978  32.420  1.00  0.00     0.167 HD
ATOM     57  C   UNL A   1      44.006  27.103  31.802  1.00  0.00     0.074 A 
ATOM     58  C   UNL A   1      44.820  26.154  31.072  1.00  0.00     0.031 C 
ATOM     59  C   UNL A   1      44.297  27.558  33.046  1.00  0.00     0.034 A 
BRANCH  46  60
ATOM     60  C   UNL A   1      40.358  31.811  35.179  1.00  0.00     0.023 A 
ATOM     61  C   UNL A   1      40.975  33.078  35.250  1.00  0.00     0.012 A 
ATOM     62  C   UNL A   1      39.359  31.475  36.114  1.00  0.00     0.148 A 
ATOM     63  C   UNL A   1      40.627  33.982  36.250  1.00  0.00     0.002 A 
ATOM     64  C   UNL A   1      38.989  32.399  37.085  1.00  0.00     0.091 A 
ATOM     65  F   UNL A   1      38.801  30.258  36.044  1.00  0.00    -0.205 F 
ATOM     66  C   UNL A   1      39.629  33.648  37.160  1.00  0.00     0.022 A 
BRANCH  64  67
ATOM     67  S   UNL A   1      37.663  32.094  38.257  1.00  0.00     0.127 S 
ATOM     68  O   UNL A   1      36.628  33.009  37.776  1.00  0.00    -0.237 OA
ATOM     69  O   UNL A   1      37.373  30.678  38.035  1.00  0.00    -0.237 OA
ATOM     70  O   UNL A   1      38.211  32.402  39.570  1.00  0.00    -0.744 OA
ENDBRANCH  64  67
ENDBRANCH  46  60
BRANCH  47  71
ATOM     71  C   UNL A   1      42.577  25.777  27.517  1.00  0.00     0.023 A 
ATOM     72  C   UNL A   1      43.381  26.287  26.478  1.00  0.00     0.012 A 
ATOM     73  C   UNL A   1      42.144  24.439  27.454  1.00  0.00     0.148 A 
ATOM     74  C   UNL A   1      43.716  25.494  25.380  1.00  0.00     0.002 A 
ATOM     75  C   UNL A   1      42.525  23.638  26.381  1.00  0.00     0.091 A 
ATOM     76  F   UNL A   1      41.367  23.972  28.442  1.00  0.00    -0.205 F 
ATOM     77  C   UNL A   1      43.295  24.168  25.336  1.00  0.00     0.022 A 
BRANCH  75  78
ATOM     78  S   UNL A   1      42.131  21.886  26.313  1.00  0.00     0.127 S 
ATOM     79  O   UNL A   1      40.698  21.911  26.038  1.00  0.00    -0.237 OA
ATOM     80  O   UNL A   1      42.965  21.425  25.202  1.00  0.00    -0.237 OA
ATOM     81  O   UNL A   1      42.525  21.354  27.612  1.00  0.00    -0.744 OA
ENDBRANCH  75  78
ENDBRANCH  47  71
BRANCH  59  82
ATOM     82  C   UNL A   1      45.512  26.998  33.733  1.00  0.00     0.023 A 
ATOM     83  C   UNL A   1      46.743  27.674  33.637  1.00  0.00     0.012 A 
ATOM     84  C   UNL A   1      45.407  25.857  34.553  1.00  0.00     0.148 A 
ATOM     85  C   UNL A   1      47.859  27.211  34.333  1.00  0.00     0.002 A 
ATOM     86  C   UNL A   1      46.512  25.427  35.276  1.00  0.00     0.091 A 
ATOM     87  F   UNL A   1      44.230  25.217  34.612  1.00  0.00    -0.205 F 
ATOM     88  C   UNL A   1      47.741  26.097  35.161  1.00  0.00     0.022 A 
BRANCH  86  89
ATOM     89  S   UNL A   1      46.424  24.059  36.439  1.00  0.00     0.127 S 
ATOM     90  O   UNL A   1      45.374  24.511  37.350  1.00  0.00    -0.237 OA
ATOM     91  O   UNL A   1      46.044  22.940  35.577  1.00  0.00    -0.237 OA
ATOM     92  O   UNL A   1      47.754  23.945  37.022  1.00  0.00    -0.744 OA
ENDBRANCH  86  89
ENDBRANCH  59  82
ENDBRANCH  33  34
ENDBRANCH  25  28
ENDBRANCH  23  24
ENDBRANCH  22  23
ENDBRANCH   1  22
TORSDOF 18
ENDMDL
