MODEL 1
REMARK VINA RESULT:     -11.9      0.000      0.000
REMARK SMILES Cc1nc(Nc2ccc(F)cc2)nc(OCC(=O)NCCCCNC(=O)c2ccc(-c3c4nc(c(-c5cccc(S(=O)(=O)[O-])c5F)c5ccc([nH]5)c(-c5cccc(S(=O)(=O)[O-])c5F)c5nc(c(-c6cccc(S(=O)(=O)[O-])c6F)c6ccc3[nH]6)C=C5)C=C4)cc2)c1CCO
REMARK SMILES IDX 20 1 19 2 17 3 18 4 16 6 15 7 14 8 1 9 2 10 3 11 90 12 4 13
REMARK SMILES IDX 13 14 91 15 92 16 93 17 5 19 6 21 7 22 12 23 8 24 11 25 9 26
REMARK SMILES IDX 10 27 21 28 22 29 23 30 24 31 25 32 26 34 27 35 28 36 89 37
REMARK SMILES IDX 29 38 88 39 30 40 31 41 32 42 82 43 33 44 87 45 81 46 83 47
REMARK SMILES IDX 34 48 86 49 80 50 79 51 35 53 67 54 47 55 66 56 48 57 51 58
REMARK SMILES IDX 65 59 84 60 49 61 50 62 64 64 85 65 52 66 36 67 37 68 45 69
REMARK SMILES IDX 38 70 40 71 46 72 39 73 41 74 42 75 43 76 44 77 68 78 69 79
REMARK SMILES IDX 77 80 70 81 72 82 78 83 71 84 73 85 74 86 75 87 76 88 53 89
REMARK SMILES IDX 54 90 62 91 55 92 57 93 63 94 56 95 58 96 59 97 60 98 61 99
REMARK H PARENT 19 5 93 18 5 20 24 33 83 52 51 63
REMARK Flexibility Score: inf
ROOT
ATOM      1  C   UNL A   1      33.346  27.651  22.998  1.00  0.00     0.116 C 
ENDROOT
BRANCH   1   2
ATOM      2  N   UNL A   1      33.320  27.019  21.699  1.00  0.00    -0.353 N 
ATOM      3  C   UNL A   1      33.028  25.730  21.389  1.00  0.00     0.258 C 
ATOM      4  O   UNL A   1      32.981  25.418  20.197  1.00  0.00    -0.271 OA
ATOM      5  H   UNL A   1      33.544  27.601  20.937  1.00  0.00     0.163 HD
BRANCH   3   6
ATOM      6  C   UNL A   1      32.690  24.729  22.504  1.00  0.00     0.331 C 
BRANCH   6   7
ATOM      7  O   UNL A   1      33.497  23.606  22.788  1.00  0.00    -0.467 OA
BRANCH   7   8
ATOM      8  C   UNL A   1      33.448  22.944  23.975  1.00  0.00     0.222 A 
ATOM      9  C   UNL A   1      34.368  22.569  27.609  1.00  0.00     0.067 C 
ATOM     10  C   UNL A   1      33.829  22.406  26.217  1.00  0.00     0.050 A 
ATOM     11  N   UNL A   1      33.129  21.269  26.061  1.00  0.00    -0.218 NA
ATOM     12  C   UNL A   1      34.103  23.269  25.158  1.00  0.00     0.038 A 
ATOM     13  C   UNL A   1      32.673  20.951  24.851  1.00  0.00     0.230 A 
ATOM     14  N   UNL A   1      32.786  21.774  23.807  1.00  0.00    -0.177 NA
BRANCH  12  15
ATOM     15  C   UNL A   1      35.137  24.356  25.310  1.00  0.00     0.071 C 
BRANCH  15  16
ATOM     16  C   UNL A   1      36.584  23.854  25.327  1.00  0.00     0.161 C 
BRANCH  16  17
ATOM     17  O   UNL A   1      37.072  23.480  24.045  1.00  0.00    -0.396 OA
ATOM     18  H   UNL A   1      37.113  22.513  23.985  1.00  0.00     0.210 HD
ENDBRANCH  16  17
ENDBRANCH  15  16
ENDBRANCH  12  15
BRANCH  13  19
ATOM     19  N   UNL A   1      32.201  19.657  24.623  1.00  0.00    -0.324 N 
ATOM     20  H   UNL A   1      31.254  19.578  24.364  1.00  0.00     0.170 HD
BRANCH  19  21
ATOM     21  C   UNL A   1      32.919  18.457  24.718  1.00  0.00     0.041 A 
ATOM     22  C   UNL A   1      32.383  17.337  25.372  1.00  0.00     0.029 A 
ATOM     23  C   UNL A   1      34.253  18.398  24.285  1.00  0.00     0.029 A 
ATOM     24  C   UNL A   1      33.145  16.185  25.580  1.00  0.00     0.041 A 
ATOM     25  C   UNL A   1      35.027  17.254  24.512  1.00  0.00     0.041 A 
ATOM     26  C   UNL A   1      34.465  16.159  25.157  1.00  0.00     0.123 A 
ATOM     27  F   UNL A   1      35.214  15.072  25.388  1.00  0.00    -0.207 F 
ENDBRANCH  19  21
ENDBRANCH  13  19
ENDBRANCH   7   8
ENDBRANCH   6   7
ENDBRANCH   3   6
ENDBRANCH   1   2
BRANCH   1  28
ATOM     28  C   UNL A   1      32.386  28.830  23.082  1.00  0.00     0.023 C 
BRANCH  28  29
ATOM     29  C   UNL A   1      31.830  29.125  24.479  1.00  0.00     0.023 C 
BRANCH  29  30
ATOM     30  C   UNL A   1      32.830  29.666  25.496  1.00  0.00     0.116 C 
BRANCH  30  31
ATOM     31  N   UNL A   1      32.451  30.958  26.048  1.00  0.00    -0.352 N 
ATOM     32  C   UNL A   1      33.082  31.696  27.019  1.00  0.00     0.251 C 
ATOM     33  H   UNL A   1      31.631  31.355  25.676  1.00  0.00     0.163 HD
ATOM     34  O   UNL A   1      32.572  32.737  27.428  1.00  0.00    -0.269 OA
BRANCH  32  35
ATOM     35  C   UNL A   1      34.352  31.211  27.595  1.00  0.00     0.039 A 
ATOM     36  C   UNL A   1      35.378  32.131  27.821  1.00  0.00     0.014 A 
ATOM     37  C   UNL A   1      34.515  29.868  27.945  1.00  0.00     0.014 A 
ATOM     38  C   UNL A   1      36.548  31.714  28.461  1.00  0.00     0.010 A 
ATOM     39  C   UNL A   1      35.653  29.471  28.644  1.00  0.00     0.010 A 
ATOM     40  C   UNL A   1      36.681  30.389  28.908  1.00  0.00    -0.014 A 
BRANCH  40  41
ATOM     41  C   UNL A   1      37.877  29.955  29.673  1.00  0.00     0.031 A 
ATOM     42  C   UNL A   1      38.128  30.485  31.057  1.00  0.00     0.074 A 
ATOM     43  C   UNL A   1      38.782  29.143  29.087  1.00  0.00     0.049 A 
ATOM     44  N   UNL A   1      39.139  30.256  31.854  1.00  0.00    -0.248 NA
ATOM     45  C   UNL A   1      37.128  31.414  31.611  1.00  0.00     0.031 C 
ATOM     46  C   UNL A   1      38.692  28.627  27.720  1.00  0.00     0.029 A 
ATOM     47  N   UNL A   1      39.966  28.629  29.558  1.00  0.00    -0.354 N 
ATOM     48  C   UNL A   1      38.918  31.035  32.982  1.00  0.00     0.074 A 
ATOM     49  C   UNL A   1      37.692  31.768  32.758  1.00  0.00     0.031 C 
ATOM     50  C   UNL A   1      39.769  27.866  27.465  1.00  0.00     0.029 A 
ATOM     51  C   UNL A   1      40.641  27.863  28.637  1.00  0.00     0.049 A 
ATOM     52  H   UNL A   1      40.300  28.795  30.470  1.00  0.00     0.167 HD
ATOM     53  C   UNL A   1      39.653  31.109  34.116  1.00  0.00     0.034 A 
ATOM     54  C   UNL A   1      41.828  27.230  28.719  1.00  0.00     0.034 A 
ATOM     55  C   UNL A   1      40.840  30.335  34.358  1.00  0.00     0.049 A 
ATOM     56  C   UNL A   1      42.599  27.286  30.011  1.00  0.00     0.074 A 
ATOM     57  C   UNL A   1      41.594  30.266  35.516  1.00  0.00     0.029 A 
ATOM     58  N   UNL A   1      41.447  29.501  33.432  1.00  0.00    -0.354 N 
ATOM     59  N   UNL A   1      42.290  27.903  31.126  1.00  0.00    -0.248 NA
ATOM     60  C   UNL A   1      43.862  26.536  30.071  1.00  0.00     0.031 C 
ATOM     61  C   UNL A   1      42.674  29.409  35.282  1.00  0.00     0.029 A 
ATOM     62  C   UNL A   1      42.575  28.922  33.987  1.00  0.00     0.049 A 
ATOM     63  H   UNL A   1      41.125  29.345  32.515  1.00  0.00     0.167 HD
ATOM     64  C   UNL A   1      43.301  27.591  32.028  1.00  0.00     0.074 A 
ATOM     65  C   UNL A   1      44.223  26.715  31.336  1.00  0.00     0.031 C 
ATOM     66  C   UNL A   1      43.457  28.009  33.308  1.00  0.00     0.034 A 
BRANCH  53  67
ATOM     67  C   UNL A   1      39.166  32.008  35.221  1.00  0.00     0.023 A 
ATOM     68  C   UNL A   1      38.269  31.501  36.182  1.00  0.00     0.012 A 
ATOM     69  C   UNL A   1      39.675  33.314  35.370  1.00  0.00     0.148 A 
ATOM     70  C   UNL A   1      37.868  32.286  37.263  1.00  0.00     0.002 A 
ATOM     71  C   UNL A   1      39.308  34.072  36.475  1.00  0.00     0.091 A 
ATOM     72  F   UNL A   1      40.514  33.783  34.434  1.00  0.00    -0.205 F 
ATOM     73  C   UNL A   1      38.399  33.564  37.416  1.00  0.00     0.022 A 
BRANCH  71  74
ATOM     74  S   UNL A   1      40.000  35.695  36.812  1.00  0.00     0.127 S 
ATOM     75  O   UNL A   1      39.348  36.036  38.077  1.00  0.00    -0.237 OA
ATOM     76  O   UNL A   1      41.429  35.403  36.923  1.00  0.00    -0.237 OA
ATOM     77  O   UNL A   1      39.635  36.534  35.679  1.00  0.00    -0.744 OA
ENDBRANCH  71  74
ENDBRANCH  53  67
BRANCH  54  78
ATOM     78  C   UNL A   1      42.317  26.428  27.562  1.00  0.00     0.023 A 
ATOM     79  C   UNL A   1      43.211  27.012  26.646  1.00  0.00     0.012 A 
ATOM     80  C   UNL A   1      41.956  25.075  27.405  1.00  0.00     0.148 A 
ATOM     81  C   UNL A   1      43.725  26.270  25.581  1.00  0.00     0.002 A 
ATOM     82  C   UNL A   1      42.516  24.325  26.376  1.00  0.00     0.091 A 
ATOM     83  F   UNL A   1      41.094  24.542  28.281  1.00  0.00    -0.205 F 
ATOM     84  C   UNL A   1      43.388  24.924  25.454  1.00  0.00     0.022 A 
BRANCH  82  85
ATOM     85  S   UNL A   1      42.255  22.555  26.219  1.00  0.00     0.127 S 
ATOM     86  O   UNL A   1      40.800  22.474  26.119  1.00  0.00    -0.237 OA
ATOM     87  O   UNL A   1      42.977  22.253  24.982  1.00  0.00    -0.237 OA
ATOM     88  O   UNL A   1      42.840  21.962  27.415  1.00  0.00    -0.744 OA
ENDBRANCH  82  85
ENDBRANCH  54  78
BRANCH  66  89
ATOM     89  C   UNL A   1      44.655  27.517  34.077  1.00  0.00     0.023 A 
ATOM     90  C   UNL A   1      45.796  28.336  34.188  1.00  0.00     0.012 A 
ATOM     91  C   UNL A   1      44.598  26.308  34.798  1.00  0.00     0.148 A 
ATOM     92  C   UNL A   1      46.868  27.952  34.992  1.00  0.00     0.002 A 
ATOM     93  C   UNL A   1      45.649  25.955  35.635  1.00  0.00     0.091 A 
ATOM     94  F   UNL A   1      43.509  25.536  34.666  1.00  0.00    -0.205 F 
ATOM     95  C   UNL A   1      46.788  26.771  35.727  1.00  0.00     0.022 A 
BRANCH  93  96
ATOM     96  S   UNL A   1      45.592  24.509  36.702  1.00  0.00     0.127 S 
ATOM     97  O   UNL A   1      46.978  24.049  36.654  1.00  0.00    -0.237 OA
ATOM     98  O   UNL A   1      45.185  25.087  37.984  1.00  0.00    -0.237 OA
ATOM     99  O   UNL A   1      44.615  23.607  36.107  1.00  0.00    -0.744 OA
ENDBRANCH  93  96
ENDBRANCH  66  89
ENDBRANCH  40  41
ENDBRANCH  32  35
ENDBRANCH  30  31
ENDBRANCH  29  30
ENDBRANCH  28  29
ENDBRANCH   1  28
TORSDOF 21
ENDMDL
MODEL 2
REMARK VINA RESULT:     -11.6      2.311      4.212
REMARK SMILES Cc1nc(Nc2ccc(F)cc2)nc(OCC(=O)NCCCCNC(=O)c2ccc(-c3c4nc(c(-c5cccc(S(=O)(=O)[O-])c5F)c5ccc([nH]5)c(-c5cccc(S(=O)(=O)[O-])c5F)c5nc(c(-c6cccc(S(=O)(=O)[O-])c6F)c6ccc3[nH]6)C=C5)C=C4)cc2)c1CCO
REMARK SMILES IDX 20 1 19 2 17 3 18 4 16 6 15 7 14 8 1 9 2 10 3 11 90 12 4 13
REMARK SMILES IDX 13 14 91 15 92 16 93 17 5 19 6 21 7 22 12 23 8 24 11 25 9 26
REMARK SMILES IDX 10 27 21 28 22 29 23 30 24 31 25 32 26 34 27 35 28 36 89 37
REMARK SMILES IDX 29 38 88 39 30 40 31 41 32 42 82 43 33 44 87 45 81 46 83 47
REMARK SMILES IDX 34 48 86 49 80 50 79 51 35 53 67 54 47 55 66 56 48 57 51 58
REMARK SMILES IDX 65 59 84 60 49 61 50 62 64 64 85 65 52 66 36 67 37 68 45 69
REMARK SMILES IDX 38 70 40 71 46 72 39 73 41 74 42 75 43 76 44 77 68 78 69 79
REMARK SMILES IDX 77 80 70 81 72 82 78 83 71 84 73 85 74 86 75 87 76 88 53 89
REMARK SMILES IDX 54 90 62 91 55 92 57 93 63 94 56 95 58 96 59 97 60 98 61 99
REMARK H PARENT 19 5 93 18 5 20 24 33 83 52 51 63
REMARK Flexibility Score: inf
ROOT
ATOM      1  C   UNL A   1      32.196  26.247  26.465  1.00  0.00     0.116 C 
ENDROOT
BRANCH   1   2
ATOM      2  N   UNL A   1      31.434  25.070  26.812  1.00  0.00    -0.353 N 
ATOM      3  C   UNL A   1      31.885  23.818  27.081  1.00  0.00     0.258 C 
ATOM      4  O   UNL A   1      31.063  22.972  27.442  1.00  0.00    -0.271 OA
ATOM      5  H   UNL A   1      30.459  25.191  26.859  1.00  0.00     0.163 HD
BRANCH   3   6
ATOM      6  C   UNL A   1      33.388  23.510  27.012  1.00  0.00     0.331 C 
BRANCH   6   7
ATOM      7  O   UNL A   1      33.976  22.834  25.920  1.00  0.00    -0.467 OA
BRANCH   7   8
ATOM      8  C   UNL A   1      33.365  22.714  24.712  1.00  0.00     0.222 A 
ATOM      9  C   UNL A   1      31.956  20.650  21.893  1.00  0.00     0.067 C 
ATOM     10  C   UNL A   1      32.419  21.749  22.805  1.00  0.00     0.050 A 
ATOM     11  N   UNL A   1      32.223  22.973  22.286  1.00  0.00    -0.218 NA
ATOM     12  C   UNL A   1      33.083  21.545  24.013  1.00  0.00     0.038 A 
ATOM     13  C   UNL A   1      32.673  24.036  22.947  1.00  0.00     0.230 A 
ATOM     14  N   UNL A   1      33.212  23.943  24.164  1.00  0.00    -0.177 NA
BRANCH  12  15
ATOM     15  C   UNL A   1      33.548  20.165  24.404  1.00  0.00     0.071 C 
BRANCH  15  16
ATOM     16  C   UNL A   1      32.655  19.465  25.433  1.00  0.00     0.161 C 
BRANCH  16  17
ATOM     17  O   UNL A   1      32.194  18.187  25.012  1.00  0.00    -0.396 OA
ATOM     18  H   UNL A   1      32.801  17.829  24.346  1.00  0.00     0.210 HD
ENDBRANCH  16  17
ENDBRANCH  15  16
ENDBRANCH  12  15
BRANCH  13  19
ATOM     19  N   UNL A   1      32.730  25.268  22.293  1.00  0.00    -0.324 N 
ATOM     20  H   UNL A   1      33.278  25.303  21.476  1.00  0.00     0.170 HD
BRANCH  19  21
ATOM     21  C   UNL A   1      32.094  26.461  22.663  1.00  0.00     0.041 A 
ATOM     22  C   UNL A   1      30.701  26.525  22.824  1.00  0.00     0.029 A 
ATOM     23  C   UNL A   1      32.827  27.656  22.740  1.00  0.00     0.029 A 
ATOM     24  C   UNL A   1      30.054  27.739  23.067  1.00  0.00     0.041 A 
ATOM     25  C   UNL A   1      32.180  28.877  22.960  1.00  0.00     0.041 A 
ATOM     26  C   UNL A   1      30.799  28.906  23.121  1.00  0.00     0.123 A 
ATOM     27  F   UNL A   1      30.181  30.080  23.315  1.00  0.00    -0.207 F 
ENDBRANCH  19  21
ENDBRANCH  13  19
ENDBRANCH   7   8
ENDBRANCH   6   7
ENDBRANCH   3   6
ENDBRANCH   1   2
BRANCH   1  28
ATOM     28  C   UNL A   1      31.344  27.510  26.489  1.00  0.00     0.023 C 
BRANCH  28  29
ATOM     29  C   UNL A   1      31.931  28.682  27.281  1.00  0.00     0.023 C 
BRANCH  29  30
ATOM     30  C   UNL A   1      32.930  29.560  26.534  1.00  0.00     0.116 C 
BRANCH  30  31
ATOM     31  N   UNL A   1      32.814  30.973  26.859  1.00  0.00    -0.352 N 
ATOM     32  C   UNL A   1      33.683  31.767  27.566  1.00  0.00     0.251 C 
ATOM     33  H   UNL A   1      32.002  31.420  26.528  1.00  0.00     0.163 HD
ATOM     34  O   UNL A   1      33.384  32.932  27.820  1.00  0.00    -0.269 OA
BRANCH  32  35
ATOM     35  C   UNL A   1      34.958  31.202  28.052  1.00  0.00     0.039 A 
ATOM     36  C   UNL A   1      36.095  32.012  28.045  1.00  0.00     0.014 A 
ATOM     37  C   UNL A   1      35.022  29.896  28.547  1.00  0.00     0.014 A 
ATOM     38  C   UNL A   1      37.286  31.533  28.596  1.00  0.00     0.010 A 
ATOM     39  C   UNL A   1      36.190  29.448  29.159  1.00  0.00     0.010 A 
ATOM     40  C   UNL A   1      37.334  30.260  29.189  1.00  0.00    -0.014 A 
BRANCH  40  41
ATOM     41  C   UNL A   1      38.564  29.774  29.862  1.00  0.00     0.031 A 
ATOM     42  C   UNL A   1      38.961  30.320  31.206  1.00  0.00     0.074 A 
ATOM     43  C   UNL A   1      39.370  28.899  29.226  1.00  0.00     0.049 A 
ATOM     44  N   UNL A   1      40.021  30.051  31.922  1.00  0.00    -0.248 NA
ATOM     45  C   UNL A   1      38.065  31.318  31.816  1.00  0.00     0.031 C 
ATOM     46  C   UNL A   1      39.136  28.358  27.885  1.00  0.00     0.029 A 
ATOM     47  N   UNL A   1      40.559  28.328  29.611  1.00  0.00    -0.354 N 
ATOM     48  C   UNL A   1      39.940  30.867  33.043  1.00  0.00     0.074 A 
ATOM     49  C   UNL A   1      38.742  31.665  32.902  1.00  0.00     0.031 C 
ATOM     50  C   UNL A   1      40.143  27.531  27.563  1.00  0.00     0.029 A 
ATOM     51  C   UNL A   1      41.109  27.503  28.658  1.00  0.00     0.049 A 
ATOM     52  H   UNL A   1      40.977  28.495  30.487  1.00  0.00     0.167 HD
ATOM     53  C   UNL A   1      40.771  30.924  34.110  1.00  0.00     0.034 A 
ATOM     54  C   UNL A   1      42.262  26.805  28.659  1.00  0.00     0.034 A 
ATOM     55  C   UNL A   1      41.929  30.088  34.273  1.00  0.00     0.049 A 
ATOM     56  C   UNL A   1      43.141  26.846  29.880  1.00  0.00     0.074 A 
ATOM     57  C   UNL A   1      42.773  30.002  35.366  1.00  0.00     0.029 A 
ATOM     58  N   UNL A   1      42.408  29.200  33.323  1.00  0.00    -0.354 N 
ATOM     59  N   UNL A   1      42.963  27.504  30.999  1.00  0.00    -0.248 NA
ATOM     60  C   UNL A   1      44.361  26.025  29.856  1.00  0.00     0.031 C 
ATOM     61  C   UNL A   1      43.780  29.079  35.066  1.00  0.00     0.029 A 
ATOM     62  C   UNL A   1      43.545  28.570  33.798  1.00  0.00     0.049 A 
ATOM     63  H   UNL A   1      42.001  29.042  32.441  1.00  0.00     0.167 HD
ATOM     64  C   UNL A   1      44.027  27.155  31.823  1.00  0.00     0.074 A 
ATOM     65  C   UNL A   1      44.838  26.212  31.080  1.00  0.00     0.031 C 
ATOM     66  C   UNL A   1      44.314  27.592  33.074  1.00  0.00     0.034 A 
BRANCH  53  67
ATOM     67  C   UNL A   1      40.430  31.875  35.227  1.00  0.00     0.023 A 
ATOM     68  C   UNL A   1      41.095  33.114  35.309  1.00  0.00     0.012 A 
ATOM     69  C   UNL A   1      39.384  31.589  36.127  1.00  0.00     0.148 A 
ATOM     70  C   UNL A   1      40.740  34.048  36.282  1.00  0.00     0.002 A 
ATOM     71  C   UNL A   1      39.004  32.542  37.063  1.00  0.00     0.091 A 
ATOM     72  F   UNL A   1      38.778  30.395  36.043  1.00  0.00    -0.205 F 
ATOM     73  C   UNL A   1      39.686  33.767  37.148  1.00  0.00     0.022 A 
BRANCH  71  74
ATOM     74  S   UNL A   1      37.606  32.316  38.167  1.00  0.00     0.127 S 
ATOM     75  O   UNL A   1      38.133  32.850  39.423  1.00  0.00    -0.237 OA
ATOM     76  O   UNL A   1      36.579  33.146  37.536  1.00  0.00    -0.237 OA
ATOM     77  O   UNL A   1      37.319  30.888  38.171  1.00  0.00    -0.744 OA
ENDBRANCH  71  74
ENDBRANCH  53  67
BRANCH  54  78
ATOM     78  C   UNL A   1      42.606  25.950  27.487  1.00  0.00     0.023 A 
ATOM     79  C   UNL A   1      43.478  26.448  26.502  1.00  0.00     0.012 A 
ATOM     80  C   UNL A   1      42.131  24.628  27.381  1.00  0.00     0.148 A 
ATOM     81  C   UNL A   1      43.859  25.653  25.419  1.00  0.00     0.002 A 
ATOM     82  C   UNL A   1      42.559  23.821  26.332  1.00  0.00     0.091 A 
ATOM     83  F   UNL A   1      41.292  24.178  28.324  1.00  0.00    -0.205 F 
ATOM     84  C   UNL A   1      43.409  24.336  25.342  1.00  0.00     0.022 A 
BRANCH  82  85
ATOM     85  S   UNL A   1      42.149  22.075  26.228  1.00  0.00     0.127 S 
ATOM     86  O   UNL A   1      42.619  21.580  27.519  1.00  0.00    -0.237 OA
ATOM     87  O   UNL A   1      40.694  22.117  26.075  1.00  0.00    -0.237 OA
ATOM     88  O   UNL A   1      42.861  21.572  25.061  1.00  0.00    -0.744 OA
ENDBRANCH  82  85
ENDBRANCH  54  78
BRANCH  66  89
ATOM     89  C   UNL A   1      45.544  27.049  33.754  1.00  0.00     0.023 A 
ATOM     90  C   UNL A   1      46.750  27.774  33.694  1.00  0.00     0.012 A 
ATOM     91  C   UNL A   1      45.468  25.895  34.559  1.00  0.00     0.148 A 
ATOM     92  C   UNL A   1      47.867  27.351  34.413  1.00  0.00     0.002 A 
ATOM     93  C   UNL A   1      46.570  25.507  35.312  1.00  0.00     0.091 A 
ATOM     94  F   UNL A   1      44.315  25.212  34.589  1.00  0.00    -0.205 F 
ATOM     95  C   UNL A   1      47.772  26.229  35.234  1.00  0.00     0.022 A 
BRANCH  93  96
ATOM     96  S   UNL A   1      46.511  24.141  36.478  1.00  0.00     0.127 S 
ATOM     97  O   UNL A   1      47.568  24.507  37.419  1.00  0.00    -0.237 OA
ATOM     98  O   UNL A   1      45.153  24.248  37.013  1.00  0.00    -0.237 OA
ATOM     99  O   UNL A   1      46.762  22.935  35.698  1.00  0.00    -0.744 OA
ENDBRANCH  93  96
ENDBRANCH  66  89
ENDBRANCH  40  41
ENDBRANCH  32  35
ENDBRANCH  30  31
ENDBRANCH  29  30
ENDBRANCH  28  29
ENDBRANCH   1  28
TORSDOF 21
ENDMDL
MODEL 3
REMARK VINA RESULT:     -11.4      2.279      4.198
REMARK SMILES Cc1nc(Nc2ccc(F)cc2)nc(OCC(=O)NCCCCNC(=O)c2ccc(-c3c4nc(c(-c5cccc(S(=O)(=O)[O-])c5F)c5ccc([nH]5)c(-c5cccc(S(=O)(=O)[O-])c5F)c5nc(c(-c6cccc(S(=O)(=O)[O-])c6F)c6ccc3[nH]6)C=C5)C=C4)cc2)c1CCO
REMARK SMILES IDX 20 1 19 2 17 3 18 4 16 6 15 7 14 8 1 9 2 10 3 11 90 12 4 13
REMARK SMILES IDX 13 14 91 15 92 16 93 17 5 19 6 21 7 22 12 23 8 24 11 25 9 26
REMARK SMILES IDX 10 27 21 28 22 29 23 30 24 31 25 32 26 34 27 35 28 36 89 37
REMARK SMILES IDX 29 38 88 39 30 40 31 41 32 42 82 43 33 44 87 45 81 46 83 47
REMARK SMILES IDX 34 48 86 49 80 50 79 51 35 53 67 54 47 55 66 56 48 57 51 58
REMARK SMILES IDX 65 59 84 60 49 61 50 62 64 64 85 65 52 66 36 67 37 68 45 69
REMARK SMILES IDX 38 70 40 71 46 72 39 73 41 74 42 75 43 76 44 77 68 78 69 79
REMARK SMILES IDX 77 80 70 81 72 82 78 83 71 84 73 85 74 86 75 87 76 88 53 89
REMARK SMILES IDX 54 90 62 91 55 92 57 93 63 94 56 95 58 96 59 97 60 98 61 99
REMARK H PARENT 19 5 93 18 5 20 24 33 83 52 51 63
REMARK Flexibility Score: inf
ROOT
ATOM      1  C   UNL A   1      32.224  26.090  26.365  1.00  0.00     0.116 C 
ENDROOT
BRANCH   1   2
ATOM      2  N   UNL A   1      31.668  24.831  26.806  1.00  0.00    -0.353 N 
ATOM      3  C   UNL A   1      32.315  23.668  27.073  1.00  0.00     0.258 C 
ATOM      4  O   UNL A   1      31.653  22.729  27.522  1.00  0.00    -0.271 OA
ATOM      5  H   UNL A   1      30.692  24.815  26.927  1.00  0.00     0.163 HD
BRANCH   3   6
ATOM      6  C   UNL A   1      33.837  23.574  26.892  1.00  0.00     0.331 C 
BRANCH   6   7
ATOM      7  O   UNL A   1      34.437  23.235  25.659  1.00  0.00    -0.467 OA
BRANCH   7   8
ATOM      8  C   UNL A   1      33.716  22.951  24.542  1.00  0.00     0.222 A 
ATOM      9  C   UNL A   1      32.068  20.522  22.181  1.00  0.00     0.067 C 
ATOM     10  C   UNL A   1      32.604  21.735  22.885  1.00  0.00     0.050 A 
ATOM     11  N   UNL A   1      32.348  22.877  22.223  1.00  0.00    -0.218 NA
ATOM     12  C   UNL A   1      33.380  21.698  24.042  1.00  0.00     0.038 A 
ATOM     13  C   UNL A   1      32.848  24.019  22.686  1.00  0.00     0.230 A 
ATOM     14  N   UNL A   1      33.500  24.094  23.848  1.00  0.00    -0.177 NA
BRANCH  12  15
ATOM     15  C   UNL A   1      33.893  20.383  24.572  1.00  0.00     0.071 C 
BRANCH  15  16
ATOM     16  C   UNL A   1      33.003  19.743  25.642  1.00  0.00     0.161 C 
BRANCH  16  17
ATOM     17  O   UNL A   1      33.263  20.217  26.957  1.00  0.00    -0.396 OA
ATOM     18  H   UNL A   1      32.431  20.498  27.369  1.00  0.00     0.210 HD
ENDBRANCH  16  17
ENDBRANCH  15  16
ENDBRANCH  12  15
BRANCH  13  19
ATOM     19  N   UNL A   1      32.830  25.149  21.866  1.00  0.00    -0.324 N 
ATOM     20  H   UNL A   1      33.260  25.055  20.985  1.00  0.00     0.170 HD
BRANCH  19  21
ATOM     21  C   UNL A   1      32.269  26.402  22.150  1.00  0.00     0.041 A 
ATOM     22  C   UNL A   1      33.077  27.524  22.393  1.00  0.00     0.029 A 
ATOM     23  C   UNL A   1      30.884  26.527  22.341  1.00  0.00     0.029 A 
ATOM     24  C   UNL A   1      32.526  28.740  22.802  1.00  0.00     0.041 A 
ATOM     25  C   UNL A   1      30.329  27.737  22.773  1.00  0.00     0.041 A 
ATOM     26  C   UNL A   1      31.156  28.832  22.999  1.00  0.00     0.123 A 
ATOM     27  F   UNL A   1      30.624  29.984  23.429  1.00  0.00    -0.207 F 
ENDBRANCH  19  21
ENDBRANCH  13  19
ENDBRANCH   7   8
ENDBRANCH   6   7
ENDBRANCH   3   6
ENDBRANCH   1   2
BRANCH   1  28
ATOM     28  C   UNL A   1      31.185  27.206  26.363  1.00  0.00     0.023 C 
BRANCH  28  29
ATOM     29  C   UNL A   1      31.621  28.508  27.042  1.00  0.00     0.023 C 
BRANCH  29  30
ATOM     30  C   UNL A   1      32.541  29.412  26.227  1.00  0.00     0.116 C 
BRANCH  30  31
ATOM     31  N   UNL A   1      32.337  30.828  26.486  1.00  0.00    -0.352 N 
ATOM     32  C   UNL A   1      33.137  31.698  27.186  1.00  0.00     0.251 C 
ATOM     33  H   UNL A   1      31.515  31.215  26.110  1.00  0.00     0.163 HD
ATOM     34  O   UNL A   1      32.767  32.854  27.379  1.00  0.00    -0.269 OA
BRANCH  32  35
ATOM     35  C   UNL A   1      34.422  31.226  27.737  1.00  0.00     0.039 A 
ATOM     36  C   UNL A   1      35.437  32.158  27.964  1.00  0.00     0.014 A 
ATOM     37  C   UNL A   1      34.612  29.880  28.065  1.00  0.00     0.014 A 
ATOM     38  C   UNL A   1      36.622  31.751  28.580  1.00  0.00     0.010 A 
ATOM     39  C   UNL A   1      35.765  29.492  28.742  1.00  0.00     0.010 A 
ATOM     40  C   UNL A   1      36.782  30.422  29.006  1.00  0.00    -0.014 A 
BRANCH  40  41
ATOM     41  C   UNL A   1      37.996  29.996  29.748  1.00  0.00     0.031 A 
ATOM     42  C   UNL A   1      38.258  30.511  31.135  1.00  0.00     0.074 A 
ATOM     43  C   UNL A   1      38.904  29.206  29.139  1.00  0.00     0.049 A 
ATOM     44  N   UNL A   1      39.284  30.287  31.915  1.00  0.00    -0.248 NA
ATOM     45  C   UNL A   1      37.253  31.417  31.716  1.00  0.00     0.031 C 
ATOM     46  C   UNL A   1      38.802  28.707  27.766  1.00  0.00     0.029 A 
ATOM     47  N   UNL A   1      40.102  28.704  29.586  1.00  0.00    -0.354 N 
ATOM     48  C   UNL A   1      39.067  31.047  33.057  1.00  0.00     0.074 A 
ATOM     49  C   UNL A   1      37.827  31.765  32.860  1.00  0.00     0.031 C 
ATOM     50  C   UNL A   1      39.887  27.967  27.486  1.00  0.00     0.029 A 
ATOM     51  C   UNL A   1      40.775  27.961  28.645  1.00  0.00     0.049 A 
ATOM     52  H   UNL A   1      40.446  28.863  30.495  1.00  0.00     0.167 HD
ATOM     53  C   UNL A   1      39.817  31.118  34.181  1.00  0.00     0.034 A 
ATOM     54  C   UNL A   1      41.973  27.345  28.702  1.00  0.00     0.034 A 
ATOM     55  C   UNL A   1      41.019  30.358  34.396  1.00  0.00     0.049 A 
ATOM     56  C   UNL A   1      42.761  27.396  29.984  1.00  0.00     0.074 A 
ATOM     57  C   UNL A   1      41.790  30.286  35.542  1.00  0.00     0.029 A 
ATOM     58  N   UNL A   1      41.625  29.547  33.451  1.00  0.00    -0.354 N 
ATOM     59  N   UNL A   1      42.460  27.993  31.111  1.00  0.00    -0.248 NA
ATOM     60  C   UNL A   1      44.036  26.664  30.016  1.00  0.00     0.031 C 
ATOM     61  C   UNL A   1      42.879  29.449  35.281  1.00  0.00     0.029 A 
ATOM     62  C   UNL A   1      42.769  28.978  33.982  1.00  0.00     0.049 A 
ATOM     63  H   UNL A   1      41.292  29.398  32.536  1.00  0.00     0.167 HD
ATOM     64  C   UNL A   1      43.487  27.685  31.994  1.00  0.00     0.074 A 
ATOM     65  C   UNL A   1      44.413  26.832  31.277  1.00  0.00     0.031 C 
ATOM     66  C   UNL A   1      43.655  28.087  33.278  1.00  0.00     0.034 A 
BRANCH  53  67
ATOM     67  C   UNL A   1      39.332  31.994  35.306  1.00  0.00     0.023 A 
ATOM     68  C   UNL A   1      38.476  31.454  36.285  1.00  0.00     0.012 A 
ATOM     69  C   UNL A   1      39.806  33.314  35.451  1.00  0.00     0.148 A 
ATOM     70  C   UNL A   1      38.080  32.219  37.382  1.00  0.00     0.002 A 
ATOM     71  C   UNL A   1      39.445  34.053  36.570  1.00  0.00     0.091 A 
ATOM     72  F   UNL A   1      40.605  33.814  34.497  1.00  0.00    -0.205 F 
ATOM     73  C   UNL A   1      38.576  33.511  37.531  1.00  0.00     0.022 A 
BRANCH  71  74
ATOM     74  S   UNL A   1      40.096  35.694  36.902  1.00  0.00     0.127 S 
ATOM     75  O   UNL A   1      39.491  35.994  38.199  1.00  0.00    -0.237 OA
ATOM     76  O   UNL A   1      41.539  35.449  36.944  1.00  0.00    -0.237 OA
ATOM     77  O   UNL A   1      39.652  36.536  35.800  1.00  0.00    -0.744 OA
ENDBRANCH  71  74
ENDBRANCH  53  67
BRANCH  54  78
ATOM     78  C   UNL A   1      42.457  26.566  27.528  1.00  0.00     0.023 A 
ATOM     79  C   UNL A   1      43.319  27.180  26.599  1.00  0.00     0.012 A 
ATOM     80  C   UNL A   1      42.126  25.207  27.363  1.00  0.00     0.148 A 
ATOM     81  C   UNL A   1      43.830  26.461  25.517  1.00  0.00     0.002 A 
ATOM     82  C   UNL A   1      42.683  24.480  26.316  1.00  0.00     0.091 A 
ATOM     83  F   UNL A   1      41.295  24.644  28.251  1.00  0.00    -0.205 F 
ATOM     84  C   UNL A   1      43.522  25.109  25.383  1.00  0.00     0.022 A 
BRANCH  82  85
ATOM     85  S   UNL A   1      42.461  22.706  26.147  1.00  0.00     0.127 S 
ATOM     86  O   UNL A   1      43.090  22.207  27.367  1.00  0.00    -0.237 OA
ATOM     87  O   UNL A   1      41.003  22.589  26.111  1.00  0.00    -0.237 OA
ATOM     88  O   UNL A   1      43.123  22.342  24.901  1.00  0.00    -0.744 OA
ENDBRANCH  82  85
ENDBRANCH  54  78
BRANCH  66  89
ATOM     89  C   UNL A   1      44.872  27.604  34.023  1.00  0.00     0.023 A 
ATOM     90  C   UNL A   1      44.816  26.388  34.732  1.00  0.00     0.012 A 
ATOM     91  C   UNL A   1      46.101  28.284  33.910  1.00  0.00     0.148 A 
ATOM     92  C   UNL A   1      45.962  25.863  35.330  1.00  0.00     0.002 A 
ATOM     93  C   UNL A   1      47.248  27.731  34.465  1.00  0.00     0.091 A 
ATOM     94  F   UNL A   1      46.127  29.447  33.243  1.00  0.00    -0.205 F 
ATOM     95  C   UNL A   1      47.179  26.525  35.182  1.00  0.00     0.022 A 
BRANCH  93  96
ATOM     96  S   UNL A   1      48.877  28.454  34.237  1.00  0.00     0.127 S 
ATOM     97  O   UNL A   1      49.745  27.287  34.395  1.00  0.00    -0.237 OA
ATOM     98  O   UNL A   1      48.797  28.973  32.871  1.00  0.00    -0.237 OA
ATOM     99  O   UNL A   1      49.013  29.475  35.267  1.00  0.00    -0.744 OA
ENDBRANCH  93  96
ENDBRANCH  66  89
ENDBRANCH  40  41
ENDBRANCH  32  35
ENDBRANCH  30  31
ENDBRANCH  29  30
ENDBRANCH  28  29
ENDBRANCH   1  28
TORSDOF 21
ENDMDL
