MODEL 1
REMARK VINA RESULT:     -12.4      0.000      0.000
REMARK SMILES O=C(NCCCCNC(=O)[C@@H](Cc1cccc(F)c1)[C@H]1CCOC2(CCC2)C1)c1ccc(-c2c3nc(c(-c4cccc(S(=O)(=O)[O-])c4F)c4ccc([nH]4)c(-c4cccc(S(=O)(=O)[O-])c4F)c4nc(c(-c5cccc(S(=O)(=O)[O-])c5F)c5ccc2[nH]5)C=C4)C=C3)cc1
REMARK SMILES IDX 5 1 4 2 3 3 1 4 2 5 29 7 30 8 91 9 31 10 90 11 32 12 33 13
REMARK SMILES IDX 34 14 84 15 35 16 89 17 83 18 85 19 36 20 88 21 82 22 81 23
REMARK SMILES IDX 37 25 69 26 49 27 68 28 50 29 53 30 67 31 86 32 51 33 52 34
REMARK SMILES IDX 66 36 87 37 54 38 38 39 39 40 47 41 40 42 42 43 48 44 41 45
REMARK SMILES IDX 43 46 44 47 45 48 46 49 70 50 71 51 79 52 72 53 74 54 80 55
REMARK SMILES IDX 73 56 75 57 76 58 77 59 78 60 55 61 56 62 64 63 57 64 59 65
REMARK SMILES IDX 65 66 58 67 60 68 61 69 62 70 63 71 6 72 7 73 8 74 9 75
REMARK SMILES IDX 10 77 11 78 12 79 13 80 14 81 19 82 15 83 17 84 16 85 18 86
REMARK SMILES IDX 20 87 21 88 28 89 22 90 24 91 23 92 25 93 27 94 26 95
REMARK H PARENT 3 6 85 24 53 35 8 76
REMARK Flexibility Score: inf
ROOT
ATOM      1  C   UNL A   1      31.463  30.974  26.696  1.00  0.00     0.023 C 
ENDROOT
BRANCH   1   2
ATOM      2  C   UNL A   1      32.212  32.216  26.231  1.00  0.00     0.116 C 
BRANCH   2   3
ATOM      3  N   UNL A   1      32.073  33.386  27.089  1.00  0.00    -0.352 N 
ATOM      4  O   UNL A   1      32.721  34.819  28.726  1.00  0.00    -0.269 OA
ATOM      5  C   UNL A   1      32.974  33.845  28.037  1.00  0.00     0.251 C 
ATOM      6  H   UNL A   1      31.247  33.911  26.982  1.00  0.00     0.163 HD
BRANCH   5   7
ATOM      7  C   UNL A   1      34.221  33.070  28.241  1.00  0.00     0.039 A 
ATOM      8  C   UNL A   1      34.160  31.789  28.787  1.00  0.00     0.014 A 
ATOM      9  C   UNL A   1      35.453  33.701  28.051  1.00  0.00     0.014 A 
ATOM     10  C   UNL A   1      35.298  31.248  29.369  1.00  0.00     0.010 A 
ATOM     11  C   UNL A   1      36.617  33.096  28.538  1.00  0.00     0.010 A 
ATOM     12  C   UNL A   1      36.539  31.904  29.275  1.00  0.00    -0.014 A 
BRANCH  12  13
ATOM     13  C   UNL A   1      37.719  31.331  29.982  1.00  0.00     0.031 A 
ATOM     14  C   UNL A   1      38.018  31.678  31.421  1.00  0.00     0.074 A 
ATOM     15  C   UNL A   1      38.494  30.435  29.338  1.00  0.00     0.049 A 
ATOM     16  N   UNL A   1      38.978  31.228  32.190  1.00  0.00    -0.248 NA
ATOM     17  C   UNL A   1      37.139  32.655  32.087  1.00  0.00     0.031 C 
ATOM     18  C   UNL A   1      38.323  30.034  27.941  1.00  0.00     0.029 A 
ATOM     19  N   UNL A   1      39.555  29.682  29.771  1.00  0.00    -0.354 N 
ATOM     20  C   UNL A   1      38.855  31.902  33.399  1.00  0.00     0.074 A 
ATOM     21  C   UNL A   1      37.724  32.794  33.270  1.00  0.00     0.031 C 
ATOM     22  C   UNL A   1      39.204  29.066  27.649  1.00  0.00     0.029 A 
ATOM     23  C   UNL A   1      40.049  28.825  28.815  1.00  0.00     0.049 A 
ATOM     24  H   UNL A   1      39.929  29.749  30.681  1.00  0.00     0.167 HD
ATOM     25  C   UNL A   1      39.600  31.775  34.524  1.00  0.00     0.034 A 
ATOM     26  C   UNL A   1      41.070  27.948  28.858  1.00  0.00     0.034 A 
ATOM     27  C   UNL A   1      40.673  30.829  34.681  1.00  0.00     0.049 A 
ATOM     28  C   UNL A   1      41.855  27.804  30.128  1.00  0.00     0.074 A 
ATOM     29  C   UNL A   1      41.434  30.578  35.810  1.00  0.00     0.029 A 
ATOM     30  N   UNL A   1      41.134  29.977  33.690  1.00  0.00    -0.354 N 
ATOM     31  N   UNL A   1      41.656  28.382  31.288  1.00  0.00    -0.248 NA
ATOM     32  C   UNL A   1      43.001  26.884  30.102  1.00  0.00     0.031 C 
ATOM     33  C   UNL A   1      42.361  29.580  35.499  1.00  0.00     0.029 A 
ATOM     34  C   UNL A   1      42.175  29.206  34.179  1.00  0.00     0.049 A 
ATOM     35  H   UNL A   1      40.774  29.927  32.775  1.00  0.00     0.167 HD
ATOM     36  C   UNL A   1      42.651  27.899  32.129  1.00  0.00     0.074 A 
ATOM     37  C   UNL A   1      43.426  26.949  31.357  1.00  0.00     0.031 C 
ATOM     38  C   UNL A   1      42.914  28.236  33.414  1.00  0.00     0.034 A 
BRANCH  25  39
ATOM     39  C   UNL A   1      39.259  32.633  35.714  1.00  0.00     0.023 A 
ATOM     40  C   UNL A   1      38.553  32.066  36.793  1.00  0.00     0.012 A 
ATOM     41  C   UNL A   1      39.746  33.951  35.819  1.00  0.00     0.148 A 
ATOM     42  C   UNL A   1      38.329  32.801  37.957  1.00  0.00     0.002 A 
ATOM     43  C   UNL A   1      39.547  34.666  36.996  1.00  0.00     0.091 A 
ATOM     44  F   UNL A   1      40.402  34.474  34.775  1.00  0.00    -0.205 F 
ATOM     45  C   UNL A   1      38.835  34.093  38.063  1.00  0.00     0.022 A 
BRANCH  43  46
ATOM     46  S   UNL A   1      40.222  36.310  37.262  1.00  0.00     0.127 S 
ATOM     47  O   UNL A   1      39.348  36.819  38.318  1.00  0.00    -0.237 OA
ATOM     48  O   UNL A   1      41.590  36.017  37.692  1.00  0.00    -0.237 OA
ATOM     49  O   UNL A   1      40.120  36.999  35.983  1.00  0.00    -0.744 OA
ENDBRANCH  43  46
ENDBRANCH  25  39
BRANCH  26  50
ATOM     50  C   UNL A   1      41.362  27.112  27.660  1.00  0.00     0.023 A 
ATOM     51  C   UNL A   1      42.029  27.687  26.562  1.00  0.00     0.012 A 
ATOM     52  C   UNL A   1      41.070  25.735  27.642  1.00  0.00     0.148 A 
ATOM     53  C   UNL A   1      42.398  26.903  25.467  1.00  0.00     0.002 A 
ATOM     54  C   UNL A   1      41.499  24.949  26.581  1.00  0.00     0.091 A 
ATOM     55  F   UNL A   1      40.407  25.210  28.683  1.00  0.00    -0.205 F 
ATOM     56  C   UNL A   1      42.151  25.532  25.484  1.00  0.00     0.022 A 
BRANCH  54  57
ATOM     57  S   UNL A   1      41.374  23.157  26.626  1.00  0.00     0.127 S 
ATOM     58  O   UNL A   1      39.933  22.952  26.520  1.00  0.00    -0.237 OA
ATOM     59  O   UNL A   1      42.141  22.761  25.443  1.00  0.00    -0.237 OA
ATOM     60  O   UNL A   1      41.989  22.765  27.888  1.00  0.00    -0.744 OA
ENDBRANCH  54  57
ENDBRANCH  26  50
BRANCH  38  61
ATOM     61  C   UNL A   1      44.104  27.598  34.077  1.00  0.00     0.023 A 
ATOM     62  C   UNL A   1      45.346  28.259  34.030  1.00  0.00     0.012 A 
ATOM     63  C   UNL A   1      43.971  26.419  34.834  1.00  0.00     0.148 A 
ATOM     64  C   UNL A   1      46.446  27.749  34.717  1.00  0.00     0.002 A 
ATOM     65  C   UNL A   1      45.061  25.936  35.548  1.00  0.00     0.091 A 
ATOM     66  F   UNL A   1      42.781  25.799  34.851  1.00  0.00    -0.205 F 
ATOM     67  C   UNL A   1      46.300  26.595  35.486  1.00  0.00     0.022 A 
BRANCH  65  68
ATOM     68  S   UNL A   1      44.949  24.509  36.633  1.00  0.00     0.127 S 
ATOM     69  O   UNL A   1      43.968  24.962  37.619  1.00  0.00    -0.237 OA
ATOM     70  O   UNL A   1      44.464  23.467  35.727  1.00  0.00    -0.237 OA
ATOM     71  O   UNL A   1      46.293  24.287  37.146  1.00  0.00    -0.744 OA
ENDBRANCH  65  68
ENDBRANCH  38  61
ENDBRANCH  12  13
ENDBRANCH   5   7
ENDBRANCH   2   3
ENDBRANCH   1   2
BRANCH   1  72
ATOM     72  C   UNL A   1      31.607  29.758  25.791  1.00  0.00     0.023 C 
BRANCH  72  73
ATOM     73  C   UNL A   1      33.006  29.145  25.748  1.00  0.00     0.116 C 
BRANCH  73  74
ATOM     74  N   UNL A   1      33.528  29.101  24.401  1.00  0.00    -0.356 N 
ATOM     75  C   UNL A   1      33.257  28.293  23.353  1.00  0.00     0.223 C 
ATOM     76  H   UNL A   1      34.207  29.788  24.212  1.00  0.00     0.163 HD
ATOM     77  O   UNL A   1      33.890  28.512  22.312  1.00  0.00    -0.275 OA
BRANCH  75  78
ATOM     78  C   UNL A   1      32.226  27.161  23.380  1.00  0.00     0.086 C 
BRANCH  78  79
ATOM     79  C   UNL A   1      31.011  27.400  22.436  1.00  0.00     0.049 C 
BRANCH  79  80
ATOM     80  C   UNL A   1      29.800  28.294  22.673  1.00  0.00    -0.044 A 
ATOM     81  C   UNL A   1      29.975  29.669  22.398  1.00  0.00     0.004 A 
ATOM     82  C   UNL A   1      28.537  27.908  23.127  1.00  0.00     0.043 A 
ATOM     83  C   UNL A   1      28.928  30.593  22.524  1.00  0.00     0.003 A 
ATOM     84  C   UNL A   1      27.491  28.830  23.239  1.00  0.00     0.123 A 
ATOM     85  C   UNL A   1      27.672  30.166  22.934  1.00  0.00     0.039 A 
ATOM     86  F   UNL A   1      26.284  28.393  23.619  1.00  0.00    -0.207 F 
ENDBRANCH  79  80
ENDBRANCH  78  79
BRANCH  78  87
ATOM     87  C   UNL A   1      32.772  25.728  23.511  1.00  0.00     0.007 C 
ATOM     88  C   UNL A   1      33.099  25.015  22.188  1.00  0.00     0.033 C 
ATOM     89  C   UNL A   1      34.048  25.728  24.377  1.00  0.00     0.040 C 
ATOM     90  C   UNL A   1      33.559  23.587  22.494  1.00  0.00     0.161 C 
ATOM     91  C   UNL A   1      34.493  24.294  24.648  1.00  0.00     0.069 C 
ATOM     92  O   UNL A   1      34.667  23.587  23.393  1.00  0.00    -0.375 OA
ATOM     93  C   UNL A   1      35.724  24.210  25.595  1.00  0.00     0.035 C 
ATOM     94  C   UNL A   1      33.687  23.572  25.764  1.00  0.00     0.035 C 
ATOM     95  C   UNL A   1      35.018  23.064  26.338  1.00  0.00     0.006 C 
ENDBRANCH  78  87
ENDBRANCH  75  78
ENDBRANCH  73  74
ENDBRANCH  72  73
ENDBRANCH   1  72
TORSDOF 17
ENDMDL
MODEL 2
REMARK VINA RESULT:     -12.3      0.802      7.748
REMARK SMILES O=C(NCCCCNC(=O)[C@@H](Cc1cccc(F)c1)[C@H]1CCOC2(CCC2)C1)c1ccc(-c2c3nc(c(-c4cccc(S(=O)(=O)[O-])c4F)c4ccc([nH]4)c(-c4cccc(S(=O)(=O)[O-])c4F)c4nc(c(-c5cccc(S(=O)(=O)[O-])c5F)c5ccc2[nH]5)C=C4)C=C3)cc1
REMARK SMILES IDX 5 1 4 2 3 3 1 4 2 5 29 7 30 8 91 9 31 10 90 11 32 12 33 13
REMARK SMILES IDX 34 14 84 15 35 16 89 17 83 18 85 19 36 20 88 21 82 22 81 23
REMARK SMILES IDX 37 25 69 26 49 27 68 28 50 29 53 30 67 31 86 32 51 33 52 34
REMARK SMILES IDX 66 36 87 37 54 38 38 39 39 40 47 41 40 42 42 43 48 44 41 45
REMARK SMILES IDX 43 46 44 47 45 48 46 49 70 50 71 51 79 52 72 53 74 54 80 55
REMARK SMILES IDX 73 56 75 57 76 58 77 59 78 60 55 61 56 62 64 63 57 64 59 65
REMARK SMILES IDX 65 66 58 67 60 68 61 69 62 70 63 71 6 72 7 73 8 74 9 75
REMARK SMILES IDX 10 77 11 78 12 79 13 80 14 81 19 82 15 83 17 84 16 85 18 86
REMARK SMILES IDX 20 87 21 88 28 89 22 90 24 91 23 92 25 93 27 94 26 95
REMARK H PARENT 3 6 85 24 53 35 8 76
REMARK Flexibility Score: inf
ROOT
ATOM      1  C   UNL A   1      31.116  31.594  26.499  1.00  0.00     0.023 C 
ENDROOT
BRANCH   1   2
ATOM      2  C   UNL A   1      32.216  32.638  26.361  1.00  0.00     0.116 C 
BRANCH   2   3
ATOM      3  N   UNL A   1      32.092  33.797  27.236  1.00  0.00    -0.352 N 
ATOM      4  O   UNL A   1      32.745  35.184  28.910  1.00  0.00    -0.269 OA
ATOM      5  C   UNL A   1      32.985  34.215  28.209  1.00  0.00     0.251 C 
ATOM      6  H   UNL A   1      31.282  34.345  27.123  1.00  0.00     0.163 HD
BRANCH   5   7
ATOM      7  C   UNL A   1      34.208  33.406  28.423  1.00  0.00     0.039 A 
ATOM      8  C   UNL A   1      34.096  32.061  28.774  1.00  0.00     0.014 A 
ATOM      9  C   UNL A   1      35.451  34.042  28.445  1.00  0.00     0.014 A 
ATOM     10  C   UNL A   1      35.173  31.430  29.382  1.00  0.00     0.010 A 
ATOM     11  C   UNL A   1      36.563  33.361  28.953  1.00  0.00     0.010 A 
ATOM     12  C   UNL A   1      36.416  32.079  29.503  1.00  0.00    -0.014 A 
BRANCH  12  13
ATOM     13  C   UNL A   1      37.521  31.398  30.234  1.00  0.00     0.031 A 
ATOM     14  C   UNL A   1      38.420  30.398  29.547  1.00  0.00     0.074 A 
ATOM     15  C   UNL A   1      37.759  31.735  31.518  1.00  0.00     0.049 A 
ATOM     16  N   UNL A   1      39.453  29.755  30.032  1.00  0.00    -0.248 NA
ATOM     17  C   UNL A   1      38.129  30.068  28.141  1.00  0.00     0.031 C 
ATOM     18  C   UNL A   1      36.948  32.669  32.300  1.00  0.00     0.029 A 
ATOM     19  N   UNL A   1      38.755  31.357  32.381  1.00  0.00    -0.354 N 
ATOM     20  C   UNL A   1      39.896  28.911  29.020  1.00  0.00     0.074 A 
ATOM     21  C   UNL A   1      39.023  29.121  27.887  1.00  0.00     0.031 C 
ATOM     22  C   UNL A   1      37.512  32.841  33.504  1.00  0.00     0.029 A 
ATOM     23  C   UNL A   1      38.685  31.978  33.607  1.00  0.00     0.049 A 
ATOM     24  H   UNL A   1      39.455  30.704  32.147  1.00  0.00     0.167 HD
ATOM     25  C   UNL A   1      40.947  28.056  29.026  1.00  0.00     0.034 A 
ATOM     26  C   UNL A   1      39.464  31.864  34.700  1.00  0.00     0.034 A 
ATOM     27  C   UNL A   1      41.865  27.907  30.124  1.00  0.00     0.049 A 
ATOM     28  C   UNL A   1      40.642  30.935  34.664  1.00  0.00     0.074 A 
ATOM     29  C   UNL A   1      43.002  27.120  30.188  1.00  0.00     0.029 A 
ATOM     30  N   UNL A   1      41.760  28.560  31.341  1.00  0.00    -0.354 N 
ATOM     31  N   UNL A   1      41.095  30.222  33.662  1.00  0.00    -0.248 NA
ATOM     32  C   UNL A   1      41.420  30.797  35.903  1.00  0.00     0.031 C 
ATOM     33  C   UNL A   1      43.579  27.289  31.449  1.00  0.00     0.029 A 
ATOM     34  C   UNL A   1      42.805  28.185  32.168  1.00  0.00     0.049 A 
ATOM     35  H   UNL A   1      41.047  29.195  31.583  1.00  0.00     0.167 HD
ATOM     36  C   UNL A   1      42.209  29.549  34.148  1.00  0.00     0.074 A 
ATOM     37  C   UNL A   1      42.386  29.971  35.522  1.00  0.00     0.031 C 
ATOM     38  C   UNL A   1      42.994  28.641  33.520  1.00  0.00     0.034 A 
BRANCH  25  39
ATOM     39  C   UNL A   1      41.218  27.242  27.787  1.00  0.00     0.023 A 
ATOM     40  C   UNL A   1      41.798  27.865  26.665  1.00  0.00     0.012 A 
ATOM     41  C   UNL A   1      41.020  25.846  27.781  1.00  0.00     0.148 A 
ATOM     42  C   UNL A   1      42.170  27.114  25.551  1.00  0.00     0.002 A 
ATOM     43  C   UNL A   1      41.424  25.099  26.680  1.00  0.00     0.091 A 
ATOM     44  F   UNL A   1      40.453  25.277  28.854  1.00  0.00    -0.205 F 
ATOM     45  C   UNL A   1      41.995  25.732  25.563  1.00  0.00     0.022 A 
BRANCH  43  46
ATOM     46  S   UNL A   1      41.310  23.307  26.624  1.00  0.00     0.127 S 
ATOM     47  O   UNL A   1      42.116  22.998  25.443  1.00  0.00    -0.237 OA
ATOM     48  O   UNL A   1      41.921  22.919  27.896  1.00  0.00    -0.237 OA
ATOM     49  O   UNL A   1      39.892  22.997  26.509  1.00  0.00    -0.744 OA
ENDBRANCH  43  46
ENDBRANCH  25  39
BRANCH  26  50
ATOM     50  C   UNL A   1      39.165  32.699  35.897  1.00  0.00     0.023 A 
ATOM     51  C   UNL A   1      38.454  32.136  36.972  1.00  0.00     0.012 A 
ATOM     52  C   UNL A   1      39.662  34.012  36.015  1.00  0.00     0.148 A 
ATOM     53  C   UNL A   1      38.242  32.865  38.144  1.00  0.00     0.002 A 
ATOM     54  C   UNL A   1      39.506  34.707  37.207  1.00  0.00     0.091 A 
ATOM     55  F   UNL A   1      40.310  34.544  34.969  1.00  0.00    -0.205 F 
ATOM     56  C   UNL A   1      38.784  34.143  38.268  1.00  0.00     0.022 A 
BRANCH  54  57
ATOM     57  S   UNL A   1      40.332  36.277  37.495  1.00  0.00     0.127 S 
ATOM     58  O   UNL A   1      41.628  35.846  38.009  1.00  0.00    -0.237 OA
ATOM     59  O   UNL A   1      40.365  36.862  36.153  1.00  0.00    -0.237 OA
ATOM     60  O   UNL A   1      39.473  36.991  38.431  1.00  0.00    -0.744 OA
ENDBRANCH  54  57
ENDBRANCH  26  50
BRANCH  38  61
ATOM     61  C   UNL A   1      44.110  28.014  34.309  1.00  0.00     0.023 A 
ATOM     62  C   UNL A   1      45.340  28.692  34.406  1.00  0.00     0.012 A 
ATOM     63  C   UNL A   1      43.910  26.829  35.041  1.00  0.00     0.148 A 
ATOM     64  C   UNL A   1      46.363  28.192  35.210  1.00  0.00     0.002 A 
ATOM     65  C   UNL A   1      44.919  26.356  35.871  1.00  0.00     0.091 A 
ATOM     66  F   UNL A   1      42.734  26.193  34.921  1.00  0.00    -0.205 F 
ATOM     67  C   UNL A   1      46.148  27.031  35.952  1.00  0.00     0.022 A 
BRANCH  65  68
ATOM     68  S   UNL A   1      44.705  24.920  36.929  1.00  0.00     0.127 S 
ATOM     69  O   UNL A   1      45.983  24.881  37.639  1.00  0.00    -0.237 OA
ATOM     70  O   UNL A   1      43.561  25.310  37.754  1.00  0.00    -0.237 OA
ATOM     71  O   UNL A   1      44.452  23.798  36.037  1.00  0.00    -0.744 OA
ENDBRANCH  65  68
ENDBRANCH  38  61
ENDBRANCH  12  13
ENDBRANCH   5   7
ENDBRANCH   2   3
ENDBRANCH   1   2
BRANCH   1  72
ATOM     72  C   UNL A   1      31.391  30.271  25.799  1.00  0.00     0.023 C 
BRANCH  72  73
ATOM     73  C   UNL A   1      32.838  29.785  25.880  1.00  0.00     0.116 C 
BRANCH  73  74
ATOM     74  N   UNL A   1      33.442  29.688  24.570  1.00  0.00    -0.356 N 
ATOM     75  C   UNL A   1      33.330  28.765  23.589  1.00  0.00     0.223 C 
ATOM     76  H   UNL A   1      34.047  30.433  24.351  1.00  0.00     0.163 HD
ATOM     77  O   UNL A   1      33.994  28.967  22.565  1.00  0.00    -0.275 OA
BRANCH  75  78
ATOM     78  C   UNL A   1      32.437  27.523  23.671  1.00  0.00     0.086 C 
BRANCH  78  79
ATOM     79  C   UNL A   1      31.276  27.518  22.634  1.00  0.00     0.049 C 
BRANCH  79  80
ATOM     80  C   UNL A   1      30.088  28.468  22.550  1.00  0.00    -0.044 A 
ATOM     81  C   UNL A   1      28.867  27.989  23.074  1.00  0.00     0.004 A 
ATOM     82  C   UNL A   1      30.070  29.759  22.018  1.00  0.00     0.043 A 
ATOM     83  C   UNL A   1      27.709  28.779  23.106  1.00  0.00     0.003 A 
ATOM     84  C   UNL A   1      28.918  30.549  22.063  1.00  0.00     0.123 A 
ATOM     85  C   UNL A   1      27.739  30.075  22.609  1.00  0.00     0.039 A 
ATOM     86  F   UNL A   1      28.975  31.802  21.595  1.00  0.00    -0.207 F 
ENDBRANCH  79  80
ENDBRANCH  78  79
BRANCH  78  87
ATOM     87  C   UNL A   1      33.134  26.187  23.987  1.00  0.00     0.007 C 
ATOM     88  C   UNL A   1      34.022  26.179  25.244  1.00  0.00     0.033 C 
ATOM     89  C   UNL A   1      32.084  25.069  24.142  1.00  0.00     0.040 C 
ATOM     90  C   UNL A   1      34.691  24.808  25.370  1.00  0.00     0.161 C 
ATOM     91  C   UNL A   1      32.779  23.719  24.287  1.00  0.00     0.069 C 
ATOM     92  O   UNL A   1      33.718  23.763  25.392  1.00  0.00    -0.375 OA
ATOM     93  C   UNL A   1      31.782  22.527  24.354  1.00  0.00     0.035 C 
ATOM     94  C   UNL A   1      33.287  23.112  22.948  1.00  0.00     0.035 C 
ATOM     95  C   UNL A   1      32.699  21.762  23.386  1.00  0.00     0.006 C 
ENDBRANCH  78  87
ENDBRANCH  75  78
ENDBRANCH  73  74
ENDBRANCH  72  73
ENDBRANCH   1  72
TORSDOF 17
ENDMDL
MODEL 3
REMARK VINA RESULT:     -12.3      5.317     10.671
REMARK SMILES O=C(NCCCCNC(=O)[C@@H](Cc1cccc(F)c1)[C@H]1CCOC2(CCC2)C1)c1ccc(-c2c3nc(c(-c4cccc(S(=O)(=O)[O-])c4F)c4ccc([nH]4)c(-c4cccc(S(=O)(=O)[O-])c4F)c4nc(c(-c5cccc(S(=O)(=O)[O-])c5F)c5ccc2[nH]5)C=C4)C=C3)cc1
REMARK SMILES IDX 5 1 4 2 3 3 1 4 2 5 29 7 30 8 91 9 31 10 90 11 32 12 33 13
REMARK SMILES IDX 34 14 84 15 35 16 89 17 83 18 85 19 36 20 88 21 82 22 81 23
REMARK SMILES IDX 37 25 69 26 49 27 68 28 50 29 53 30 67 31 86 32 51 33 52 34
REMARK SMILES IDX 66 36 87 37 54 38 38 39 39 40 47 41 40 42 42 43 48 44 41 45
REMARK SMILES IDX 43 46 44 47 45 48 46 49 70 50 71 51 79 52 72 53 74 54 80 55
REMARK SMILES IDX 73 56 75 57 76 58 77 59 78 60 55 61 56 62 64 63 57 64 59 65
REMARK SMILES IDX 65 66 58 67 60 68 61 69 62 70 63 71 6 72 7 73 8 74 9 75
REMARK SMILES IDX 10 77 11 78 12 79 13 80 14 81 19 82 15 83 17 84 16 85 18 86
REMARK SMILES IDX 20 87 21 88 28 89 22 90 24 91 23 92 25 93 27 94 26 95
REMARK H PARENT 3 6 85 24 53 35 8 76
REMARK Flexibility Score: inf
ROOT
ATOM      1  C   UNL A   1      36.080  21.044  25.126  1.00  0.00     0.023 C 
ENDROOT
BRANCH   1   2
ATOM      2  C   UNL A   1      37.536  21.446  24.932  1.00  0.00     0.116 C 
BRANCH   2   3
ATOM      3  N   UNL A   1      38.515  20.404  25.219  1.00  0.00    -0.352 N 
ATOM      4  O   UNL A   1      40.385  19.555  26.185  1.00  0.00    -0.269 OA
ATOM      5  C   UNL A   1      39.611  20.490  26.062  1.00  0.00     0.251 C 
ATOM      6  H   UNL A   1      38.382  19.543  24.761  1.00  0.00     0.163 HD
BRANCH   5   7
ATOM      7  C   UNL A   1      39.856  21.778  26.753  1.00  0.00     0.039 A 
ATOM      8  C   UNL A   1      39.274  22.948  26.268  1.00  0.00     0.014 A 
ATOM      9  C   UNL A   1      40.808  21.832  27.774  1.00  0.00     0.014 A 
ATOM     10  C   UNL A   1      39.822  24.172  26.622  1.00  0.00     0.010 A 
ATOM     11  C   UNL A   1      41.276  23.075  28.212  1.00  0.00     0.010 A 
ATOM     12  C   UNL A   1      40.847  24.254  27.582  1.00  0.00    -0.014 A 
BRANCH  12  13
ATOM     13  C   UNL A   1      41.464  25.578  27.875  1.00  0.00     0.031 A 
ATOM     14  C   UNL A   1      42.837  25.937  27.361  1.00  0.00     0.074 A 
ATOM     15  C   UNL A   1      40.748  26.494  28.560  1.00  0.00     0.049 A 
ATOM     16  N   UNL A   1      43.492  27.065  27.491  1.00  0.00    -0.248 NA
ATOM     17  C   UNL A   1      43.578  24.909  26.610  1.00  0.00     0.031 C 
ATOM     18  C   UNL A   1      39.420  26.261  29.130  1.00  0.00     0.029 A 
ATOM     19  N   UNL A   1      41.017  27.802  28.870  1.00  0.00    -0.354 N 
ATOM     20  C   UNL A   1      44.731  26.864  26.894  1.00  0.00     0.074 A 
ATOM     21  C   UNL A   1      44.743  25.507  26.396  1.00  0.00     0.031 C 
ATOM     22  C   UNL A   1      38.964  27.402  29.665  1.00  0.00     0.029 A 
ATOM     23  C   UNL A   1      39.992  28.431  29.539  1.00  0.00     0.049 A 
ATOM     24  H   UNL A   1      41.863  28.250  28.636  1.00  0.00     0.167 HD
ATOM     25  C   UNL A   1      45.758  27.737  26.753  1.00  0.00     0.034 A 
ATOM     26  C   UNL A   1      39.886  29.688  30.011  1.00  0.00     0.034 A 
ATOM     27  C   UNL A   1      45.716  29.112  27.175  1.00  0.00     0.049 A 
ATOM     28  C   UNL A   1      41.026  30.642  29.808  1.00  0.00     0.074 A 
ATOM     29  C   UNL A   1      46.682  30.089  27.004  1.00  0.00     0.029 A 
ATOM     30  N   UNL A   1      44.657  29.707  27.841  1.00  0.00    -0.354 N 
ATOM     31  N   UNL A   1      42.147  30.457  29.155  1.00  0.00    -0.248 NA
ATOM     32  C   UNL A   1      40.887  31.981  30.400  1.00  0.00     0.031 C 
ATOM     33  C   UNL A   1      46.210  31.274  27.576  1.00  0.00     0.029 A 
ATOM     34  C   UNL A   1      44.949  31.036  28.098  1.00  0.00     0.049 A 
ATOM     35  H   UNL A   1      43.821  29.253  28.093  1.00  0.00     0.167 HD
ATOM     36  C   UNL A   1      42.849  31.651  29.258  1.00  0.00     0.074 A 
ATOM     37  C   UNL A   1      42.009  32.567  30.002  1.00  0.00     0.031 C 
ATOM     38  C   UNL A   1      44.090  31.949  28.804  1.00  0.00     0.034 A 
BRANCH  25  39
ATOM     39  C   UNL A   1      47.011  27.268  26.061  1.00  0.00     0.023 A 
ATOM     40  C   UNL A   1      47.203  27.574  24.699  1.00  0.00     0.012 A 
ATOM     41  C   UNL A   1      48.048  26.643  26.784  1.00  0.00     0.148 A 
ATOM     42  C   UNL A   1      48.404  27.257  24.064  1.00  0.00     0.002 A 
ATOM     43  C   UNL A   1      49.254  26.362  26.153  1.00  0.00     0.091 A 
ATOM     44  F   UNL A   1      47.837  26.349  28.075  1.00  0.00    -0.205 F 
ATOM     45  C   UNL A   1      49.432  26.664  24.793  1.00  0.00     0.022 A 
BRANCH  43  46
ATOM     46  S   UNL A   1      50.667  25.665  27.019  1.00  0.00     0.127 S 
ATOM     47  O   UNL A   1      50.088  24.454  27.599  1.00  0.00    -0.237 OA
ATOM     48  O   UNL A   1      51.611  25.427  25.927  1.00  0.00    -0.237 OA
ATOM     49  O   UNL A   1      51.088  26.676  27.979  1.00  0.00    -0.744 OA
ENDBRANCH  43  46
ENDBRANCH  25  39
BRANCH  26  50
ATOM     50  C   UNL A   1      38.623  30.111  30.676  1.00  0.00     0.023 A 
ATOM     51  C   UNL A   1      38.470  29.909  32.061  1.00  0.00     0.012 A 
ATOM     52  C   UNL A   1      37.616  30.795  29.968  1.00  0.00     0.148 A 
ATOM     53  C   UNL A   1      37.337  30.380  32.727  1.00  0.00     0.002 A 
ATOM     54  C   UNL A   1      36.524  31.319  30.647  1.00  0.00     0.091 A 
ATOM     55  F   UNL A   1      37.763  30.951  28.644  1.00  0.00    -0.205 F 
ATOM     56  C   UNL A   1      36.374  31.102  32.024  1.00  0.00     0.022 A 
BRANCH  54  57
ATOM     57  S   UNL A   1      35.347  32.408  29.836  1.00  0.00     0.127 S 
ATOM     58  O   UNL A   1      34.821  31.551  28.778  1.00  0.00    -0.237 OA
ATOM     59  O   UNL A   1      34.403  32.705  30.915  1.00  0.00    -0.237 OA
ATOM     60  O   UNL A   1      36.130  33.558  29.402  1.00  0.00    -0.744 OA
ENDBRANCH  54  57
ENDBRANCH  26  50
BRANCH  38  61
ATOM     61  C   UNL A   1      44.639  33.315  29.110  1.00  0.00     0.023 A 
ATOM     62  C   UNL A   1      45.353  33.509  30.308  1.00  0.00     0.012 A 
ATOM     63  C   UNL A   1      44.551  34.363  28.175  1.00  0.00     0.148 A 
ATOM     64  C   UNL A   1      45.962  34.733  30.579  1.00  0.00     0.002 A 
ATOM     65  C   UNL A   1      45.193  35.569  28.433  1.00  0.00     0.091 A 
ATOM     66  F   UNL A   1      43.853  34.159  27.048  1.00  0.00    -0.205 F 
ATOM     67  C   UNL A   1      45.893  35.758  29.636  1.00  0.00     0.022 A 
BRANCH  65  68
ATOM     68  S   UNL A   1      45.233  36.915  27.244  1.00  0.00     0.127 S 
ATOM     69  O   UNL A   1      46.026  36.332  26.162  1.00  0.00    -0.237 OA
ATOM     70  O   UNL A   1      43.815  37.095  26.931  1.00  0.00    -0.237 OA
ATOM     71  O   UNL A   1      45.849  38.040  27.932  1.00  0.00    -0.744 OA
ENDBRANCH  65  68
ENDBRANCH  38  61
ENDBRANCH  12  13
ENDBRANCH   5   7
ENDBRANCH   2   3
ENDBRANCH   1   2
BRANCH   1  72
ATOM     72  C   UNL A   1      35.332  21.827  26.195  1.00  0.00     0.023 C 
BRANCH  72  73
ATOM     73  C   UNL A   1      34.725  23.149  25.725  1.00  0.00     0.116 C 
BRANCH  73  74
ATOM     74  N   UNL A   1      34.507  23.157  24.296  1.00  0.00    -0.356 N 
ATOM     75  C   UNL A   1      33.427  22.846  23.545  1.00  0.00     0.223 C 
ATOM     76  H   UNL A   1      35.290  23.442  23.772  1.00  0.00     0.163 HD
ATOM     77  O   UNL A   1      33.562  22.951  22.320  1.00  0.00    -0.275 OA
BRANCH  75  78
ATOM     78  C   UNL A   1      32.079  22.397  24.117  1.00  0.00     0.086 C 
BRANCH  78  79
ATOM     79  C   UNL A   1      32.142  21.039  24.875  1.00  0.00     0.049 C 
BRANCH  79  80
ATOM     80  C   UNL A   1      32.606  19.689  24.346  1.00  0.00    -0.044 A 
ATOM     81  C   UNL A   1      32.153  19.334  23.056  1.00  0.00     0.004 A 
ATOM     82  C   UNL A   1      33.432  18.764  24.989  1.00  0.00     0.043 A 
ATOM     83  C   UNL A   1      32.546  18.143  22.429  1.00  0.00     0.003 A 
ATOM     84  C   UNL A   1      33.833  17.583  24.357  1.00  0.00     0.123 A 
ATOM     85  C   UNL A   1      33.405  17.267  23.080  1.00  0.00     0.039 A 
ATOM     86  F   UNL A   1      34.676  16.762  24.996  1.00  0.00    -0.207 F 
ENDBRANCH  79  80
ENDBRANCH  78  79
BRANCH  78  87
ATOM     87  C   UNL A   1      31.161  23.500  24.675  1.00  0.00     0.007 C 
ATOM     88  C   UNL A   1      30.890  23.438  26.189  1.00  0.00     0.033 C 
ATOM     89  C   UNL A   1      31.750  24.888  24.355  1.00  0.00     0.040 C 
ATOM     90  C   UNL A   1      29.910  24.553  26.563  1.00  0.00     0.161 C 
ATOM     91  C   UNL A   1      30.761  25.978  24.758  1.00  0.00     0.069 C 
ATOM     92  O   UNL A   1      30.405  25.829  26.156  1.00  0.00    -0.375 OA
ATOM     93  C   UNL A   1      31.246  27.407  24.379  1.00  0.00     0.035 C 
ATOM     94  C   UNL A   1      29.598  26.194  23.748  1.00  0.00     0.035 C 
ATOM     95  C   UNL A   1      29.825  27.708  23.876  1.00  0.00     0.006 C 
ENDBRANCH  78  87
ENDBRANCH  75  78
ENDBRANCH  73  74
ENDBRANCH  72  73
ENDBRANCH   1  72
TORSDOF 17
ENDMDL
