MODEL 1
REMARK VINA RESULT:     -11.5      0.000      0.000
REMARK SMILES CCc1ccc(S(=O)(=O)CC(=O)NCCCCNC(=O)c2ccc(-c3c4nc(c(-c5cccc(S(=O)(=O)[O-])c5F)c5ccc([nH]5)c(-c5cccc(S(=O)(=O)[O-])c5F)c5nc(c(-c6cccc(S(=O)(=O)[O-])c6F)c6ccc3[nH]6)C=C5)C=C4)cc2)cc1
REMARK SMILES IDX 15 1 14 2 13 3 11 4 12 5 10 7 7 8 8 9 9 10 6 11 3 12 4 13
REMARK SMILES IDX 85 14 5 15 84 16 2 17 1 18 16 19 17 20 18 21 19 22 20 24
REMARK SMILES IDX 21 25 22 26 83 27 23 28 82 29 24 30 25 31 26 32 76 33 27 34
REMARK SMILES IDX 81 35 75 36 77 37 28 38 80 39 74 40 73 41 29 43 61 44 41 45
REMARK SMILES IDX 60 46 42 47 45 48 59 49 78 50 43 51 44 52 58 54 79 55 46 56
REMARK SMILES IDX 30 57 31 58 39 59 32 60 34 61 40 62 33 63 35 64 36 65 37 66
REMARK SMILES IDX 38 67 62 68 63 69 71 70 64 71 66 72 72 73 65 74 67 75 68 76
REMARK SMILES IDX 69 77 70 78 47 79 48 80 56 81 49 82 51 83 57 84 50 85 52 86
REMARK SMILES IDX 53 87 54 88 55 89
REMARK H PARENT 13 6 18 23 77 42 45 53
REMARK Flexibility Score: inf
ROOT
ATOM      1  C   UNL A   1      32.209  27.465  26.667  1.00  0.00     0.023 C 
ENDROOT
BRANCH   1   2
ATOM      2  C   UNL A   1      31.160  26.552  26.034  1.00  0.00     0.116 C 
BRANCH   2   3
ATOM      3  N   UNL A   1      30.950  25.365  26.842  1.00  0.00    -0.355 N 
ATOM      4  C   UNL A   1      30.870  24.064  26.464  1.00  0.00     0.235 C 
ATOM      5  O   UNL A   1      30.608  23.229  27.333  1.00  0.00    -0.274 OA
ATOM      6  H   UNL A   1      30.853  25.529  27.808  1.00  0.00     0.163 HD
BRANCH   4   7
ATOM      7  C   UNL A   1      31.205  23.625  25.078  1.00  0.00     0.241 C 
BRANCH   7   8
ATOM      8  S   UNL A   1      32.918  23.480  24.728  1.00  0.00     0.187 S 
ATOM      9  O   UNL A   1      33.628  24.095  25.838  1.00  0.00    -0.223 OA
ATOM     10  O   UNL A   1      33.136  23.995  23.387  1.00  0.00    -0.223 OA
BRANCH   8  11
ATOM     11  C   UNL A   1      33.434  21.785  24.720  1.00  0.00     0.067 A 
ATOM     12  C   UNL A   1      34.193  19.082  24.542  1.00  0.00    -0.048 A 
ATOM     13  C   UNL A   1      32.870  19.473  24.288  1.00  0.00     0.005 A 
ATOM     14  C   UNL A   1      35.125  20.071  24.891  1.00  0.00     0.005 A 
ATOM     15  C   UNL A   1      32.486  20.812  24.386  1.00  0.00     0.020 A 
ATOM     16  C   UNL A   1      34.754  21.419  24.966  1.00  0.00     0.020 A 
BRANCH  12  17
ATOM     17  C   UNL A   1      34.558  17.626  24.353  1.00  0.00     0.032 C 
ATOM     18  C   UNL A   1      34.021  16.942  23.102  1.00  0.00     0.009 C 
ENDBRANCH  12  17
ENDBRANCH   8  11
ENDBRANCH   7   8
ENDBRANCH   4   7
ENDBRANCH   2   3
ENDBRANCH   1   2
BRANCH   1  19
ATOM     19  C   UNL A   1      31.806  28.939  26.753  1.00  0.00     0.023 C 
BRANCH  19  20
ATOM     20  C   UNL A   1      32.756  29.918  26.074  1.00  0.00     0.116 C 
BRANCH  20  21
ATOM     21  N   UNL A   1      32.540  31.300  26.476  1.00  0.00    -0.352 N 
ATOM     22  C   UNL A   1      33.297  32.080  27.317  1.00  0.00     0.251 C 
ATOM     23  H   UNL A   1      31.745  31.735  26.093  1.00  0.00     0.163 HD
ATOM     24  O   UNL A   1      32.906  33.199  27.638  1.00  0.00    -0.269 OA
BRANCH  22  25
ATOM     25  C   UNL A   1      34.566  31.551  27.859  1.00  0.00     0.039 A 
ATOM     26  C   UNL A   1      35.649  32.421  28.016  1.00  0.00     0.014 A 
ATOM     27  C   UNL A   1      34.676  30.211  28.240  1.00  0.00     0.014 A 
ATOM     28  C   UNL A   1      36.823  31.961  28.617  1.00  0.00     0.010 A 
ATOM     29  C   UNL A   1      35.817  29.775  28.904  1.00  0.00     0.010 A 
ATOM     30  C   UNL A   1      36.904  30.644  29.096  1.00  0.00    -0.014 A 
BRANCH  30  31
ATOM     31  C   UNL A   1      38.108  30.154  29.813  1.00  0.00     0.031 A 
ATOM     32  C   UNL A   1      38.373  30.587  31.229  1.00  0.00     0.074 A 
ATOM     33  C   UNL A   1      39.011  29.399  29.158  1.00  0.00     0.049 A 
ATOM     34  N   UNL A   1      39.395  30.315  31.997  1.00  0.00    -0.248 NA
ATOM     35  C   UNL A   1      37.371  31.466  31.853  1.00  0.00     0.031 C 
ATOM     36  C   UNL A   1      38.908  28.978  27.760  1.00  0.00     0.029 A 
ATOM     37  N   UNL A   1      40.207  28.870  29.576  1.00  0.00    -0.354 N 
ATOM     38  C   UNL A   1      39.180  31.015  33.177  1.00  0.00     0.074 A 
ATOM     39  C   UNL A   1      37.950  31.758  33.008  1.00  0.00     0.031 C 
ATOM     40  C   UNL A   1      39.987  28.246  27.439  1.00  0.00     0.029 A 
ATOM     41  C   UNL A   1      40.871  28.167  28.598  1.00  0.00     0.049 A 
ATOM     42  H   UNL A   1      40.556  28.982  30.490  1.00  0.00     0.167 HD
ATOM     43  C   UNL A   1      39.919  31.016  34.312  1.00  0.00     0.034 A 
ATOM     44  C   UNL A   1      42.058  27.531  28.632  1.00  0.00     0.034 A 
ATOM     45  C   UNL A   1      41.116  30.240  34.492  1.00  0.00     0.049 A 
ATOM     46  C   UNL A   1      42.843  27.513  29.916  1.00  0.00     0.074 A 
ATOM     47  C   UNL A   1      41.888  30.098  35.632  1.00  0.00     0.029 A 
ATOM     48  N   UNL A   1      41.718  29.476  33.505  1.00  0.00    -0.354 N 
ATOM     49  N   UNL A   1      42.543  28.052  31.073  1.00  0.00    -0.248 NA
ATOM     50  C   UNL A   1      44.112  26.771  29.908  1.00  0.00     0.031 C 
ATOM     51  C   UNL A   1      42.967  29.261  35.327  1.00  0.00     0.029 A 
ATOM     52  C   UNL A   1      42.856  28.866  34.004  1.00  0.00     0.049 A 
ATOM     53  H   UNL A   1      41.385  29.382  32.583  1.00  0.00     0.167 HD
ATOM     54  C   UNL A   1      43.565  27.684  31.941  1.00  0.00     0.074 A 
ATOM     55  C   UNL A   1      44.484  26.863  31.178  1.00  0.00     0.031 C 
ATOM     56  C   UNL A   1      43.734  28.008  33.247  1.00  0.00     0.034 A 
BRANCH  43  57
ATOM     57  C   UNL A   1      39.411  31.842  35.466  1.00  0.00     0.023 A 
ATOM     58  C   UNL A   1      38.487  31.276  36.369  1.00  0.00     0.012 A 
ATOM     59  C   UNL A   1      39.857  33.161  35.675  1.00  0.00     0.148 A 
ATOM     60  C   UNL A   1      37.978  32.022  37.431  1.00  0.00     0.002 A 
ATOM     61  C   UNL A   1      39.379  33.885  36.762  1.00  0.00     0.091 A 
ATOM     62  F   UNL A   1      40.716  33.695  34.795  1.00  0.00    -0.205 F 
ATOM     63  C   UNL A   1      38.430  33.323  37.631  1.00  0.00     0.022 A 
BRANCH  61  64
ATOM     64  S   UNL A   1      39.963  35.541  37.144  1.00  0.00     0.127 S 
ATOM     65  O   UNL A   1      39.257  35.823  38.392  1.00  0.00    -0.237 OA
ATOM     66  O   UNL A   1      41.406  35.336  37.293  1.00  0.00    -0.237 OA
ATOM     67  O   UNL A   1      39.587  36.364  36.004  1.00  0.00    -0.744 OA
ENDBRANCH  61  64
ENDBRANCH  43  57
BRANCH  44  68
ATOM     68  C   UNL A   1      42.525  26.775  27.435  1.00  0.00     0.023 A 
ATOM     69  C   UNL A   1      43.269  27.450  26.448  1.00  0.00     0.012 A 
ATOM     70  C   UNL A   1      42.283  25.395  27.291  1.00  0.00     0.148 A 
ATOM     71  C   UNL A   1      43.747  26.771  25.328  1.00  0.00     0.002 A 
ATOM     72  C   UNL A   1      42.806  24.713  26.197  1.00  0.00     0.091 A 
ATOM     73  F   UNL A   1      41.567  24.774  28.237  1.00  0.00    -0.205 F 
ATOM     74  C   UNL A   1      43.526  25.402  25.208  1.00  0.00     0.022 A 
BRANCH  72  75
ATOM     75  S   UNL A   1      42.680  22.930  26.017  1.00  0.00     0.127 S 
ATOM     76  O   UNL A   1      43.022  22.747  24.609  1.00  0.00    -0.237 OA
ATOM     77  O   UNL A   1      43.692  22.461  26.963  1.00  0.00    -0.237 OA
ATOM     78  O   UNL A   1      41.312  22.592  26.383  1.00  0.00    -0.744 OA
ENDBRANCH  72  75
ENDBRANCH  44  68
BRANCH  56  79
ATOM     79  C   UNL A   1      44.944  27.454  33.953  1.00  0.00     0.023 A 
ATOM     80  C   UNL A   1      46.144  28.192  33.968  1.00  0.00     0.012 A 
ATOM     81  C   UNL A   1      44.868  26.241  34.666  1.00  0.00     0.148 A 
ATOM     82  C   UNL A   1      47.258  27.717  34.658  1.00  0.00     0.002 A 
ATOM     83  C   UNL A   1      45.968  25.797  35.389  1.00  0.00     0.091 A 
ATOM     84  F   UNL A   1      43.724  25.543  34.622  1.00  0.00    -0.205 F 
ATOM     85  C   UNL A   1      47.167  26.528  35.378  1.00  0.00     0.022 A 
BRANCH  83  86
ATOM     86  S   UNL A   1      45.911  24.328  36.422  1.00  0.00     0.127 S 
ATOM     87  O   UNL A   1      47.082  24.519  37.277  1.00  0.00    -0.237 OA
ATOM     88  O   UNL A   1      44.626  24.476  37.106  1.00  0.00    -0.237 OA
ATOM     89  O   UNL A   1      45.981  23.196  35.509  1.00  0.00    -0.744 OA
ENDBRANCH  83  86
ENDBRANCH  56  79
ENDBRANCH  30  31
ENDBRANCH  22  25
ENDBRANCH  20  21
ENDBRANCH  19  20
ENDBRANCH   1  19
TORSDOF 17
ENDMDL
MODEL 2
REMARK VINA RESULT:     -11.3      2.109      2.844
REMARK SMILES CCc1ccc(S(=O)(=O)CC(=O)NCCCCNC(=O)c2ccc(-c3c4nc(c(-c5cccc(S(=O)(=O)[O-])c5F)c5ccc([nH]5)c(-c5cccc(S(=O)(=O)[O-])c5F)c5nc(c(-c6cccc(S(=O)(=O)[O-])c6F)c6ccc3[nH]6)C=C5)C=C4)cc2)cc1
REMARK SMILES IDX 15 1 14 2 13 3 11 4 12 5 10 7 7 8 8 9 9 10 6 11 3 12 4 13
REMARK SMILES IDX 85 14 5 15 84 16 2 17 1 18 16 19 17 20 18 21 19 22 20 24
REMARK SMILES IDX 21 25 22 26 83 27 23 28 82 29 24 30 25 31 26 32 76 33 27 34
REMARK SMILES IDX 81 35 75 36 77 37 28 38 80 39 74 40 73 41 29 43 61 44 41 45
REMARK SMILES IDX 60 46 42 47 45 48 59 49 78 50 43 51 44 52 58 54 79 55 46 56
REMARK SMILES IDX 30 57 31 58 39 59 32 60 34 61 40 62 33 63 35 64 36 65 37 66
REMARK SMILES IDX 38 67 62 68 63 69 71 70 64 71 66 72 72 73 65 74 67 75 68 76
REMARK SMILES IDX 69 77 70 78 47 79 48 80 56 81 49 82 51 83 57 84 50 85 52 86
REMARK SMILES IDX 53 87 54 88 55 89
REMARK H PARENT 13 6 18 23 77 42 45 53
REMARK Flexibility Score: inf
ROOT
ATOM      1  C   UNL A   1      32.123  27.836  26.790  1.00  0.00     0.023 C 
ENDROOT
BRANCH   1   2
ATOM      2  C   UNL A   1      31.306  26.948  25.853  1.00  0.00     0.116 C 
BRANCH   2   3
ATOM      3  N   UNL A   1      30.851  25.752  26.537  1.00  0.00    -0.355 N 
ATOM      4  C   UNL A   1      31.445  24.536  26.643  1.00  0.00     0.235 C 
ATOM      5  O   UNL A   1      30.822  23.641  27.219  1.00  0.00    -0.274 OA
ATOM      6  H   UNL A   1      29.982  25.836  26.993  1.00  0.00     0.163 HD
BRANCH   4   7
ATOM      7  C   UNL A   1      32.850  24.305  26.195  1.00  0.00     0.241 C 
BRANCH   7   8
ATOM      8  S   UNL A   1      33.024  23.619  24.590  1.00  0.00     0.187 S 
ATOM      9  O   UNL A   1      34.205  24.225  23.998  1.00  0.00    -0.223 OA
ATOM     10  O   UNL A   1      31.747  23.764  23.911  1.00  0.00    -0.223 OA
BRANCH   8  11
ATOM     11  C   UNL A   1      33.373  21.883  24.666  1.00  0.00     0.067 A 
ATOM     12  C   UNL A   1      33.862  19.113  24.623  1.00  0.00    -0.048 A 
ATOM     13  C   UNL A   1      32.575  19.618  24.381  1.00  0.00     0.005 A 
ATOM     14  C   UNL A   1      34.896  20.023  24.891  1.00  0.00     0.005 A 
ATOM     15  C   UNL A   1      32.326  20.991  24.412  1.00  0.00     0.020 A 
ATOM     16  C   UNL A   1      34.659  21.403  24.897  1.00  0.00     0.020 A 
BRANCH  12  17
ATOM     17  C   UNL A   1      34.078  17.620  24.508  1.00  0.00     0.032 C 
ATOM     18  C   UNL A   1      34.036  17.027  23.106  1.00  0.00     0.009 C 
ENDBRANCH  12  17
ENDBRANCH   8  11
ENDBRANCH   7   8
ENDBRANCH   4   7
ENDBRANCH   2   3
ENDBRANCH   1   2
BRANCH   1  19
ATOM     19  C   UNL A   1      33.627  27.860  26.500  1.00  0.00     0.023 C 
BRANCH  19  20
ATOM     20  C   UNL A   1      34.158  29.163  25.913  1.00  0.00     0.116 C 
BRANCH  20  21
ATOM     21  N   UNL A   1      33.878  30.323  26.746  1.00  0.00    -0.352 N 
ATOM     22  C   UNL A   1      34.589  30.804  27.819  1.00  0.00     0.251 C 
ATOM     23  H   UNL A   1      33.070  30.832  26.508  1.00  0.00     0.163 HD
ATOM     24  O   UNL A   1      34.147  31.738  28.482  1.00  0.00    -0.269 OA
BRANCH  22  25
ATOM     25  C   UNL A   1      35.872  30.170  28.189  1.00  0.00     0.039 A 
ATOM     26  C   UNL A   1      36.994  30.399  27.388  1.00  0.00     0.014 A 
ATOM     27  C   UNL A   1      35.974  29.380  29.337  1.00  0.00     0.014 A 
ATOM     28  C   UNL A   1      38.235  29.888  27.776  1.00  0.00     0.010 A 
ATOM     29  C   UNL A   1      37.222  28.935  29.759  1.00  0.00     0.010 A 
ATOM     30  C   UNL A   1      38.364  29.181  28.981  1.00  0.00    -0.014 A 
BRANCH  30  31
ATOM     31  C   UNL A   1      39.685  28.700  29.458  1.00  0.00     0.031 A 
ATOM     32  C   UNL A   1      40.403  29.430  30.560  1.00  0.00     0.074 A 
ATOM     33  C   UNL A   1      40.281  27.665  28.835  1.00  0.00     0.049 A 
ATOM     34  N   UNL A   1      41.584  29.199  31.069  1.00  0.00    -0.248 NA
ATOM     35  C   UNL A   1      39.714  30.591  31.146  1.00  0.00     0.031 C 
ATOM     36  C   UNL A   1      39.724  26.924  27.702  1.00  0.00     0.029 A 
ATOM     37  N   UNL A   1      41.500  27.072  29.051  1.00  0.00    -0.354 N 
ATOM     38  C   UNL A   1      41.797  30.202  32.005  1.00  0.00     0.074 A 
ATOM     39  C   UNL A   1      40.639  31.069  31.964  1.00  0.00     0.031 C 
ATOM     40  C   UNL A   1      40.590  25.968  27.331  1.00  0.00     0.029 A 
ATOM     41  C   UNL A   1      41.775  26.044  28.179  1.00  0.00     0.049 A 
ATOM     42  H   UNL A   1      42.118  27.354  29.763  1.00  0.00     0.167 HD
ATOM     43  C   UNL A   1      42.844  30.372  32.848  1.00  0.00     0.034 A 
ATOM     44  C   UNL A   1      42.860  25.251  28.076  1.00  0.00     0.034 A 
ATOM     45  C   UNL A   1      43.971  29.482  32.918  1.00  0.00     0.049 A 
ATOM     46  C   UNL A   1      43.994  25.433  29.049  1.00  0.00     0.074 A 
ATOM     47  C   UNL A   1      45.039  29.511  33.798  1.00  0.00     0.029 A 
ATOM     48  N   UNL A   1      44.180  28.403  32.073  1.00  0.00    -0.354 N 
ATOM     49  N   UNL A   1      44.106  26.291  30.034  1.00  0.00    -0.248 NA
ATOM     50  C   UNL A   1      45.135  24.516  28.917  1.00  0.00     0.031 C 
ATOM     51  C   UNL A   1      45.902  28.458  33.472  1.00  0.00     0.029 A 
ATOM     52  C   UNL A   1      45.362  27.763  32.402  1.00  0.00     0.049 A 
ATOM     53  H   UNL A   1      43.575  28.133  31.343  1.00  0.00     0.167 HD
ATOM     54  C   UNL A   1      45.310  25.994  30.663  1.00  0.00     0.074 A 
ATOM     55  C   UNL A   1      45.882  24.867  29.955  1.00  0.00     0.031 C 
ATOM     56  C   UNL A   1      45.895  26.608  31.721  1.00  0.00     0.034 A 
BRANCH  43  57
ATOM     57  C   UNL A   1      42.781  31.536  33.803  1.00  0.00     0.023 A 
ATOM     58  C   UNL A   1      43.291  32.789  33.401  1.00  0.00     0.012 A 
ATOM     59  C   UNL A   1      42.204  31.406  35.080  1.00  0.00     0.148 A 
ATOM     60  C   UNL A   1      43.272  33.879  34.270  1.00  0.00     0.002 A 
ATOM     61  C   UNL A   1      42.148  32.509  35.925  1.00  0.00     0.091 A 
ATOM     62  F   UNL A   1      41.746  30.205  35.459  1.00  0.00    -0.205 F 
ATOM     63  C   UNL A   1      42.694  33.741  35.529  1.00  0.00     0.022 A 
BRANCH  61  64
ATOM     64  S   UNL A   1      41.352  32.446  37.535  1.00  0.00     0.127 S 
ATOM     65  O   UNL A   1      42.207  31.500  38.251  1.00  0.00    -0.237 OA
ATOM     66  O   UNL A   1      41.463  33.832  37.993  1.00  0.00    -0.237 OA
ATOM     67  O   UNL A   1      39.988  32.002  37.284  1.00  0.00    -0.744 OA
ENDBRANCH  61  64
ENDBRANCH  43  57
BRANCH  44  68
ATOM     68  C   UNL A   1      42.876  24.149  27.074  1.00  0.00     0.023 A 
ATOM     69  C   UNL A   1      43.633  24.309  25.896  1.00  0.00     0.012 A 
ATOM     70  C   UNL A   1      42.197  22.936  27.295  1.00  0.00     0.148 A 
ATOM     71  C   UNL A   1      43.696  23.289  24.946  1.00  0.00     0.002 A 
ATOM     72  C   UNL A   1      42.305  21.904  26.369  1.00  0.00     0.091 A 
ATOM     73  F   UNL A   1      41.477  22.808  28.418  1.00  0.00    -0.205 F 
ATOM     74  C   UNL A   1      43.043  22.084  25.188  1.00  0.00     0.022 A 
BRANCH  72  75
ATOM     75  S   UNL A   1      41.602  20.274  26.648  1.00  0.00     0.127 S 
ATOM     76  O   UNL A   1      41.960  19.580  25.414  1.00  0.00    -0.237 OA
ATOM     77  O   UNL A   1      42.331  19.834  27.837  1.00  0.00    -0.237 OA
ATOM     78  O   UNL A   1      40.178  20.489  26.861  1.00  0.00    -0.744 OA
ENDBRANCH  72  75
ENDBRANCH  44  68
BRANCH  56  79
ATOM     79  C   UNL A   1      47.212  26.061  32.206  1.00  0.00     0.023 A 
ATOM     80  C   UNL A   1      48.415  26.573  31.682  1.00  0.00     0.012 A 
ATOM     81  C   UNL A   1      47.258  25.099  33.233  1.00  0.00     0.148 A 
ATOM     82  C   UNL A   1      49.645  26.114  32.155  1.00  0.00     0.002 A 
ATOM     83  C   UNL A   1      48.486  24.680  33.731  1.00  0.00     0.091 A 
ATOM     84  F   UNL A   1      46.101  24.609  33.704  1.00  0.00    -0.205 F 
ATOM     85  C   UNL A   1      49.680  25.179  33.186  1.00  0.00     0.022 A 
BRANCH  83  86
ATOM     86  S   UNL A   1      48.625  23.551  35.122  1.00  0.00     0.127 S 
ATOM     87  O   UNL A   1      47.819  22.419  34.668  1.00  0.00    -0.237 OA
ATOM     88  O   UNL A   1      50.065  23.293  35.172  1.00  0.00    -0.237 OA
ATOM     89  O   UNL A   1      48.102  24.271  36.275  1.00  0.00    -0.744 OA
ENDBRANCH  83  86
ENDBRANCH  56  79
ENDBRANCH  30  31
ENDBRANCH  22  25
ENDBRANCH  20  21
ENDBRANCH  19  20
ENDBRANCH   1  19
TORSDOF 17
ENDMDL
MODEL 3
REMARK VINA RESULT:     -11.2      2.352      3.116
REMARK SMILES CCc1ccc(S(=O)(=O)CC(=O)NCCCCNC(=O)c2ccc(-c3c4nc(c(-c5cccc(S(=O)(=O)[O-])c5F)c5ccc([nH]5)c(-c5cccc(S(=O)(=O)[O-])c5F)c5nc(c(-c6cccc(S(=O)(=O)[O-])c6F)c6ccc3[nH]6)C=C5)C=C4)cc2)cc1
REMARK SMILES IDX 15 1 14 2 13 3 11 4 12 5 10 7 7 8 8 9 9 10 6 11 3 12 4 13
REMARK SMILES IDX 85 14 5 15 84 16 2 17 1 18 16 19 17 20 18 21 19 22 20 24
REMARK SMILES IDX 21 25 22 26 83 27 23 28 82 29 24 30 25 31 26 32 76 33 27 34
REMARK SMILES IDX 81 35 75 36 77 37 28 38 80 39 74 40 73 41 29 43 61 44 41 45
REMARK SMILES IDX 60 46 42 47 45 48 59 49 78 50 43 51 44 52 58 54 79 55 46 56
REMARK SMILES IDX 30 57 31 58 39 59 32 60 34 61 40 62 33 63 35 64 36 65 37 66
REMARK SMILES IDX 38 67 62 68 63 69 71 70 64 71 66 72 72 73 65 74 67 75 68 76
REMARK SMILES IDX 69 77 70 78 47 79 48 80 56 81 49 82 51 83 57 84 50 85 52 86
REMARK SMILES IDX 53 87 54 88 55 89
REMARK H PARENT 13 6 18 23 77 42 45 53
REMARK Flexibility Score: inf
ROOT
ATOM      1  C   UNL A   1      31.859  28.252  26.713  1.00  0.00     0.023 C 
ENDROOT
BRANCH   1   2
ATOM      2  C   UNL A   1      31.154  27.406  25.655  1.00  0.00     0.116 C 
BRANCH   2   3
ATOM      3  N   UNL A   1      30.946  28.167  24.437  1.00  0.00    -0.355 N 
ATOM      4  C   UNL A   1      31.790  28.381  23.395  1.00  0.00     0.235 C 
ATOM      5  O   UNL A   1      31.410  29.134  22.495  1.00  0.00    -0.274 OA
ATOM      6  H   UNL A   1      30.060  28.589  24.354  1.00  0.00     0.163 HD
BRANCH   4   7
ATOM      7  C   UNL A   1      33.082  27.645  23.265  1.00  0.00     0.241 C 
BRANCH   7   8
ATOM      8  S   UNL A   1      32.976  26.071  22.499  1.00  0.00     0.187 S 
ATOM      9  O   UNL A   1      33.562  26.206  21.175  1.00  0.00    -0.223 OA
ATOM     10  O   UNL A   1      31.599  25.621  22.612  1.00  0.00    -0.223 OA
BRANCH   8  11
ATOM     11  C   UNL A   1      33.980  24.877  23.339  1.00  0.00     0.067 A 
ATOM     12  C   UNL A   1      35.455  22.981  24.803  1.00  0.00    -0.048 A 
ATOM     13  C   UNL A   1      35.118  24.220  25.369  1.00  0.00     0.005 A 
ATOM     14  C   UNL A   1      35.044  22.714  23.489  1.00  0.00     0.005 A 
ATOM     15  C   UNL A   1      34.395  25.168  24.642  1.00  0.00     0.020 A 
ATOM     16  C   UNL A   1      34.296  23.649  22.763  1.00  0.00     0.020 A 
BRANCH  12  17
ATOM     17  C   UNL A   1      36.181  21.974  25.667  1.00  0.00     0.032 C 
ATOM     18  C   UNL A   1      36.365  20.578  25.086  1.00  0.00     0.009 C 
ENDBRANCH  12  17
ENDBRANCH   8  11
ENDBRANCH   7   8
ENDBRANCH   4   7
ENDBRANCH   2   3
ENDBRANCH   1   2
BRANCH   1  19
ATOM     19  C   UNL A   1      33.347  27.938  26.898  1.00  0.00     0.023 C 
BRANCH  19  20
ATOM     20  C   UNL A   1      34.309  28.990  26.358  1.00  0.00     0.116 C 
BRANCH  20  21
ATOM     21  N   UNL A   1      33.970  30.344  26.773  1.00  0.00    -0.352 N 
ATOM     22  C   UNL A   1      34.599  31.143  27.698  1.00  0.00     0.251 C 
ATOM     23  H   UNL A   1      33.185  30.740  26.332  1.00  0.00     0.163 HD
ATOM     24  O   UNL A   1      34.111  32.225  28.009  1.00  0.00    -0.269 OA
BRANCH  22  25
ATOM     25  C   UNL A   1      35.847  30.677  28.337  1.00  0.00     0.039 A 
ATOM     26  C   UNL A   1      35.763  29.835  29.449  1.00  0.00     0.014 A 
ATOM     27  C   UNL A   1      37.093  31.042  27.821  1.00  0.00     0.014 A 
ATOM     28  C   UNL A   1      36.930  29.307  30.006  1.00  0.00     0.010 A 
ATOM     29  C   UNL A   1      38.248  30.457  28.329  1.00  0.00     0.010 A 
ATOM     30  C   UNL A   1      38.179  29.586  29.429  1.00  0.00    -0.014 A 
BRANCH  30  31
ATOM     31  C   UNL A   1      39.426  28.971  29.948  1.00  0.00     0.031 A 
ATOM     32  C   UNL A   1      40.089  29.529  31.178  1.00  0.00     0.074 A 
ATOM     33  C   UNL A   1      40.013  27.973  29.259  1.00  0.00     0.049 A 
ATOM     34  N   UNL A   1      41.209  29.167  31.747  1.00  0.00    -0.248 NA
ATOM     35  C   UNL A   1      39.419  30.662  31.837  1.00  0.00     0.031 C 
ATOM     36  C   UNL A   1      39.511  27.398  28.009  1.00  0.00     0.029 A 
ATOM     37  N   UNL A   1      41.174  27.282  29.500  1.00  0.00    -0.354 N 
ATOM     38  C   UNL A   1      41.399  30.047  32.805  1.00  0.00     0.074 A 
ATOM     39  C   UNL A   1      40.299  30.987  32.773  1.00  0.00     0.031 C 
ATOM     40  C   UNL A   1      40.350  26.434  27.600  1.00  0.00     0.029 A 
ATOM     41  C   UNL A   1      41.463  26.339  28.540  1.00  0.00     0.049 A 
ATOM     42  H   UNL A   1      41.745  27.444  30.285  1.00  0.00     0.167 HD
ATOM     43  C   UNL A   1      42.378  30.055  33.739  1.00  0.00     0.034 A 
ATOM     44  C   UNL A   1      42.507  25.493  28.432  1.00  0.00     0.034 A 
ATOM     45  C   UNL A   1      43.444  29.092  33.794  1.00  0.00     0.049 A 
ATOM     46  C   UNL A   1      43.563  25.494  29.503  1.00  0.00     0.074 A 
ATOM     47  C   UNL A   1      44.435  28.955  34.751  1.00  0.00     0.029 A 
ATOM     48  N   UNL A   1      43.662  28.100  32.850  1.00  0.00    -0.354 N 
ATOM     49  N   UNL A   1      43.640  26.230  30.586  1.00  0.00    -0.248 NA
ATOM     50  C   UNL A   1      44.658  24.524  29.356  1.00  0.00     0.031 C 
ATOM     51  C   UNL A   1      45.261  27.890  34.375  1.00  0.00     0.029 A 
ATOM     52  C   UNL A   1      44.774  27.352  33.195  1.00  0.00     0.049 A 
ATOM     53  H   UNL A   1      43.106  27.950  32.051  1.00  0.00     0.167 HD
ATOM     54  C   UNL A   1      44.769  25.790  31.267  1.00  0.00     0.074 A 
ATOM     55  C   UNL A   1      45.334  24.711  30.482  1.00  0.00     0.031 C 
ATOM     56  C   UNL A   1      45.296  26.246  32.431  1.00  0.00     0.034 A 
BRANCH  43  57
ATOM     57  C   UNL A   1      42.302  31.111  34.812  1.00  0.00     0.023 A 
ATOM     58  C   UNL A   1      41.610  30.831  36.010  1.00  0.00     0.012 A 
ATOM     59  C   UNL A   1      42.924  32.363  34.654  1.00  0.00     0.148 A 
ATOM     60  C   UNL A   1      41.498  31.796  37.010  1.00  0.00     0.002 A 
ATOM     61  C   UNL A   1      42.846  33.304  35.674  1.00  0.00     0.091 A 
ATOM     62  F   UNL A   1      43.556  32.625  33.501  1.00  0.00    -0.205 F 
ATOM     63  C   UNL A   1      42.122  33.029  36.846  1.00  0.00     0.022 A 
BRANCH  61  64
ATOM     64  S   UNL A   1      43.685  34.891  35.583  1.00  0.00     0.127 S 
ATOM     65  O   UNL A   1      43.063  35.487  34.402  1.00  0.00    -0.237 OA
ATOM     66  O   UNL A   1      43.307  35.517  36.852  1.00  0.00    -0.237 OA
ATOM     67  O   UNL A   1      45.103  34.582  35.464  1.00  0.00    -0.744 OA
ENDBRANCH  61  64
ENDBRANCH  43  57
BRANCH  44  68
ATOM     68  C   UNL A   1      42.545  24.508  27.315  1.00  0.00     0.023 A 
ATOM     69  C   UNL A   1      43.300  24.809  26.164  1.00  0.00     0.012 A 
ATOM     70  C   UNL A   1      41.887  23.266  27.400  1.00  0.00     0.148 A 
ATOM     71  C   UNL A   1      43.384  23.901  25.109  1.00  0.00     0.002 A 
ATOM     72  C   UNL A   1      42.016  22.344  26.367  1.00  0.00     0.091 A 
ATOM     73  F   UNL A   1      41.169  23.002  28.500  1.00  0.00    -0.205 F 
ATOM     74  C   UNL A   1      42.752  22.665  25.215  1.00  0.00     0.022 A 
BRANCH  72  75
ATOM     75  S   UNL A   1      41.344  20.681  26.463  1.00  0.00     0.127 S 
ATOM     76  O   UNL A   1      39.926  20.916  26.204  1.00  0.00    -0.237 OA
ATOM     77  O   UNL A   1      42.064  20.003  25.386  1.00  0.00    -0.237 OA
ATOM     78  O   UNL A   1      41.669  20.200  27.799  1.00  0.00    -0.744 OA
ENDBRANCH  72  75
ENDBRANCH  44  68
BRANCH  56  79
ATOM     79  C   UNL A   1      46.536  25.565  32.950  1.00  0.00     0.023 A 
ATOM     80  C   UNL A   1      47.805  26.082  32.625  1.00  0.00     0.012 A 
ATOM     81  C   UNL A   1      46.440  24.462  33.820  1.00  0.00     0.148 A 
ATOM     82  C   UNL A   1      48.961  25.495  33.137  1.00  0.00     0.002 A 
ATOM     83  C   UNL A   1      47.594  23.910  34.364  1.00  0.00     0.091 A 
ATOM     84  F   UNL A   1      45.224  23.971  34.100  1.00  0.00    -0.205 F 
ATOM     85  C   UNL A   1      48.856  24.418  34.015  1.00  0.00     0.022 A 
BRANCH  83  86
ATOM     86  S   UNL A   1      47.548  22.584  35.576  1.00  0.00     0.127 S 
ATOM     87  O   UNL A   1      48.968  22.405  35.874  1.00  0.00    -0.237 OA
ATOM     88  O   UNL A   1      46.767  23.179  36.661  1.00  0.00    -0.237 OA
ATOM     89  O   UNL A   1      46.900  21.460  34.913  1.00  0.00    -0.744 OA
ENDBRANCH  83  86
ENDBRANCH  56  79
ENDBRANCH  30  31
ENDBRANCH  22  25
ENDBRANCH  20  21
ENDBRANCH  19  20
ENDBRANCH   1  19
TORSDOF 17
ENDMDL
