MODEL 1
REMARK VINA RESULT:     -12.2      0.000      0.000
REMARK SMILES Cc1ccc(F)cc1NC(=O)c1nn(C)cc1C(=O)NCCCCNC(=O)c1ccc(-c2c3nc(c(-c4cccc(S(=O)(=O)[O-])c4F)c4ccc([nH]4)c(-c4cccc(S(=O)(=O)[O-])c4F)c4nc(c(-c5cccc(S(=O)(=O)[O-])c5F)c5ccc2[nH]5)C=C4)C=C3)cc1
REMARK SMILES IDX 23 1 22 2 21 3 20 4 18 5 19 6 17 8 12 9 13 10 14 11 16 12
REMARK SMILES IDX 15 13 10 14 9 15 11 17 8 18 1 19 2 20 3 21 4 22 7 23 5 24
REMARK SMILES IDX 6 25 24 26 25 27 26 28 27 30 28 31 29 32 90 33 30 34 89 35
REMARK SMILES IDX 31 36 32 37 33 38 83 39 34 40 88 41 82 42 84 43 35 44 87 45
REMARK SMILES IDX 81 46 80 47 36 49 68 50 48 51 67 52 49 53 52 54 66 55 85 56
REMARK SMILES IDX 50 57 51 58 65 60 86 61 53 62 37 63 38 64 46 65 39 66 41 67
REMARK SMILES IDX 47 68 40 69 42 70 43 71 44 72 45 73 69 74 70 75 78 76 71 77
REMARK SMILES IDX 73 78 79 79 72 80 74 81 75 82 76 83 77 84 54 85 55 86 63 87
REMARK SMILES IDX 56 88 58 89 64 90 57 91 59 92 60 93 61 94 62 95
REMARK H PARENT 20 7 9 16 25 29 84 48 52 59
REMARK Flexibility Score: inf
ROOT
ATOM      1  C   UNL A   1      31.419  29.484  26.806  1.00  0.00     0.023 C 
ENDROOT
BRANCH   1   2
ATOM      2  C   UNL A   1      31.967  28.232  27.479  1.00  0.00     0.023 C 
BRANCH   2   3
ATOM      3  C   UNL A   1      32.289  27.058  26.559  1.00  0.00     0.116 C 
BRANCH   3   4
ATOM      4  N   UNL A   1      31.535  25.848  26.840  1.00  0.00    -0.352 N 
ATOM      5  C   UNL A   1      31.785  24.521  26.579  1.00  0.00     0.255 C 
ATOM      6  O   UNL A   1      30.953  23.696  26.972  1.00  0.00    -0.269 OA
ATOM      7  H   UNL A   1      30.684  26.008  27.308  1.00  0.00     0.163 HD
BRANCH   5   8
ATOM      8  C   UNL A   1      32.951  24.098  25.824  1.00  0.00     0.090 A 
ATOM      9  C   UNL A   1      32.986  23.713  24.438  1.00  0.00     0.163 A 
ATOM     10  N   UNL A   1      34.247  23.443  24.039  1.00  0.00    -0.167 NA
ATOM     11  N   UNL A   1      34.985  23.618  25.137  1.00  0.00    -0.274 N 
ATOM     12  C   UNL A   1      34.251  23.891  26.248  1.00  0.00     0.123 A 
ATOM     13  C   UNL A   1      36.423  23.551  25.049  1.00  0.00     0.173 C 
BRANCH   9  14
ATOM     14  C   UNL A   1      31.877  23.577  23.483  1.00  0.00     0.277 C 
ATOM     15  N   UNL A   1      31.297  24.671  22.875  1.00  0.00    -0.320 N 
ATOM     16  H   UNL A   1      30.489  24.447  22.361  1.00  0.00     0.170 HD
ATOM     17  O   UNL A   1      31.410  22.468  23.204  1.00  0.00    -0.267 OA
BRANCH  15  18
ATOM     18  C   UNL A   1      31.620  26.041  22.832  1.00  0.00     0.047 A 
ATOM     19  C   UNL A   1      29.297  26.665  23.797  1.00  0.00     0.046 C 
ATOM     20  C   UNL A   1      30.697  26.986  23.337  1.00  0.00    -0.027 A 
ATOM     21  C   UNL A   1      31.073  28.343  23.415  1.00  0.00     0.008 A 
ATOM     22  C   UNL A   1      32.317  28.771  22.961  1.00  0.00     0.039 A 
ATOM     23  C   UNL A   1      32.825  26.505  22.297  1.00  0.00     0.065 A 
ATOM     24  C   UNL A   1      33.167  27.850  22.377  1.00  0.00     0.125 A 
ATOM     25  F   UNL A   1      34.344  28.256  21.882  1.00  0.00    -0.207 F 
ENDBRANCH  15  18
ENDBRANCH   9  14
ENDBRANCH   5   8
ENDBRANCH   3   4
ENDBRANCH   2   3
ENDBRANCH   1   2
BRANCH   1  26
ATOM     26  C   UNL A   1      32.462  30.482  26.320  1.00  0.00     0.116 C 
BRANCH  26  27
ATOM     27  N   UNL A   1      32.187  31.861  26.707  1.00  0.00    -0.352 N 
ATOM     28  C   UNL A   1      32.985  32.718  27.435  1.00  0.00     0.251 C 
ATOM     29  H   UNL A   1      31.323  32.226  26.411  1.00  0.00     0.163 HD
ATOM     30  O   UNL A   1      32.585  33.836  27.743  1.00  0.00    -0.269 OA
BRANCH  28  31
ATOM     31  C   UNL A   1      34.315  32.249  27.873  1.00  0.00     0.039 A 
ATOM     32  C   UNL A   1      35.385  33.148  27.889  1.00  0.00     0.014 A 
ATOM     33  C   UNL A   1      34.473  30.948  28.355  1.00  0.00     0.014 A 
ATOM     34  C   UNL A   1      36.596  32.768  28.477  1.00  0.00     0.010 A 
ATOM     35  C   UNL A   1      35.649  30.601  29.007  1.00  0.00     0.010 A 
ATOM     36  C   UNL A   1      36.721  31.508  29.082  1.00  0.00    -0.014 A 
BRANCH  36  37
ATOM     37  C   UNL A   1      37.947  31.091  29.810  1.00  0.00     0.031 A 
ATOM     38  C   UNL A   1      38.856  30.065  29.189  1.00  0.00     0.074 A 
ATOM     39  C   UNL A   1      38.160  31.511  31.074  1.00  0.00     0.049 A 
ATOM     40  N   UNL A   1      39.853  29.413  29.726  1.00  0.00    -0.248 NA
ATOM     41  C   UNL A   1      38.579  29.692  27.790  1.00  0.00     0.031 C 
ATOM     42  C   UNL A   1      37.313  32.450  31.814  1.00  0.00     0.029 A 
ATOM     43  N   UNL A   1      39.130  31.159  31.983  1.00  0.00    -0.354 N 
ATOM     44  C   UNL A   1      40.276  28.508  28.759  1.00  0.00     0.074 A 
ATOM     45  C   UNL A   1      39.423  28.687  27.605  1.00  0.00     0.031 C 
ATOM     46  C   UNL A   1      37.788  32.585  33.063  1.00  0.00     0.029 A 
ATOM     47  C   UNL A   1      38.948  31.716  33.230  1.00  0.00     0.049 A 
ATOM     48  H   UNL A   1      39.885  30.567  31.763  1.00  0.00     0.167 HD
ATOM     49  C   UNL A   1      41.296  27.621  28.821  1.00  0.00     0.034 A 
ATOM     50  C   UNL A   1      39.624  31.527  34.382  1.00  0.00     0.034 A 
ATOM     51  C   UNL A   1      42.192  27.507  29.937  1.00  0.00     0.049 A 
ATOM     52  C   UNL A   1      40.802  30.586  34.393  1.00  0.00     0.074 A 
ATOM     53  C   UNL A   1      43.327  26.725  30.046  1.00  0.00     0.029 A 
ATOM     54  N   UNL A   1      42.057  28.193  31.132  1.00  0.00    -0.354 N 
ATOM     55  N   UNL A   1      41.286  29.861  33.415  1.00  0.00    -0.248 NA
ATOM     56  C   UNL A   1      41.548  30.461  35.654  1.00  0.00     0.031 C 
ATOM     57  C   UNL A   1      43.871  26.926  31.318  1.00  0.00     0.029 A 
ATOM     58  C   UNL A   1      43.087  27.851  31.987  1.00  0.00     0.049 A 
ATOM     59  H   UNL A   1      41.335  28.830  31.341  1.00  0.00     0.167 HD
ATOM     60  C   UNL A   1      42.418  29.237  33.927  1.00  0.00     0.074 A 
ATOM     61  C   UNL A   1      42.554  29.674  35.299  1.00  0.00     0.031 C 
ATOM     62  C   UNL A   1      43.261  28.367  33.319  1.00  0.00     0.034 A 
BRANCH  49  63
ATOM     63  C   UNL A   1      41.543  26.735  27.631  1.00  0.00     0.023 A 
ATOM     64  C   UNL A   1      42.243  27.242  26.518  1.00  0.00     0.012 A 
ATOM     65  C   UNL A   1      41.177  25.375  27.662  1.00  0.00     0.148 A 
ATOM     66  C   UNL A   1      42.554  26.413  25.441  1.00  0.00     0.002 A 
ATOM     67  C   UNL A   1      41.530  24.545  26.605  1.00  0.00     0.091 A 
ATOM     68  F   UNL A   1      40.496  24.920  28.723  1.00  0.00    -0.205 F 
ATOM     69  C   UNL A   1      42.211  25.064  25.491  1.00  0.00     0.022 A 
BRANCH  67  70
ATOM     70  S   UNL A   1      41.211  22.777  26.609  1.00  0.00     0.127 S 
ATOM     71  O   UNL A   1      41.773  22.380  27.899  1.00  0.00    -0.237 OA
ATOM     72  O   UNL A   1      39.750  22.730  26.539  1.00  0.00    -0.237 OA
ATOM     73  O   UNL A   1      41.896  22.241  25.441  1.00  0.00    -0.744 OA
ENDBRANCH  67  70
ENDBRANCH  49  63
BRANCH  50  74
ATOM     74  C   UNL A   1      39.243  32.275  35.616  1.00  0.00     0.023 A 
ATOM     75  C   UNL A   1      38.390  31.663  36.555  1.00  0.00     0.012 A 
ATOM     76  C   UNL A   1      39.706  33.581  35.862  1.00  0.00     0.148 A 
ATOM     77  C   UNL A   1      37.967  32.356  37.692  1.00  0.00     0.002 A 
ATOM     78  C   UNL A   1      39.327  34.245  37.024  1.00  0.00     0.091 A 
ATOM     79  F   UNL A   1      40.506  34.157  34.952  1.00  0.00    -0.205 F 
ATOM     80  C   UNL A   1      38.441  33.641  37.930  1.00  0.00     0.022 A 
BRANCH  78  81
ATOM     81  S   UNL A   1      40.000  35.851  37.467  1.00  0.00     0.127 S 
ATOM     82  O   UNL A   1      39.303  36.136  38.717  1.00  0.00    -0.237 OA
ATOM     83  O   UNL A   1      41.428  35.558  37.610  1.00  0.00    -0.237 OA
ATOM     84  O   UNL A   1      39.684  36.722  36.343  1.00  0.00    -0.744 OA
ENDBRANCH  78  81
ENDBRANCH  50  74
BRANCH  62  85
ATOM     85  C   UNL A   1      44.457  27.877  34.089  1.00  0.00     0.023 A 
ATOM     86  C   UNL A   1      45.643  28.634  34.104  1.00  0.00     0.012 A 
ATOM     87  C   UNL A   1      44.352  26.731  34.902  1.00  0.00     0.148 A 
ATOM     88  C   UNL A   1      46.717  28.248  34.904  1.00  0.00     0.002 A 
ATOM     89  C   UNL A   1      45.408  26.380  35.734  1.00  0.00     0.091 A 
ATOM     90  F   UNL A   1      43.218  26.018  34.860  1.00  0.00    -0.205 F 
ATOM     91  C   UNL A   1      46.594  27.132  35.729  1.00  0.00     0.022 A 
BRANCH  89  92
ATOM     92  S   UNL A   1      45.300  25.023  36.906  1.00  0.00     0.127 S 
ATOM     93  O   UNL A   1      44.164  25.432  37.731  1.00  0.00    -0.237 OA
ATOM     94  O   UNL A   1      45.040  23.879  36.033  1.00  0.00    -0.237 OA
ATOM     95  O   UNL A   1      46.583  24.980  37.594  1.00  0.00    -0.744 OA
ENDBRANCH  89  92
ENDBRANCH  62  85
ENDBRANCH  36  37
ENDBRANCH  28  31
ENDBRANCH  26  27
ENDBRANCH   1  26
TORSDOF 16
ENDMDL
MODEL 2
REMARK VINA RESULT:     -12.1      3.128      8.724
REMARK SMILES Cc1ccc(F)cc1NC(=O)c1nn(C)cc1C(=O)NCCCCNC(=O)c1ccc(-c2c3nc(c(-c4cccc(S(=O)(=O)[O-])c4F)c4ccc([nH]4)c(-c4cccc(S(=O)(=O)[O-])c4F)c4nc(c(-c5cccc(S(=O)(=O)[O-])c5F)c5ccc2[nH]5)C=C4)C=C3)cc1
REMARK SMILES IDX 23 1 22 2 21 3 20 4 18 5 19 6 17 8 12 9 13 10 14 11 16 12
REMARK SMILES IDX 15 13 10 14 9 15 11 17 8 18 1 19 2 20 3 21 4 22 7 23 5 24
REMARK SMILES IDX 6 25 24 26 25 27 26 28 27 30 28 31 29 32 90 33 30 34 89 35
REMARK SMILES IDX 31 36 32 37 33 38 83 39 34 40 88 41 82 42 84 43 35 44 87 45
REMARK SMILES IDX 81 46 80 47 36 49 68 50 48 51 67 52 49 53 52 54 66 55 85 56
REMARK SMILES IDX 50 57 51 58 65 60 86 61 53 62 37 63 38 64 46 65 39 66 41 67
REMARK SMILES IDX 47 68 40 69 42 70 43 71 44 72 45 73 69 74 70 75 78 76 71 77
REMARK SMILES IDX 73 78 79 79 72 80 74 81 75 82 76 83 77 84 54 85 55 86 63 87
REMARK SMILES IDX 56 88 58 89 64 90 57 91 59 92 60 93 61 94 62 95
REMARK H PARENT 20 7 9 16 25 29 84 48 52 59
REMARK Flexibility Score: inf
ROOT
ATOM      1  C   UNL A   1      33.635  27.786  25.483  1.00  0.00     0.023 C 
ENDROOT
BRANCH   1   2
ATOM      2  C   UNL A   1      33.397  26.310  25.781  1.00  0.00     0.023 C 
BRANCH   2   3
ATOM      3  C   UNL A   1      34.444  25.338  25.245  1.00  0.00     0.116 C 
BRANCH   3   4
ATOM      4  N   UNL A   1      34.147  24.798  23.929  1.00  0.00    -0.352 N 
ATOM      5  C   UNL A   1      34.375  23.567  23.361  1.00  0.00     0.255 C 
ATOM      6  O   UNL A   1      33.976  23.389  22.205  1.00  0.00    -0.269 OA
ATOM      7  H   UNL A   1      33.697  25.436  23.329  1.00  0.00     0.163 HD
BRANCH   5   8
ATOM      8  C   UNL A   1      35.101  22.524  24.065  1.00  0.00     0.090 A 
ATOM      9  C   UNL A   1      34.572  21.622  25.053  1.00  0.00     0.163 A 
ATOM     10  N   UNL A   1      35.506  20.734  25.452  1.00  0.00    -0.167 NA
ATOM     11  N   UNL A   1      36.600  21.076  24.768  1.00  0.00    -0.274 N 
ATOM     12  C   UNL A   1      36.446  22.201  24.022  1.00  0.00     0.123 A 
ATOM     13  C   UNL A   1      37.775  20.243  24.840  1.00  0.00     0.173 C 
BRANCH   9  14
ATOM     14  C   UNL A   1      33.226  21.577  25.642  1.00  0.00     0.277 C 
ATOM     15  N   UNL A   1      32.390  20.493  25.474  1.00  0.00    -0.320 N 
ATOM     16  H   UNL A   1      31.479  20.650  25.813  1.00  0.00     0.170 HD
ATOM     17  O   UNL A   1      32.788  22.526  26.302  1.00  0.00    -0.267 OA
BRANCH  15  18
ATOM     18  C   UNL A   1      32.564  19.211  24.921  1.00  0.00     0.047 A 
ATOM     19  C   UNL A   1      32.171  20.138  22.533  1.00  0.00     0.046 C 
ATOM     20  C   UNL A   1      32.531  19.052  23.516  1.00  0.00    -0.027 A 
ATOM     21  C   UNL A   1      32.836  17.793  22.957  1.00  0.00     0.008 A 
ATOM     22  C   UNL A   1      33.121  16.698  23.767  1.00  0.00     0.039 A 
ATOM     23  C   UNL A   1      32.761  18.078  25.716  1.00  0.00     0.065 A 
ATOM     24  C   UNL A   1      33.049  16.846  25.139  1.00  0.00     0.125 A 
ATOM     25  F   UNL A   1      33.264  15.788  25.933  1.00  0.00    -0.207 F 
ENDBRANCH  15  18
ENDBRANCH   9  14
ENDBRANCH   5   8
ENDBRANCH   3   4
ENDBRANCH   2   3
ENDBRANCH   1   2
BRANCH   1  26
ATOM     26  C   UNL A   1      34.529  28.522  26.472  1.00  0.00     0.116 C 
BRANCH  26  27
ATOM     27  N   UNL A   1      34.105  29.888  26.751  1.00  0.00    -0.352 N 
ATOM     28  C   UNL A   1      34.690  30.808  27.595  1.00  0.00     0.251 C 
ATOM     29  H   UNL A   1      33.298  30.193  26.278  1.00  0.00     0.163 HD
ATOM     30  O   UNL A   1      34.174  31.905  27.781  1.00  0.00    -0.269 OA
BRANCH  28  31
ATOM     31  C   UNL A   1      35.930  30.432  28.304  1.00  0.00     0.039 A 
ATOM     32  C   UNL A   1      35.842  29.697  29.490  1.00  0.00     0.014 A 
ATOM     33  C   UNL A   1      37.173  30.726  27.740  1.00  0.00     0.014 A 
ATOM     34  C   UNL A   1      37.006  29.177  30.065  1.00  0.00     0.010 A 
ATOM     35  C   UNL A   1      38.317  30.143  28.270  1.00  0.00     0.010 A 
ATOM     36  C   UNL A   1      38.246  29.357  29.433  1.00  0.00    -0.014 A 
BRANCH  36  37
ATOM     37  C   UNL A   1      39.498  28.740  29.944  1.00  0.00     0.031 A 
ATOM     38  C   UNL A   1      40.254  29.423  31.052  1.00  0.00     0.074 A 
ATOM     39  C   UNL A   1      40.029  27.669  29.319  1.00  0.00     0.049 A 
ATOM     40  N   UNL A   1      41.455  29.178  31.504  1.00  0.00    -0.248 NA
ATOM     41  C   UNL A   1      39.585  30.559  31.710  1.00  0.00     0.031 C 
ATOM     42  C   UNL A   1      39.429  26.959  28.187  1.00  0.00     0.029 A 
ATOM     43  N   UNL A   1      41.225  27.019  29.516  1.00  0.00    -0.354 N 
ATOM     44  C   UNL A   1      41.712  30.167  32.446  1.00  0.00     0.074 A 
ATOM     45  C   UNL A   1      40.547  31.023  32.495  1.00  0.00     0.031 C 
ATOM     46  C   UNL A   1      40.263  25.989  27.779  1.00  0.00     0.029 A 
ATOM     47  C   UNL A   1      41.475  26.029  28.592  1.00  0.00     0.049 A 
ATOM     48  H   UNL A   1      41.843  27.240  30.249  1.00  0.00     0.167 HD
ATOM     49  C   UNL A   1      42.813  30.337  33.214  1.00  0.00     0.034 A 
ATOM     50  C   UNL A   1      42.567  25.259  28.405  1.00  0.00     0.034 A 
ATOM     51  C   UNL A   1      43.931  29.437  33.221  1.00  0.00     0.049 A 
ATOM     52  C   UNL A   1      43.747  25.427  29.329  1.00  0.00     0.074 A 
ATOM     53  C   UNL A   1      45.039  29.455  34.050  1.00  0.00     0.029 A 
ATOM     54  N   UNL A   1      44.084  28.360  32.365  1.00  0.00    -0.354 N 
ATOM     55  N   UNL A   1      43.901  26.265  30.324  1.00  0.00    -0.248 NA
ATOM     56  C   UNL A   1      44.889  24.522  29.129  1.00  0.00     0.031 C 
ATOM     57  C   UNL A   1      45.872  28.395  33.682  1.00  0.00     0.029 A 
ATOM     58  C   UNL A   1      45.270  27.706  32.642  1.00  0.00     0.049 A 
ATOM     59  H   UNL A   1      43.444  28.098  31.664  1.00  0.00     0.167 HD
ATOM     60  C   UNL A   1      45.129  25.955  30.897  1.00  0.00     0.074 A 
ATOM     61  C   UNL A   1      45.675  24.846  30.145  1.00  0.00     0.031 C 
ATOM     62  C   UNL A   1      45.756  26.546  31.943  1.00  0.00     0.034 A 
BRANCH  49  63
ATOM     63  C   UNL A   1      42.850  31.508  34.157  1.00  0.00     0.023 A 
ATOM     64  C   UNL A   1      43.376  32.740  33.718  1.00  0.00     0.012 A 
ATOM     65  C   UNL A   1      42.269  31.417  35.437  1.00  0.00     0.148 A 
ATOM     66  C   UNL A   1      43.344  33.859  34.549  1.00  0.00     0.002 A 
ATOM     67  C   UNL A   1      42.201  32.547  36.242  1.00  0.00     0.091 A 
ATOM     68  F   UNL A   1      41.792  30.231  35.839  1.00  0.00    -0.205 F 
ATOM     69  C   UNL A   1      42.744  33.766  35.803  1.00  0.00     0.022 A 
BRANCH  67  70
ATOM     70  S   UNL A   1      41.375  32.556  37.837  1.00  0.00     0.127 S 
ATOM     71  O   UNL A   1      40.037  32.088  37.477  1.00  0.00    -0.237 OA
ATOM     72  O   UNL A   1      42.172  31.595  38.599  1.00  0.00    -0.237 OA
ATOM     73  O   UNL A   1      41.444  33.928  38.320  1.00  0.00    -0.744 OA
ENDBRANCH  67  70
ENDBRANCH  49  63
BRANCH  50  74
ATOM     74  C   UNL A   1      42.590  24.223  27.331  1.00  0.00     0.023 A 
ATOM     75  C   UNL A   1      43.135  24.547  26.073  1.00  0.00     0.012 A 
ATOM     76  C   UNL A   1      42.071  22.931  27.539  1.00  0.00     0.148 A 
ATOM     77  C   UNL A   1      43.120  23.621  25.029  1.00  0.00     0.002 A 
ATOM     78  C   UNL A   1      42.110  21.994  26.512  1.00  0.00     0.091 A 
ATOM     79  F   UNL A   1      41.541  22.641  28.736  1.00  0.00    -0.205 F 
ATOM     80  C   UNL A   1      42.616  22.343  25.250  1.00  0.00     0.022 A 
BRANCH  78  81
ATOM     81  S   UNL A   1      41.601  20.288  26.758  1.00  0.00     0.127 S 
ATOM     82  O   UNL A   1      40.200  20.443  27.137  1.00  0.00    -0.237 OA
ATOM     83  O   UNL A   1      41.821  19.706  25.433  1.00  0.00    -0.237 OA
ATOM     84  O   UNL A   1      42.491  19.768  27.789  1.00  0.00    -0.744 OA
ENDBRANCH  78  81
ENDBRANCH  50  74
BRANCH  62  85
ATOM     85  C   UNL A   1      47.068  25.973  32.404  1.00  0.00     0.023 A 
ATOM     86  C   UNL A   1      48.277  26.507  31.923  1.00  0.00     0.012 A 
ATOM     87  C   UNL A   1      47.094  24.991  33.415  1.00  0.00     0.148 A 
ATOM     88  C   UNL A   1      49.497  26.061  32.429  1.00  0.00     0.002 A 
ATOM     89  C   UNL A   1      48.311  24.586  33.949  1.00  0.00     0.091 A 
ATOM     90  F   UNL A   1      45.929  24.485  33.845  1.00  0.00    -0.205 F 
ATOM     91  C   UNL A   1      49.513  25.113  33.450  1.00  0.00     0.022 A 
BRANCH  89  92
ATOM     92  S   UNL A   1      48.423  23.451  35.336  1.00  0.00     0.127 S 
ATOM     93  O   UNL A   1      47.778  22.255  34.796  1.00  0.00    -0.237 OA
ATOM     94  O   UNL A   1      49.869  23.333  35.523  1.00  0.00    -0.237 OA
ATOM     95  O   UNL A   1      47.720  24.091  36.440  1.00  0.00    -0.744 OA
ENDBRANCH  89  92
ENDBRANCH  62  85
ENDBRANCH  36  37
ENDBRANCH  28  31
ENDBRANCH  26  27
ENDBRANCH   1  26
TORSDOF 16
ENDMDL
MODEL 3
REMARK VINA RESULT:     -12.0      0.604      7.712
REMARK SMILES Cc1ccc(F)cc1NC(=O)c1nn(C)cc1C(=O)NCCCCNC(=O)c1ccc(-c2c3nc(c(-c4cccc(S(=O)(=O)[O-])c4F)c4ccc([nH]4)c(-c4cccc(S(=O)(=O)[O-])c4F)c4nc(c(-c5cccc(S(=O)(=O)[O-])c5F)c5ccc2[nH]5)C=C4)C=C3)cc1
REMARK SMILES IDX 23 1 22 2 21 3 20 4 18 5 19 6 17 8 12 9 13 10 14 11 16 12
REMARK SMILES IDX 15 13 10 14 9 15 11 17 8 18 1 19 2 20 3 21 4 22 7 23 5 24
REMARK SMILES IDX 6 25 24 26 25 27 26 28 27 30 28 31 29 32 90 33 30 34 89 35
REMARK SMILES IDX 31 36 32 37 33 38 83 39 34 40 88 41 82 42 84 43 35 44 87 45
REMARK SMILES IDX 81 46 80 47 36 49 68 50 48 51 67 52 49 53 52 54 66 55 85 56
REMARK SMILES IDX 50 57 51 58 65 60 86 61 53 62 37 63 38 64 46 65 39 66 41 67
REMARK SMILES IDX 47 68 40 69 42 70 43 71 44 72 45 73 69 74 70 75 78 76 71 77
REMARK SMILES IDX 73 78 79 79 72 80 74 81 75 82 76 83 77 84 54 85 55 86 63 87
REMARK SMILES IDX 56 88 58 89 64 90 57 91 59 92 60 93 61 94 62 95
REMARK H PARENT 20 7 9 16 25 29 84 48 52 59
REMARK Flexibility Score: inf
ROOT
ATOM      1  C   UNL A   1      31.403  29.508  26.809  1.00  0.00     0.023 C 
ENDROOT
BRANCH   1   2
ATOM      2  C   UNL A   1      31.798  28.192  27.468  1.00  0.00     0.023 C 
BRANCH   2   3
ATOM      3  C   UNL A   1      32.099  27.031  26.524  1.00  0.00     0.116 C 
BRANCH   3   4
ATOM      4  N   UNL A   1      31.442  25.783  26.876  1.00  0.00    -0.352 N 
ATOM      5  C   UNL A   1      31.779  24.468  26.661  1.00  0.00     0.255 C 
ATOM      6  O   UNL A   1      31.019  23.603  27.110  1.00  0.00    -0.269 OA
ATOM      7  H   UNL A   1      30.594  25.903  27.361  1.00  0.00     0.163 HD
BRANCH   5   8
ATOM      8  C   UNL A   1      32.952  24.096  25.889  1.00  0.00     0.090 A 
ATOM      9  C   UNL A   1      32.990  23.745  24.494  1.00  0.00     0.163 A 
ATOM     10  N   UNL A   1      34.256  23.521  24.082  1.00  0.00    -0.167 NA
ATOM     11  N   UNL A   1      34.995  23.693  25.180  1.00  0.00    -0.274 N 
ATOM     12  C   UNL A   1      34.261  23.918  26.301  1.00  0.00     0.123 A 
ATOM     13  C   UNL A   1      36.434  23.670  25.082  1.00  0.00     0.173 C 
BRANCH   9  14
ATOM     14  C   UNL A   1      31.879  23.598  23.544  1.00  0.00     0.277 C 
ATOM     15  N   UNL A   1      31.308  24.684  22.913  1.00  0.00    -0.320 N 
ATOM     16  H   UNL A   1      30.497  24.455  22.404  1.00  0.00     0.170 HD
ATOM     17  O   UNL A   1      31.403  22.487  23.287  1.00  0.00    -0.267 OA
BRANCH  15  18
ATOM     18  C   UNL A   1      31.641  26.050  22.843  1.00  0.00     0.047 A 
ATOM     19  C   UNL A   1      29.301  26.714  23.737  1.00  0.00     0.046 C 
ATOM     20  C   UNL A   1      30.714  27.014  23.302  1.00  0.00    -0.027 A 
ATOM     21  C   UNL A   1      31.098  28.370  23.354  1.00  0.00     0.008 A 
ATOM     22  C   UNL A   1      32.354  28.778  22.917  1.00  0.00     0.039 A 
ATOM     23  C   UNL A   1      32.861  26.492  22.323  1.00  0.00     0.065 A 
ATOM     24  C   UNL A   1      33.210  27.837  22.376  1.00  0.00     0.125 A 
ATOM     25  F   UNL A   1      34.401  28.221  21.898  1.00  0.00    -0.207 F 
ENDBRANCH  15  18
ENDBRANCH   9  14
ENDBRANCH   5   8
ENDBRANCH   3   4
ENDBRANCH   2   3
ENDBRANCH   1   2
BRANCH   1  26
ATOM     26  C   UNL A   1      32.555  30.355  26.284  1.00  0.00     0.116 C 
BRANCH  26  27
ATOM     27  N   UNL A   1      32.475  31.761  26.659  1.00  0.00    -0.352 N 
ATOM     28  C   UNL A   1      33.361  32.493  27.421  1.00  0.00     0.251 C 
ATOM     29  H   UNL A   1      31.689  32.251  26.327  1.00  0.00     0.163 HD
ATOM     30  O   UNL A   1      33.121  33.660  27.712  1.00  0.00    -0.269 OA
BRANCH  28  31
ATOM     31  C   UNL A   1      34.586  31.832  27.915  1.00  0.00     0.039 A 
ATOM     32  C   UNL A   1      35.739  32.596  28.121  1.00  0.00     0.014 A 
ATOM     33  C   UNL A   1      34.558  30.481  28.263  1.00  0.00     0.014 A 
ATOM     34  C   UNL A   1      36.840  32.021  28.763  1.00  0.00     0.010 A 
ATOM     35  C   UNL A   1      35.623  29.936  28.970  1.00  0.00     0.010 A 
ATOM     36  C   UNL A   1      36.772  30.701  29.234  1.00  0.00    -0.014 A 
BRANCH  36  37
ATOM     37  C   UNL A   1      37.872  30.075  30.013  1.00  0.00     0.031 A 
ATOM     38  C   UNL A   1      38.122  30.529  31.426  1.00  0.00     0.074 A 
ATOM     39  C   UNL A   1      38.729  29.226  29.410  1.00  0.00     0.049 A 
ATOM     40  N   UNL A   1      39.137  30.273  32.207  1.00  0.00    -0.248 NA
ATOM     41  C   UNL A   1      37.115  31.424  32.024  1.00  0.00     0.031 C 
ATOM     42  C   UNL A   1      38.637  28.763  28.023  1.00  0.00     0.029 A 
ATOM     43  N   UNL A   1      39.882  28.638  29.875  1.00  0.00    -0.354 N 
ATOM     44  C   UNL A   1      38.927  31.026  33.357  1.00  0.00     0.074 A 
ATOM     45  C   UNL A   1      37.693  31.757  33.169  1.00  0.00     0.031 C 
ATOM     46  C   UNL A   1      39.694  27.983  27.745  1.00  0.00     0.029 A 
ATOM     47  C   UNL A   1      40.561  27.918  28.917  1.00  0.00     0.049 A 
ATOM     48  H   UNL A   1      40.193  28.724  30.806  1.00  0.00     0.167 HD
ATOM     49  C   UNL A   1      39.686  31.090  34.475  1.00  0.00     0.034 A 
ATOM     50  C   UNL A   1      41.758  27.297  28.971  1.00  0.00     0.034 A 
ATOM     51  C   UNL A   1      40.865  30.298  34.690  1.00  0.00     0.049 A 
ATOM     52  C   UNL A   1      42.540  27.327  30.259  1.00  0.00     0.074 A 
ATOM     53  C   UNL A   1      41.633  30.201  35.835  1.00  0.00     0.029 A 
ATOM     54  N   UNL A   1      41.443  29.470  33.743  1.00  0.00    -0.354 N 
ATOM     55  N   UNL A   1      42.240  27.914  31.392  1.00  0.00    -0.248 NA
ATOM     56  C   UNL A   1      43.808  26.582  30.290  1.00  0.00     0.031 C 
ATOM     57  C   UNL A   1      42.689  29.324  35.576  1.00  0.00     0.029 A 
ATOM     58  C   UNL A   1      42.562  28.859  34.277  1.00  0.00     0.049 A 
ATOM     59  H   UNL A   1      41.108  29.337  32.827  1.00  0.00     0.167 HD
ATOM     60  C   UNL A   1      43.252  27.567  32.280  1.00  0.00     0.074 A 
ATOM     61  C   UNL A   1      44.170  26.713  31.559  1.00  0.00     0.031 C 
ATOM     62  C   UNL A   1      43.414  27.937  33.574  1.00  0.00     0.034 A 
BRANCH  49  63
ATOM     63  C   UNL A   1      39.244  32.002  35.586  1.00  0.00     0.023 A 
ATOM     64  C   UNL A   1      38.404  31.506  36.603  1.00  0.00     0.012 A 
ATOM     65  C   UNL A   1      39.746  33.315  35.677  1.00  0.00     0.148 A 
ATOM     66  C   UNL A   1      38.051  32.312  37.684  1.00  0.00     0.002 A 
ATOM     67  C   UNL A   1      39.426  34.097  36.780  1.00  0.00     0.091 A 
ATOM     68  F   UNL A   1      40.528  33.771  34.689  1.00  0.00    -0.205 F 
ATOM     69  C   UNL A   1      38.572  33.600  37.780  1.00  0.00     0.022 A 
BRANCH  67  70
ATOM     70  S   UNL A   1      40.111  35.737  37.042  1.00  0.00     0.127 S 
ATOM     71  O   UNL A   1      41.546  35.454  37.069  1.00  0.00    -0.237 OA
ATOM     72  O   UNL A   1      39.653  36.453  35.851  1.00  0.00    -0.237 OA
ATOM     73  O   UNL A   1      39.549  36.214  38.297  1.00  0.00    -0.744 OA
ENDBRANCH  67  70
ENDBRANCH  49  63
BRANCH  50  74
ATOM     74  C   UNL A   1      42.278  26.551  27.788  1.00  0.00     0.023 A 
ATOM     75  C   UNL A   1      43.056  27.232  26.831  1.00  0.00     0.012 A 
ATOM     76  C   UNL A   1      42.004  25.183  27.597  1.00  0.00     0.148 A 
ATOM     77  C   UNL A   1      43.510  26.579  25.684  1.00  0.00     0.002 A 
ATOM     78  C   UNL A   1      42.507  24.524  26.480  1.00  0.00     0.091 A 
ATOM     79  F   UNL A   1      41.249  24.551  28.507  1.00  0.00    -0.205 F 
ATOM     80  C   UNL A   1      43.243  25.225  25.513  1.00  0.00     0.022 A 
BRANCH  78  81
ATOM     81  S   UNL A   1      42.317  22.751  26.255  1.00  0.00     0.127 S 
ATOM     82  O   UNL A   1      42.999  22.223  27.433  1.00  0.00    -0.237 OA
ATOM     83  O   UNL A   1      40.861  22.593  26.263  1.00  0.00    -0.237 OA
ATOM     84  O   UNL A   1      42.938  22.459  24.969  1.00  0.00    -0.744 OA
ENDBRANCH  78  81
ENDBRANCH  50  74
BRANCH  62  85
ATOM     85  C   UNL A   1      44.580  27.370  34.336  1.00  0.00     0.023 A 
ATOM     86  C   UNL A   1      45.799  28.071  34.383  1.00  0.00     0.012 A 
ATOM     87  C   UNL A   1      44.418  26.204  35.111  1.00  0.00     0.148 A 
ATOM     88  C   UNL A   1      46.848  27.612  35.179  1.00  0.00     0.002 A 
ATOM     89  C   UNL A   1      45.449  25.779  35.939  1.00  0.00     0.091 A 
ATOM     90  F   UNL A   1      43.252  25.544  35.037  1.00  0.00    -0.205 F 
ATOM     91  C   UNL A   1      46.668  26.477  35.966  1.00  0.00     0.022 A 
BRANCH  89  92
ATOM     92  S   UNL A   1      45.270  24.392  37.065  1.00  0.00     0.127 S 
ATOM     93  O   UNL A   1      44.153  24.830  37.901  1.00  0.00    -0.237 OA
ATOM     94  O   UNL A   1      44.956  23.291  36.154  1.00  0.00    -0.237 OA
ATOM     95  O   UNL A   1      46.547  24.262  37.754  1.00  0.00    -0.744 OA
ENDBRANCH  89  92
ENDBRANCH  62  85
ENDBRANCH  36  37
ENDBRANCH  28  31
ENDBRANCH  26  27
ENDBRANCH   1  26
TORSDOF 16
ENDMDL
