MODEL 1
REMARK VINA RESULT:     -12.9      0.000      0.000
REMARK SMILES Cc1cc(C)c2c(c1)C=C(C(=O)NCCCCNC(=O)c1ccc(-c3c4nc(c(-c5cccc(S(=O)(=O)[O-])c5F)c5ccc([nH]5)c(-c5cccc(S(=O)(=O)[O-])c5F)c5nc(c(-c6cccc(S(=O)(=O)[O-])c6F)c6ccc3[nH]6)C=C5)C=C4)cc1)[C@@H](C(F)(F)F)O2
REMARK SMILES IDX 16 1 15 2 14 3 13 4 11 5 12 6 10 8 1 9 2 10 3 11 8 12 4 13
REMARK SMILES IDX 7 14 5 15 6 16 9 17 89 18 84 19 85 20 86 21 87 22 88 23
REMARK SMILES IDX 17 24 18 25 19 26 20 28 21 29 22 30 83 31 23 32 82 33 24 34
REMARK SMILES IDX 25 35 26 36 76 37 27 38 81 39 75 40 77 41 28 42 80 43 74 44
REMARK SMILES IDX 73 45 29 47 61 48 41 49 60 50 42 51 45 52 59 53 78 54 43 55
REMARK SMILES IDX 44 56 58 58 79 59 46 60 30 61 31 62 39 63 32 64 34 65 40 66
REMARK SMILES IDX 33 67 35 68 36 69 37 70 38 71 62 72 63 73 71 74 64 75 66 76
REMARK SMILES IDX 72 77 65 78 67 79 68 80 69 81 70 82 47 83 48 84 56 85 49 86
REMARK SMILES IDX 51 87 57 88 50 89 52 90 53 91 54 92 55 93
REMARK H PARENT 13 7 18 27 77 46 45 57
REMARK Flexibility Score: inf
ROOT
ATOM      1  C   UNL A   1      31.523  29.369  25.383  1.00  0.00     0.023 C 
ENDROOT
BRANCH   1   2
ATOM      2  C   UNL A   1      31.776  28.943  23.935  1.00  0.00     0.023 C 
BRANCH   2   3
ATOM      3  C   UNL A   1      33.213  28.516  23.652  1.00  0.00     0.116 C 
BRANCH   3   4
ATOM      4  N   UNL A   1      33.301  27.615  22.517  1.00  0.00    -0.352 N 
ATOM      5  C   UNL A   1      33.416  26.281  22.322  1.00  0.00     0.251 C 
ATOM      6  O   UNL A   1      33.452  25.921  21.141  1.00  0.00    -0.270 OA
ATOM      7  H   UNL A   1      33.266  28.104  21.664  1.00  0.00     0.163 HD
BRANCH   5   8
ATOM      8  C   UNL A   1      33.498  25.254  23.403  1.00  0.00     0.067 C 
ATOM      9  C   UNL A   1      36.859  20.334  25.037  1.00  0.00     0.044 C 
ATOM     10  C   UNL A   1      35.827  21.410  25.204  1.00  0.00    -0.050 A 
ATOM     11  C   UNL A   1      34.976  21.421  26.317  1.00  0.00     0.010 A 
ATOM     12  C   UNL A   1      35.687  22.402  24.225  1.00  0.00     0.015 A 
ATOM     13  C   UNL A   1      34.002  22.418  26.468  1.00  0.00    -0.008 A 
ATOM     14  C   UNL A   1      34.715  23.397  24.356  1.00  0.00     0.018 A 
ATOM     15  C   UNL A   1      33.095  22.421  27.665  1.00  0.00     0.048 C 
ATOM     16  C   UNL A   1      33.877  23.396  25.474  1.00  0.00     0.130 A 
ATOM     17  C   UNL A   1      34.579  24.452  23.360  1.00  0.00     0.025 C 
ATOM     18  O   UNL A   1      32.934  24.369  25.664  1.00  0.00    -0.475 OA
ATOM     19  C   UNL A   1      32.459  25.045  24.467  1.00  0.00     0.314 C 
BRANCH  19  20
ATOM     20  C   UNL A   1      31.204  24.322  23.942  1.00  0.00     0.429 C 
ATOM     21  F   UNL A   1      30.303  25.222  23.474  1.00  0.00    -0.167 F 
ATOM     22  F   UNL A   1      31.477  23.483  22.916  1.00  0.00    -0.167 F 
ATOM     23  F   UNL A   1      30.584  23.590  24.895  1.00  0.00    -0.167 F 
ENDBRANCH  19  20
ENDBRANCH   5   8
ENDBRANCH   3   4
ENDBRANCH   2   3
ENDBRANCH   1   2
BRANCH   1  24
ATOM     24  C   UNL A   1      32.712  30.009  26.099  1.00  0.00     0.116 C 
BRANCH  24  25
ATOM     25  N   UNL A   1      32.470  31.379  26.534  1.00  0.00    -0.352 N 
ATOM     26  C   UNL A   1      33.267  32.162  27.335  1.00  0.00     0.251 C 
ATOM     27  H   UNL A   1      31.636  31.794  26.215  1.00  0.00     0.163 HD
ATOM     28  O   UNL A   1      32.902  33.280  27.683  1.00  0.00    -0.269 OA
BRANCH  26  29
ATOM     29  C   UNL A   1      34.552  31.610  27.803  1.00  0.00     0.039 A 
ATOM     30  C   UNL A   1      35.647  32.467  27.929  1.00  0.00     0.014 A 
ATOM     31  C   UNL A   1      34.639  30.271  28.197  1.00  0.00     0.014 A 
ATOM     32  C   UNL A   1      36.819  31.996  28.523  1.00  0.00     0.010 A 
ATOM     33  C   UNL A   1      35.786  29.823  28.841  1.00  0.00     0.010 A 
ATOM     34  C   UNL A   1      36.882  30.681  29.015  1.00  0.00    -0.014 A 
BRANCH  34  35
ATOM     35  C   UNL A   1      38.082  30.190  29.734  1.00  0.00     0.031 A 
ATOM     36  C   UNL A   1      38.378  30.683  31.122  1.00  0.00     0.074 A 
ATOM     37  C   UNL A   1      38.941  29.364  29.106  1.00  0.00     0.049 A 
ATOM     38  N   UNL A   1      39.395  30.401  31.893  1.00  0.00    -0.248 NA
ATOM     39  C   UNL A   1      37.420  31.633  31.711  1.00  0.00     0.031 C 
ATOM     40  C   UNL A   1      38.796  28.880  27.732  1.00  0.00     0.029 A 
ATOM     41  N   UNL A   1      40.117  28.801  29.534  1.00  0.00    -0.354 N 
ATOM     42  C   UNL A   1      39.213  31.154  33.046  1.00  0.00     0.074 A 
ATOM     43  C   UNL A   1      38.012  31.937  32.858  1.00  0.00     0.031 C 
ATOM     44  C   UNL A   1      39.832  28.079  27.436  1.00  0.00     0.029 A 
ATOM     45  C   UNL A   1      40.726  28.009  28.588  1.00  0.00     0.049 A 
ATOM     46  H   UNL A   1      40.489  28.949  30.433  1.00  0.00     0.167 HD
ATOM     47  C   UNL A   1      39.956  31.162  34.177  1.00  0.00     0.034 A 
ATOM     48  C   UNL A   1      41.870  27.298  28.649  1.00  0.00     0.034 A 
ATOM     49  C   UNL A   1      41.118  30.342  34.378  1.00  0.00     0.049 A 
ATOM     50  C   UNL A   1      42.659  27.297  29.930  1.00  0.00     0.074 A 
ATOM     51  C   UNL A   1      41.896  30.221  35.516  1.00  0.00     0.029 A 
ATOM     52  N   UNL A   1      41.666  29.499  33.424  1.00  0.00    -0.354 N 
ATOM     53  N   UNL A   1      42.392  27.901  31.063  1.00  0.00    -0.248 NA
ATOM     54  C   UNL A   1      43.890  26.493  29.955  1.00  0.00     0.031 C 
ATOM     55  C   UNL A   1      42.919  29.306  35.247  1.00  0.00     0.029 A 
ATOM     56  C   UNL A   1      42.773  28.853  33.945  1.00  0.00     0.049 A 
ATOM     57  H   UNL A   1      41.319  29.377  32.511  1.00  0.00     0.167 HD
ATOM     58  C   UNL A   1      43.403  27.531  31.942  1.00  0.00     0.074 A 
ATOM     59  C   UNL A   1      44.277  26.631  31.217  1.00  0.00     0.031 C 
ATOM     60  C   UNL A   1      43.601  27.918  33.226  1.00  0.00     0.034 A 
BRANCH  47  61
ATOM     61  C   UNL A   1      39.482  32.022  35.317  1.00  0.00     0.023 A 
ATOM     62  C   UNL A   1      39.748  33.407  35.283  1.00  0.00     0.012 A 
ATOM     63  C   UNL A   1      38.729  31.487  36.378  1.00  0.00     0.148 A 
ATOM     64  C   UNL A   1      39.296  34.241  36.302  1.00  0.00     0.002 A 
ATOM     65  C   UNL A   1      38.248  32.333  37.372  1.00  0.00     0.091 A 
ATOM     66  F   UNL A   1      38.508  30.164  36.404  1.00  0.00    -0.205 F 
ATOM     67  C   UNL A   1      38.537  33.707  37.339  1.00  0.00     0.022 A 
BRANCH  65  68
ATOM     68  S   UNL A   1      37.202  31.755  38.714  1.00  0.00     0.127 S 
ATOM     69  O   UNL A   1      36.943  30.374  38.310  1.00  0.00    -0.237 OA
ATOM     70  O   UNL A   1      38.082  31.896  39.874  1.00  0.00    -0.237 OA
ATOM     71  O   UNL A   1      36.041  32.634  38.722  1.00  0.00    -0.744 OA
ENDBRANCH  65  68
ENDBRANCH  47  61
BRANCH  48  72
ATOM     72  C   UNL A   1      42.273  26.447  27.493  1.00  0.00     0.023 A 
ATOM     73  C   UNL A   1      43.098  27.002  26.496  1.00  0.00     0.012 A 
ATOM     74  C   UNL A   1      41.904  25.091  27.403  1.00  0.00     0.148 A 
ATOM     75  C   UNL A   1      43.535  26.228  25.420  1.00  0.00     0.002 A 
ATOM     76  C   UNL A   1      42.384  24.312  26.355  1.00  0.00     0.091 A 
ATOM     77  F   UNL A   1      41.106  24.585  28.354  1.00  0.00    -0.205 F 
ATOM     78  C   UNL A   1      43.188  24.881  25.355  1.00  0.00     0.022 A 
BRANCH  76  79
ATOM     79  S   UNL A   1      42.103  22.539  26.267  1.00  0.00     0.127 S 
ATOM     80  O   UNL A   1      40.645  22.469  26.229  1.00  0.00    -0.237 OA
ATOM     81  O   UNL A   1      42.770  22.186  25.014  1.00  0.00    -0.237 OA
ATOM     82  O   UNL A   1      42.736  21.985  27.457  1.00  0.00    -0.744 OA
ENDBRANCH  76  79
ENDBRANCH  48  72
BRANCH  60  83
ATOM     83  C   UNL A   1      44.805  27.376  33.948  1.00  0.00     0.023 A 
ATOM     84  C   UNL A   1      46.003  28.116  33.940  1.00  0.00     0.012 A 
ATOM     85  C   UNL A   1      44.716  26.209  34.733  1.00  0.00     0.148 A 
ATOM     86  C   UNL A   1      47.100  27.696  34.691  1.00  0.00     0.002 A 
ATOM     87  C   UNL A   1      45.799  25.819  35.512  1.00  0.00     0.091 A 
ATOM     88  F   UNL A   1      43.572  25.509  34.711  1.00  0.00    -0.205 F 
ATOM     89  C   UNL A   1      46.994  26.559  35.487  1.00  0.00     0.022 A 
BRANCH  87  90
ATOM     90  S   UNL A   1      45.717  24.426  36.644  1.00  0.00     0.127 S 
ATOM     91  O   UNL A   1      44.640  24.836  37.543  1.00  0.00    -0.237 OA
ATOM     92  O   UNL A   1      45.378  23.317  35.751  1.00  0.00    -0.237 OA
ATOM     93  O   UNL A   1      47.039  24.327  37.251  1.00  0.00    -0.744 OA
ENDBRANCH  87  90
ENDBRANCH  60  83
ENDBRANCH  34  35
ENDBRANCH  26  29
ENDBRANCH  24  25
ENDBRANCH   1  24
TORSDOF 15
ENDMDL
MODEL 2
REMARK VINA RESULT:     -12.9      1.617      2.114
REMARK SMILES Cc1cc(C)c2c(c1)C=C(C(=O)NCCCCNC(=O)c1ccc(-c3c4nc(c(-c5cccc(S(=O)(=O)[O-])c5F)c5ccc([nH]5)c(-c5cccc(S(=O)(=O)[O-])c5F)c5nc(c(-c6cccc(S(=O)(=O)[O-])c6F)c6ccc3[nH]6)C=C5)C=C4)cc1)[C@@H](C(F)(F)F)O2
REMARK SMILES IDX 16 1 15 2 14 3 13 4 11 5 12 6 10 8 1 9 2 10 3 11 8 12 4 13
REMARK SMILES IDX 7 14 5 15 6 16 9 17 89 18 84 19 85 20 86 21 87 22 88 23
REMARK SMILES IDX 17 24 18 25 19 26 20 28 21 29 22 30 83 31 23 32 82 33 24 34
REMARK SMILES IDX 25 35 26 36 76 37 27 38 81 39 75 40 77 41 28 42 80 43 74 44
REMARK SMILES IDX 73 45 29 47 61 48 41 49 60 50 42 51 45 52 59 53 78 54 43 55
REMARK SMILES IDX 44 56 58 58 79 59 46 60 30 61 31 62 39 63 32 64 34 65 40 66
REMARK SMILES IDX 33 67 35 68 36 69 37 70 38 71 62 72 63 73 71 74 64 75 66 76
REMARK SMILES IDX 72 77 65 78 67 79 68 80 69 81 70 82 47 83 48 84 56 85 49 86
REMARK SMILES IDX 51 87 57 88 50 89 52 90 53 91 54 92 55 93
REMARK H PARENT 13 7 18 27 77 46 45 57
REMARK Flexibility Score: inf
ROOT
ATOM      1  C   UNL A   1      32.910  29.306  24.483  1.00  0.00     0.023 C 
ENDROOT
BRANCH   1   2
ATOM      2  C   UNL A   1      31.570  28.963  23.828  1.00  0.00     0.023 C 
BRANCH   2   3
ATOM      3  C   UNL A   1      31.316  27.466  23.676  1.00  0.00     0.116 C 
BRANCH   3   4
ATOM      4  N   UNL A   1      30.615  26.913  24.820  1.00  0.00    -0.352 N 
ATOM      5  C   UNL A   1      30.699  25.802  25.588  1.00  0.00     0.251 C 
ATOM      6  O   UNL A   1      29.872  25.728  26.503  1.00  0.00    -0.270 OA
ATOM      7  H   UNL A   1      29.884  27.502  25.116  1.00  0.00     0.163 HD
BRANCH   5   8
ATOM      8  C   UNL A   1      31.693  24.703  25.409  1.00  0.00     0.067 C 
ATOM      9  C   UNL A   1      37.781  23.701  25.750  1.00  0.00     0.044 C 
ATOM     10  C   UNL A   1      36.333  23.332  25.608  1.00  0.00    -0.050 A 
ATOM     11  C   UNL A   1      35.955  22.019  25.300  1.00  0.00     0.010 A 
ATOM     12  C   UNL A   1      35.345  24.314  25.754  1.00  0.00     0.015 A 
ATOM     13  C   UNL A   1      34.603  21.675  25.155  1.00  0.00    -0.008 A 
ATOM     14  C   UNL A   1      33.994  23.990  25.602  1.00  0.00     0.018 A 
ATOM     15  C   UNL A   1      34.208  20.265  24.826  1.00  0.00     0.048 C 
ATOM     16  C   UNL A   1      33.633  22.675  25.299  1.00  0.00     0.130 A 
ATOM     17  C   UNL A   1      32.954  24.995  25.781  1.00  0.00     0.025 C 
ATOM     18  O   UNL A   1      32.322  22.301  25.176  1.00  0.00    -0.475 OA
ATOM     19  C   UNL A   1      31.386  23.356  24.819  1.00  0.00     0.314 C 
BRANCH  19  20
ATOM     20  C   UNL A   1      31.229  23.398  23.288  1.00  0.00     0.429 C 
ATOM     21  F   UNL A   1      31.517  22.184  22.752  1.00  0.00    -0.167 F 
ATOM     22  F   UNL A   1      29.969  23.700  22.900  1.00  0.00    -0.167 F 
ATOM     23  F   UNL A   1      32.049  24.300  22.702  1.00  0.00    -0.167 F 
ENDBRANCH  19  20
ENDBRANCH   5   8
ENDBRANCH   3   4
ENDBRANCH   2   3
ENDBRANCH   1   2
BRANCH   1  24
ATOM     24  C   UNL A   1      32.875  29.485  26.001  1.00  0.00     0.116 C 
BRANCH  24  25
ATOM     25  N   UNL A   1      32.554  30.842  26.427  1.00  0.00    -0.352 N 
ATOM     26  C   UNL A   1      33.289  31.662  27.250  1.00  0.00     0.251 C 
ATOM     27  H   UNL A   1      31.710  31.215  26.084  1.00  0.00     0.163 HD
ATOM     28  O   UNL A   1      32.860  32.761  27.585  1.00  0.00    -0.269 OA
BRANCH  26  29
ATOM     29  C   UNL A   1      34.585  31.174  27.754  1.00  0.00     0.039 A 
ATOM     30  C   UNL A   1      35.608  32.095  27.986  1.00  0.00     0.014 A 
ATOM     31  C   UNL A   1      34.749  29.823  28.077  1.00  0.00     0.014 A 
ATOM     32  C   UNL A   1      36.780  31.672  28.615  1.00  0.00     0.010 A 
ATOM     33  C   UNL A   1      35.892  29.418  28.757  1.00  0.00     0.010 A 
ATOM     34  C   UNL A   1      36.913  30.338  29.036  1.00  0.00    -0.014 A 
BRANCH  34  35
ATOM     35  C   UNL A   1      38.108  29.889  29.790  1.00  0.00     0.031 A 
ATOM     36  C   UNL A   1      38.369  30.425  31.169  1.00  0.00     0.074 A 
ATOM     37  C   UNL A   1      38.994  29.063  29.201  1.00  0.00     0.049 A 
ATOM     38  N   UNL A   1      39.376  30.183  31.967  1.00  0.00    -0.248 NA
ATOM     39  C   UNL A   1      37.383  31.372  31.715  1.00  0.00     0.031 C 
ATOM     40  C   UNL A   1      38.884  28.540  27.837  1.00  0.00     0.029 A 
ATOM     41  N   UNL A   1      40.172  28.534  29.665  1.00  0.00    -0.354 N 
ATOM     42  C   UNL A   1      39.158  30.963  33.095  1.00  0.00     0.074 A 
ATOM     43  C   UNL A   1      37.946  31.718  32.863  1.00  0.00     0.031 C 
ATOM     44  C   UNL A   1      39.940  27.751  27.583  1.00  0.00     0.029 A 
ATOM     45  C   UNL A   1      40.813  27.729  28.753  1.00  0.00     0.049 A 
ATOM     46  H   UNL A   1      40.525  28.713  30.567  1.00  0.00     0.167 HD
ATOM     47  C   UNL A   1      39.880  31.015  34.239  1.00  0.00     0.034 A 
ATOM     48  C   UNL A   1      41.969  27.042  28.854  1.00  0.00     0.034 A 
ATOM     49  C   UNL A   1      41.053  30.223  34.483  1.00  0.00     0.049 A 
ATOM     50  C   UNL A   1      42.733  27.090  30.149  1.00  0.00     0.074 A 
ATOM     51  C   UNL A   1      41.811  30.147  35.638  1.00  0.00     0.029 A 
ATOM     52  N   UNL A   1      41.634  29.366  33.563  1.00  0.00    -0.354 N 
ATOM     53  N   UNL A   1      42.434  27.719  31.260  1.00  0.00    -0.248 NA
ATOM     54  C   UNL A   1      43.979  26.310  30.219  1.00  0.00     0.031 C 
ATOM     55  C   UNL A   1      42.855  29.245  35.413  1.00  0.00     0.029 A 
ATOM     56  C   UNL A   1      42.743  28.755  34.121  1.00  0.00     0.049 A 
ATOM     57  H   UNL A   1      41.306  29.213  32.647  1.00  0.00     0.167 HD
ATOM     58  C   UNL A   1      43.435  27.392  32.167  1.00  0.00     0.074 A 
ATOM     59  C   UNL A   1      44.339  26.490  31.483  1.00  0.00     0.031 C 
ATOM     60  C   UNL A   1      43.602  27.817  33.444  1.00  0.00     0.034 A 
BRANCH  47  61
ATOM     61  C   UNL A   1      39.368  31.897  35.346  1.00  0.00     0.023 A 
ATOM     62  C   UNL A   1      38.401  31.384  36.234  1.00  0.00     0.012 A 
ATOM     63  C   UNL A   1      39.877  33.192  35.549  1.00  0.00     0.148 A 
ATOM     64  C   UNL A   1      37.928  32.156  37.292  1.00  0.00     0.002 A 
ATOM     65  C   UNL A   1      39.429  33.943  36.630  1.00  0.00     0.091 A 
ATOM     66  F   UNL A   1      40.779  33.671  34.678  1.00  0.00    -0.205 F 
ATOM     67  C   UNL A   1      38.449  33.430  37.497  1.00  0.00     0.022 A 
BRANCH  65  68
ATOM     68  S   UNL A   1      40.088  35.568  37.022  1.00  0.00     0.127 S 
ATOM     69  O   UNL A   1      39.652  36.349  35.865  1.00  0.00    -0.237 OA
ATOM     70  O   UNL A   1      39.397  35.890  38.270  1.00  0.00    -0.237 OA
ATOM     71  O   UNL A   1      41.528  35.394  37.153  1.00  0.00    -0.744 OA
ENDBRANCH  65  68
ENDBRANCH  47  61
BRANCH  48  72
ATOM     72  C   UNL A   1      42.409  26.168  27.729  1.00  0.00     0.023 A 
ATOM     73  C   UNL A   1      43.314  26.684  26.781  1.00  0.00     0.012 A 
ATOM     74  C   UNL A   1      41.997  24.826  27.624  1.00  0.00     0.148 A 
ATOM     75  C   UNL A   1      43.785  25.887  25.737  1.00  0.00     0.002 A 
ATOM     76  C   UNL A   1      42.510  24.021  26.612  1.00  0.00     0.091 A 
ATOM     77  F   UNL A   1      41.124  24.356  28.527  1.00  0.00    -0.205 F 
ATOM     78  C   UNL A   1      43.394  24.553  25.659  1.00  0.00     0.022 A 
BRANCH  76  79
ATOM     79  S   UNL A   1      42.169  22.260  26.516  1.00  0.00     0.127 S 
ATOM     80  O   UNL A   1      42.981  21.860  25.370  1.00  0.00    -0.237 OA
ATOM     81  O   UNL A   1      42.653  21.783  27.811  1.00  0.00    -0.237 OA
ATOM     82  O   UNL A   1      40.726  22.152  26.342  1.00  0.00    -0.744 OA
ENDBRANCH  76  79
ENDBRANCH  48  72
BRANCH  60  83
ATOM     83  C   UNL A   1      44.802  27.318  34.202  1.00  0.00     0.023 A 
ATOM     84  C   UNL A   1      45.985  28.081  34.197  1.00  0.00     0.012 A 
ATOM     85  C   UNL A   1      44.719  26.169  35.015  1.00  0.00     0.148 A 
ATOM     86  C   UNL A   1      47.075  27.702  34.979  1.00  0.00     0.002 A 
ATOM     87  C   UNL A   1      45.795  25.822  35.824  1.00  0.00     0.091 A 
ATOM     88  F   UNL A   1      43.590  25.446  34.990  1.00  0.00    -0.205 F 
ATOM     89  C   UNL A   1      46.975  26.584  35.803  1.00  0.00     0.022 A 
BRANCH  87  90
ATOM     90  S   UNL A   1      45.718  24.457  36.990  1.00  0.00     0.127 S 
ATOM     91  O   UNL A   1      45.559  23.310  36.097  1.00  0.00    -0.237 OA
ATOM     92  O   UNL A   1      47.020  24.537  37.653  1.00  0.00    -0.237 OA
ATOM     93  O   UNL A   1      44.582  24.738  37.858  1.00  0.00    -0.744 OA
ENDBRANCH  87  90
ENDBRANCH  60  83
ENDBRANCH  34  35
ENDBRANCH  26  29
ENDBRANCH  24  25
ENDBRANCH   1  24
TORSDOF 15
ENDMDL
MODEL 3
REMARK VINA RESULT:     -12.9      5.129     10.090
REMARK SMILES Cc1cc(C)c2c(c1)C=C(C(=O)NCCCCNC(=O)c1ccc(-c3c4nc(c(-c5cccc(S(=O)(=O)[O-])c5F)c5ccc([nH]5)c(-c5cccc(S(=O)(=O)[O-])c5F)c5nc(c(-c6cccc(S(=O)(=O)[O-])c6F)c6ccc3[nH]6)C=C5)C=C4)cc1)[C@@H](C(F)(F)F)O2
REMARK SMILES IDX 16 1 15 2 14 3 13 4 11 5 12 6 10 8 1 9 2 10 3 11 8 12 4 13
REMARK SMILES IDX 7 14 5 15 6 16 9 17 89 18 84 19 85 20 86 21 87 22 88 23
REMARK SMILES IDX 17 24 18 25 19 26 20 28 21 29 22 30 83 31 23 32 82 33 24 34
REMARK SMILES IDX 25 35 26 36 76 37 27 38 81 39 75 40 77 41 28 42 80 43 74 44
REMARK SMILES IDX 73 45 29 47 61 48 41 49 60 50 42 51 45 52 59 53 78 54 43 55
REMARK SMILES IDX 44 56 58 58 79 59 46 60 30 61 31 62 39 63 32 64 34 65 40 66
REMARK SMILES IDX 33 67 35 68 36 69 37 70 38 71 62 72 63 73 71 74 64 75 66 76
REMARK SMILES IDX 72 77 65 78 67 79 68 80 69 81 70 82 47 83 48 84 56 85 49 86
REMARK SMILES IDX 51 87 57 88 50 89 52 90 53 91 54 92 55 93
REMARK H PARENT 13 7 18 27 77 46 45 57
REMARK Flexibility Score: inf
ROOT
ATOM      1  C   UNL A   1      35.513  21.350  25.015  1.00  0.00     0.023 C 
ENDROOT
BRANCH   1   2
ATOM      2  C   UNL A   1      34.399  21.836  25.945  1.00  0.00     0.023 C 
BRANCH   2   3
ATOM      3  C   UNL A   1      32.990  21.549  25.434  1.00  0.00     0.116 C 
BRANCH   3   4
ATOM      4  N   UNL A   1      31.971  22.119  26.296  1.00  0.00    -0.352 N 
ATOM      5  C   UNL A   1      31.437  23.343  26.519  1.00  0.00     0.251 C 
ATOM      6  O   UNL A   1      30.548  23.382  27.376  1.00  0.00    -0.270 OA
ATOM      7  H   UNL A   1      31.559  21.434  26.870  1.00  0.00     0.163 HD
BRANCH   5   8
ATOM      8  C   UNL A   1      31.837  24.599  25.821  1.00  0.00     0.067 C 
ATOM      9  C   UNL A   1      32.008  30.705  26.753  1.00  0.00     0.044 C 
ATOM     10  C   UNL A   1      32.281  29.416  26.035  1.00  0.00    -0.050 A 
ATOM     11  C   UNL A   1      32.864  29.416  24.761  1.00  0.00     0.010 A 
ATOM     12  C   UNL A   1      31.924  28.197  26.626  1.00  0.00     0.015 A 
ATOM     13  C   UNL A   1      33.108  28.213  24.083  1.00  0.00    -0.008 A 
ATOM     14  C   UNL A   1      32.152  26.991  25.959  1.00  0.00     0.018 A 
ATOM     15  C   UNL A   1      33.734  28.223  22.718  1.00  0.00     0.048 C 
ATOM     16  C   UNL A   1      32.737  27.008  24.691  1.00  0.00     0.130 A 
ATOM     17  C   UNL A   1      31.813  25.715  26.575  1.00  0.00     0.025 C 
ATOM     18  O   UNL A   1      33.013  25.851  24.013  1.00  0.00    -0.475 OA
ATOM     19  C   UNL A   1      32.207  24.692  24.368  1.00  0.00     0.314 C 
BRANCH  19  20
ATOM     20  C   UNL A   1      30.984  24.621  23.435  1.00  0.00     0.429 C 
ATOM     21  F   UNL A   1      30.530  23.345  23.350  1.00  0.00    -0.167 F 
ATOM     22  F   UNL A   1      29.946  25.368  23.877  1.00  0.00    -0.167 F 
ATOM     23  F   UNL A   1      31.260  25.034  22.177  1.00  0.00    -0.167 F 
ENDBRANCH  19  20
ENDBRANCH   5   8
ENDBRANCH   3   4
ENDBRANCH   2   3
ENDBRANCH   1   2
BRANCH   1  24
ATOM     24  C   UNL A   1      36.914  21.872  25.337  1.00  0.00     0.116 C 
BRANCH  24  25
ATOM     25  N   UNL A   1      37.908  20.821  25.515  1.00  0.00    -0.352 N 
ATOM     26  C   UNL A   1      39.159  20.931  26.075  1.00  0.00     0.251 C 
ATOM     27  H   UNL A   1      37.653  19.924  25.197  1.00  0.00     0.163 HD
ATOM     28  O   UNL A   1      39.924  19.973  26.095  1.00  0.00    -0.269 OA
BRANCH  26  29
ATOM     29  C   UNL A   1      39.577  22.239  26.612  1.00  0.00     0.039 A 
ATOM     30  C   UNL A   1      40.585  22.281  27.576  1.00  0.00     0.014 A 
ATOM     31  C   UNL A   1      39.031  23.417  26.093  1.00  0.00     0.014 A 
ATOM     32  C   UNL A   1      41.102  23.514  27.972  1.00  0.00     0.010 A 
ATOM     33  C   UNL A   1      39.589  24.641  26.445  1.00  0.00     0.010 A 
ATOM     34  C   UNL A   1      40.632  24.700  27.382  1.00  0.00    -0.014 A 
BRANCH  34  35
ATOM     35  C   UNL A   1      41.233  26.012  27.717  1.00  0.00     0.031 A 
ATOM     36  C   UNL A   1      42.648  26.314  27.315  1.00  0.00     0.074 A 
ATOM     37  C   UNL A   1      40.530  26.898  28.451  1.00  0.00     0.049 A 
ATOM     38  N   UNL A   1      43.359  27.385  27.552  1.00  0.00    -0.248 NA
ATOM     39  C   UNL A   1      43.368  25.267  26.571  1.00  0.00     0.031 C 
ATOM     40  C   UNL A   1      39.174  26.682  28.962  1.00  0.00     0.029 A 
ATOM     41  N   UNL A   1      40.863  28.147  28.909  1.00  0.00    -0.354 N 
ATOM     42  C   UNL A   1      44.612  27.134  27.008  1.00  0.00     0.074 A 
ATOM     43  C   UNL A   1      44.580  25.794  26.466  1.00  0.00     0.031 C 
ATOM     44  C   UNL A   1      38.786  27.770  29.647  1.00  0.00     0.029 A 
ATOM     45  C   UNL A   1      39.869  28.749  29.645  1.00  0.00     0.049 A 
ATOM     46  H   UNL A   1      41.733  28.573  28.729  1.00  0.00     0.167 HD
ATOM     47  C   UNL A   1      45.680  27.961  26.930  1.00  0.00     0.034 A 
ATOM     48  C   UNL A   1      39.832  29.958  30.240  1.00  0.00     0.034 A 
ATOM     49  C   UNL A   1      45.688  29.310  27.422  1.00  0.00     0.049 A 
ATOM     50  C   UNL A   1      41.021  30.871  30.107  1.00  0.00     0.074 A 
ATOM     51  C   UNL A   1      46.695  30.253  27.324  1.00  0.00     0.029 A 
ATOM     52  N   UNL A   1      44.639  29.910  28.100  1.00  0.00    -0.354 N 
ATOM     53  N   UNL A   1      42.145  30.672  29.462  1.00  0.00    -0.248 NA
ATOM     54  C   UNL A   1      40.928  32.187  30.758  1.00  0.00     0.031 C 
ATOM     55  C   UNL A   1      46.255  31.425  27.947  1.00  0.00     0.029 A 
ATOM     56  C   UNL A   1      44.972  31.213  28.427  1.00  0.00     0.049 A 
ATOM     57  H   UNL A   1      43.783  29.475  28.316  1.00  0.00     0.167 HD
ATOM     58  C   UNL A   1      42.880  31.842  29.604  1.00  0.00     0.074 A 
ATOM     59  C   UNL A   1      42.066  32.756  30.379  1.00  0.00     0.031 C 
ATOM     60  C   UNL A   1      44.127  32.127  29.152  1.00  0.00     0.034 A 
BRANCH  47  61
ATOM     61  C   UNL A   1      46.900  27.456  26.208  1.00  0.00     0.023 A 
ATOM     62  C   UNL A   1      47.047  27.740  24.834  1.00  0.00     0.012 A 
ATOM     63  C   UNL A   1      47.921  26.764  26.885  1.00  0.00     0.148 A 
ATOM     64  C   UNL A   1      48.178  27.320  24.139  1.00  0.00     0.002 A 
ATOM     65  C   UNL A   1      49.066  26.381  26.193  1.00  0.00     0.091 A 
ATOM     66  F   UNL A   1      47.752  26.482  28.185  1.00  0.00    -0.205 F 
ATOM     67  C   UNL A   1      49.191  26.651  24.820  1.00  0.00     0.022 A 
BRANCH  65  68
ATOM     68  S   UNL A   1      50.459  25.577  26.993  1.00  0.00     0.127 S 
ATOM     69  O   UNL A   1      51.405  25.457  25.884  1.00  0.00    -0.237 OA
ATOM     70  O   UNL A   1      50.837  26.556  28.013  1.00  0.00    -0.237 OA
ATOM     71  O   UNL A   1      49.947  24.320  27.519  1.00  0.00    -0.744 OA
ENDBRANCH  65  68
ENDBRANCH  47  61
BRANCH  48  72
ATOM     72  C   UNL A   1      38.584  30.409  30.920  1.00  0.00     0.023 A 
ATOM     73  C   UNL A   1      38.461  30.219  32.310  1.00  0.00     0.012 A 
ATOM     74  C   UNL A   1      37.556  31.074  30.225  1.00  0.00     0.148 A 
ATOM     75  C   UNL A   1      37.329  30.665  32.993  1.00  0.00     0.002 A 
ATOM     76  C   UNL A   1      36.454  31.562  30.919  1.00  0.00     0.091 A 
ATOM     77  F   UNL A   1      37.685  31.233  28.899  1.00  0.00    -0.205 F 
ATOM     78  C   UNL A   1      36.332  31.346  32.301  1.00  0.00     0.022 A 
BRANCH  76  79
ATOM     79  S   UNL A   1      35.190  32.569  30.134  1.00  0.00     0.127 S 
ATOM     80  O   UNL A   1      34.255  32.787  31.234  1.00  0.00    -0.237 OA
ATOM     81  O   UNL A   1      35.951  33.751  29.728  1.00  0.00    -0.237 OA
ATOM     82  O   UNL A   1      34.691  31.771  29.022  1.00  0.00    -0.744 OA
ENDBRANCH  76  79
ENDBRANCH  48  72
BRANCH  60  83
ATOM     83  C   UNL A   1      44.701  33.481  29.472  1.00  0.00     0.023 A 
ATOM     84  C   UNL A   1      45.436  33.652  30.661  1.00  0.00     0.012 A 
ATOM     85  C   UNL A   1      44.622  34.540  28.546  1.00  0.00     0.148 A 
ATOM     86  C   UNL A   1      46.073  34.863  30.931  1.00  0.00     0.002 A 
ATOM     87  C   UNL A   1      45.295  35.729  28.802  1.00  0.00     0.091 A 
ATOM     88  F   UNL A   1      43.901  34.361  27.429  1.00  0.00    -0.205 F 
ATOM     89  C   UNL A   1      46.016  35.894  29.996  1.00  0.00     0.022 A 
BRANCH  87  90
ATOM     90  S   UNL A   1      45.359  37.072  27.610  1.00  0.00     0.127 S 
ATOM     91  O   UNL A   1      43.948  37.436  27.495  1.00  0.00    -0.237 OA
ATOM     92  O   UNL A   1      46.191  38.061  28.297  1.00  0.00    -0.237 OA
ATOM     93  O   UNL A   1      45.962  36.510  26.408  1.00  0.00    -0.744 OA
ENDBRANCH  87  90
ENDBRANCH  60  83
ENDBRANCH  34  35
ENDBRANCH  26  29
ENDBRANCH  24  25
ENDBRANCH   1  24
TORSDOF 15
ENDMDL
