MODEL 1
REMARK VINA RESULT:     -12.4      0.000      0.000
REMARK SMILES CC(C)c1nc(N2C[C@H](C)OC(C)(C)C2)sc1C(=O)NCCCCNC(=O)c1ccc(-c2c3nc(c(-c4cccc(S(=O)(=O)[O-])c4F)c4ccc([nH]4)c(-c4cccc(S(=O)(=O)[O-])c4F)c4nc(c(-c5cccc(S(=O)(=O)[O-])c5F)c5ccc2[nH]5)C=C4)C=C3)cc1
REMARK SMILES IDX 23 1 22 2 21 3 20 4 18 5 19 6 17 8 4 9 5 10 6 11 16 12 2 13
REMARK SMILES IDX 1 14 3 15 7 16 8 17 15 18 9 19 12 20 11 21 10 22 13 23 14 24
REMARK SMILES IDX 24 25 25 26 26 27 27 29 28 30 29 31 90 32 30 33 89 34 31 35
REMARK SMILES IDX 32 36 33 37 83 38 34 39 88 40 82 41 84 42 35 43 87 44 81 45
REMARK SMILES IDX 80 46 36 48 68 49 48 50 67 51 49 52 52 53 66 54 85 55 50 56
REMARK SMILES IDX 51 57 65 59 86 60 53 61 37 62 38 63 46 64 39 65 41 66 47 67
REMARK SMILES IDX 40 68 42 69 43 70 44 71 45 72 69 73 70 74 78 75 71 76 73 77
REMARK SMILES IDX 79 78 72 79 74 80 75 81 76 82 77 83 54 84 55 85 63 86 56 87
REMARK SMILES IDX 58 88 64 89 57 90 59 91 60 92 61 93 62 94
REMARK H PARENT 20 7 25 28 84 47 52 58
REMARK Flexibility Score: inf
ROOT
ATOM      1  C   UNL A   1      36.358  20.804  25.313  1.00  0.00     0.023 C 
ENDROOT
BRANCH   1   2
ATOM      2  C   UNL A   1      35.632  21.917  26.072  1.00  0.00     0.023 C 
BRANCH   2   3
ATOM      3  C   UNL A   1      35.563  23.270  25.372  1.00  0.00     0.116 C 
BRANCH   3   4
ATOM      4  N   UNL A   1      35.324  23.198  23.953  1.00  0.00    -0.351 N 
ATOM      5  C   UNL A   1      34.251  23.638  23.213  1.00  0.00     0.263 C 
ATOM      6  O   UNL A   1      34.317  23.414  22.001  1.00  0.00    -0.268 OA
ATOM      7  H   UNL A   1      36.041  22.769  23.431  1.00  0.00     0.163 HD
BRANCH   5   8
ATOM      8  C   UNL A   1      33.099  24.280  23.822  1.00  0.00     0.117 A 
ATOM      9  C   UNL A   1      32.067  23.870  24.661  1.00  0.00     0.069 A 
ATOM     10  N   UNL A   1      31.246  24.911  25.095  1.00  0.00    -0.224 NA
ATOM     11  C   UNL A   1      31.591  26.072  24.591  1.00  0.00     0.186 A 
ATOM     12  S   UNL A   1      32.960  25.981  23.559  1.00  0.00    -0.091 S 
BRANCH   9  13
ATOM     13  C   UNL A   1      31.723  22.490  25.176  1.00  0.00     0.034 C 
ATOM     14  C   UNL A   1      32.263  21.368  24.290  1.00  0.00     0.014 C 
ATOM     15  C   UNL A   1      32.169  22.254  26.626  1.00  0.00     0.014 C 
ENDBRANCH   9  13
BRANCH  11  16
ATOM     16  N   UNL A   1      30.944  27.229  24.887  1.00  0.00    -0.343 N 
ATOM     17  C   UNL A   1      31.365  28.162  25.926  1.00  0.00     0.150 C 
ATOM     18  C   UNL A   1      29.847  27.707  24.043  1.00  0.00     0.153 C 
ATOM     19  C   UNL A   1      31.721  29.510  25.265  1.00  0.00     0.135 C 
ATOM     20  C   UNL A   1      30.147  29.120  23.474  1.00  0.00     0.081 C 
ATOM     21  O   UNL A   1      30.613  30.026  24.503  1.00  0.00    -0.369 OA
ATOM     22  C   UNL A   1      32.076  30.555  26.314  1.00  0.00     0.040 C 
ATOM     23  C   UNL A   1      31.152  29.061  22.314  1.00  0.00     0.044 C 
ATOM     24  C   UNL A   1      28.840  29.736  22.954  1.00  0.00     0.044 C 
ENDBRANCH  11  16
ENDBRANCH   5   8
ENDBRANCH   3   4
ENDBRANCH   2   3
ENDBRANCH   1   2
BRANCH   1  25
ATOM     25  C   UNL A   1      37.806  21.075  24.906  1.00  0.00     0.116 C 
BRANCH  25  26
ATOM     26  N   UNL A   1      38.763  20.120  25.449  1.00  0.00    -0.352 N 
ATOM     27  C   UNL A   1      39.848  20.311  26.274  1.00  0.00     0.251 C 
ATOM     28  H   UNL A   1      38.609  19.184  25.184  1.00  0.00     0.163 HD
ATOM     29  O   UNL A   1      40.567  19.355  26.560  1.00  0.00    -0.269 OA
BRANCH  27  30
ATOM     30  C   UNL A   1      40.185  21.662  26.776  1.00  0.00     0.039 A 
ATOM     31  C   UNL A   1      41.107  21.778  27.821  1.00  0.00     0.014 A 
ATOM     32  C   UNL A   1      39.626  22.808  26.210  1.00  0.00     0.014 A 
ATOM     33  C   UNL A   1      41.552  23.042  28.219  1.00  0.00     0.010 A 
ATOM     34  C   UNL A   1      40.128  24.063  26.552  1.00  0.00     0.010 A 
ATOM     35  C   UNL A   1      41.111  24.193  27.546  1.00  0.00    -0.014 A 
BRANCH  35  36
ATOM     36  C   UNL A   1      41.707  25.530  27.817  1.00  0.00     0.031 A 
ATOM     37  C   UNL A   1      40.913  26.598  28.519  1.00  0.00     0.074 A 
ATOM     38  C   UNL A   1      42.928  25.821  27.323  1.00  0.00     0.049 A 
ATOM     39  N   UNL A   1      41.241  27.841  28.763  1.00  0.00    -0.248 NA
ATOM     40  C   UNL A   1      39.565  26.232  28.981  1.00  0.00     0.031 C 
ATOM     41  C   UNL A   1      43.766  24.907  26.541  1.00  0.00     0.029 A 
ATOM     42  N   UNL A   1      43.667  26.978  27.377  1.00  0.00    -0.354 N 
ATOM     43  C   UNL A   1      40.129  28.417  29.364  1.00  0.00     0.074 A 
ATOM     44  C   UNL A   1      39.106  27.395  29.423  1.00  0.00     0.031 C 
ATOM     45  C   UNL A   1      44.900  25.535  26.193  1.00  0.00     0.029 A 
ATOM     46  C   UNL A   1      44.864  26.902  26.702  1.00  0.00     0.049 A 
ATOM     47  H   UNL A   1      43.368  27.785  27.854  1.00  0.00     0.167 HD
ATOM     48  C   UNL A   1      39.980  29.672  29.852  1.00  0.00     0.034 A 
ATOM     49  C   UNL A   1      45.824  27.827  26.510  1.00  0.00     0.034 A 
ATOM     50  C   UNL A   1      41.016  30.669  29.850  1.00  0.00     0.049 A 
ATOM     51  C   UNL A   1      45.662  29.193  27.123  1.00  0.00     0.074 A 
ATOM     52  C   UNL A   1      40.996  31.931  30.416  1.00  0.00     0.029 A 
ATOM     53  N   UNL A   1      42.259  30.518  29.254  1.00  0.00    -0.354 N 
ATOM     54  N   UNL A   1      44.671  29.660  27.842  1.00  0.00    -0.248 NA
ATOM     55  C   UNL A   1      46.765  30.145  26.928  1.00  0.00     0.031 C 
ATOM     56  C   UNL A   1      42.226  32.547  30.156  1.00  0.00     0.029 A 
ATOM     57  C   UNL A   1      43.014  31.666  29.435  1.00  0.00     0.049 A 
ATOM     58  H   UNL A   1      42.560  29.715  28.772  1.00  0.00     0.167 HD
ATOM     59  C   UNL A   1      45.044  30.946  28.213  1.00  0.00     0.074 A 
ATOM     60  C   UNL A   1      46.361  31.177  27.657  1.00  0.00     0.031 C 
ATOM     61  C   UNL A   1      44.348  31.862  28.931  1.00  0.00     0.034 A 
BRANCH  48  62
ATOM     62  C   UNL A   1      38.665  30.016  30.500  1.00  0.00     0.023 A 
ATOM     63  C   UNL A   1      38.410  29.576  31.815  1.00  0.00     0.012 A 
ATOM     64  C   UNL A   1      37.709  30.812  29.840  1.00  0.00     0.148 A 
ATOM     65  C   UNL A   1      37.212  29.893  32.451  1.00  0.00     0.002 A 
ATOM     66  C   UNL A   1      36.532  31.158  30.497  1.00  0.00     0.091 A 
ATOM     67  F   UNL A   1      37.958  31.204  28.583  1.00  0.00    -0.205 F 
ATOM     68  C   UNL A   1      36.278  30.691  31.797  1.00  0.00     0.022 A 
BRANCH  66  69
ATOM     69  S   UNL A   1      35.302  32.242  29.763  1.00  0.00     0.127 S 
ATOM     70  O   UNL A   1      36.121  33.374  29.338  1.00  0.00    -0.237 OA
ATOM     71  O   UNL A   1      34.779  31.424  28.669  1.00  0.00    -0.237 OA
ATOM     72  O   UNL A   1      34.339  32.522  30.820  1.00  0.00    -0.744 OA
ENDBRANCH  66  69
ENDBRANCH  48  62
BRANCH  49  73
ATOM     73  C   UNL A   1      47.068  27.464  25.774  1.00  0.00     0.023 A 
ATOM     74  C   UNL A   1      48.103  26.804  26.462  1.00  0.00     0.012 A 
ATOM     75  C   UNL A   1      47.220  27.732  24.399  1.00  0.00     0.148 A 
ATOM     76  C   UNL A   1      49.278  26.440  25.805  1.00  0.00     0.002 A 
ATOM     77  C   UNL A   1      48.371  27.320  23.737  1.00  0.00     0.091 A 
ATOM     78  F   UNL A   1      46.230  28.374  23.763  1.00  0.00    -0.205 F 
ATOM     79  C   UNL A   1      49.408  26.687  24.441  1.00  0.00     0.022 A 
BRANCH  77  80
ATOM     80  S   UNL A   1      48.562  27.479  21.957  1.00  0.00     0.127 S 
ATOM     81  O   UNL A   1      47.328  28.166  21.586  1.00  0.00    -0.237 OA
ATOM     82  O   UNL A   1      49.775  28.291  21.851  1.00  0.00    -0.237 OA
ATOM     83  O   UNL A   1      48.710  26.118  21.460  1.00  0.00    -0.744 OA
ENDBRANCH  77  80
ENDBRANCH  49  73
BRANCH  61  84
ATOM     84  C   UNL A   1      45.000  33.195  29.185  1.00  0.00     0.023 A 
ATOM     85  C   UNL A   1      45.802  33.370  30.330  1.00  0.00     0.012 A 
ATOM     86  C   UNL A   1      44.885  34.245  28.253  1.00  0.00     0.148 A 
ATOM     87  C   UNL A   1      46.459  34.578  30.556  1.00  0.00     0.002 A 
ATOM     88  C   UNL A   1      45.578  35.431  28.463  1.00  0.00     0.091 A 
ATOM     89  F   UNL A   1      44.099  34.067  27.180  1.00  0.00    -0.205 F 
ATOM     90  C   UNL A   1      46.359  35.604  29.618  1.00  0.00     0.022 A 
BRANCH  88  91
ATOM     91  S   UNL A   1      45.575  36.768  27.263  1.00  0.00     0.127 S 
ATOM     92  O   UNL A   1      44.146  37.029  27.109  1.00  0.00    -0.237 OA
ATOM     93  O   UNL A   1      46.315  37.821  27.961  1.00  0.00    -0.237 OA
ATOM     94  O   UNL A   1      46.251  36.244  26.083  1.00  0.00    -0.744 OA
ENDBRANCH  88  91
ENDBRANCH  61  84
ENDBRANCH  35  36
ENDBRANCH  27  30
ENDBRANCH  25  26
ENDBRANCH   1  25
TORSDOF 16
ENDMDL
MODEL 2
REMARK VINA RESULT:     -12.2      1.634      7.685
REMARK SMILES CC(C)c1nc(N2C[C@H](C)OC(C)(C)C2)sc1C(=O)NCCCCNC(=O)c1ccc(-c2c3nc(c(-c4cccc(S(=O)(=O)[O-])c4F)c4ccc([nH]4)c(-c4cccc(S(=O)(=O)[O-])c4F)c4nc(c(-c5cccc(S(=O)(=O)[O-])c5F)c5ccc2[nH]5)C=C4)C=C3)cc1
REMARK SMILES IDX 23 1 22 2 21 3 20 4 18 5 19 6 17 8 4 9 5 10 6 11 16 12 2 13
REMARK SMILES IDX 1 14 3 15 7 16 8 17 15 18 9 19 12 20 11 21 10 22 13 23 14 24
REMARK SMILES IDX 24 25 25 26 26 27 27 29 28 30 29 31 90 32 30 33 89 34 31 35
REMARK SMILES IDX 32 36 33 37 83 38 34 39 88 40 82 41 84 42 35 43 87 44 81 45
REMARK SMILES IDX 80 46 36 48 68 49 48 50 67 51 49 52 52 53 66 54 85 55 50 56
REMARK SMILES IDX 51 57 65 59 86 60 53 61 37 62 38 63 46 64 39 65 41 66 47 67
REMARK SMILES IDX 40 68 42 69 43 70 44 71 45 72 69 73 70 74 78 75 71 76 73 77
REMARK SMILES IDX 79 78 72 79 74 80 75 81 76 82 77 83 54 84 55 85 63 86 56 87
REMARK SMILES IDX 58 88 64 89 57 90 59 91 60 92 61 93 62 94
REMARK H PARENT 20 7 25 28 84 47 52 58
REMARK Flexibility Score: inf
ROOT
ATOM      1  C   UNL A   1      37.911  20.280  24.730  1.00  0.00     0.023 C 
ENDROOT
BRANCH   1   2
ATOM      2  C   UNL A   1      36.523  20.881  24.970  1.00  0.00     0.023 C 
BRANCH   2   3
ATOM      3  C   UNL A   1      36.449  21.998  26.006  1.00  0.00     0.116 C 
BRANCH   3   4
ATOM      4  N   UNL A   1      35.385  21.854  26.967  1.00  0.00    -0.351 N 
ATOM      5  C   UNL A   1      34.092  22.319  26.932  1.00  0.00     0.263 C 
ATOM      6  O   UNL A   1      33.407  22.056  27.925  1.00  0.00    -0.268 OA
ATOM      7  H   UNL A   1      35.621  21.341  27.775  1.00  0.00     0.163 HD
BRANCH   5   8
ATOM      8  C   UNL A   1      33.579  23.106  25.823  1.00  0.00     0.117 A 
ATOM      9  C   UNL A   1      33.046  22.818  24.571  1.00  0.00     0.069 A 
ATOM     10  N   UNL A   1      32.556  23.936  23.895  1.00  0.00    -0.224 NA
ATOM     11  C   UNL A   1      32.731  25.050  24.566  1.00  0.00     0.186 A 
ATOM     12  S   UNL A   1      33.496  24.810  26.086  1.00  0.00    -0.091 S 
BRANCH   9  13
ATOM     13  C   UNL A   1      32.906  21.493  23.854  1.00  0.00     0.034 C 
ATOM     14  C   UNL A   1      32.264  20.409  24.720  1.00  0.00     0.014 C 
ATOM     15  C   UNL A   1      32.148  21.598  22.523  1.00  0.00     0.014 C 
ENDBRANCH   9  13
BRANCH  11  16
ATOM     16  N   UNL A   1      32.318  26.261  24.112  1.00  0.00    -0.343 N 
ATOM     17  C   UNL A   1      31.130  26.468  23.292  1.00  0.00     0.150 C 
ATOM     18  C   UNL A   1      32.967  27.491  24.571  1.00  0.00     0.153 C 
ATOM     19  C   UNL A   1      30.140  27.359  24.071  1.00  0.00     0.135 C 
ATOM     20  C   UNL A   1      31.948  28.447  25.248  1.00  0.00     0.081 C 
ATOM     21  O   UNL A   1      30.750  28.608  24.450  1.00  0.00    -0.369 OA
ATOM     22  C   UNL A   1      28.920  27.689  23.222  1.00  0.00     0.040 C 
ATOM     23  C   UNL A   1      31.591  27.983  26.667  1.00  0.00     0.044 C 
ATOM     24  C   UNL A   1      32.566  29.852  25.336  1.00  0.00     0.044 C 
ENDBRANCH  11  16
ENDBRANCH   5   8
ENDBRANCH   3   4
ENDBRANCH   2   3
ENDBRANCH   1   2
BRANCH   1  25
ATOM     25  C   UNL A   1      38.967  20.524  25.808  1.00  0.00     0.116 C 
BRANCH  25  26
ATOM     26  N   UNL A   1      39.983  19.484  25.889  1.00  0.00    -0.352 N 
ATOM     27  C   UNL A   1      41.329  19.568  26.162  1.00  0.00     0.251 C 
ATOM     28  H   UNL A   1      39.654  18.571  25.722  1.00  0.00     0.163 HD
ATOM     29  O   UNL A   1      42.021  18.551  26.115  1.00  0.00    -0.269 OA
BRANCH  27  30
ATOM     30  C   UNL A   1      41.959  20.873  26.461  1.00  0.00     0.039 A 
ATOM     31  C   UNL A   1      42.268  21.728  25.398  1.00  0.00     0.014 A 
ATOM     32  C   UNL A   1      42.219  21.271  27.772  1.00  0.00     0.014 A 
ATOM     33  C   UNL A   1      42.730  23.021  25.657  1.00  0.00     0.010 A 
ATOM     34  C   UNL A   1      42.602  22.586  28.032  1.00  0.00     0.010 A 
ATOM     35  C   UNL A   1      42.843  23.482  26.979  1.00  0.00    -0.014 A 
BRANCH  35  36
ATOM     36  C   UNL A   1      43.147  24.907  27.283  1.00  0.00     0.031 A 
ATOM     37  C   UNL A   1      44.544  25.445  27.134  1.00  0.00     0.074 A 
ATOM     38  C   UNL A   1      42.182  25.690  27.809  1.00  0.00     0.049 A 
ATOM     39  N   UNL A   1      45.006  26.632  27.433  1.00  0.00    -0.248 NA
ATOM     40  C   UNL A   1      45.562  24.520  26.609  1.00  0.00     0.031 C 
ATOM     41  C   UNL A   1      40.808  25.267  28.095  1.00  0.00     0.029 A 
ATOM     42  N   UNL A   1      42.215  26.999  28.228  1.00  0.00    -0.354 N 
ATOM     43  C   UNL A   1      46.370  26.585  27.177  1.00  0.00     0.074 A 
ATOM     44  C   UNL A   1      46.667  25.243  26.723  1.00  0.00     0.031 C 
ATOM     45  C   UNL A   1      40.133  26.292  28.636  1.00  0.00     0.029 A 
ATOM     46  C   UNL A   1      41.026  27.439  28.762  1.00  0.00     0.049 A 
ATOM     47  H   UNL A   1      43.016  27.567  28.153  1.00  0.00     0.167 HD
ATOM     48  C   UNL A   1      47.289  27.576  27.278  1.00  0.00     0.034 A 
ATOM     49  C   UNL A   1      40.690  28.630  29.296  1.00  0.00     0.034 A 
ATOM     50  C   UNL A   1      46.984  28.926  27.668  1.00  0.00     0.049 A 
ATOM     51  C   UNL A   1      41.713  29.734  29.331  1.00  0.00     0.074 A 
ATOM     52  C   UNL A   1      47.825  30.024  27.696  1.00  0.00     0.029 A 
ATOM     53  N   UNL A   1      45.741  29.364  28.096  1.00  0.00    -0.354 N 
ATOM     54  N   UNL A   1      42.956  29.717  28.917  1.00  0.00    -0.248 NA
ATOM     55  C   UNL A   1      41.277  31.028  29.874  1.00  0.00     0.031 C 
ATOM     56  C   UNL A   1      47.092  31.126  28.149  1.00  0.00     0.029 A 
ATOM     57  C   UNL A   1      45.792  30.716  28.395  1.00  0.00     0.049 A 
ATOM     58  H   UNL A   1      44.939  28.798  28.178  1.00  0.00     0.167 HD
ATOM     59  C   UNL A   1      43.441  31.005  29.118  1.00  0.00     0.074 A 
ATOM     60  C   UNL A   1      42.350  31.781  29.671  1.00  0.00     0.031 C 
ATOM     61  C   UNL A   1      44.684  31.493  28.886  1.00  0.00     0.034 A 
BRANCH  48  62
ATOM     62  C   UNL A   1      48.707  27.253  26.887  1.00  0.00     0.023 A 
ATOM     63  C   UNL A   1      49.548  26.610  27.817  1.00  0.00     0.012 A 
ATOM     64  C   UNL A   1      49.192  27.530  25.594  1.00  0.00     0.148 A 
ATOM     65  C   UNL A   1      50.859  26.278  27.481  1.00  0.00     0.002 A 
ATOM     66  C   UNL A   1      50.489  27.160  25.253  1.00  0.00     0.091 A 
ATOM     67  F   UNL A   1      48.386  28.162  24.728  1.00  0.00    -0.205 F 
ATOM     68  C   UNL A   1      51.326  26.544  26.198  1.00  0.00     0.022 A 
BRANCH  66  69
ATOM     69  S   UNL A   1      51.156  27.396  23.601  1.00  0.00     0.127 S 
ATOM     70  O   UNL A   1      51.253  28.851  23.527  1.00  0.00    -0.237 OA
ATOM     71  O   UNL A   1      52.442  26.702  23.683  1.00  0.00    -0.237 OA
ATOM     72  O   UNL A   1      50.196  26.781  22.694  1.00  0.00    -0.744 OA
ENDBRANCH  66  69
ENDBRANCH  48  62
BRANCH  49  73
ATOM     73  C   UNL A   1      39.294  28.868  29.761  1.00  0.00     0.023 A 
ATOM     74  C   UNL A   1      38.954  28.558  31.091  1.00  0.00     0.012 A 
ATOM     75  C   UNL A   1      38.318  29.430  28.915  1.00  0.00     0.148 A 
ATOM     76  C   UNL A   1      37.660  28.776  31.565  1.00  0.00     0.002 A 
ATOM     77  C   UNL A   1      37.045  29.693  29.408  1.00  0.00     0.091 A 
ATOM     78  F   UNL A   1      38.657  29.705  27.647  1.00  0.00    -0.205 F 
ATOM     79  C   UNL A   1      36.709  29.353  30.728  1.00  0.00     0.022 A 
BRANCH  77  80
ATOM     80  S   UNL A   1      35.802  30.556  28.439  1.00  0.00     0.127 S 
ATOM     81  O   UNL A   1      34.925  31.085  29.480  1.00  0.00    -0.237 OA
ATOM     82  O   UNL A   1      36.604  31.562  27.740  1.00  0.00    -0.237 OA
ATOM     83  O   UNL A   1      35.220  29.546  27.565  1.00  0.00    -0.744 OA
ENDBRANCH  77  80
ENDBRANCH  49  73
BRANCH  61  84
ATOM     84  C   UNL A   1      44.936  32.943  29.203  1.00  0.00     0.023 A 
ATOM     85  C   UNL A   1      45.428  33.301  30.474  1.00  0.00     0.012 A 
ATOM     86  C   UNL A   1      44.765  33.939  28.221  1.00  0.00     0.148 A 
ATOM     87  C   UNL A   1      45.720  34.631  30.771  1.00  0.00     0.002 A 
ATOM     88  C   UNL A   1      45.099  35.257  28.511  1.00  0.00     0.091 A 
ATOM     89  F   UNL A   1      44.274  33.582  27.025  1.00  0.00    -0.205 F 
ATOM     90  C   UNL A   1      45.569  35.607  29.787  1.00  0.00     0.022 A 
BRANCH  88  91
ATOM     91  S   UNL A   1      45.019  36.559  27.276  1.00  0.00     0.127 S 
ATOM     92  O   UNL A   1      45.931  36.057  26.251  1.00  0.00    -0.237 OA
ATOM     93  O   UNL A   1      43.605  36.544  26.894  1.00  0.00    -0.237 OA
ATOM     94  O   UNL A   1      45.443  37.777  27.955  1.00  0.00    -0.744 OA
ENDBRANCH  88  91
ENDBRANCH  61  84
ENDBRANCH  35  36
ENDBRANCH  27  30
ENDBRANCH  25  26
ENDBRANCH   1  25
TORSDOF 16
ENDMDL
MODEL 3
REMARK VINA RESULT:     -12.2      1.592      7.628
REMARK SMILES CC(C)c1nc(N2C[C@H](C)OC(C)(C)C2)sc1C(=O)NCCCCNC(=O)c1ccc(-c2c3nc(c(-c4cccc(S(=O)(=O)[O-])c4F)c4ccc([nH]4)c(-c4cccc(S(=O)(=O)[O-])c4F)c4nc(c(-c5cccc(S(=O)(=O)[O-])c5F)c5ccc2[nH]5)C=C4)C=C3)cc1
REMARK SMILES IDX 23 1 22 2 21 3 20 4 18 5 19 6 17 8 4 9 5 10 6 11 16 12 2 13
REMARK SMILES IDX 1 14 3 15 7 16 8 17 15 18 9 19 12 20 11 21 10 22 13 23 14 24
REMARK SMILES IDX 24 25 25 26 26 27 27 29 28 30 29 31 90 32 30 33 89 34 31 35
REMARK SMILES IDX 32 36 33 37 83 38 34 39 88 40 82 41 84 42 35 43 87 44 81 45
REMARK SMILES IDX 80 46 36 48 68 49 48 50 67 51 49 52 52 53 66 54 85 55 50 56
REMARK SMILES IDX 51 57 65 59 86 60 53 61 37 62 38 63 46 64 39 65 41 66 47 67
REMARK SMILES IDX 40 68 42 69 43 70 44 71 45 72 69 73 70 74 78 75 71 76 73 77
REMARK SMILES IDX 79 78 72 79 74 80 75 81 76 82 77 83 54 84 55 85 63 86 56 87
REMARK SMILES IDX 58 88 64 89 57 90 59 91 60 92 61 93 62 94
REMARK H PARENT 20 7 25 28 84 47 52 58
REMARK Flexibility Score: inf
ROOT
ATOM      1  C   UNL A   1      36.475  21.785  24.127  1.00  0.00     0.023 C 
ENDROOT
BRANCH   1   2
ATOM      2  C   UNL A   1      36.438  23.260  23.721  1.00  0.00     0.023 C 
BRANCH   2   3
ATOM      3  C   UNL A   1      35.060  23.834  23.412  1.00  0.00     0.116 C 
BRANCH   3   4
ATOM      4  N   UNL A   1      34.109  22.873  22.912  1.00  0.00    -0.351 N 
ATOM      5  C   UNL A   1      32.749  22.793  23.103  1.00  0.00     0.263 C 
ATOM      6  O   UNL A   1      32.195  21.832  22.561  1.00  0.00    -0.268 OA
ATOM      7  H   UNL A   1      34.491  22.165  22.345  1.00  0.00     0.163 HD
BRANCH   5   8
ATOM      8  C   UNL A   1      32.022  23.746  23.924  1.00  0.00     0.117 A 
ATOM      9  C   UNL A   1      31.490  23.739  25.210  1.00  0.00     0.069 A 
ATOM     10  N   UNL A   1      30.982  24.974  25.616  1.00  0.00    -0.224 NA
ATOM     11  C   UNL A   1      31.074  25.891  24.683  1.00  0.00     0.186 A 
ATOM     12  S   UNL A   1      31.806  25.316  23.240  1.00  0.00    -0.091 S 
BRANCH   9  13
ATOM     13  C   UNL A   1      31.401  22.616  26.219  1.00  0.00     0.034 C 
ATOM     14  C   UNL A   1      32.570  22.602  27.203  1.00  0.00     0.014 C 
ATOM     15  C   UNL A   1      30.078  22.604  26.998  1.00  0.00     0.014 C 
ENDBRANCH   9  13
BRANCH  11  16
ATOM     16  N   UNL A   1      30.658  27.172  24.861  1.00  0.00    -0.343 N 
ATOM     17  C   UNL A   1      31.055  28.015  25.983  1.00  0.00     0.150 C 
ATOM     18  C   UNL A   1      29.896  27.860  23.817  1.00  0.00     0.153 C 
ATOM     19  C   UNL A   1      31.835  29.230  25.437  1.00  0.00     0.135 C 
ATOM     20  C   UNL A   1      30.619  29.152  23.350  1.00  0.00     0.081 C 
ATOM     21  O   UNL A   1      31.054  29.960  24.471  1.00  0.00    -0.369 OA
ATOM     22  C   UNL A   1      32.191  30.197  26.557  1.00  0.00     0.040 C 
ATOM     23  C   UNL A   1      31.802  28.837  22.424  1.00  0.00     0.044 C 
ATOM     24  C   UNL A   1      29.621  30.032  22.582  1.00  0.00     0.044 C 
ENDBRANCH  11  16
ENDBRANCH   5   8
ENDBRANCH   3   4
ENDBRANCH   2   3
ENDBRANCH   1   2
BRANCH   1  25
ATOM     25  C   UNL A   1      36.897  21.473  25.563  1.00  0.00     0.116 C 
BRANCH  25  26
ATOM     26  N   UNL A   1      38.063  20.605  25.664  1.00  0.00    -0.352 N 
ATOM     27  C   UNL A   1      39.336  20.867  26.116  1.00  0.00     0.251 C 
ATOM     28  H   UNL A   1      37.916  19.680  25.360  1.00  0.00     0.163 HD
ATOM     29  O   UNL A   1      40.194  19.987  26.051  1.00  0.00    -0.269 OA
BRANCH  27  30
ATOM     30  C   UNL A   1      39.694  22.208  26.630  1.00  0.00     0.039 A 
ATOM     31  C   UNL A   1      40.685  22.307  27.611  1.00  0.00     0.014 A 
ATOM     32  C   UNL A   1      39.084  23.362  26.137  1.00  0.00     0.014 A 
ATOM     33  C   UNL A   1      41.144  23.565  28.012  1.00  0.00     0.010 A 
ATOM     34  C   UNL A   1      39.597  24.612  26.478  1.00  0.00     0.010 A 
ATOM     35  C   UNL A   1      40.645  24.728  27.404  1.00  0.00    -0.014 A 
BRANCH  35  36
ATOM     36  C   UNL A   1      41.245  26.064  27.670  1.00  0.00     0.031 A 
ATOM     37  C   UNL A   1      42.655  26.372  27.249  1.00  0.00     0.074 A 
ATOM     38  C   UNL A   1      40.555  26.963  28.402  1.00  0.00     0.049 A 
ATOM     39  N   UNL A   1      43.366  27.448  27.473  1.00  0.00    -0.248 NA
ATOM     40  C   UNL A   1      43.373  25.324  26.505  1.00  0.00     0.031 C 
ATOM     41  C   UNL A   1      39.214  26.756  28.955  1.00  0.00     0.029 A 
ATOM     42  N   UNL A   1      40.896  28.222  28.834  1.00  0.00    -0.354 N 
ATOM     43  C   UNL A   1      44.623  27.192  26.940  1.00  0.00     0.074 A 
ATOM     44  C   UNL A   1      44.587  25.848  26.404  1.00  0.00     0.031 C 
ATOM     45  C   UNL A   1      38.847  27.845  29.647  1.00  0.00     0.029 A 
ATOM     46  C   UNL A   1      39.932  28.821  29.612  1.00  0.00     0.049 A 
ATOM     47  H   UNL A   1      41.751  28.654  28.608  1.00  0.00     0.167 HD
ATOM     48  C   UNL A   1      45.700  28.011  26.871  1.00  0.00     0.034 A 
ATOM     49  C   UNL A   1      39.920  30.018  30.230  1.00  0.00     0.034 A 
ATOM     50  C   UNL A   1      45.717  29.367  27.346  1.00  0.00     0.049 A 
ATOM     51  C   UNL A   1      41.105  30.935  30.079  1.00  0.00     0.074 A 
ATOM     52  C   UNL A   1      46.724  30.308  27.225  1.00  0.00     0.029 A 
ATOM     53  N   UNL A   1      44.679  29.979  28.032  1.00  0.00    -0.354 N 
ATOM     54  N   UNL A   1      42.218  30.738  29.417  1.00  0.00    -0.248 NA
ATOM     55  C   UNL A   1      41.015  32.250  30.728  1.00  0.00     0.031 C 
ATOM     56  C   UNL A   1      46.298  31.488  27.845  1.00  0.00     0.029 A 
ATOM     57  C   UNL A   1      45.022  31.284  28.344  1.00  0.00     0.049 A 
ATOM     58  H   UNL A   1      43.825  29.549  28.264  1.00  0.00     0.167 HD
ATOM     59  C   UNL A   1      42.948  31.914  29.543  1.00  0.00     0.074 A 
ATOM     60  C   UNL A   1      42.140  32.826  30.325  1.00  0.00     0.031 C 
ATOM     61  C   UNL A   1      44.185  32.204  29.070  1.00  0.00     0.034 A 
BRANCH  48  62
ATOM     62  C   UNL A   1      46.934  27.481  26.189  1.00  0.00     0.023 A 
ATOM     63  C   UNL A   1      47.133  27.751  24.820  1.00  0.00     0.012 A 
ATOM     64  C   UNL A   1      47.918  26.770  26.903  1.00  0.00     0.148 A 
ATOM     65  C   UNL A   1      48.273  27.293  24.163  1.00  0.00     0.002 A 
ATOM     66  C   UNL A   1      49.072  26.351  26.249  1.00  0.00     0.091 A 
ATOM     67  F   UNL A   1      47.703  26.503  28.199  1.00  0.00    -0.205 F 
ATOM     68  C   UNL A   1      49.246  26.602  24.879  1.00  0.00     0.022 A 
BRANCH  66  69
ATOM     69  S   UNL A   1      50.416  25.518  27.104  1.00  0.00     0.127 S 
ATOM     70  O   UNL A   1      51.374  25.314  26.020  1.00  0.00    -0.237 OA
ATOM     71  O   UNL A   1      50.821  26.516  28.095  1.00  0.00    -0.237 OA
ATOM     72  O   UNL A   1      49.836  24.307  27.670  1.00  0.00    -0.744 OA
ENDBRANCH  66  69
ENDBRANCH  48  62
BRANCH  49  73
ATOM     73  C   UNL A   1      38.707  30.456  30.978  1.00  0.00     0.023 A 
ATOM     74  C   UNL A   1      38.635  30.217  32.363  1.00  0.00     0.012 A 
ATOM     75  C   UNL A   1      37.649  31.134  30.342  1.00  0.00     0.148 A 
ATOM     76  C   UNL A   1      37.520  30.620  33.099  1.00  0.00     0.002 A 
ATOM     77  C   UNL A   1      36.565  31.580  31.089  1.00  0.00     0.091 A 
ATOM     78  F   UNL A   1      37.730  31.340  29.019  1.00  0.00    -0.205 F 
ATOM     79  C   UNL A   1      36.491  31.311  32.465  1.00  0.00     0.022 A 
BRANCH  77  80
ATOM     80  S   UNL A   1      35.263  32.593  30.377  1.00  0.00     0.127 S 
ATOM     81  O   UNL A   1      35.997  33.795  29.992  1.00  0.00    -0.237 OA
ATOM     82  O   UNL A   1      34.808  31.765  29.259  1.00  0.00    -0.237 OA
ATOM     83  O   UNL A   1      34.276  32.757  31.436  1.00  0.00    -0.744 OA
ENDBRANCH  77  80
ENDBRANCH  49  73
BRANCH  61  84
ATOM     84  C   UNL A   1      44.742  33.572  29.361  1.00  0.00     0.023 A 
ATOM     85  C   UNL A   1      45.428  33.801  30.571  1.00  0.00     0.012 A 
ATOM     86  C   UNL A   1      44.659  34.605  28.407  1.00  0.00     0.148 A 
ATOM     87  C   UNL A   1      45.999  35.044  30.837  1.00  0.00     0.002 A 
ATOM     88  C   UNL A   1      45.268  35.829  28.661  1.00  0.00     0.091 A 
ATOM     89  F   UNL A   1      43.983  34.376  27.271  1.00  0.00    -0.205 F 
ATOM     90  C   UNL A   1      45.931  36.053  29.879  1.00  0.00     0.022 A 
BRANCH  88  91
ATOM     91  S   UNL A   1      45.305  37.151  27.445  1.00  0.00     0.127 S 
ATOM     92  O   UNL A   1      43.881  37.396  27.226  1.00  0.00    -0.237 OA
ATOM     93  O   UNL A   1      46.003  38.219  28.163  1.00  0.00    -0.237 OA
ATOM     94  O   UNL A   1      46.037  36.620  26.303  1.00  0.00    -0.744 OA
ENDBRANCH  88  91
ENDBRANCH  61  84
ENDBRANCH  35  36
ENDBRANCH  27  30
ENDBRANCH  25  26
ENDBRANCH   1  25
TORSDOF 16
ENDMDL
