MODEL 1
REMARK VINA RESULT:     -11.9      0.000      0.000
REMARK SMILES CC[C@@H]1CCCN(S(=O)(=O)c2cc(C(=O)NCCCCNC(=O)c3ccc(-c4c5nc(c(-c6cccc(S(=O)(=O)[O-])c6F)c6ccc([nH]6)c(-c6cccc(S(=O)(=O)[O-])c6F)c6nc(c(-c7cccc(S(=O)(=O)[O-])c7F)c7ccc4[nH]7)C=C6)C=C5)cc3)ccc2F)C1
REMARK SMILES IDX 18 1 17 2 16 3 14 4 15 5 13 7 11 8 12 9 89 10 88 11 90 12
REMARK SMILES IDX 87 13 8 14 9 15 10 16 7 17 3 18 4 19 91 20 5 21 6 22 2 23
REMARK SMILES IDX 1 24 19 25 20 26 21 27 22 28 23 30 24 31 25 32 86 33 26 34
REMARK SMILES IDX 85 35 27 36 28 37 29 38 79 39 30 40 84 41 78 42 80 43 31 44
REMARK SMILES IDX 83 45 77 46 76 47 32 49 64 50 44 51 63 52 45 53 48 54 62 55
REMARK SMILES IDX 81 56 46 57 47 58 61 60 82 61 49 62 33 63 34 64 42 65 35 66
REMARK SMILES IDX 37 67 43 68 36 69 38 70 39 71 40 72 41 73 65 74 66 75 74 76
REMARK SMILES IDX 67 77 69 78 75 79 68 80 70 81 71 82 72 83 73 84 50 85 51 86
REMARK SMILES IDX 59 87 52 88 54 89 60 90 53 91 55 92 56 93 57 94 58 95
REMARK H PARENT 16 6 21 29 80 48 48 59
REMARK Flexibility Score: inf
ROOT
ATOM      1  C   UNL A   1      35.530  21.411  26.027  1.00  0.00     0.023 C 
ENDROOT
BRANCH   1   2
ATOM      2  C   UNL A   1      35.428  20.281  25.000  1.00  0.00     0.116 C 
BRANCH   2   3
ATOM      3  N   UNL A   1      34.267  19.450  25.243  1.00  0.00    -0.352 N 
ATOM      4  C   UNL A   1      32.926  19.636  25.036  1.00  0.00     0.251 C 
ATOM      5  O   UNL A   1      32.187  18.679  25.274  1.00  0.00    -0.269 OA
ATOM      6  H   UNL A   1      34.486  18.575  25.637  1.00  0.00     0.163 HD
BRANCH   4   7
ATOM      7  C   UNL A   1      32.305  20.905  24.541  1.00  0.00     0.041 A 
ATOM      8  C   UNL A   1      31.425  23.107  25.148  1.00  0.00     0.119 A 
ATOM      9  C   UNL A   1      31.929  21.849  25.517  1.00  0.00     0.038 A 
ATOM     10  C   UNL A   1      31.308  23.435  23.807  1.00  0.00     0.143 A 
ATOM     11  C   UNL A   1      31.638  22.507  22.831  1.00  0.00     0.041 A 
ATOM     12  F   UNL A   1      30.866  24.634  23.408  1.00  0.00    -0.206 F 
ATOM     13  C   UNL A   1      32.153  21.258  23.196  1.00  0.00     0.017 A 
BRANCH   8  14
ATOM     14  S   UNL A   1      31.095  24.324  26.379  1.00  0.00     0.246 S 
ATOM     15  O   UNL A   1      31.712  23.912  27.626  1.00  0.00    -0.207 OA
ATOM     16  O   UNL A   1      29.677  24.605  26.336  1.00  0.00    -0.207 OA
BRANCH  14  17
ATOM     17  N   UNL A   1      31.909  25.744  25.832  1.00  0.00    -0.197 NA
ATOM     18  C   UNL A   1      31.777  28.227  25.645  1.00  0.00     0.004 C 
ATOM     19  C   UNL A   1      33.297  28.316  25.815  1.00  0.00     0.006 C 
ATOM     20  C   UNL A   1      31.230  26.974  26.336  1.00  0.00     0.106 C 
ATOM     21  C   UNL A   1      34.028  27.015  25.505  1.00  0.00     0.017 C 
ATOM     22  C   UNL A   1      33.370  25.787  26.126  1.00  0.00     0.102 C 
BRANCH  18  23
ATOM     23  C   UNL A   1      31.260  28.403  24.200  1.00  0.00     0.001 C 
ATOM     24  C   UNL A   1      29.889  27.844  23.853  1.00  0.00     0.004 C 
ENDBRANCH  18  23
ENDBRANCH  14  17
ENDBRANCH   8  14
ENDBRANCH   4   7
ENDBRANCH   2   3
ENDBRANCH   1   2
BRANCH   1  25
ATOM     25  C   UNL A   1      35.672  22.813  25.426  1.00  0.00     0.023 C 
BRANCH  25  26
ATOM     26  C   UNL A   1      37.101  23.337  25.333  1.00  0.00     0.116 C 
BRANCH  26  27
ATOM     27  N   UNL A   1      38.095  22.406  25.847  1.00  0.00    -0.352 N 
ATOM     28  C   UNL A   1      39.233  22.687  26.564  1.00  0.00     0.251 C 
ATOM     29  H   UNL A   1      37.933  21.454  25.655  1.00  0.00     0.163 HD
ATOM     30  O   UNL A   1      40.025  21.791  26.840  1.00  0.00    -0.269 OA
BRANCH  28  31
ATOM     31  C   UNL A   1      39.508  24.081  26.967  1.00  0.00     0.039 A 
ATOM     32  C   UNL A   1      39.298  24.453  28.297  1.00  0.00     0.014 A 
ATOM     33  C   UNL A   1      40.006  25.005  26.045  1.00  0.00     0.014 A 
ATOM     34  C   UNL A   1      39.640  25.740  28.714  1.00  0.00     0.010 A 
ATOM     35  C   UNL A   1      40.416  26.260  26.478  1.00  0.00     0.010 A 
ATOM     36  C   UNL A   1      40.230  26.645  27.814  1.00  0.00    -0.014 A 
BRANCH  36  37
ATOM     37  C   UNL A   1      40.653  27.998  28.254  1.00  0.00     0.031 A 
ATOM     38  C   UNL A   1      42.111  28.370  28.256  1.00  0.00     0.074 A 
ATOM     39  C   UNL A   1      39.733  28.866  28.717  1.00  0.00     0.049 A 
ATOM     40  N   UNL A   1      42.673  29.488  28.630  1.00  0.00    -0.248 NA
ATOM     41  C   UNL A   1      43.066  27.343  27.805  1.00  0.00     0.031 C 
ATOM     42  C   UNL A   1      38.300  28.592  28.842  1.00  0.00     0.029 A 
ATOM     43  N   UNL A   1      39.867  30.150  29.188  1.00  0.00    -0.354 N 
ATOM     44  C   UNL A   1      44.041  29.291  28.493  1.00  0.00     0.074 A 
ATOM     45  C   UNL A   1      44.230  27.932  28.039  1.00  0.00     0.031 C 
ATOM     46  C   UNL A   1      37.687  29.678  29.339  1.00  0.00     0.029 A 
ATOM     47  C   UNL A   1      38.681  30.715  29.595  1.00  0.00     0.049 A 
ATOM     48  H   UNL A   1      40.730  30.620  29.231  1.00  0.00     0.167 HD
ATOM     49  C   UNL A   1      45.047  30.174  28.689  1.00  0.00     0.034 A 
ATOM     50  C   UNL A   1      38.423  31.933  30.113  1.00  0.00     0.034 A 
ATOM     51  C   UNL A   1      44.848  31.542  29.081  1.00  0.00     0.049 A 
ATOM     52  C   UNL A   1      39.554  32.912  30.281  1.00  0.00     0.074 A 
ATOM     53  C   UNL A   1      45.794  32.543  29.205  1.00  0.00     0.029 A 
ATOM     54  N   UNL A   1      43.624  32.101  29.415  1.00  0.00    -0.354 N 
ATOM     55  N   UNL A   1      40.822  32.760  29.987  1.00  0.00    -0.248 NA
ATOM     56  C   UNL A   1      39.219  34.238  30.820  1.00  0.00     0.031 C 
ATOM     57  C   UNL A   1      45.146  33.703  29.636  1.00  0.00     0.029 A 
ATOM     58  C   UNL A   1      43.793  33.430  29.758  1.00  0.00     0.049 A 
ATOM     59  H   UNL A   1      42.764  31.623  29.408  1.00  0.00     0.167 HD
ATOM     60  C   UNL A   1      41.431  33.975  30.280  1.00  0.00     0.074 A 
ATOM     61  C   UNL A   1      40.388  34.861  30.755  1.00  0.00     0.031 C 
ATOM     62  C   UNL A   1      42.738  34.318  30.178  1.00  0.00     0.034 A 
BRANCH  49  63
ATOM     63  C   UNL A   1      46.455  29.718  28.412  1.00  0.00     0.023 A 
ATOM     64  C   UNL A   1      47.018  29.953  27.141  1.00  0.00     0.012 A 
ATOM     65  C   UNL A   1      47.248  29.150  29.426  1.00  0.00     0.148 A 
ATOM     66  C   UNL A   1      48.341  29.605  26.875  1.00  0.00     0.002 A 
ATOM     67  C   UNL A   1      48.580  28.848  29.168  1.00  0.00     0.091 A 
ATOM     68  F   UNL A   1      46.688  28.917  30.622  1.00  0.00    -0.205 F 
ATOM     69  C   UNL A   1      49.125  29.066  27.891  1.00  0.00     0.022 A 
BRANCH  67  70
ATOM     70  S   UNL A   1      49.699  28.228  30.429  1.00  0.00     0.127 S 
ATOM     71  O   UNL A   1      50.946  28.094  29.676  1.00  0.00    -0.237 OA
ATOM     72  O   UNL A   1      49.692  29.316  31.407  1.00  0.00    -0.237 OA
ATOM     73  O   UNL A   1      49.120  26.979  30.902  1.00  0.00    -0.744 OA
ENDBRANCH  67  70
ENDBRANCH  49  63
BRANCH  50  74
ATOM     74  C   UNL A   1      37.016  32.315  30.429  1.00  0.00     0.023 A 
ATOM     75  C   UNL A   1      36.543  32.166  31.747  1.00  0.00     0.012 A 
ATOM     76  C   UNL A   1      36.172  32.884  29.457  1.00  0.00     0.148 A 
ATOM     77  C   UNL A   1      35.248  32.560  32.087  1.00  0.00     0.002 A 
ATOM     78  C   UNL A   1      34.903  33.326  29.815  1.00  0.00     0.091 A 
ATOM     79  F   UNL A   1      36.638  33.009  28.207  1.00  0.00    -0.205 F 
ATOM     80  C   UNL A   1      34.433  33.151  31.126  1.00  0.00     0.022 A 
BRANCH  78  81
ATOM     81  S   UNL A   1      33.837  34.226  28.682  1.00  0.00     0.127 S 
ATOM     82  O   UNL A   1      32.738  34.623  29.558  1.00  0.00    -0.237 OA
ATOM     83  O   UNL A   1      34.710  35.319  28.254  1.00  0.00    -0.237 OA
ATOM     84  O   UNL A   1      33.496  33.282  27.627  1.00  0.00    -0.744 OA
ENDBRANCH  78  81
ENDBRANCH  50  74
BRANCH  62  85
ATOM     85  C   UNL A   1      43.144  35.714  30.572  1.00  0.00     0.023 A 
ATOM     86  C   UNL A   1      43.600  35.959  31.881  1.00  0.00     0.012 A 
ATOM     87  C   UNL A   1      43.217  36.739  29.608  1.00  0.00     0.148 A 
ATOM     88  C   UNL A   1      44.114  37.207  32.229  1.00  0.00     0.002 A 
ATOM     89  C   UNL A   1      43.776  37.964  29.948  1.00  0.00     0.091 A 
ATOM     90  F   UNL A   1      42.766  36.484  28.370  1.00  0.00    -0.205 F 
ATOM     91  C   UNL A   1      44.218  38.202  31.260  1.00  0.00     0.022 A 
BRANCH  89  92
ATOM     92  S   UNL A   1      44.052  39.270  28.746  1.00  0.00     0.127 S 
ATOM     93  O   UNL A   1      42.703  39.811  28.579  1.00  0.00    -0.237 OA
ATOM     94  O   UNL A   1      44.978  40.153  29.455  1.00  0.00    -0.237 OA
ATOM     95  O   UNL A   1      44.611  38.624  27.566  1.00  0.00    -0.744 OA
ENDBRANCH  89  92
ENDBRANCH  62  85
ENDBRANCH  36  37
ENDBRANCH  28  31
ENDBRANCH  26  27
ENDBRANCH  25  26
ENDBRANCH   1  25
TORSDOF 17
ENDMDL
MODEL 2
REMARK VINA RESULT:     -11.7      2.945      8.003
REMARK SMILES CC[C@@H]1CCCN(S(=O)(=O)c2cc(C(=O)NCCCCNC(=O)c3ccc(-c4c5nc(c(-c6cccc(S(=O)(=O)[O-])c6F)c6ccc([nH]6)c(-c6cccc(S(=O)(=O)[O-])c6F)c6nc(c(-c7cccc(S(=O)(=O)[O-])c7F)c7ccc4[nH]7)C=C6)C=C5)cc3)ccc2F)C1
REMARK SMILES IDX 18 1 17 2 16 3 14 4 15 5 13 7 11 8 12 9 89 10 88 11 90 12
REMARK SMILES IDX 87 13 8 14 9 15 10 16 7 17 3 18 4 19 91 20 5 21 6 22 2 23
REMARK SMILES IDX 1 24 19 25 20 26 21 27 22 28 23 30 24 31 25 32 86 33 26 34
REMARK SMILES IDX 85 35 27 36 28 37 29 38 79 39 30 40 84 41 78 42 80 43 31 44
REMARK SMILES IDX 83 45 77 46 76 47 32 49 64 50 44 51 63 52 45 53 48 54 62 55
REMARK SMILES IDX 81 56 46 57 47 58 61 60 82 61 49 62 33 63 34 64 42 65 35 66
REMARK SMILES IDX 37 67 43 68 36 69 38 70 39 71 40 72 41 73 65 74 66 75 74 76
REMARK SMILES IDX 67 77 69 78 75 79 68 80 70 81 71 82 72 83 73 84 50 85 51 86
REMARK SMILES IDX 59 87 52 88 54 89 60 90 53 91 55 92 56 93 57 94 58 95
REMARK H PARENT 16 6 21 29 80 48 48 59
REMARK Flexibility Score: inf
ROOT
ATOM      1  C   UNL A   1      34.323  21.466  26.997  1.00  0.00     0.023 C 
ENDROOT
BRANCH   1   2
ATOM      2  C   UNL A   1      33.797  22.885  27.225  1.00  0.00     0.116 C 
BRANCH   2   3
ATOM      3  N   UNL A   1      32.352  22.931  27.154  1.00  0.00    -0.352 N 
ATOM      4  C   UNL A   1      31.466  22.886  26.110  1.00  0.00     0.251 C 
ATOM      5  O   UNL A   1      30.268  22.858  26.395  1.00  0.00    -0.269 OA
ATOM      6  H   UNL A   1      31.917  23.011  28.034  1.00  0.00     0.163 HD
BRANCH   4   7
ATOM      7  C   UNL A   1      31.851  22.862  24.663  1.00  0.00     0.041 A 
ATOM      8  C   UNL A   1      32.380  24.197  22.680  1.00  0.00     0.119 A 
ATOM      9  C   UNL A   1      31.937  24.108  24.010  1.00  0.00     0.038 A 
ATOM     10  C   UNL A   1      32.753  23.049  22.002  1.00  0.00     0.143 A 
ATOM     11  C   UNL A   1      32.641  21.809  22.614  1.00  0.00     0.041 A 
ATOM     12  F   UNL A   1      33.215  23.088  20.745  1.00  0.00    -0.206 F 
ATOM     13  C   UNL A   1      32.213  21.720  23.942  1.00  0.00     0.017 A 
BRANCH   8  14
ATOM     14  S   UNL A   1      32.616  25.774  21.930  1.00  0.00     0.246 S 
ATOM     15  O   UNL A   1      31.940  25.791  20.647  1.00  0.00    -0.207 OA
ATOM     16  O   UNL A   1      34.027  26.078  22.005  1.00  0.00    -0.207 OA
BRANCH  14  17
ATOM     17  N   UNL A   1      31.803  26.888  22.969  1.00  0.00    -0.197 NA
ATOM     18  C   UNL A   1      32.102  28.776  24.570  1.00  0.00     0.004 C 
ATOM     19  C   UNL A   1      30.768  29.372  24.110  1.00  0.00     0.006 C 
ATOM     20  C   UNL A   1      32.737  27.948  23.448  1.00  0.00     0.106 C 
ATOM     21  C   UNL A   1      29.849  28.367  23.425  1.00  0.00     0.017 C 
ATOM     22  C   UNL A   1      30.564  27.491  22.400  1.00  0.00     0.102 C 
BRANCH  18  23
ATOM     23  C   UNL A   1      32.067  28.041  25.927  1.00  0.00     0.001 C 
ATOM     24  C   UNL A   1      33.383  27.803  26.651  1.00  0.00     0.004 C 
ENDBRANCH  18  23
ENDBRANCH  14  17
ENDBRANCH   8  14
ENDBRANCH   4   7
ENDBRANCH   2   3
ENDBRANCH   1   2
BRANCH   1  25
ATOM     25  C   UNL A   1      35.113  21.276  25.699  1.00  0.00     0.023 C 
BRANCH  25  26
ATOM     26  C   UNL A   1      36.550  21.785  25.734  1.00  0.00     0.116 C 
BRANCH  26  27
ATOM     27  N   UNL A   1      37.543  20.722  25.684  1.00  0.00    -0.352 N 
ATOM     28  C   UNL A   1      38.892  20.805  25.935  1.00  0.00     0.251 C 
ATOM     29  H   UNL A   1      37.207  19.831  25.436  1.00  0.00     0.163 HD
ATOM     30  O   UNL A   1      39.615  19.830  25.750  1.00  0.00    -0.269 OA
BRANCH  28  31
ATOM     31  C   UNL A   1      39.464  22.087  26.394  1.00  0.00     0.039 A 
ATOM     32  C   UNL A   1      40.546  22.065  27.277  1.00  0.00     0.014 A 
ATOM     33  C   UNL A   1      38.958  23.302  25.925  1.00  0.00     0.014 A 
ATOM     34  C   UNL A   1      41.157  23.264  27.647  1.00  0.00     0.010 A 
ATOM     35  C   UNL A   1      39.614  24.488  26.235  1.00  0.00     0.010 A 
ATOM     36  C   UNL A   1      40.714  24.483  27.106  1.00  0.00    -0.014 A 
BRANCH  36  37
ATOM     37  C   UNL A   1      41.387  25.762  27.443  1.00  0.00     0.031 A 
ATOM     38  C   UNL A   1      40.653  26.820  28.221  1.00  0.00     0.074 A 
ATOM     39  C   UNL A   1      42.633  26.000  26.989  1.00  0.00     0.049 A 
ATOM     40  N   UNL A   1      41.064  28.006  28.584  1.00  0.00    -0.248 NA
ATOM     41  C   UNL A   1      39.267  26.519  28.621  1.00  0.00     0.031 C 
ATOM     42  C   UNL A   1      43.417  25.086  26.155  1.00  0.00     0.029 A 
ATOM     43  N   UNL A   1      43.454  27.089  27.147  1.00  0.00    -0.354 N 
ATOM     44  C   UNL A   1      39.983  28.604  29.222  1.00  0.00     0.074 A 
ATOM     45  C   UNL A   1      38.885  27.666  29.164  1.00  0.00     0.031 C 
ATOM     46  C   UNL A   1      44.608  25.645  25.889  1.00  0.00     0.029 A 
ATOM     47  C   UNL A   1      44.666  26.965  26.508  1.00  0.00     0.049 A 
ATOM     48  H   UNL A   1      43.199  27.884  27.669  1.00  0.00     0.167 HD
ATOM     49  C   UNL A   1      39.924  29.807  29.837  1.00  0.00     0.034 A 
ATOM     50  C   UNL A   1      45.708  27.818  26.431  1.00  0.00     0.034 A 
ATOM     51  C   UNL A   1      41.039  30.708  29.946  1.00  0.00     0.049 A 
ATOM     52  C   UNL A   1      45.632  29.133  27.160  1.00  0.00     0.074 A 
ATOM     53  C   UNL A   1      41.108  31.903  30.637  1.00  0.00     0.029 A 
ATOM     54  N   UNL A   1      42.274  30.516  29.347  1.00  0.00    -0.354 N 
ATOM     55  N   UNL A   1      44.659  29.608  27.899  1.00  0.00    -0.248 NA
ATOM     56  C   UNL A   1      46.805  30.016  27.073  1.00  0.00     0.031 C 
ATOM     57  C   UNL A   1      42.379  32.448  30.438  1.00  0.00     0.029 A 
ATOM     58  C   UNL A   1      43.109  31.579  29.642  1.00  0.00     0.049 A 
ATOM     59  H   UNL A   1      42.519  29.740  28.795  1.00  0.00     0.167 HD
ATOM     60  C   UNL A   1      45.111  30.830  28.385  1.00  0.00     0.074 A 
ATOM     61  C   UNL A   1      46.454  31.014  27.875  1.00  0.00     0.031 C 
ATOM     62  C   UNL A   1      44.463  31.724  29.171  1.00  0.00     0.034 A 
BRANCH  49  63
ATOM     63  C   UNL A   1      38.635  30.197  30.509  1.00  0.00     0.023 A 
ATOM     64  C   UNL A   1      38.430  29.854  31.861  1.00  0.00     0.012 A 
ATOM     65  C   UNL A   1      37.674  30.979  29.841  1.00  0.00     0.148 A 
ATOM     66  C   UNL A   1      37.278  30.260  32.530  1.00  0.00     0.002 A 
ATOM     67  C   UNL A   1      36.549  31.420  30.528  1.00  0.00     0.091 A 
ATOM     68  F   UNL A   1      37.878  31.279  28.550  1.00  0.00    -0.205 F 
ATOM     69  C   UNL A   1      36.345  31.054  31.869  1.00  0.00     0.022 A 
BRANCH  67  70
ATOM     70  S   UNL A   1      35.328  32.515  29.795  1.00  0.00     0.127 S 
ATOM     71  O   UNL A   1      34.397  32.704  30.906  1.00  0.00    -0.237 OA
ATOM     72  O   UNL A   1      36.131  33.693  29.465  1.00  0.00    -0.237 OA
ATOM     73  O   UNL A   1      34.789  31.804  28.645  1.00  0.00    -0.744 OA
ENDBRANCH  67  70
ENDBRANCH  49  63
BRANCH  50  74
ATOM     74  C   UNL A   1      46.941  27.409  25.700  1.00  0.00     0.023 A 
ATOM     75  C   UNL A   1      47.882  26.583  26.346  1.00  0.00     0.012 A 
ATOM     76  C   UNL A   1      47.156  27.772  24.357  1.00  0.00     0.148 A 
ATOM     77  C   UNL A   1      49.022  26.141  25.673  1.00  0.00     0.002 A 
ATOM     78  C   UNL A   1      48.264  27.284  23.676  1.00  0.00     0.091 A 
ATOM     79  F   UNL A   1      46.254  28.567  23.764  1.00  0.00    -0.205 F 
ATOM     80  C   UNL A   1      49.207  26.480  24.336  1.00  0.00     0.022 A 
BRANCH  78  81
ATOM     81  S   UNL A   1      48.513  27.550  21.916  1.00  0.00     0.127 S 
ATOM     82  O   UNL A   1      49.721  28.370  21.906  1.00  0.00    -0.237 OA
ATOM     83  O   UNL A   1      48.692  26.182  21.429  1.00  0.00    -0.237 OA
ATOM     84  O   UNL A   1      47.301  28.203  21.441  1.00  0.00    -0.744 OA
ENDBRANCH  78  81
ENDBRANCH  50  74
BRANCH  62  85
ATOM     85  C   UNL A   1      45.181  32.992  29.554  1.00  0.00     0.023 A 
ATOM     86  C   UNL A   1      46.023  32.998  30.682  1.00  0.00     0.012 A 
ATOM     87  C   UNL A   1      45.140  34.122  28.712  1.00  0.00     0.148 A 
ATOM     88  C   UNL A   1      46.807  34.112  30.974  1.00  0.00     0.002 A 
ATOM     89  C   UNL A   1      45.961  35.209  28.980  1.00  0.00     0.091 A 
ATOM     90  F   UNL A   1      44.321  34.096  27.649  1.00  0.00    -0.205 F 
ATOM     91  C   UNL A   1      46.788  35.210  30.115  1.00  0.00     0.022 A 
BRANCH  89  92
ATOM     92  S   UNL A   1      46.088  36.623  27.878  1.00  0.00     0.127 S 
ATOM     93  O   UNL A   1      44.715  37.126  27.880  1.00  0.00    -0.237 OA
ATOM     94  O   UNL A   1      47.050  37.474  28.578  1.00  0.00    -0.237 OA
ATOM     95  O   UNL A   1      46.554  36.100  26.601  1.00  0.00    -0.744 OA
ENDBRANCH  89  92
ENDBRANCH  62  85
ENDBRANCH  36  37
ENDBRANCH  28  31
ENDBRANCH  26  27
ENDBRANCH  25  26
ENDBRANCH   1  25
TORSDOF 17
ENDMDL
MODEL 3
REMARK VINA RESULT:     -11.7      2.311      3.118
REMARK SMILES CC[C@@H]1CCCN(S(=O)(=O)c2cc(C(=O)NCCCCNC(=O)c3ccc(-c4c5nc(c(-c6cccc(S(=O)(=O)[O-])c6F)c6ccc([nH]6)c(-c6cccc(S(=O)(=O)[O-])c6F)c6nc(c(-c7cccc(S(=O)(=O)[O-])c7F)c7ccc4[nH]7)C=C6)C=C5)cc3)ccc2F)C1
REMARK SMILES IDX 18 1 17 2 16 3 14 4 15 5 13 7 11 8 12 9 89 10 88 11 90 12
REMARK SMILES IDX 87 13 8 14 9 15 10 16 7 17 3 18 4 19 91 20 5 21 6 22 2 23
REMARK SMILES IDX 1 24 19 25 20 26 21 27 22 28 23 30 24 31 25 32 86 33 26 34
REMARK SMILES IDX 85 35 27 36 28 37 29 38 79 39 30 40 84 41 78 42 80 43 31 44
REMARK SMILES IDX 83 45 77 46 76 47 32 49 64 50 44 51 63 52 45 53 48 54 62 55
REMARK SMILES IDX 81 56 46 57 47 58 61 60 82 61 49 62 33 63 34 64 42 65 35 66
REMARK SMILES IDX 37 67 43 68 36 69 38 70 39 71 40 72 41 73 65 74 66 75 74 76
REMARK SMILES IDX 67 77 69 78 75 79 68 80 70 81 71 82 72 83 73 84 50 85 51 86
REMARK SMILES IDX 59 87 52 88 54 89 60 90 53 91 55 92 56 93 57 94 58 95
REMARK H PARENT 16 6 21 29 80 48 48 59
REMARK Flexibility Score: inf
ROOT
ATOM      1  C   UNL A   1      34.385  21.394  26.772  1.00  0.00     0.023 C 
ENDROOT
BRANCH   1   2
ATOM      2  C   UNL A   1      33.824  22.749  27.209  1.00  0.00     0.116 C 
BRANCH   2   3
ATOM      3  N   UNL A   1      32.377  22.760  27.166  1.00  0.00    -0.352 N 
ATOM      4  C   UNL A   1      31.473  22.727  26.138  1.00  0.00     0.251 C 
ATOM      5  O   UNL A   1      30.281  22.659  26.446  1.00  0.00    -0.269 OA
ATOM      6  H   UNL A   1      31.958  22.798  28.057  1.00  0.00     0.163 HD
BRANCH   4   7
ATOM      7  C   UNL A   1      31.829  22.763  24.684  1.00  0.00     0.041 A 
ATOM      8  C   UNL A   1      32.375  24.176  22.762  1.00  0.00     0.119 A 
ATOM      9  C   UNL A   1      31.954  24.037  24.094  1.00  0.00     0.038 A 
ATOM     10  C   UNL A   1      32.688  23.050  22.018  1.00  0.00     0.143 A 
ATOM     11  C   UNL A   1      32.536  21.786  22.568  1.00  0.00     0.041 A 
ATOM     12  F   UNL A   1      33.127  23.135  20.756  1.00  0.00    -0.206 F 
ATOM     13  C   UNL A   1      32.129  21.645  23.899  1.00  0.00     0.017 A 
BRANCH   8  14
ATOM     14  S   UNL A   1      32.662  25.779  22.088  1.00  0.00     0.246 S 
ATOM     15  O   UNL A   1      31.671  26.044  21.063  1.00  0.00    -0.207 OA
ATOM     16  O   UNL A   1      34.070  25.863  21.767  1.00  0.00    -0.207 OA
BRANCH  14  17
ATOM     17  N   UNL A   1      32.376  26.870  23.394  1.00  0.00    -0.197 NA
ATOM     18  C   UNL A   1      33.393  28.616  24.856  1.00  0.00     0.004 C 
ATOM     19  C   UNL A   1      32.040  29.332  24.933  1.00  0.00     0.006 C 
ATOM     20  C   UNL A   1      33.510  27.827  23.548  1.00  0.00     0.106 C 
ATOM     21  C   UNL A   1      30.853  28.443  24.585  1.00  0.00     0.017 C 
ATOM     22  C   UNL A   1      31.074  27.594  23.337  1.00  0.00     0.102 C 
BRANCH  18  23
ATOM     23  C   UNL A   1      33.779  27.791  26.103  1.00  0.00     0.001 C 
ATOM     24  C   UNL A   1      33.945  26.288  25.949  1.00  0.00     0.004 C 
ENDBRANCH  18  23
ENDBRANCH  14  17
ENDBRANCH   8  14
ENDBRANCH   4   7
ENDBRANCH   2   3
ENDBRANCH   1   2
BRANCH   1  25
ATOM     25  C   UNL A   1      35.233  21.431  25.497  1.00  0.00     0.023 C 
BRANCH  25  26
ATOM     26  C   UNL A   1      36.649  21.967  25.674  1.00  0.00     0.116 C 
BRANCH  26  27
ATOM     27  N   UNL A   1      37.663  20.923  25.718  1.00  0.00    -0.352 N 
ATOM     28  C   UNL A   1      38.988  21.038  26.063  1.00  0.00     0.251 C 
ATOM     29  H   UNL A   1      37.361  20.020  25.468  1.00  0.00     0.163 HD
ATOM     30  O   UNL A   1      39.740  20.074  25.952  1.00  0.00    -0.269 OA
BRANCH  28  31
ATOM     31  C   UNL A   1      39.503  22.340  26.531  1.00  0.00     0.039 A 
ATOM     32  C   UNL A   1      40.473  22.361  27.536  1.00  0.00     0.014 A 
ATOM     33  C   UNL A   1      39.056  23.533  25.956  1.00  0.00     0.014 A 
ATOM     34  C   UNL A   1      41.036  23.577  27.925  1.00  0.00     0.010 A 
ATOM     35  C   UNL A   1      39.671  24.734  26.291  1.00  0.00     0.010 A 
ATOM     36  C   UNL A   1      40.661  24.771  27.285  1.00  0.00    -0.014 A 
BRANCH  36  37
ATOM     37  C   UNL A   1      41.290  26.065  27.645  1.00  0.00     0.031 A 
ATOM     38  C   UNL A   1      42.713  26.350  27.249  1.00  0.00     0.074 A 
ATOM     39  C   UNL A   1      40.605  26.955  28.390  1.00  0.00     0.049 A 
ATOM     40  N   UNL A   1      43.439  27.407  27.497  1.00  0.00    -0.248 NA
ATOM     41  C   UNL A   1      43.424  25.300  26.499  1.00  0.00     0.031 C 
ATOM     42  C   UNL A   1      39.249  26.758  28.906  1.00  0.00     0.029 A 
ATOM     43  N   UNL A   1      40.961  28.195  28.860  1.00  0.00    -0.354 N 
ATOM     44  C   UNL A   1      44.695  27.139  26.967  1.00  0.00     0.074 A 
ATOM     45  C   UNL A   1      44.647  25.804  26.417  1.00  0.00     0.031 C 
ATOM     46  C   UNL A   1      38.883  27.843  29.606  1.00  0.00     0.029 A 
ATOM     47  C   UNL A   1      39.983  28.802  29.614  1.00  0.00     0.049 A 
ATOM     48  H   UNL A   1      41.834  28.610  28.676  1.00  0.00     0.167 HD
ATOM     49  C   UNL A   1      45.778  27.948  26.907  1.00  0.00     0.034 A 
ATOM     50  C   UNL A   1      39.973  29.998  30.238  1.00  0.00     0.034 A 
ATOM     51  C   UNL A   1      45.800  29.297  27.400  1.00  0.00     0.049 A 
ATOM     52  C   UNL A   1      41.175  30.895  30.120  1.00  0.00     0.074 A 
ATOM     53  C   UNL A   1      46.814  30.230  27.293  1.00  0.00     0.029 A 
ATOM     54  N   UNL A   1      44.765  29.904  28.094  1.00  0.00    -0.354 N 
ATOM     55  N   UNL A   1      42.294  30.688  29.470  1.00  0.00    -0.248 NA
ATOM     56  C   UNL A   1      41.105  32.202  30.791  1.00  0.00     0.031 C 
ATOM     57  C   UNL A   1      46.403  31.396  27.943  1.00  0.00     0.029 A 
ATOM     58  C   UNL A   1      45.122  31.196  28.434  1.00  0.00     0.049 A 
ATOM     59  H   UNL A   1      43.905  29.479  28.311  1.00  0.00     0.167 HD
ATOM     60  C   UNL A   1      43.049  31.844  29.631  1.00  0.00     0.074 A 
ATOM     61  C   UNL A   1      42.252  32.758  30.423  1.00  0.00     0.031 C 
ATOM     62  C   UNL A   1      44.297  32.116  29.176  1.00  0.00     0.034 A 
BRANCH  49  63
ATOM     63  C   UNL A   1      47.013  27.428  26.220  1.00  0.00     0.023 A 
ATOM     64  C   UNL A   1      47.235  27.749  24.865  1.00  0.00     0.012 A 
ATOM     65  C   UNL A   1      47.993  26.711  26.930  1.00  0.00     0.148 A 
ATOM     66  C   UNL A   1      48.401  27.342  24.220  1.00  0.00     0.002 A 
ATOM     67  C   UNL A   1      49.174  26.348  26.294  1.00  0.00     0.091 A 
ATOM     68  F   UNL A   1      47.755  26.399  28.212  1.00  0.00    -0.205 F 
ATOM     69  C   UNL A   1      49.376  26.654  24.937  1.00  0.00     0.022 A 
BRANCH  67  70
ATOM     70  S   UNL A   1      50.529  25.534  27.148  1.00  0.00     0.127 S 
ATOM     71  O   UNL A   1      50.863  26.517  28.177  1.00  0.00    -0.237 OA
ATOM     72  O   UNL A   1      49.888  24.318  27.650  1.00  0.00    -0.237 OA
ATOM     73  O   UNL A   1      51.560  25.309  26.144  1.00  0.00    -0.744 OA
ENDBRANCH  67  70
ENDBRANCH  49  63
BRANCH  50  74
ATOM     74  C   UNL A   1      38.745  30.440  30.959  1.00  0.00     0.023 A 
ATOM     75  C   UNL A   1      38.680  30.300  32.359  1.00  0.00     0.012 A 
ATOM     76  C   UNL A   1      37.675  31.057  30.281  1.00  0.00     0.148 A 
ATOM     77  C   UNL A   1      37.566  30.749  33.069  1.00  0.00     0.002 A 
ATOM     78  C   UNL A   1      36.594  31.553  31.000  1.00  0.00     0.091 A 
ATOM     79  F   UNL A   1      37.752  31.173  28.948  1.00  0.00    -0.205 F 
ATOM     80  C   UNL A   1      36.530  31.387  32.393  1.00  0.00     0.022 A 
BRANCH  78  81
ATOM     81  S   UNL A   1      35.281  32.512  30.234  1.00  0.00     0.127 S 
ATOM     82  O   UNL A   1      34.335  32.656  31.337  1.00  0.00    -0.237 OA
ATOM     83  O   UNL A   1      35.986  33.740  29.862  1.00  0.00    -0.237 OA
ATOM     84  O   UNL A   1      34.820  31.718  29.104  1.00  0.00    -0.744 OA
ENDBRANCH  78  81
ENDBRANCH  50  74
BRANCH  62  85
ATOM     85  C   UNL A   1      44.900  33.457  29.501  1.00  0.00     0.023 A 
ATOM     86  C   UNL A   1      45.708  33.595  30.645  1.00  0.00     0.012 A 
ATOM     87  C   UNL A   1      44.790  34.531  28.594  1.00  0.00     0.148 A 
ATOM     88  C   UNL A   1      46.392  34.785  30.889  1.00  0.00     0.002 A 
ATOM     89  C   UNL A   1      45.513  35.696  28.817  1.00  0.00     0.091 A 
ATOM     90  F   UNL A   1      44.006  34.379  27.517  1.00  0.00    -0.205 F 
ATOM     91  C   UNL A   1      46.307  35.828  29.968  1.00  0.00     0.022 A 
BRANCH  89  92
ATOM     92  S   UNL A   1      45.556  37.051  27.639  1.00  0.00     0.127 S 
ATOM     93  O   UNL A   1      44.135  37.368  27.498  1.00  0.00    -0.237 OA
ATOM     94  O   UNL A   1      46.337  38.059  28.355  1.00  0.00    -0.237 OA
ATOM     95  O   UNL A   1      46.194  36.525  26.440  1.00  0.00    -0.744 OA
ENDBRANCH  89  92
ENDBRANCH  62  85
ENDBRANCH  36  37
ENDBRANCH  28  31
ENDBRANCH  26  27
ENDBRANCH  25  26
ENDBRANCH   1  25
TORSDOF 17
ENDMDL
