MODEL 1
REMARK VINA RESULT:     -13.0      0.000      0.000
REMARK SMILES O=C(NCCCCNC(=O)C1CCN(S(=O)(=O)c2ccc3nc(O)sc3c2)CC1)c1ccc(-c2c3nc(c(-c4cccc(S(=O)(=O)[O-])c4F)c4ccc([nH]4)c(-c4cccc(S(=O)(=O)[O-])c4F)c4nc(c(-c5cccc(S(=O)(=O)[O-])c5F)c5ccc2[nH]5)C=C4)C=C3)cc1
REMARK SMILES IDX 5 1 4 2 3 3 1 4 2 5 30 7 31 8 92 9 32 10 91 11 33 12 34 13
REMARK SMILES IDX 35 14 85 15 36 16 90 17 84 18 86 19 37 20 89 21 83 22 82 23
REMARK SMILES IDX 38 25 70 26 50 27 69 28 51 29 54 30 68 31 87 32 52 33 53 34
REMARK SMILES IDX 67 36 88 37 55 38 39 39 40 40 48 41 41 42 43 43 49 44 42 45
REMARK SMILES IDX 44 46 45 47 46 48 47 49 71 50 72 51 80 52 73 53 75 54 81 55
REMARK SMILES IDX 74 56 76 57 77 58 78 59 79 60 56 61 57 62 65 63 58 64 60 65
REMARK SMILES IDX 66 66 59 67 61 68 62 69 63 70 64 71 6 72 7 73 8 74 9 75
REMARK SMILES IDX 10 77 11 78 12 79 29 80 13 81 28 82 14 83 15 84 16 85 17 86
REMARK SMILES IDX 18 87 19 88 27 89 20 90 26 91 21 92 25 93 22 94 23 95 24 96
REMARK H PARENT 3 6 86 24 54 35 8 76 24 97
REMARK Flexibility Score: inf
ROOT
ATOM      1  C   UNL A   1      38.466  21.377  25.374  1.00  0.00     0.023 C 
ENDROOT
BRANCH   1   2
ATOM      2  C   UNL A   1      39.078  22.333  26.409  1.00  0.00     0.116 C 
BRANCH   2   3
ATOM      3  N   UNL A   1      40.173  21.685  27.108  1.00  0.00    -0.352 N 
ATOM      4  O   UNL A   1      42.268  21.282  27.707  1.00  0.00    -0.269 OA
ATOM      5  C   UNL A   1      41.408  22.135  27.480  1.00  0.00     0.251 C 
ATOM      6  H   UNL A   1      39.992  20.750  27.359  1.00  0.00     0.163 HD
BRANCH   5   7
ATOM      7  C   UNL A   1      41.744  23.569  27.651  1.00  0.00     0.039 A 
ATOM      8  C   UNL A   1      40.811  24.353  28.345  1.00  0.00     0.014 A 
ATOM      9  C   UNL A   1      42.826  24.188  27.017  1.00  0.00     0.014 A 
ATOM     10  C   UNL A   1      40.951  25.737  28.399  1.00  0.00     0.010 A 
ATOM     11  C   UNL A   1      42.971  25.581  27.082  1.00  0.00     0.010 A 
ATOM     12  C   UNL A   1      42.032  26.360  27.769  1.00  0.00    -0.014 A 
BRANCH  12  13
ATOM     13  C   UNL A   1      42.166  27.818  27.961  1.00  0.00     0.031 A 
ATOM     14  C   UNL A   1      40.860  28.558  27.966  1.00  0.00     0.074 A 
ATOM     15  C   UNL A   1      43.219  28.325  28.641  1.00  0.00     0.049 A 
ATOM     16  N   UNL A   1      40.071  28.625  28.998  1.00  0.00    -0.248 NA
ATOM     17  C   UNL A   1      40.236  29.026  26.726  1.00  0.00     0.031 C 
ATOM     18  C   UNL A   1      43.758  27.736  29.874  1.00  0.00     0.029 A 
ATOM     19  N   UNL A   1      43.858  29.544  28.539  1.00  0.00    -0.354 N 
ATOM     20  C   UNL A   1      38.843  29.099  28.561  1.00  0.00     0.074 A 
ATOM     21  C   UNL A   1      38.995  29.330  27.140  1.00  0.00     0.031 C 
ATOM     22  C   UNL A   1      44.504  28.665  30.507  1.00  0.00     0.029 A 
ATOM     23  C   UNL A   1      44.595  29.867  29.679  1.00  0.00     0.049 A 
ATOM     24  H   UNL A   1      43.800  30.123  27.745  1.00  0.00     0.167 HD
ATOM     25  C   UNL A   1      37.783  29.292  29.394  1.00  0.00     0.034 A 
ATOM     26  C   UNL A   1      44.773  31.143  30.134  1.00  0.00     0.034 A 
ATOM     27  C   UNL A   1      38.058  29.037  30.781  1.00  0.00     0.049 A 
ATOM     28  C   UNL A   1      43.446  31.357  30.833  1.00  0.00     0.074 A 
ATOM     29  C   UNL A   1      37.820  28.051  31.710  1.00  0.00     0.029 A 
ATOM     30  N   UNL A   1      38.819  29.964  31.451  1.00  0.00    -0.354 N 
ATOM     31  N   UNL A   1      43.077  30.821  31.970  1.00  0.00    -0.248 NA
ATOM     32  C   UNL A   1      42.343  31.833  29.998  1.00  0.00     0.031 C 
ATOM     33  C   UNL A   1      38.839  28.214  32.706  1.00  0.00     0.029 A 
ATOM     34  C   UNL A   1      39.638  29.289  32.318  1.00  0.00     0.049 A 
ATOM     35  H   UNL A   1      38.784  30.941  31.331  1.00  0.00     0.167 HD
ATOM     36  C   UNL A   1      41.704  30.582  31.834  1.00  0.00     0.074 A 
ATOM     37  C   UNL A   1      41.320  31.241  30.600  1.00  0.00     0.031 C 
ATOM     38  C   UNL A   1      40.986  29.724  32.621  1.00  0.00     0.034 A 
BRANCH  25  39
ATOM     39  C   UNL A   1      36.513  29.970  29.025  1.00  0.00     0.023 A 
ATOM     40  C   UNL A   1      35.764  29.359  27.999  1.00  0.00     0.012 A 
ATOM     41  C   UNL A   1      36.154  31.258  29.463  1.00  0.00     0.148 A 
ATOM     42  C   UNL A   1      34.709  30.025  27.381  1.00  0.00     0.002 A 
ATOM     43  C   UNL A   1      35.090  31.919  28.846  1.00  0.00     0.091 A 
ATOM     44  F   UNL A   1      36.879  31.832  30.435  1.00  0.00    -0.205 F 
ATOM     45  C   UNL A   1      34.377  31.306  27.799  1.00  0.00     0.022 A 
BRANCH  43  46
ATOM     46  S   UNL A   1      34.568  33.587  29.273  1.00  0.00     0.127 S 
ATOM     47  O   UNL A   1      35.771  34.366  28.982  1.00  0.00    -0.237 OA
ATOM     48  O   UNL A   1      33.462  33.804  28.339  1.00  0.00    -0.237 OA
ATOM     49  O   UNL A   1      34.180  33.540  30.676  1.00  0.00    -0.744 OA
ENDBRANCH  43  46
ENDBRANCH  25  39
BRANCH  26  50
ATOM     50  C   UNL A   1      45.365  32.102  29.133  1.00  0.00     0.023 A 
ATOM     51  C   UNL A   1      46.712  32.487  29.352  1.00  0.00     0.012 A 
ATOM     52  C   UNL A   1      44.722  32.633  27.997  1.00  0.00     0.148 A 
ATOM     53  C   UNL A   1      47.435  33.225  28.415  1.00  0.00     0.002 A 
ATOM     54  C   UNL A   1      45.457  33.340  27.041  1.00  0.00     0.091 A 
ATOM     55  F   UNL A   1      43.409  32.432  27.840  1.00  0.00    -0.205 F 
ATOM     56  C   UNL A   1      46.816  33.620  27.239  1.00  0.00     0.022 A 
BRANCH  54  57
ATOM     57  S   UNL A   1      44.759  33.880  25.473  1.00  0.00     0.127 S 
ATOM     58  O   UNL A   1      45.913  34.501  24.823  1.00  0.00    -0.237 OA
ATOM     59  O   UNL A   1      44.337  32.607  24.892  1.00  0.00    -0.237 OA
ATOM     60  O   UNL A   1      43.682  34.797  25.816  1.00  0.00    -0.744 OA
ENDBRANCH  54  57
ENDBRANCH  26  50
BRANCH  38  61
ATOM     61  C   UNL A   1      41.705  29.099  33.780  1.00  0.00     0.023 A 
ATOM     62  C   UNL A   1      41.702  29.783  35.009  1.00  0.00     0.012 A 
ATOM     63  C   UNL A   1      42.287  27.816  33.706  1.00  0.00     0.148 A 
ATOM     64  C   UNL A   1      42.235  29.192  36.154  1.00  0.00     0.002 A 
ATOM     65  C   UNL A   1      42.796  27.221  34.857  1.00  0.00     0.091 A 
ATOM     66  F   UNL A   1      42.313  27.183  32.523  1.00  0.00    -0.205 F 
ATOM     67  C   UNL A   1      42.767  27.907  36.081  1.00  0.00     0.022 A 
BRANCH  65  68
ATOM     68  S   UNL A   1      43.465  25.552  34.892  1.00  0.00     0.127 S 
ATOM     69  O   UNL A   1      43.982  25.400  33.532  1.00  0.00    -0.237 OA
ATOM     70  O   UNL A   1      44.497  25.660  35.924  1.00  0.00    -0.237 OA
ATOM     71  O   UNL A   1      42.355  24.669  35.226  1.00  0.00    -0.744 OA
ENDBRANCH  65  68
ENDBRANCH  38  61
ENDBRANCH  12  13
ENDBRANCH   5   7
ENDBRANCH   2   3
ENDBRANCH   1   2
BRANCH   1  72
ATOM     72  C   UNL A   1      37.100  21.803  24.801  1.00  0.00     0.023 C 
BRANCH  72  73
ATOM     73  C   UNL A   1      35.969  20.797  25.008  1.00  0.00     0.116 C 
BRANCH  73  74
ATOM     74  N   UNL A   1      35.196  21.099  26.198  1.00  0.00    -0.356 N 
ATOM     75  C   UNL A   1      33.932  21.589  26.326  1.00  0.00     0.223 C 
ATOM     76  H   UNL A   1      35.659  20.922  27.049  1.00  0.00     0.163 HD
ATOM     77  O   UNL A   1      33.464  21.696  27.460  1.00  0.00    -0.275 OA
BRANCH  75  78
ATOM     78  C   UNL A   1      33.142  22.005  25.086  1.00  0.00     0.081 C 
ATOM     79  C   UNL A   1      33.857  23.097  24.291  1.00  0.00     0.030 C 
ATOM     80  C   UNL A   1      31.734  22.488  25.448  1.00  0.00     0.030 C 
ATOM     81  C   UNL A   1      33.847  24.435  25.025  1.00  0.00     0.103 C 
ATOM     82  C   UNL A   1      31.711  23.867  26.108  1.00  0.00     0.103 C 
ATOM     83  N   UNL A   1      32.440  24.880  25.283  1.00  0.00    -0.198 NA
BRANCH  83  84
ATOM     84  S   UNL A   1      32.428  26.479  25.950  1.00  0.00     0.243 S 
ATOM     85  O   UNL A   1      31.518  26.507  27.071  1.00  0.00    -0.207 OA
ATOM     86  O   UNL A   1      33.812  26.891  26.112  1.00  0.00    -0.207 OA
BRANCH  84  87
ATOM     87  C   UNL A   1      31.730  27.511  24.673  1.00  0.00     0.084 A 
ATOM     88  C   UNL A   1      32.573  28.107  23.733  1.00  0.00     0.024 A 
ATOM     89  C   UNL A   1      30.336  27.605  24.556  1.00  0.00     0.043 A 
ATOM     90  C   UNL A   1      32.041  28.888  22.702  1.00  0.00     0.031 A 
ATOM     91  C   UNL A   1      29.817  28.356  23.487  1.00  0.00     0.059 A 
ATOM     92  C   UNL A   1      30.644  29.013  22.568  1.00  0.00     0.085 A 
ATOM     93  S   UNL A   1      28.171  28.633  23.047  1.00  0.00    -0.077 S 
ATOM     94  N   UNL A   1      29.985  29.729  21.581  1.00  0.00    -0.203 NA
ATOM     95  C   UNL A   1      28.699  29.586  21.747  1.00  0.00     0.271 A 
BRANCH  95  96
ATOM     96  O   UNL A   1      27.877  30.182  20.906  1.00  0.00    -0.486 OA
ATOM     97  H   UNL A   1      27.958  31.102  20.743  1.00  0.00     0.296 HD
ENDBRANCH  95  96
ENDBRANCH  84  87
ENDBRANCH  83  84
ENDBRANCH  75  78
ENDBRANCH  73  74
ENDBRANCH  72  73
ENDBRANCH   1  72
TORSDOF 17
ENDMDL
MODEL 2
REMARK VINA RESULT:     -12.4      2.780      8.775
REMARK SMILES O=C(NCCCCNC(=O)C1CCN(S(=O)(=O)c2ccc3nc(O)sc3c2)CC1)c1ccc(-c2c3nc(c(-c4cccc(S(=O)(=O)[O-])c4F)c4ccc([nH]4)c(-c4cccc(S(=O)(=O)[O-])c4F)c4nc(c(-c5cccc(S(=O)(=O)[O-])c5F)c5ccc2[nH]5)C=C4)C=C3)cc1
REMARK SMILES IDX 5 1 4 2 3 3 1 4 2 5 30 7 31 8 92 9 32 10 91 11 33 12 34 13
REMARK SMILES IDX 35 14 85 15 36 16 90 17 84 18 86 19 37 20 89 21 83 22 82 23
REMARK SMILES IDX 38 25 70 26 50 27 69 28 51 29 54 30 68 31 87 32 52 33 53 34
REMARK SMILES IDX 67 36 88 37 55 38 39 39 40 40 48 41 41 42 43 43 49 44 42 45
REMARK SMILES IDX 44 46 45 47 46 48 47 49 71 50 72 51 80 52 73 53 75 54 81 55
REMARK SMILES IDX 74 56 76 57 77 58 78 59 79 60 56 61 57 62 65 63 58 64 60 65
REMARK SMILES IDX 66 66 59 67 61 68 62 69 63 70 64 71 6 72 7 73 8 74 9 75
REMARK SMILES IDX 10 77 11 78 12 79 29 80 13 81 28 82 14 83 15 84 16 85 17 86
REMARK SMILES IDX 18 87 19 88 27 89 20 90 26 91 21 92 25 93 22 94 23 95 24 96
REMARK H PARENT 3 6 86 24 54 35 8 76 24 97
REMARK Flexibility Score: inf
ROOT
ATOM      1  C   UNL A   1      34.218  31.506  27.895  1.00  0.00     0.023 C 
ENDROOT
BRANCH   1   2
ATOM      2  C   UNL A   1      34.888  32.878  27.714  1.00  0.00     0.116 C 
BRANCH   2   3
ATOM      3  N   UNL A   1      34.889  33.607  28.969  1.00  0.00    -0.352 N 
ATOM      4  O   UNL A   1      34.965  33.907  31.164  1.00  0.00    -0.269 OA
ATOM      5  C   UNL A   1      35.435  33.318  30.188  1.00  0.00     0.251 C 
ATOM      6  H   UNL A   1      34.409  34.465  28.936  1.00  0.00     0.163 HD
BRANCH   5   7
ATOM      7  C   UNL A   1      36.561  32.374  30.382  1.00  0.00     0.039 A 
ATOM      8  C   UNL A   1      36.522  31.582  31.539  1.00  0.00     0.014 A 
ATOM      9  C   UNL A   1      37.710  32.367  29.584  1.00  0.00     0.014 A 
ATOM     10  C   UNL A   1      37.616  30.800  31.900  1.00  0.00     0.010 A 
ATOM     11  C   UNL A   1      38.806  31.570  29.942  1.00  0.00     0.010 A 
ATOM     12  C   UNL A   1      38.765  30.788  31.103  1.00  0.00    -0.014 A 
BRANCH  12  13
ATOM     13  C   UNL A   1      39.838  29.855  31.497  1.00  0.00     0.031 A 
ATOM     14  C   UNL A   1      39.862  28.579  30.706  1.00  0.00     0.074 A 
ATOM     15  C   UNL A   1      40.985  30.321  32.041  1.00  0.00     0.049 A 
ATOM     16  N   UNL A   1      40.385  28.475  29.519  1.00  0.00    -0.248 NA
ATOM     17  C   UNL A   1      39.051  27.421  31.088  1.00  0.00     0.031 C 
ATOM     18  C   UNL A   1      41.690  31.518  31.564  1.00  0.00     0.029 A 
ATOM     19  N   UNL A   1      41.868  29.736  32.925  1.00  0.00    -0.354 N 
ATOM     20  C   UNL A   1      39.954  27.275  28.972  1.00  0.00     0.074 A 
ATOM     21  C   UNL A   1      39.124  26.658  29.985  1.00  0.00     0.031 C 
ATOM     22  C   UNL A   1      42.960  31.483  32.019  1.00  0.00     0.029 A 
ATOM     23  C   UNL A   1      43.130  30.333  32.907  1.00  0.00     0.049 A 
ATOM     24  H   UNL A   1      41.633  28.978  33.507  1.00  0.00     0.167 HD
ATOM     25  C   UNL A   1      40.320  26.851  27.730  1.00  0.00     0.034 A 
ATOM     26  C   UNL A   1      44.296  29.658  33.130  1.00  0.00     0.034 A 
ATOM     27  C   UNL A   1      41.252  27.712  27.056  1.00  0.00     0.049 A 
ATOM     28  C   UNL A   1      44.490  29.020  31.769  1.00  0.00     0.074 A 
ATOM     29  C   UNL A   1      41.238  28.657  26.056  1.00  0.00     0.029 A 
ATOM     30  N   UNL A   1      42.553  27.700  27.500  1.00  0.00    -0.354 N 
ATOM     31  N   UNL A   1      44.858  29.635  30.673  1.00  0.00    -0.248 NA
ATOM     32  C   UNL A   1      43.816  27.739  31.552  1.00  0.00     0.031 C 
ATOM     33  C   UNL A   1      42.391  29.476  26.293  1.00  0.00     0.029 A 
ATOM     34  C   UNL A   1      43.034  28.982  27.427  1.00  0.00     0.049 A 
ATOM     35  H   UNL A   1      43.052  26.911  27.814  1.00  0.00     0.167 HD
ATOM     36  C   UNL A   1      44.160  28.995  29.642  1.00  0.00     0.074 A 
ATOM     37  C   UNL A   1      43.549  27.831  30.256  1.00  0.00     0.031 C 
ATOM     38  C   UNL A   1      43.963  29.524  28.396  1.00  0.00     0.034 A 
BRANCH  25  39
ATOM     39  C   UNL A   1      40.049  25.503  27.168  1.00  0.00     0.023 A 
ATOM     40  C   UNL A   1      38.705  25.230  26.841  1.00  0.00     0.012 A 
ATOM     41  C   UNL A   1      40.984  24.450  27.167  1.00  0.00     0.148 A 
ATOM     42  C   UNL A   1      38.279  23.934  26.564  1.00  0.00     0.002 A 
ATOM     43  C   UNL A   1      40.552  23.153  26.880  1.00  0.00     0.091 A 
ATOM     44  F   UNL A   1      42.258  24.721  27.487  1.00  0.00    -0.205 F 
ATOM     45  C   UNL A   1      39.200  22.896  26.592  1.00  0.00     0.022 A 
BRANCH  43  46
ATOM     46  S   UNL A   1      41.633  21.715  26.901  1.00  0.00     0.127 S 
ATOM     47  O   UNL A   1      42.572  22.022  25.823  1.00  0.00    -0.237 OA
ATOM     48  O   UNL A   1      42.205  21.787  28.245  1.00  0.00    -0.237 OA
ATOM     49  O   UNL A   1      40.772  20.563  26.667  1.00  0.00    -0.744 OA
ENDBRANCH  43  46
ENDBRANCH  25  39
BRANCH  26  50
ATOM     50  C   UNL A   1      44.359  28.903  34.434  1.00  0.00     0.023 A 
ATOM     51  C   UNL A   1      45.459  29.198  35.278  1.00  0.00     0.012 A 
ATOM     52  C   UNL A   1      43.426  27.957  34.902  1.00  0.00     0.148 A 
ATOM     53  C   UNL A   1      45.548  28.707  36.581  1.00  0.00     0.002 A 
ATOM     54  C   UNL A   1      43.495  27.495  36.219  1.00  0.00     0.091 A 
ATOM     55  F   UNL A   1      42.466  27.525  34.075  1.00  0.00    -0.205 F 
ATOM     56  C   UNL A   1      44.543  27.884  37.065  1.00  0.00     0.022 A 
BRANCH  54  57
ATOM     57  S   UNL A   1      42.235  26.442  36.955  1.00  0.00     0.127 S 
ATOM     58  O   UNL A   1      42.222  25.298  36.043  1.00  0.00    -0.237 OA
ATOM     59  O   UNL A   1      42.815  26.174  38.269  1.00  0.00    -0.237 OA
ATOM     60  O   UNL A   1      41.014  27.234  36.962  1.00  0.00    -0.744 OA
ENDBRANCH  54  57
ENDBRANCH  26  50
BRANCH  38  61
ATOM     61  C   UNL A   1      44.652  30.821  28.090  1.00  0.00     0.023 A 
ATOM     62  C   UNL A   1      45.944  30.772  27.537  1.00  0.00     0.012 A 
ATOM     63  C   UNL A   1      44.013  32.071  28.239  1.00  0.00     0.148 A 
ATOM     64  C   UNL A   1      46.580  31.936  27.108  1.00  0.00     0.002 A 
ATOM     65  C   UNL A   1      44.642  33.227  27.786  1.00  0.00     0.091 A 
ATOM     66  F   UNL A   1      42.792  32.112  28.795  1.00  0.00    -0.205 F 
ATOM     67  C   UNL A   1      45.924  33.159  27.217  1.00  0.00     0.022 A 
BRANCH  65  68
ATOM     68  S   UNL A   1      43.874  34.852  27.835  1.00  0.00     0.127 S 
ATOM     69  O   UNL A   1      43.182  34.825  29.124  1.00  0.00    -0.237 OA
ATOM     70  O   UNL A   1      45.038  35.739  27.791  1.00  0.00    -0.237 OA
ATOM     71  O   UNL A   1      43.000  34.931  26.673  1.00  0.00    -0.744 OA
ENDBRANCH  65  68
ENDBRANCH  38  61
ENDBRANCH  12  13
ENDBRANCH   5   7
ENDBRANCH   2   3
ENDBRANCH   1   2
BRANCH   1  72
ATOM     72  C   UNL A   1      35.058  30.292  27.452  1.00  0.00     0.023 C 
BRANCH  72  73
ATOM     73  C   UNL A   1      34.269  29.168  26.784  1.00  0.00     0.116 C 
BRANCH  73  74
ATOM     74  N   UNL A   1      33.027  28.897  27.483  1.00  0.00    -0.356 N 
ATOM     75  C   UNL A   1      31.968  28.118  27.129  1.00  0.00     0.223 C 
ATOM     76  H   UNL A   1      32.935  29.348  28.354  1.00  0.00     0.163 HD
ATOM     77  O   UNL A   1      31.046  27.990  27.934  1.00  0.00    -0.275 OA
BRANCH  75  78
ATOM     78  C   UNL A   1      31.937  27.446  25.756  1.00  0.00     0.081 C 
ATOM     79  C   UNL A   1      30.910  26.317  25.693  1.00  0.00     0.030 C 
ATOM     80  C   UNL A   1      33.313  26.896  25.366  1.00  0.00     0.030 C 
ATOM     81  C   UNL A   1      31.337  25.112  26.526  1.00  0.00     0.103 C 
ATOM     82  C   UNL A   1      33.710  25.638  26.137  1.00  0.00     0.103 C 
ATOM     83  N   UNL A   1      32.654  24.583  26.044  1.00  0.00    -0.198 NA
BRANCH  83  84
ATOM     84  S   UNL A   1      33.047  23.110  26.867  1.00  0.00     0.243 S 
ATOM     85  O   UNL A   1      34.453  23.125  27.197  1.00  0.00    -0.207 OA
ATOM     86  O   UNL A   1      32.047  22.912  27.902  1.00  0.00    -0.207 OA
BRANCH  84  87
ATOM     87  C   UNL A   1      32.798  21.820  25.659  1.00  0.00     0.084 A 
ATOM     88  C   UNL A   1      32.398  22.158  24.365  1.00  0.00     0.024 A 
ATOM     89  C   UNL A   1      33.132  20.499  25.991  1.00  0.00     0.043 A 
ATOM     90  C   UNL A   1      32.235  21.164  23.394  1.00  0.00     0.031 A 
ATOM     91  C   UNL A   1      33.008  19.521  24.990  1.00  0.00     0.059 A 
ATOM     92  C   UNL A   1      32.549  19.825  23.703  1.00  0.00     0.085 A 
ATOM     93  S   UNL A   1      33.367  17.833  25.064  1.00  0.00    -0.077 S 
ATOM     94  N   UNL A   1      32.461  18.751  22.832  1.00  0.00    -0.203 NA
ATOM     95  C   UNL A   1      32.869  17.677  23.449  1.00  0.00     0.271 A 
BRANCH  95  96
ATOM     96  O   UNL A   1      32.877  16.530  22.798  1.00  0.00    -0.486 OA
ATOM     97  H   UNL A   1      32.692  15.732  23.254  1.00  0.00     0.296 HD
ENDBRANCH  95  96
ENDBRANCH  84  87
ENDBRANCH  83  84
ENDBRANCH  75  78
ENDBRANCH  73  74
ENDBRANCH  72  73
ENDBRANCH   1  72
TORSDOF 17
ENDMDL
MODEL 3
REMARK VINA RESULT:     -12.4      5.089     10.734
REMARK SMILES O=C(NCCCCNC(=O)C1CCN(S(=O)(=O)c2ccc3nc(O)sc3c2)CC1)c1ccc(-c2c3nc(c(-c4cccc(S(=O)(=O)[O-])c4F)c4ccc([nH]4)c(-c4cccc(S(=O)(=O)[O-])c4F)c4nc(c(-c5cccc(S(=O)(=O)[O-])c5F)c5ccc2[nH]5)C=C4)C=C3)cc1
REMARK SMILES IDX 5 1 4 2 3 3 1 4 2 5 30 7 31 8 92 9 32 10 91 11 33 12 34 13
REMARK SMILES IDX 35 14 85 15 36 16 90 17 84 18 86 19 37 20 89 21 83 22 82 23
REMARK SMILES IDX 38 25 70 26 50 27 69 28 51 29 54 30 68 31 87 32 52 33 53 34
REMARK SMILES IDX 67 36 88 37 55 38 39 39 40 40 48 41 41 42 43 43 49 44 42 45
REMARK SMILES IDX 44 46 45 47 46 48 47 49 71 50 72 51 80 52 73 53 75 54 81 55
REMARK SMILES IDX 74 56 76 57 77 58 78 59 79 60 56 61 57 62 65 63 58 64 60 65
REMARK SMILES IDX 66 66 59 67 61 68 62 69 63 70 64 71 6 72 7 73 8 74 9 75
REMARK SMILES IDX 10 77 11 78 12 79 29 80 13 81 28 82 14 83 15 84 16 85 17 86
REMARK SMILES IDX 18 87 19 88 27 89 20 90 26 91 21 92 25 93 22 94 23 95 24 96
REMARK H PARENT 3 6 86 24 54 35 8 76 24 97
REMARK Flexibility Score: inf
ROOT
ATOM      1  C   UNL A   1      45.969  34.467  27.056  1.00  0.00     0.023 C 
ENDROOT
BRANCH   1   2
ATOM      2  C   UNL A   1      45.291  35.476  26.116  1.00  0.00     0.116 C 
BRANCH   2   3
ATOM      3  N   UNL A   1      45.092  36.743  26.797  1.00  0.00    -0.352 N 
ATOM      4  O   UNL A   1      44.006  38.320  27.914  1.00  0.00    -0.269 OA
ATOM      5  C   UNL A   1      44.235  37.114  27.794  1.00  0.00     0.251 C 
ATOM      6  H   UNL A   1      45.681  37.466  26.482  1.00  0.00     0.163 HD
BRANCH   5   7
ATOM      7  C   UNL A   1      43.606  36.159  28.737  1.00  0.00     0.039 A 
ATOM      8  C   UNL A   1      44.373  35.781  29.850  1.00  0.00     0.014 A 
ATOM      9  C   UNL A   1      42.398  35.504  28.481  1.00  0.00     0.014 A 
ATOM     10  C   UNL A   1      43.943  34.758  30.691  1.00  0.00     0.010 A 
ATOM     11  C   UNL A   1      41.961  34.482  29.336  1.00  0.00     0.010 A 
ATOM     12  C   UNL A   1      42.734  34.103  30.440  1.00  0.00    -0.014 A 
BRANCH  12  13
ATOM     13  C   UNL A   1      42.299  33.103  31.436  1.00  0.00     0.031 A 
ATOM     14  C   UNL A   1      40.886  33.285  31.911  1.00  0.00     0.074 A 
ATOM     15  C   UNL A   1      42.852  31.870  31.455  1.00  0.00     0.049 A 
ATOM     16  N   UNL A   1      39.843  32.884  31.244  1.00  0.00    -0.248 NA
ATOM     17  C   UNL A   1      40.558  34.178  33.025  1.00  0.00     0.031 C 
ATOM     18  C   UNL A   1      43.148  31.087  30.247  1.00  0.00     0.029 A 
ATOM     19  N   UNL A   1      43.038  30.979  32.491  1.00  0.00    -0.354 N 
ATOM     20  C   UNL A   1      38.727  33.487  31.807  1.00  0.00     0.074 A 
ATOM     21  C   UNL A   1      39.224  34.284  32.908  1.00  0.00     0.031 C 
ATOM     22  C   UNL A   1      43.300  29.792  30.596  1.00  0.00     0.029 A 
ATOM     23  C   UNL A   1      43.230  29.667  32.052  1.00  0.00     0.049 A 
ATOM     24  H   UNL A   1      43.036  31.240  33.440  1.00  0.00     0.167 HD
ATOM     25  C   UNL A   1      37.461  33.279  31.347  1.00  0.00     0.034 A 
ATOM     26  C   UNL A   1      42.815  28.565  32.743  1.00  0.00     0.034 A 
ATOM     27  C   UNL A   1      37.363  32.325  30.278  1.00  0.00     0.049 A 
ATOM     28  C   UNL A   1      41.347  28.561  32.368  1.00  0.00     0.074 A 
ATOM     29  C   UNL A   1      37.198  32.327  28.911  1.00  0.00     0.029 A 
ATOM     30  N   UNL A   1      37.517  30.999  30.603  1.00  0.00    -0.354 N 
ATOM     31  N   UNL A   1      40.848  28.229  31.203  1.00  0.00    -0.248 NA
ATOM     32  C   UNL A   1      40.464  29.384  33.196  1.00  0.00     0.031 C 
ATOM     33  C   UNL A   1      37.739  31.077  28.462  1.00  0.00     0.029 A 
ATOM     34  C   UNL A   1      38.205  30.393  29.584  1.00  0.00     0.049 A 
ATOM     35  H   UNL A   1      37.191  30.560  31.423  1.00  0.00     0.167 HD
ATOM     36  C   UNL A   1      39.752  29.079  31.018  1.00  0.00     0.074 A 
ATOM     37  C   UNL A   1      39.569  29.753  32.290  1.00  0.00     0.031 C 
ATOM     38  C   UNL A   1      39.161  29.329  29.810  1.00  0.00     0.034 A 
BRANCH  25  39
ATOM     39  C   UNL A   1      36.218  33.741  32.017  1.00  0.00     0.023 A 
ATOM     40  C   UNL A   1      35.898  33.100  33.231  1.00  0.00     0.012 A 
ATOM     41  C   UNL A   1      35.263  34.578  31.410  1.00  0.00     0.148 A 
ATOM     42  C   UNL A   1      34.642  33.244  33.814  1.00  0.00     0.002 A 
ATOM     43  C   UNL A   1      34.008  34.726  32.004  1.00  0.00     0.091 A 
ATOM     44  F   UNL A   1      35.576  35.176  30.251  1.00  0.00    -0.205 F 
ATOM     45  C   UNL A   1      33.696  34.050  33.197  1.00  0.00     0.022 A 
BRANCH  43  46
ATOM     46  S   UNL A   1      32.683  35.720  31.302  1.00  0.00     0.127 S 
ATOM     47  O   UNL A   1      32.507  35.109  29.986  1.00  0.00    -0.237 OA
ATOM     48  O   UNL A   1      31.589  35.469  32.241  1.00  0.00    -0.237 OA
ATOM     49  O   UNL A   1      33.173  37.092  31.291  1.00  0.00    -0.744 OA
ENDBRANCH  43  46
ENDBRANCH  25  39
BRANCH  26  50
ATOM     50  C   UNL A   1      43.326  28.467  34.159  1.00  0.00     0.023 A 
ATOM     51  C   UNL A   1      43.832  29.662  34.727  1.00  0.00     0.012 A 
ATOM     52  C   UNL A   1      43.328  27.316  34.972  1.00  0.00     0.148 A 
ATOM     53  C   UNL A   1      44.172  29.756  36.077  1.00  0.00     0.002 A 
ATOM     54  C   UNL A   1      43.633  27.420  36.332  1.00  0.00     0.091 A 
ATOM     55  F   UNL A   1      43.017  26.134  34.428  1.00  0.00    -0.205 F 
ATOM     56  C   UNL A   1      44.036  28.641  36.890  1.00  0.00     0.022 A 
BRANCH  54  57
ATOM     57  S   UNL A   1      43.469  26.043  37.479  1.00  0.00     0.127 S 
ATOM     58  O   UNL A   1      43.864  26.654  38.749  1.00  0.00    -0.237 OA
ATOM     59  O   UNL A   1      42.045  25.736  37.361  1.00  0.00    -0.237 OA
ATOM     60  O   UNL A   1      44.373  25.012  36.989  1.00  0.00    -0.744 OA
ENDBRANCH  54  57
ENDBRANCH  26  50
BRANCH  38  61
ATOM     61  C   UNL A   1      39.653  28.536  28.635  1.00  0.00     0.023 A 
ATOM     62  C   UNL A   1      40.332  29.219  27.611  1.00  0.00     0.012 A 
ATOM     63  C   UNL A   1      39.550  27.129  28.575  1.00  0.00     0.148 A 
ATOM     64  C   UNL A   1      40.929  28.521  26.562  1.00  0.00     0.002 A 
ATOM     65  C   UNL A   1      40.168  26.435  27.540  1.00  0.00     0.091 A 
ATOM     66  F   UNL A   1      38.874  26.487  29.541  1.00  0.00    -0.205 F 
ATOM     67  C   UNL A   1      40.861  27.130  26.535  1.00  0.00     0.022 A 
BRANCH  65  68
ATOM     68  S   UNL A   1      40.185  24.640  27.426  1.00  0.00     0.127 S 
ATOM     69  O   UNL A   1      40.918  24.264  28.635  1.00  0.00    -0.237 OA
ATOM     70  O   UNL A   1      38.757  24.320  27.459  1.00  0.00    -0.237 OA
ATOM     71  O   UNL A   1      40.856  24.312  26.176  1.00  0.00    -0.744 OA
ENDBRANCH  65  68
ENDBRANCH  38  61
ENDBRANCH  12  13
ENDBRANCH   5   7
ENDBRANCH   2   3
ENDBRANCH   1   2
BRANCH   1  72
ATOM     72  C   UNL A   1      45.138  33.216  27.400  1.00  0.00     0.023 C 
BRANCH  72  73
ATOM     73  C   UNL A   1      45.953  31.971  27.745  1.00  0.00     0.116 C 
BRANCH  73  74
ATOM     74  N   UNL A   1      46.403  31.279  26.552  1.00  0.00    -0.356 N 
ATOM     75  C   UNL A   1      46.114  30.029  26.097  1.00  0.00     0.223 C 
ATOM     76  H   UNL A   1      47.014  31.797  25.978  1.00  0.00     0.163 HD
ATOM     77  O   UNL A   1      46.570  29.689  25.005  1.00  0.00    -0.275 OA
BRANCH  75  78
ATOM     78  C   UNL A   1      45.261  29.084  26.943  1.00  0.00     0.081 C 
ATOM     79  C   UNL A   1      46.111  28.235  27.887  1.00  0.00     0.030 C 
ATOM     80  C   UNL A   1      44.405  28.161  26.070  1.00  0.00     0.030 C 
ATOM     81  C   UNL A   1      46.927  27.189  27.131  1.00  0.00     0.103 C 
ATOM     82  C   UNL A   1      45.205  27.058  25.378  1.00  0.00     0.103 C 
ATOM     83  N   UNL A   1      46.023  26.278  26.358  1.00  0.00    -0.198 NA
BRANCH  83  84
ATOM     84  S   UNL A   1      46.935  24.985  25.652  1.00  0.00     0.243 S 
ATOM     85  O   UNL A   1      47.238  25.326  24.281  1.00  0.00    -0.207 OA
ATOM     86  O   UNL A   1      47.998  24.646  26.582  1.00  0.00    -0.207 OA
BRANCH  84  87
ATOM     87  C   UNL A   1      45.819  23.593  25.618  1.00  0.00     0.084 A 
ATOM     88  C   UNL A   1      44.444  23.811  25.713  1.00  0.00     0.024 A 
ATOM     89  C   UNL A   1      46.332  22.312  25.368  1.00  0.00     0.043 A 
ATOM     90  C   UNL A   1      43.551  22.735  25.650  1.00  0.00     0.031 A 
ATOM     91  C   UNL A   1      45.418  21.249  25.261  1.00  0.00     0.059 A 
ATOM     92  C   UNL A   1      44.039  21.435  25.414  1.00  0.00     0.085 A 
ATOM     93  S   UNL A   1      45.718  19.582  24.928  1.00  0.00    -0.077 S 
ATOM     94  N   UNL A   1      43.268  20.288  25.301  1.00  0.00    -0.203 NA
ATOM     95  C   UNL A   1      44.053  19.279  25.044  1.00  0.00     0.271 A 
BRANCH  95  96
ATOM     96  O   UNL A   1      43.523  18.082  24.888  1.00  0.00    -0.486 OA
ATOM     97  H   UNL A   1      44.035  17.316  25.068  1.00  0.00     0.296 HD
ENDBRANCH  95  96
ENDBRANCH  84  87
ENDBRANCH  83  84
ENDBRANCH  75  78
ENDBRANCH  73  74
ENDBRANCH  72  73
ENDBRANCH   1  72
TORSDOF 17
ENDMDL
