MODEL 1
REMARK VINA RESULT:     -10.9      0.000      0.000
REMARK SMILES CC(C)(C(=O)NCCCCNC(=O)c1ccc(-c2c3nc(c(-c4cccc(S(=O)(=O)[O-])c4F)c4ccc([nH]4)c(-c4cccc(S(=O)(=O)[O-])c4F)c4nc(c(-c5cccc(S(=O)(=O)[O-])c5F)c5ccc2[nH]5)C=C4)C=C3)cc1)n1cccc1
REMARK SMILES IDX 9 1 8 2 7 3 6 4 4 5 5 6 2 8 1 9 3 10 77 11 78 12 81 13 79 14
REMARK SMILES IDX 80 15 10 16 11 17 12 18 13 20 14 21 15 22 76 23 16 24 75 25
REMARK SMILES IDX 17 26 18 27 19 28 69 29 20 30 74 31 68 32 70 33 21 34 73 35
REMARK SMILES IDX 67 36 66 37 22 39 54 40 34 41 53 42 35 43 38 44 52 45 71 46
REMARK SMILES IDX 36 47 37 48 51 50 72 51 39 52 23 53 24 54 32 55 25 56 27 57
REMARK SMILES IDX 33 58 26 59 28 60 29 61 30 62 31 63 55 64 56 65 64 66 57 67
REMARK SMILES IDX 59 68 65 69 58 70 60 71 61 72 62 73 63 74 40 75 41 76 49 77
REMARK SMILES IDX 42 78 44 79 50 80 43 81 45 82 46 83 47 84 48 85
REMARK H PARENT 6 7 11 19 70 38 38 49
REMARK Flexibility Score: inf
ROOT
ATOM      1  C   UNL A   1      31.739  28.807  26.433  1.00  0.00     0.023 C 
ENDROOT
BRANCH   1   2
ATOM      2  C   UNL A   1      31.983  27.352  26.029  1.00  0.00     0.023 C 
BRANCH   2   3
ATOM      3  C   UNL A   1      30.764  26.626  25.471  1.00  0.00     0.116 C 
BRANCH   3   4
ATOM      4  N   UNL A   1      30.337  25.529  26.319  1.00  0.00    -0.354 N 
ATOM      5  C   UNL A   1      30.574  24.184  26.299  1.00  0.00     0.245 C 
ATOM      6  O   UNL A   1      30.134  23.571  27.277  1.00  0.00    -0.272 OA
ATOM      7  H   UNL A   1      29.757  25.812  27.062  1.00  0.00     0.163 HD
BRANCH   5   8
ATOM      8  C   UNL A   1      31.377  23.480  25.165  1.00  0.00     0.117 C 
ATOM      9  C   UNL A   1      31.422  21.951  25.361  1.00  0.00     0.045 C 
ATOM     10  C   UNL A   1      30.709  23.839  23.819  1.00  0.00     0.045 C 
BRANCH   8  11
ATOM     11  N   UNL A   1      32.806  23.935  25.173  1.00  0.00    -0.340 N 
ATOM     12  C   UNL A   1      33.500  24.504  24.127  1.00  0.00     0.086 A 
ATOM     13  C   UNL A   1      33.696  23.726  26.207  1.00  0.00     0.086 A 
ATOM     14  C   UNL A   1      34.809  24.695  24.517  1.00  0.00     0.019 A 
ATOM     15  C   UNL A   1      34.931  24.204  25.833  1.00  0.00     0.019 A 
ENDBRANCH   8  11
ENDBRANCH   5   8
ENDBRANCH   3   4
ENDBRANCH   2   3
ENDBRANCH   1   2
BRANCH   1  16
ATOM     16  C   UNL A   1      32.727  29.825  25.870  1.00  0.00     0.116 C 
BRANCH  16  17
ATOM     17  N   UNL A   1      32.485  31.183  26.338  1.00  0.00    -0.352 N 
ATOM     18  C   UNL A   1      33.215  31.930  27.232  1.00  0.00     0.251 C 
ATOM     19  H   UNL A   1      31.689  31.626  25.964  1.00  0.00     0.163 HD
ATOM     20  O   UNL A   1      32.804  33.028  27.594  1.00  0.00    -0.269 OA
BRANCH  18  21
ATOM     21  C   UNL A   1      34.478  31.390  27.779  1.00  0.00     0.039 A 
ATOM     22  C   UNL A   1      35.568  32.250  27.938  1.00  0.00     0.014 A 
ATOM     23  C   UNL A   1      34.575  30.049  28.163  1.00  0.00     0.014 A 
ATOM     24  C   UNL A   1      36.733  31.781  28.552  1.00  0.00     0.010 A 
ATOM     25  C   UNL A   1      35.709  29.606  28.837  1.00  0.00     0.010 A 
ATOM     26  C   UNL A   1      36.798  30.466  29.040  1.00  0.00    -0.014 A 
BRANCH  26  27
ATOM     27  C   UNL A   1      37.986  29.976  29.786  1.00  0.00     0.031 A 
ATOM     28  C   UNL A   1      38.255  30.461  31.185  1.00  0.00     0.074 A 
ATOM     29  C   UNL A   1      38.874  29.172  29.169  1.00  0.00     0.049 A 
ATOM     30  N   UNL A   1      39.269  30.196  31.968  1.00  0.00    -0.248 NA
ATOM     31  C   UNL A   1      37.273  31.388  31.770  1.00  0.00     0.031 C 
ATOM     32  C   UNL A   1      38.770  28.700  27.787  1.00  0.00     0.029 A 
ATOM     33  N   UNL A   1      40.056  28.633  29.614  1.00  0.00    -0.354 N 
ATOM     34  C   UNL A   1      39.071  30.953  33.116  1.00  0.00     0.074 A 
ATOM     35  C   UNL A   1      37.854  31.711  32.918  1.00  0.00     0.031 C 
ATOM     36  C   UNL A   1      39.839  27.940  27.499  1.00  0.00     0.029 A 
ATOM     37  C   UNL A   1      40.717  27.891  28.663  1.00  0.00     0.049 A 
ATOM     38  H   UNL A   1      40.398  28.766  30.527  1.00  0.00     0.167 HD
ATOM     39  C   UNL A   1      39.816  30.993  34.246  1.00  0.00     0.034 A 
ATOM     40  C   UNL A   1      41.899  27.244  28.722  1.00  0.00     0.034 A 
ATOM     41  C   UNL A   1      40.993  30.197  34.462  1.00  0.00     0.049 A 
ATOM     42  C   UNL A   1      42.679  27.262  30.010  1.00  0.00     0.074 A 
ATOM     43  C   UNL A   1      41.756  30.085  35.611  1.00  0.00     0.029 A 
ATOM     44  N   UNL A   1      41.582  29.379  33.510  1.00  0.00    -0.354 N 
ATOM     45  N   UNL A   1      42.382  27.844  31.146  1.00  0.00    -0.248 NA
ATOM     46  C   UNL A   1      43.938  26.502  30.034  1.00  0.00     0.031 C 
ATOM     47  C   UNL A   1      42.818  29.212  35.347  1.00  0.00     0.029 A 
ATOM     48  C   UNL A   1      42.704  28.766  34.040  1.00  0.00     0.049 A 
ATOM     49  H   UNL A   1      41.250  29.254  32.591  1.00  0.00     0.167 HD
ATOM     50  C   UNL A   1      43.395  27.492  32.031  1.00  0.00     0.074 A 
ATOM     51  C   UNL A   1      44.304  26.629  31.303  1.00  0.00     0.031 C 
ATOM     52  C   UNL A   1      43.567  27.862  33.324  1.00  0.00     0.034 A 
BRANCH  39  53
ATOM     53  C   UNL A   1      39.346  31.886  35.364  1.00  0.00     0.023 A 
ATOM     54  C   UNL A   1      38.459  31.373  36.334  1.00  0.00     0.012 A 
ATOM     55  C   UNL A   1      39.821  33.205  35.491  1.00  0.00     0.148 A 
ATOM     56  C   UNL A   1      38.026  32.170  37.393  1.00  0.00     0.002 A 
ATOM     57  C   UNL A   1      39.419  33.979  36.574  1.00  0.00     0.091 A 
ATOM     58  F   UNL A   1      40.645  33.683  34.547  1.00  0.00    -0.205 F 
ATOM     59  C   UNL A   1      38.514  33.467  37.519  1.00  0.00     0.022 A 
BRANCH  57  60
ATOM     60  S   UNL A   1      40.050  35.635  36.867  1.00  0.00     0.127 S 
ATOM     61  O   UNL A   1      39.540  36.356  35.702  1.00  0.00    -0.237 OA
ATOM     62  O   UNL A   1      39.408  35.991  38.134  1.00  0.00    -0.237 OA
ATOM     63  O   UNL A   1      41.498  35.503  36.939  1.00  0.00    -0.744 OA
ENDBRANCH  57  60
ENDBRANCH  39  53
BRANCH  40  64
ATOM     64  C   UNL A   1      42.377  26.457  27.551  1.00  0.00     0.023 A 
ATOM     65  C   UNL A   1      43.189  27.088  26.587  1.00  0.00     0.012 A 
ATOM     66  C   UNL A   1      42.064  25.093  27.397  1.00  0.00     0.148 A 
ATOM     67  C   UNL A   1      43.653  26.383  25.476  1.00  0.00     0.002 A 
ATOM     68  C   UNL A   1      42.575  24.383  26.316  1.00  0.00     0.091 A 
ATOM     69  F   UNL A   1      41.281  24.514  28.318  1.00  0.00    -0.205 F 
ATOM     70  C   UNL A   1      43.355  25.030  25.346  1.00  0.00     0.022 A 
BRANCH  68  71
ATOM     71  S   UNL A   1      42.351  22.609  26.138  1.00  0.00     0.127 S 
ATOM     72  O   UNL A   1      40.896  22.493  26.119  1.00  0.00    -0.237 OA
ATOM     73  O   UNL A   1      43.008  22.349  24.856  1.00  0.00    -0.237 OA
ATOM     74  O   UNL A   1      43.022  22.014  27.286  1.00  0.00    -0.744 OA
ENDBRANCH  68  71
ENDBRANCH  40  64
BRANCH  52  75
ATOM     75  C   UNL A   1      44.761  27.313  34.057  1.00  0.00     0.023 A 
ATOM     76  C   UNL A   1      45.958  28.055  34.099  1.00  0.00     0.012 A 
ATOM     77  C   UNL A   1      44.672  26.102  34.771  1.00  0.00     0.148 A 
ATOM     78  C   UNL A   1      47.058  27.585  34.816  1.00  0.00     0.002 A 
ATOM     79  C   UNL A   1      45.757  25.663  35.522  1.00  0.00     0.091 A 
ATOM     80  F   UNL A   1      43.532  25.400  34.703  1.00  0.00    -0.205 F 
ATOM     81  C   UNL A   1      46.953  26.398  35.538  1.00  0.00     0.022 A 
BRANCH  79  82
ATOM     82  S   UNL A   1      45.678  24.197  36.558  1.00  0.00     0.127 S 
ATOM     83  O   UNL A   1      44.739  24.617  37.597  1.00  0.00    -0.237 OA
ATOM     84  O   UNL A   1      45.156  23.190  35.635  1.00  0.00    -0.237 OA
ATOM     85  O   UNL A   1      47.042  23.952  37.007  1.00  0.00    -0.744 OA
ENDBRANCH  79  82
ENDBRANCH  52  75
ENDBRANCH  26  27
ENDBRANCH  18  21
ENDBRANCH  16  17
ENDBRANCH   1  16
TORSDOF 15
ENDMDL
MODEL 2
REMARK VINA RESULT:     -10.9      1.273      1.578
REMARK SMILES CC(C)(C(=O)NCCCCNC(=O)c1ccc(-c2c3nc(c(-c4cccc(S(=O)(=O)[O-])c4F)c4ccc([nH]4)c(-c4cccc(S(=O)(=O)[O-])c4F)c4nc(c(-c5cccc(S(=O)(=O)[O-])c5F)c5ccc2[nH]5)C=C4)C=C3)cc1)n1cccc1
REMARK SMILES IDX 9 1 8 2 7 3 6 4 4 5 5 6 2 8 1 9 3 10 77 11 78 12 81 13 79 14
REMARK SMILES IDX 80 15 10 16 11 17 12 18 13 20 14 21 15 22 76 23 16 24 75 25
REMARK SMILES IDX 17 26 18 27 19 28 69 29 20 30 74 31 68 32 70 33 21 34 73 35
REMARK SMILES IDX 67 36 66 37 22 39 54 40 34 41 53 42 35 43 38 44 52 45 71 46
REMARK SMILES IDX 36 47 37 48 51 50 72 51 39 52 23 53 24 54 32 55 25 56 27 57
REMARK SMILES IDX 33 58 26 59 28 60 29 61 30 62 31 63 55 64 56 65 64 66 57 67
REMARK SMILES IDX 59 68 65 69 58 70 60 71 61 72 62 73 63 74 40 75 41 76 49 77
REMARK SMILES IDX 42 78 44 79 50 80 43 81 45 82 46 83 47 84 48 85
REMARK H PARENT 6 7 11 19 70 38 38 49
REMARK Flexibility Score: inf
ROOT
ATOM      1  C   UNL A   1      31.898  28.808  26.653  1.00  0.00     0.023 C 
ENDROOT
BRANCH   1   2
ATOM      2  C   UNL A   1      32.194  27.319  26.469  1.00  0.00     0.023 C 
BRANCH   2   3
ATOM      3  C   UNL A   1      31.119  26.537  25.723  1.00  0.00     0.116 C 
BRANCH   3   4
ATOM      4  N   UNL A   1      30.609  25.420  26.497  1.00  0.00    -0.354 N 
ATOM      5  C   UNL A   1      30.738  24.066  26.381  1.00  0.00     0.245 C 
ATOM      6  O   UNL A   1      30.255  23.423  27.318  1.00  0.00    -0.272 OA
ATOM      7  H   UNL A   1      30.058  25.696  27.264  1.00  0.00     0.163 HD
BRANCH   5   8
ATOM      8  C   UNL A   1      31.476  23.381  25.192  1.00  0.00     0.117 C 
ATOM      9  C   UNL A   1      31.502  21.846  25.343  1.00  0.00     0.045 C 
ATOM     10  C   UNL A   1      30.755  23.789  23.888  1.00  0.00     0.045 C 
BRANCH   8  11
ATOM     11  N   UNL A   1      32.912  23.811  25.148  1.00  0.00    -0.340 N 
ATOM     12  C   UNL A   1      33.767  23.957  26.219  1.00  0.00     0.086 A 
ATOM     13  C   UNL A   1      33.567  24.260  24.019  1.00  0.00     0.086 A 
ATOM     14  C   UNL A   1      34.968  24.453  25.760  1.00  0.00     0.019 A 
ATOM     15  C   UNL A   1      34.841  24.643  24.369  1.00  0.00     0.019 A 
ENDBRANCH   8  11
ENDBRANCH   5   8
ENDBRANCH   3   4
ENDBRANCH   2   3
ENDBRANCH   1   2
BRANCH   1  16
ATOM     16  C   UNL A   1      32.975  29.764  26.147  1.00  0.00     0.116 C 
BRANCH  16  17
ATOM     17  N   UNL A   1      32.793  31.134  26.607  1.00  0.00    -0.352 N 
ATOM     18  C   UNL A   1      33.582  31.871  27.457  1.00  0.00     0.251 C 
ATOM     19  H   UNL A   1      31.993  31.594  26.263  1.00  0.00     0.163 HD
ATOM     20  O   UNL A   1      33.218  32.985  27.823  1.00  0.00    -0.269 OA
BRANCH  18  21
ATOM     21  C   UNL A   1      34.853  31.302  27.955  1.00  0.00     0.039 A 
ATOM     22  C   UNL A   1      35.981  32.123  28.020  1.00  0.00     0.014 A 
ATOM     23  C   UNL A   1      34.921  29.974  28.385  1.00  0.00     0.014 A 
ATOM     24  C   UNL A   1      37.161  31.632  28.586  1.00  0.00     0.010 A 
ATOM     25  C   UNL A   1      36.074  29.511  29.013  1.00  0.00     0.010 A 
ATOM     26  C   UNL A   1      37.205  30.335  29.121  1.00  0.00    -0.014 A 
BRANCH  26  27
ATOM     27  C   UNL A   1      38.413  29.826  29.820  1.00  0.00     0.031 A 
ATOM     28  C   UNL A   1      38.776  30.348  31.183  1.00  0.00     0.074 A 
ATOM     29  C   UNL A   1      39.238  28.970  29.184  1.00  0.00     0.049 A 
ATOM     30  N   UNL A   1      39.822  30.072  31.920  1.00  0.00    -0.248 NA
ATOM     31  C   UNL A   1      37.861  31.330  31.787  1.00  0.00     0.031 C 
ATOM     32  C   UNL A   1      39.041  28.455  27.828  1.00  0.00     0.029 A 
ATOM     33  N   UNL A   1      40.422  28.403  29.585  1.00  0.00    -0.354 N 
ATOM     34  C   UNL A   1      39.714  30.874  33.049  1.00  0.00     0.074 A 
ATOM     35  C   UNL A   1      38.516  31.669  32.890  1.00  0.00     0.031 C 
ATOM     36  C   UNL A   1      40.065  27.646  27.510  1.00  0.00     0.029 A 
ATOM     37  C   UNL A   1      41.004  27.604  28.627  1.00  0.00     0.049 A 
ATOM     38  H   UNL A   1      40.818  28.553  30.473  1.00  0.00     0.167 HD
ATOM     39  C   UNL A   1      40.521  30.924  34.135  1.00  0.00     0.034 A 
ATOM     40  C   UNL A   1      42.163  26.916  28.645  1.00  0.00     0.034 A 
ATOM     41  C   UNL A   1      41.680  30.093  34.316  1.00  0.00     0.049 A 
ATOM     42  C   UNL A   1      43.013  26.948  29.887  1.00  0.00     0.074 A 
ATOM     43  C   UNL A   1      42.500  29.991  35.426  1.00  0.00     0.029 A 
ATOM     44  N   UNL A   1      42.186  29.222  33.363  1.00  0.00    -0.354 N 
ATOM     45  N   UNL A   1      42.800  27.579  31.017  1.00  0.00    -0.248 NA
ATOM     46  C   UNL A   1      44.243  26.143  29.871  1.00  0.00     0.031 C 
ATOM     47  C   UNL A   1      43.514  29.071  35.136  1.00  0.00     0.029 A 
ATOM     48  C   UNL A   1      43.313  28.586  33.854  1.00  0.00     0.049 A 
ATOM     49  H   UNL A   1      41.800  29.079  32.469  1.00  0.00     0.167 HD
ATOM     50  C   UNL A   1      43.847  27.220  31.857  1.00  0.00     0.074 A 
ATOM     51  C   UNL A   1      44.683  26.300  31.113  1.00  0.00     0.031 C 
ATOM     52  C   UNL A   1      44.103  27.627  33.125  1.00  0.00     0.034 A 
BRANCH  39  53
ATOM     53  C   UNL A   1      40.145  31.871  35.245  1.00  0.00     0.023 A 
ATOM     54  C   UNL A   1      40.758  33.139  35.310  1.00  0.00     0.012 A 
ATOM     55  C   UNL A   1      39.150  31.535  36.183  1.00  0.00     0.148 A 
ATOM     56  C   UNL A   1      40.413  34.045  36.312  1.00  0.00     0.002 A 
ATOM     57  C   UNL A   1      38.780  32.461  37.153  1.00  0.00     0.091 A 
ATOM     58  F   UNL A   1      38.594  30.317  36.120  1.00  0.00    -0.205 F 
ATOM     59  C   UNL A   1      39.417  33.711  37.225  1.00  0.00     0.022 A 
BRANCH  57  60
ATOM     60  S   UNL A   1      37.455  32.155  38.326  1.00  0.00     0.127 S 
ATOM     61  O   UNL A   1      36.393  33.012  37.801  1.00  0.00    -0.237 OA
ATOM     62  O   UNL A   1      37.219  30.720  38.159  1.00  0.00    -0.237 OA
ATOM     63  O   UNL A   1      37.981  32.534  39.630  1.00  0.00    -0.744 OA
ENDBRANCH  57  60
ENDBRANCH  39  53
BRANCH  40  64
ATOM     64  C   UNL A   1      42.548  26.073  27.478  1.00  0.00     0.023 A 
ATOM     65  C   UNL A   1      43.352  26.632  26.465  1.00  0.00     0.012 A 
ATOM     66  C   UNL A   1      42.155  24.725  27.377  1.00  0.00     0.148 A 
ATOM     67  C   UNL A   1      43.730  25.873  25.357  1.00  0.00     0.002 A 
ATOM     68  C   UNL A   1      42.580  23.959  26.297  1.00  0.00     0.091 A 
ATOM     69  F   UNL A   1      41.379  24.216  28.344  1.00  0.00    -0.205 F 
ATOM     70  C   UNL A   1      43.353  24.535  25.277  1.00  0.00     0.022 A 
BRANCH  68  71
ATOM     71  S   UNL A   1      42.251  22.197  26.179  1.00  0.00     0.127 S 
ATOM     72  O   UNL A   1      40.798  22.173  26.037  1.00  0.00    -0.237 OA
ATOM     73  O   UNL A   1      42.995  21.831  24.972  1.00  0.00    -0.237 OA
ATOM     74  O   UNL A   1      42.781  21.618  27.406  1.00  0.00    -0.744 OA
ENDBRANCH  68  71
ENDBRANCH  40  64
BRANCH  52  75
ATOM     75  C   UNL A   1      45.315  27.059  33.813  1.00  0.00     0.023 A 
ATOM     76  C   UNL A   1      46.538  27.757  33.765  1.00  0.00     0.012 A 
ATOM     77  C   UNL A   1      45.223  25.875  34.571  1.00  0.00     0.148 A 
ATOM     78  C   UNL A   1      47.658  27.272  34.439  1.00  0.00     0.002 A 
ATOM     79  C   UNL A   1      46.331  25.422  35.278  1.00  0.00     0.091 A 
ATOM     80  F   UNL A   1      44.057  25.213  34.588  1.00  0.00    -0.205 F 
ATOM     81  C   UNL A   1      47.552  26.113  35.205  1.00  0.00     0.022 A 
BRANCH  79  82
ATOM     82  S   UNL A   1      46.258  23.994  36.366  1.00  0.00     0.127 S 
ATOM     83  O   UNL A   1      47.604  23.985  36.937  1.00  0.00    -0.237 OA
ATOM     84  O   UNL A   1      45.200  24.369  37.304  1.00  0.00    -0.237 OA
ATOM     85  O   UNL A   1      45.931  22.859  35.513  1.00  0.00    -0.744 OA
ENDBRANCH  79  82
ENDBRANCH  52  75
ENDBRANCH  26  27
ENDBRANCH  18  21
ENDBRANCH  16  17
ENDBRANCH   1  16
TORSDOF 15
ENDMDL
MODEL 3
REMARK VINA RESULT:     -10.8      2.746      8.535
REMARK SMILES CC(C)(C(=O)NCCCCNC(=O)c1ccc(-c2c3nc(c(-c4cccc(S(=O)(=O)[O-])c4F)c4ccc([nH]4)c(-c4cccc(S(=O)(=O)[O-])c4F)c4nc(c(-c5cccc(S(=O)(=O)[O-])c5F)c5ccc2[nH]5)C=C4)C=C3)cc1)n1cccc1
REMARK SMILES IDX 9 1 8 2 7 3 6 4 4 5 5 6 2 8 1 9 3 10 77 11 78 12 81 13 79 14
REMARK SMILES IDX 80 15 10 16 11 17 12 18 13 20 14 21 15 22 76 23 16 24 75 25
REMARK SMILES IDX 17 26 18 27 19 28 69 29 20 30 74 31 68 32 70 33 21 34 73 35
REMARK SMILES IDX 67 36 66 37 22 39 54 40 34 41 53 42 35 43 38 44 52 45 71 46
REMARK SMILES IDX 36 47 37 48 51 50 72 51 39 52 23 53 24 54 32 55 25 56 27 57
REMARK SMILES IDX 33 58 26 59 28 60 29 61 30 62 31 63 55 64 56 65 64 66 57 67
REMARK SMILES IDX 59 68 65 69 58 70 60 71 61 72 62 73 63 74 40 75 41 76 49 77
REMARK SMILES IDX 42 78 44 79 50 80 43 81 45 82 46 83 47 84 48 85
REMARK H PARENT 6 7 11 19 70 38 38 49
REMARK Flexibility Score: inf
ROOT
ATOM      1  C   UNL A   1      31.793  31.405  27.005  1.00  0.00     0.023 C 
ENDROOT
BRANCH   1   2
ATOM      2  C   UNL A   1      31.897  30.493  25.782  1.00  0.00     0.023 C 
BRANCH   2   3
ATOM      3  C   UNL A   1      33.035  29.479  25.831  1.00  0.00     0.116 C 
BRANCH   3   4
ATOM      4  N   UNL A   1      33.741  29.379  24.567  1.00  0.00    -0.354 N 
ATOM      5  C   UNL A   1      33.823  28.403  23.616  1.00  0.00     0.245 C 
ATOM      6  O   UNL A   1      34.435  28.731  22.595  1.00  0.00    -0.272 OA
ATOM      7  H   UNL A   1      34.271  30.180  24.351  1.00  0.00     0.163 HD
BRANCH   5   8
ATOM      8  C   UNL A   1      33.157  27.003  23.776  1.00  0.00     0.117 C 
ATOM      9  C   UNL A   1      33.525  26.059  22.613  1.00  0.00     0.045 C 
ATOM     10  C   UNL A   1      33.617  26.411  25.126  1.00  0.00     0.045 C 
BRANCH   8  11
ATOM     11  N   UNL A   1      31.663  27.126  23.745  1.00  0.00    -0.340 N 
ATOM     12  C   UNL A   1      30.751  26.305  24.373  1.00  0.00     0.086 A 
ATOM     13  C   UNL A   1      30.959  28.017  22.960  1.00  0.00     0.086 A 
ATOM     14  C   UNL A   1      29.480  26.706  24.022  1.00  0.00     0.019 A 
ATOM     15  C   UNL A   1      29.613  27.789  23.130  1.00  0.00     0.019 A 
ENDBRANCH   8  11
ENDBRANCH   5   8
ENDBRANCH   3   4
ENDBRANCH   2   3
ENDBRANCH   1   2
BRANCH   1  16
ATOM     16  C   UNL A   1      32.987  32.323  27.250  1.00  0.00     0.116 C 
BRANCH  16  17
ATOM     17  N   UNL A   1      32.608  33.696  27.549  1.00  0.00    -0.352 N 
ATOM     18  C   UNL A   1      33.126  34.549  28.494  1.00  0.00     0.251 C 
ATOM     19  H   UNL A   1      31.878  34.065  26.999  1.00  0.00     0.163 HD
ATOM     20  O   UNL A   1      32.610  35.647  28.680  1.00  0.00    -0.269 OA
BRANCH  18  21
ATOM     21  C   UNL A   1      34.286  34.124  29.307  1.00  0.00     0.039 A 
ATOM     22  C   UNL A   1      34.058  33.430  30.498  1.00  0.00     0.014 A 
ATOM     23  C   UNL A   1      35.591  34.381  28.878  1.00  0.00     0.014 A 
ATOM     24  C   UNL A   1      35.142  32.929  31.223  1.00  0.00     0.010 A 
ATOM     25  C   UNL A   1      36.664  33.820  29.565  1.00  0.00     0.010 A 
ATOM     26  C   UNL A   1      36.452  33.087  30.742  1.00  0.00    -0.014 A 
BRANCH  26  27
ATOM     27  C   UNL A   1      37.612  32.475  31.440  1.00  0.00     0.031 A 
ATOM     28  C   UNL A   1      38.362  31.336  30.807  1.00  0.00     0.074 A 
ATOM     29  C   UNL A   1      37.926  32.880  32.687  1.00  0.00     0.049 A 
ATOM     30  N   UNL A   1      39.356  30.635  31.289  1.00  0.00    -0.248 NA
ATOM     31  C   UNL A   1      37.920  30.906  29.470  1.00  0.00     0.031 C 
ATOM     32  C   UNL A   1      37.222  33.917  33.443  1.00  0.00     0.029 A 
ATOM     33  N   UNL A   1      38.902  32.447  33.550  1.00  0.00    -0.354 N 
ATOM     34  C   UNL A   1      39.630  29.659  30.339  1.00  0.00     0.074 A 
ATOM     35  C   UNL A   1      38.679  29.838  29.263  1.00  0.00     0.031 C 
ATOM     36  C   UNL A   1      37.790  34.044  34.653  1.00  0.00     0.029 A 
ATOM     37  C   UNL A   1      38.880  33.080  34.771  1.00  0.00     0.049 A 
ATOM     38  H   UNL A   1      39.555  31.748  33.318  1.00  0.00     0.167 HD
ATOM     39  C   UNL A   1      40.604  28.718  30.344  1.00  0.00     0.034 A 
ATOM     40  C   UNL A   1      39.651  32.905  35.864  1.00  0.00     0.034 A 
ATOM     41  C   UNL A   1      41.582  28.578  31.388  1.00  0.00     0.049 A 
ATOM     42  C   UNL A   1      40.760  31.887  35.821  1.00  0.00     0.074 A 
ATOM     43  C   UNL A   1      42.672  27.728  31.435  1.00  0.00     0.029 A 
ATOM     44  N   UNL A   1      41.589  29.304  32.569  1.00  0.00    -0.354 N 
ATOM     45  N   UNL A   1      41.113  31.093  34.840  1.00  0.00    -0.248 NA
ATOM     46  C   UNL A   1      41.599  31.769  37.022  1.00  0.00     0.031 C 
ATOM     47  C   UNL A   1      43.329  27.927  32.656  1.00  0.00     0.029 A 
ATOM     48  C   UNL A   1      42.658  28.915  33.358  1.00  0.00     0.049 A 
ATOM     49  H   UNL A   1      40.930  29.994  32.811  1.00  0.00     0.167 HD
ATOM     50  C   UNL A   1      42.236  30.408  35.289  1.00  0.00     0.074 A 
ATOM     51  C   UNL A   1      42.516  30.896  36.624  1.00  0.00     0.031 C 
ATOM     52  C   UNL A   1      42.961  29.451  34.660  1.00  0.00     0.034 A 
BRANCH  39  53
ATOM     53  C   UNL A   1      40.696  27.799  29.154  1.00  0.00     0.023 A 
ATOM     54  C   UNL A   1      39.840  26.681  29.074  1.00  0.00     0.012 A 
ATOM     55  C   UNL A   1      41.582  28.069  28.093  1.00  0.00     0.148 A 
ATOM     56  C   UNL A   1      39.888  25.827  27.973  1.00  0.00     0.002 A 
ATOM     57  C   UNL A   1      41.593  27.237  26.979  1.00  0.00     0.091 A 
ATOM     58  F   UNL A   1      42.404  29.123  28.197  1.00  0.00    -0.205 F 
ATOM     59  C   UNL A   1      40.755  26.111  26.922  1.00  0.00     0.022 A 
BRANCH  57  60
ATOM     60  S   UNL A   1      42.618  27.561  25.540  1.00  0.00     0.127 S 
ATOM     61  O   UNL A   1      42.347  26.385  24.715  1.00  0.00    -0.237 OA
ATOM     62  O   UNL A   1      42.049  28.809  25.029  1.00  0.00    -0.237 OA
ATOM     63  O   UNL A   1      43.981  27.677  26.039  1.00  0.00    -0.744 OA
ENDBRANCH  57  60
ENDBRANCH  39  53
BRANCH  40  64
ATOM     64  C   UNL A   1      39.453  33.768  37.062  1.00  0.00     0.023 A 
ATOM     65  C   UNL A   1      39.895  35.105  37.025  1.00  0.00     0.012 A 
ATOM     66  C   UNL A   1      38.807  33.291  38.219  1.00  0.00     0.148 A 
ATOM     67  C   UNL A   1      39.727  35.942  38.128  1.00  0.00     0.002 A 
ATOM     68  C   UNL A   1      38.595  34.146  39.296  1.00  0.00     0.091 A 
ATOM     69  F   UNL A   1      38.405  32.013  38.240  1.00  0.00    -0.205 F 
ATOM     70  C   UNL A   1      39.069  35.466  39.259  1.00  0.00     0.022 A 
BRANCH  68  71
ATOM     71  S   UNL A   1      37.643  33.657  40.739  1.00  0.00     0.127 S 
ATOM     72  O   UNL A   1      38.525  32.672  41.359  1.00  0.00    -0.237 OA
ATOM     73  O   UNL A   1      37.524  34.922  41.465  1.00  0.00    -0.237 OA
ATOM     74  O   UNL A   1      36.382  33.145  40.220  1.00  0.00    -0.744 OA
ENDBRANCH  68  71
ENDBRANCH  40  64
BRANCH  52  75
ATOM     75  C   UNL A   1      44.152  28.884  35.385  1.00  0.00     0.023 A 
ATOM     76  C   UNL A   1      45.423  29.462  35.201  1.00  0.00     0.012 A 
ATOM     77  C   UNL A   1      43.998  27.831  36.308  1.00  0.00     0.148 A 
ATOM     78  C   UNL A   1      46.529  28.982  35.903  1.00  0.00     0.002 A 
ATOM     79  C   UNL A   1      45.094  27.388  37.039  1.00  0.00     0.091 A 
ATOM     80  F   UNL A   1      42.784  27.279  36.454  1.00  0.00    -0.205 F 
ATOM     81  C   UNL A   1      46.362  27.955  36.831  1.00  0.00     0.022 A 
BRANCH  79  82
ATOM     82  S   UNL A   1      44.953  26.139  38.322  1.00  0.00     0.127 S 
ATOM     83  O   UNL A   1      43.923  26.714  39.186  1.00  0.00    -0.237 OA
ATOM     84  O   UNL A   1      44.527  24.961  37.567  1.00  0.00    -0.237 OA
ATOM     85  O   UNL A   1      46.279  26.025  38.916  1.00  0.00    -0.744 OA
ENDBRANCH  79  82
ENDBRANCH  52  75
ENDBRANCH  26  27
ENDBRANCH  18  21
ENDBRANCH  16  17
ENDBRANCH   1  16
TORSDOF 15
ENDMDL
