MODEL 1
REMARK VINA RESULT:     -11.7      0.000      0.000
REMARK SMILES CC[C@@H]1CCCN1C(=O)N[C@H]1C=C[C@@H](C(=O)NCCCCNC(=O)c2ccc(-c3c4nc(c(-c5cccc(S(=O)(=O)[O-])c5F)c5ccc([nH]5)c(-c5cccc(S(=O)(=O)[O-])c5F)c5nc(c(-c6cccc(S(=O)(=O)[O-])c6F)c6ccc3[nH]6)C=C5)C=C4)cc2)C1
REMARK SMILES IDX 19 1 18 2 17 3 15 4 16 5 14 7 11 8 12 9 88 10 13 11 10 12
REMARK SMILES IDX 8 13 9 14 7 16 3 17 4 18 5 19 6 20 2 21 1 22 20 23 21 24
REMARK SMILES IDX 22 25 23 26 24 28 25 29 26 30 87 31 27 32 86 33 28 34 29 35
REMARK SMILES IDX 30 36 80 37 31 38 85 39 79 40 81 41 32 42 84 43 78 44 77 45
REMARK SMILES IDX 33 47 65 48 45 49 64 50 46 51 49 52 63 53 82 54 47 55 48 56
REMARK SMILES IDX 62 58 83 59 50 60 34 61 35 62 43 63 36 64 38 65 44 66 37 67
REMARK SMILES IDX 39 68 40 69 41 70 42 71 66 72 67 73 75 74 68 75 70 76 76 77
REMARK SMILES IDX 69 78 71 79 72 80 73 81 74 82 51 83 52 84 60 85 53 86 55 87
REMARK SMILES IDX 61 88 54 89 56 90 57 91 58 92 59 93
REMARK H PARENT 17 6 10 15 22 27 81 46 49 57
REMARK Flexibility Score: inf
ROOT
ATOM      1  C   UNL A   1      32.625  27.955  27.219  1.00  0.00     0.023 C 
ENDROOT
BRANCH   1   2
ATOM      2  C   UNL A   1      31.751  26.902  26.540  1.00  0.00     0.116 C 
BRANCH   2   3
ATOM      3  N   UNL A   1      30.939  27.470  25.482  1.00  0.00    -0.356 N 
ATOM      4  C   UNL A   1      31.088  27.399  24.131  1.00  0.00     0.227 C 
ATOM      5  O   UNL A   1      30.254  27.974  23.425  1.00  0.00    -0.274 OA
ATOM      6  H   UNL A   1      30.159  27.987  25.789  1.00  0.00     0.163 HD
BRANCH   4   7
ATOM      7  C   UNL A   1      32.253  26.654  23.479  1.00  0.00     0.103 C 
ATOM      8  C   UNL A   1      32.890  24.516  22.532  1.00  0.00     0.107 C 
ATOM      9  C   UNL A   1      32.593  25.514  21.456  1.00  0.00    -0.006 C 
ATOM     10  C   UNL A   1      32.258  25.156  23.765  1.00  0.00     0.047 C 
ATOM     11  C   UNL A   1      32.290  26.711  21.979  1.00  0.00    -0.016 C 
BRANCH   8  12
ATOM     12  N   UNL A   1      32.312  23.244  22.227  1.00  0.00    -0.332 N 
ATOM     13  C   UNL A   1      32.443  21.982  22.624  1.00  0.00     0.318 C 
ATOM     14  O   UNL A   1      31.804  21.193  21.909  1.00  0.00    -0.249 OA
ATOM     15  H   UNL A   1      31.623  23.327  21.529  1.00  0.00     0.165 HD
BRANCH  13  16
ATOM     16  N   UNL A   1      33.216  21.509  23.638  1.00  0.00    -0.322 N 
ATOM     17  C   UNL A   1      34.444  21.872  24.392  1.00  0.00     0.086 C 
ATOM     18  C   UNL A   1      34.851  20.503  24.961  1.00  0.00     0.027 C 
ATOM     19  C   UNL A   1      33.534  19.951  25.451  1.00  0.00     0.024 C 
ATOM     20  C   UNL A   1      32.544  20.453  24.413  1.00  0.00     0.122 C 
BRANCH  17  21
ATOM     21  C   UNL A   1      35.698  22.526  23.824  1.00  0.00     0.022 C 
ATOM     22  C   UNL A   1      36.964  21.912  24.407  1.00  0.00     0.006 C 
ENDBRANCH  17  21
ENDBRANCH  13  16
ENDBRANCH   8  12
ENDBRANCH   4   7
ENDBRANCH   2   3
ENDBRANCH   1   2
BRANCH   1  23
ATOM     23  C   UNL A   1      32.099  29.382  27.116  1.00  0.00     0.023 C 
BRANCH  23  24
ATOM     24  C   UNL A   1      33.059  30.364  26.465  1.00  0.00     0.116 C 
BRANCH  24  25
ATOM     25  N   UNL A   1      32.840  31.749  26.863  1.00  0.00    -0.352 N 
ATOM     26  C   UNL A   1      33.644  32.516  27.670  1.00  0.00     0.251 C 
ATOM     27  H   UNL A   1      32.029  32.182  26.514  1.00  0.00     0.163 HD
ATOM     28  O   UNL A   1      33.312  33.649  28.002  1.00  0.00    -0.269 OA
BRANCH  26  29
ATOM     29  C   UNL A   1      34.899  31.919  28.162  1.00  0.00     0.039 A 
ATOM     30  C   UNL A   1      36.056  32.697  28.182  1.00  0.00     0.014 A 
ATOM     31  C   UNL A   1      34.891  30.626  28.692  1.00  0.00     0.014 A 
ATOM     32  C   UNL A   1      37.207  32.186  28.780  1.00  0.00     0.010 A 
ATOM     33  C   UNL A   1      36.007  30.162  29.371  1.00  0.00     0.010 A 
ATOM     34  C   UNL A   1      37.183  30.924  29.396  1.00  0.00    -0.014 A 
BRANCH  34  35
ATOM     35  C   UNL A   1      38.397  30.356  30.027  1.00  0.00     0.031 A 
ATOM     36  C   UNL A   1      38.799  30.816  31.403  1.00  0.00     0.074 A 
ATOM     37  C   UNL A   1      39.169  29.491  29.342  1.00  0.00     0.049 A 
ATOM     38  N   UNL A   1      39.838  30.472  32.116  1.00  0.00    -0.248 NA
ATOM     39  C   UNL A   1      37.941  31.827  32.047  1.00  0.00     0.031 C 
ATOM     40  C   UNL A   1      38.934  29.047  27.966  1.00  0.00     0.029 A 
ATOM     41  N   UNL A   1      40.323  28.846  29.706  1.00  0.00    -0.354 N 
ATOM     42  C   UNL A   1      39.780  31.252  33.265  1.00  0.00     0.074 A 
ATOM     43  C   UNL A   1      38.636  32.124  33.132  1.00  0.00     0.031 C 
ATOM     44  C   UNL A   1      39.906  28.191  27.609  1.00  0.00     0.029 A 
ATOM     45  C   UNL A   1      40.838  28.037  28.720  1.00  0.00     0.049 A 
ATOM     46  H   UNL A   1      40.742  28.950  30.591  1.00  0.00     0.167 HD
ATOM     47  C   UNL A   1      40.582  31.216  34.356  1.00  0.00     0.034 A 
ATOM     48  C   UNL A   1      41.934  27.254  28.723  1.00  0.00     0.034 A 
ATOM     49  C   UNL A   1      41.675  30.298  34.509  1.00  0.00     0.049 A 
ATOM     50  C   UNL A   1      42.756  27.164  29.982  1.00  0.00     0.074 A 
ATOM     51  C   UNL A   1      42.494  30.109  35.607  1.00  0.00     0.029 A 
ATOM     52  N   UNL A   1      42.097  29.408  33.535  1.00  0.00    -0.354 N 
ATOM     53  N   UNL A   1      42.590  27.788  31.124  1.00  0.00    -0.248 NA
ATOM     54  C   UNL A   1      43.887  26.226  29.970  1.00  0.00     0.031 C 
ATOM     55  C   UNL A   1      43.419  29.108  35.292  1.00  0.00     0.029 A 
ATOM     56  C   UNL A   1      43.162  28.662  34.005  1.00  0.00     0.049 A 
ATOM     57  H   UNL A   1      41.698  29.320  32.639  1.00  0.00     0.167 HD
ATOM     58  C   UNL A   1      43.568  27.290  31.976  1.00  0.00     0.074 A 
ATOM     59  C   UNL A   1      44.306  26.295  31.226  1.00  0.00     0.031 C 
ATOM     60  C   UNL A   1      43.843  27.634  33.259  1.00  0.00     0.034 A 
BRANCH  47  61
ATOM     61  C   UNL A   1      40.253  32.151  35.491  1.00  0.00     0.023 A 
ATOM     62  C   UNL A   1      40.994  33.342  35.646  1.00  0.00     0.012 A 
ATOM     63  C   UNL A   1      39.199  31.872  36.381  1.00  0.00     0.148 A 
ATOM     64  C   UNL A   1      40.721  34.219  36.695  1.00  0.00     0.002 A 
ATOM     65  C   UNL A   1      38.901  32.776  37.396  1.00  0.00     0.091 A 
ATOM     66  F   UNL A   1      38.522  30.725  36.235  1.00  0.00    -0.205 F 
ATOM     67  C   UNL A   1      39.669  33.940  37.562  1.00  0.00     0.022 A 
BRANCH  65  68
ATOM     68  S   UNL A   1      37.515  32.551  38.517  1.00  0.00     0.127 S 
ATOM     69  O   UNL A   1      37.886  33.432  39.624  1.00  0.00    -0.237 OA
ATOM     70  O   UNL A   1      36.389  33.024  37.712  1.00  0.00    -0.237 OA
ATOM     71  O   UNL A   1      37.481  31.129  38.832  1.00  0.00    -0.744 OA
ENDBRANCH  65  68
ENDBRANCH  47  61
BRANCH  48  72
ATOM     72  C   UNL A   1      42.258  26.417  27.533  1.00  0.00     0.023 A 
ATOM     73  C   UNL A   1      42.974  26.989  26.463  1.00  0.00     0.012 A 
ATOM     74  C   UNL A   1      41.885  25.061  27.462  1.00  0.00     0.148 A 
ATOM     75  C   UNL A   1      43.281  26.237  25.328  1.00  0.00     0.002 A 
ATOM     76  C   UNL A   1      42.240  24.304  26.351  1.00  0.00     0.091 A 
ATOM     77  F   UNL A   1      41.197  24.537  28.485  1.00  0.00    -0.205 F 
ATOM     78  C   UNL A   1      42.922  24.893  25.276  1.00  0.00     0.022 A 
BRANCH  76  79
ATOM     79  S   UNL A   1      41.932  22.536  26.253  1.00  0.00     0.127 S 
ATOM     80  O   UNL A   1      42.636  22.178  25.025  1.00  0.00    -0.237 OA
ATOM     81  O   UNL A   1      42.553  22.051  27.485  1.00  0.00    -0.237 OA
ATOM     82  O   UNL A   1      40.482  22.394  26.219  1.00  0.00    -0.744 OA
ENDBRANCH  76  79
ENDBRANCH  48  72
BRANCH  60  83
ATOM     83  C   UNL A   1      44.965  26.903  33.948  1.00  0.00     0.023 A 
ATOM     84  C   UNL A   1      46.281  27.401  33.864  1.00  0.00     0.012 A 
ATOM     85  C   UNL A   1      44.705  25.761  34.730  1.00  0.00     0.148 A 
ATOM     86  C   UNL A   1      47.327  26.749  34.515  1.00  0.00     0.002 A 
ATOM     87  C   UNL A   1      45.744  25.146  35.417  1.00  0.00     0.091 A 
ATOM     88  F   UNL A   1      43.451  25.291  34.782  1.00  0.00    -0.205 F 
ATOM     89  C   UNL A   1      47.057  25.630  35.300  1.00  0.00     0.022 A 
BRANCH  87  90
ATOM     90  S   UNL A   1      45.463  23.763  36.527  1.00  0.00     0.127 S 
ATOM     91  O   UNL A   1      46.823  23.439  36.952  1.00  0.00    -0.237 OA
ATOM     92  O   UNL A   1      44.624  24.359  37.567  1.00  0.00    -0.237 OA
ATOM     93  O   UNL A   1      44.793  22.745  35.727  1.00  0.00    -0.744 OA
ENDBRANCH  87  90
ENDBRANCH  60  83
ENDBRANCH  34  35
ENDBRANCH  26  29
ENDBRANCH  24  25
ENDBRANCH  23  24
ENDBRANCH   1  23
TORSDOF 17
ENDMDL
MODEL 2
REMARK VINA RESULT:     -11.5      2.350      8.197
REMARK SMILES CC[C@@H]1CCCN1C(=O)N[C@H]1C=C[C@@H](C(=O)NCCCCNC(=O)c2ccc(-c3c4nc(c(-c5cccc(S(=O)(=O)[O-])c5F)c5ccc([nH]5)c(-c5cccc(S(=O)(=O)[O-])c5F)c5nc(c(-c6cccc(S(=O)(=O)[O-])c6F)c6ccc3[nH]6)C=C5)C=C4)cc2)C1
REMARK SMILES IDX 19 1 18 2 17 3 15 4 16 5 14 7 11 8 12 9 88 10 13 11 10 12
REMARK SMILES IDX 8 13 9 14 7 16 3 17 4 18 5 19 6 20 2 21 1 22 20 23 21 24
REMARK SMILES IDX 22 25 23 26 24 28 25 29 26 30 87 31 27 32 86 33 28 34 29 35
REMARK SMILES IDX 30 36 80 37 31 38 85 39 79 40 81 41 32 42 84 43 78 44 77 45
REMARK SMILES IDX 33 47 65 48 45 49 64 50 46 51 49 52 63 53 82 54 47 55 48 56
REMARK SMILES IDX 62 58 83 59 50 60 34 61 35 62 43 63 36 64 38 65 44 66 37 67
REMARK SMILES IDX 39 68 40 69 41 70 42 71 66 72 67 73 75 74 68 75 70 76 76 77
REMARK SMILES IDX 69 78 71 79 72 80 73 81 74 82 51 83 52 84 60 85 53 86 55 87
REMARK SMILES IDX 61 88 54 89 56 90 57 91 58 92 59 93
REMARK H PARENT 17 6 10 15 22 27 81 46 49 57
REMARK Flexibility Score: inf
ROOT
ATOM      1  C   UNL A   1      31.287  31.531  26.260  1.00  0.00     0.023 C 
ENDROOT
BRANCH   1   2
ATOM      2  C   UNL A   1      31.401  30.309  25.350  1.00  0.00     0.116 C 
BRANCH   2   3
ATOM      3  N   UNL A   1      31.813  29.126  26.078  1.00  0.00    -0.356 N 
ATOM      4  C   UNL A   1      31.641  27.809  25.777  1.00  0.00     0.227 C 
ATOM      5  O   UNL A   1      32.088  26.971  26.565  1.00  0.00    -0.274 OA
ATOM      6  H   UNL A   1      32.292  29.302  26.920  1.00  0.00     0.163 HD
BRANCH   4   7
ATOM      7  C   UNL A   1      30.903  27.352  24.519  1.00  0.00     0.103 C 
ATOM      8  C   UNL A   1      31.073  25.864  22.613  1.00  0.00     0.107 C 
ATOM      9  C   UNL A   1      30.166  25.296  23.660  1.00  0.00    -0.006 C 
ATOM     10  C   UNL A   1      31.831  26.946  23.379  1.00  0.00     0.047 C 
ATOM     11  C   UNL A   1      30.031  26.142  24.692  1.00  0.00    -0.016 C 
BRANCH   8  12
ATOM     12  N   UNL A   1      31.947  24.860  22.090  1.00  0.00    -0.332 N 
ATOM     13  C   UNL A   1      32.876  24.026  22.548  1.00  0.00     0.318 C 
ATOM     14  O   UNL A   1      33.486  23.450  21.633  1.00  0.00    -0.249 OA
ATOM     15  H   UNL A   1      31.826  24.757  21.119  1.00  0.00     0.165 HD
BRANCH  13  16
ATOM     16  N   UNL A   1      33.231  23.814  23.844  1.00  0.00    -0.322 N 
ATOM     17  C   UNL A   1      33.097  22.779  24.901  1.00  0.00     0.086 C 
ATOM     18  C   UNL A   1      33.325  23.625  26.165  1.00  0.00     0.027 C 
ATOM     19  C   UNL A   1      34.512  24.474  25.778  1.00  0.00     0.024 C 
ATOM     20  C   UNL A   1      34.266  24.754  24.304  1.00  0.00     0.122 C 
BRANCH  17  21
ATOM     21  C   UNL A   1      31.884  21.891  25.153  1.00  0.00     0.022 C 
ATOM     22  C   UNL A   1      30.817  22.616  25.965  1.00  0.00     0.006 C 
ENDBRANCH  17  21
ENDBRANCH  13  16
ENDBRANCH   8  12
ENDBRANCH   4   7
ENDBRANCH   2   3
ENDBRANCH   1   2
BRANCH   1  23
ATOM     23  C   UNL A   1      32.328  31.596  27.371  1.00  0.00     0.023 C 
BRANCH  23  24
ATOM     24  C   UNL A   1      33.327  32.733  27.237  1.00  0.00     0.116 C 
BRANCH  24  25
ATOM     25  N   UNL A   1      32.802  34.028  27.653  1.00  0.00    -0.352 N 
ATOM     26  C   UNL A   1      33.202  34.777  28.733  1.00  0.00     0.251 C 
ATOM     27  H   UNL A   1      32.082  34.408  27.099  1.00  0.00     0.163 HD
ATOM     28  O   UNL A   1      32.626  35.818  29.030  1.00  0.00    -0.269 OA
BRANCH  26  29
ATOM     29  C   UNL A   1      34.318  34.268  29.550  1.00  0.00     0.039 A 
ATOM     30  C   UNL A   1      34.037  33.465  30.655  1.00  0.00     0.014 A 
ATOM     31  C   UNL A   1      35.635  34.510  29.151  1.00  0.00     0.014 A 
ATOM     32  C   UNL A   1      35.090  32.864  31.342  1.00  0.00     0.010 A 
ATOM     33  C   UNL A   1      36.671  33.832  29.776  1.00  0.00     0.010 A 
ATOM     34  C   UNL A   1      36.412  33.027  30.894  1.00  0.00    -0.014 A 
BRANCH  34  35
ATOM     35  C   UNL A   1      37.548  32.407  31.615  1.00  0.00     0.031 A 
ATOM     36  C   UNL A   1      38.314  31.287  30.963  1.00  0.00     0.074 A 
ATOM     37  C   UNL A   1      37.841  32.797  32.870  1.00  0.00     0.049 A 
ATOM     38  N   UNL A   1      39.314  30.589  31.434  1.00  0.00    -0.248 NA
ATOM     39  C   UNL A   1      37.872  30.868  29.621  1.00  0.00     0.031 C 
ATOM     40  C   UNL A   1      37.108  33.804  33.641  1.00  0.00     0.029 A 
ATOM     41  N   UNL A   1      38.825  32.376  33.727  1.00  0.00    -0.354 N 
ATOM     42  C   UNL A   1      39.588  29.628  30.468  1.00  0.00     0.074 A 
ATOM     43  C   UNL A   1      38.619  29.796  29.410  1.00  0.00     0.031 C 
ATOM     44  C   UNL A   1      37.678  33.931  34.851  1.00  0.00     0.029 A 
ATOM     45  C   UNL A   1      38.804  33.008  34.948  1.00  0.00     0.049 A 
ATOM     46  H   UNL A   1      39.487  31.685  33.490  1.00  0.00     0.167 HD
ATOM     47  C   UNL A   1      40.587  28.715  30.441  1.00  0.00     0.034 A 
ATOM     48  C   UNL A   1      39.610  32.863  36.016  1.00  0.00     0.034 A 
ATOM     49  C   UNL A   1      41.588  28.600  31.463  1.00  0.00     0.049 A 
ATOM     50  C   UNL A   1      40.768  31.905  35.924  1.00  0.00     0.074 A 
ATOM     51  C   UNL A   1      42.698  27.776  31.495  1.00  0.00     0.029 A 
ATOM     52  N   UNL A   1      41.604  29.341  32.635  1.00  0.00    -0.354 N 
ATOM     53  N   UNL A   1      41.113  31.118  34.933  1.00  0.00    -0.248 NA
ATOM     54  C   UNL A   1      41.676  31.848  37.079  1.00  0.00     0.031 C 
ATOM     55  C   UNL A   1      43.381  28.013  32.693  1.00  0.00     0.029 A 
ATOM     56  C   UNL A   1      42.706  28.998  33.397  1.00  0.00     0.049 A 
ATOM     57  H   UNL A   1      40.929  30.011  32.888  1.00  0.00     0.167 HD
ATOM     58  C   UNL A   1      42.296  30.505  35.326  1.00  0.00     0.074 A 
ATOM     59  C   UNL A   1      42.621  31.030  36.637  1.00  0.00     0.031 C 
ATOM     60  C   UNL A   1      43.040  29.579  34.672  1.00  0.00     0.034 A 
BRANCH  47  61
ATOM     61  C   UNL A   1      40.679  27.821  29.231  1.00  0.00     0.023 A 
ATOM     62  C   UNL A   1      39.877  26.663  29.161  1.00  0.00     0.012 A 
ATOM     63  C   UNL A   1      41.529  28.138  28.155  1.00  0.00     0.148 A 
ATOM     64  C   UNL A   1      39.950  25.811  28.061  1.00  0.00     0.002 A 
ATOM     65  C   UNL A   1      41.562  27.308  27.039  1.00  0.00     0.091 A 
ATOM     66  F   UNL A   1      42.303  29.228  28.248  1.00  0.00    -0.205 F 
ATOM     67  C   UNL A   1      40.784  26.139  26.997  1.00  0.00     0.022 A 
BRANCH  65  68
ATOM     68  S   UNL A   1      42.541  27.684  25.581  1.00  0.00     0.127 S 
ATOM     69  O   UNL A   1      43.890  27.754  26.142  1.00  0.00    -0.237 OA
ATOM     70  O   UNL A   1      42.293  26.518  24.734  1.00  0.00    -0.237 OA
ATOM     71  O   UNL A   1      42.016  28.938  25.057  1.00  0.00    -0.744 OA
ENDBRANCH  65  68
ENDBRANCH  47  61
BRANCH  48  72
ATOM     72  C   UNL A   1      39.413  33.716  37.223  1.00  0.00     0.023 A 
ATOM     73  C   UNL A   1      39.912  35.033  37.224  1.00  0.00     0.012 A 
ATOM     74  C   UNL A   1      38.721  33.244  38.355  1.00  0.00     0.148 A 
ATOM     75  C   UNL A   1      39.758  35.853  38.343  1.00  0.00     0.002 A 
ATOM     76  C   UNL A   1      38.525  34.084  39.445  1.00  0.00     0.091 A 
ATOM     77  F   UNL A   1      38.261  31.985  38.338  1.00  0.00    -0.205 F 
ATOM     78  C   UNL A   1      39.057  35.382  39.449  1.00  0.00     0.022 A 
BRANCH  76  79
ATOM     79  S   UNL A   1      37.526  33.606  40.860  1.00  0.00     0.127 S 
ATOM     80  O   UNL A   1      36.324  33.085  40.215  1.00  0.00    -0.237 OA
ATOM     81  O   UNL A   1      38.369  32.597  41.501  1.00  0.00    -0.237 OA
ATOM     82  O   UNL A   1      37.350  34.822  41.643  1.00  0.00    -0.744 OA
ENDBRANCH  76  79
ENDBRANCH  48  72
BRANCH  60  83
ATOM     83  C   UNL A   1      44.301  29.101  35.344  1.00  0.00     0.023 A 
ATOM     84  C   UNL A   1      45.527  29.738  35.065  1.00  0.00     0.012 A 
ATOM     85  C   UNL A   1      44.258  28.066  36.298  1.00  0.00     0.148 A 
ATOM     86  C   UNL A   1      46.699  29.323  35.695  1.00  0.00     0.002 A 
ATOM     87  C   UNL A   1      45.422  27.692  36.960  1.00  0.00     0.091 A 
ATOM     88  F   UNL A   1      43.087  27.459  36.536  1.00  0.00    -0.205 F 
ATOM     89  C   UNL A   1      46.644  28.309  36.650  1.00  0.00     0.022 A 
BRANCH  87  90
ATOM     90  S   UNL A   1      45.418  26.467  38.272  1.00  0.00     0.127 S 
ATOM     91  O   UNL A   1      46.825  26.442  38.663  1.00  0.00    -0.237 OA
ATOM     92  O   UNL A   1      44.520  27.067  39.260  1.00  0.00    -0.237 OA
ATOM     93  O   UNL A   1      44.909  25.243  37.668  1.00  0.00    -0.744 OA
ENDBRANCH  87  90
ENDBRANCH  60  83
ENDBRANCH  34  35
ENDBRANCH  26  29
ENDBRANCH  24  25
ENDBRANCH  23  24
ENDBRANCH   1  23
TORSDOF 17
ENDMDL
MODEL 3
REMARK VINA RESULT:     -11.5      1.601      2.206
REMARK SMILES CC[C@@H]1CCCN1C(=O)N[C@H]1C=C[C@@H](C(=O)NCCCCNC(=O)c2ccc(-c3c4nc(c(-c5cccc(S(=O)(=O)[O-])c5F)c5ccc([nH]5)c(-c5cccc(S(=O)(=O)[O-])c5F)c5nc(c(-c6cccc(S(=O)(=O)[O-])c6F)c6ccc3[nH]6)C=C5)C=C4)cc2)C1
REMARK SMILES IDX 19 1 18 2 17 3 15 4 16 5 14 7 11 8 12 9 88 10 13 11 10 12
REMARK SMILES IDX 8 13 9 14 7 16 3 17 4 18 5 19 6 20 2 21 1 22 20 23 21 24
REMARK SMILES IDX 22 25 23 26 24 28 25 29 26 30 87 31 27 32 86 33 28 34 29 35
REMARK SMILES IDX 30 36 80 37 31 38 85 39 79 40 81 41 32 42 84 43 78 44 77 45
REMARK SMILES IDX 33 47 65 48 45 49 64 50 46 51 49 52 63 53 82 54 47 55 48 56
REMARK SMILES IDX 62 58 83 59 50 60 34 61 35 62 43 63 36 64 38 65 44 66 37 67
REMARK SMILES IDX 39 68 40 69 41 70 42 71 66 72 67 73 75 74 68 75 70 76 76 77
REMARK SMILES IDX 69 78 71 79 72 80 73 81 74 82 51 83 52 84 60 85 53 86 55 87
REMARK SMILES IDX 61 88 54 89 56 90 57 91 58 92 59 93
REMARK H PARENT 17 6 10 15 22 27 81 46 49 57
REMARK Flexibility Score: inf
ROOT
ATOM      1  C   UNL A   1      30.920  29.386  24.578  1.00  0.00     0.023 C 
ENDROOT
BRANCH   1   2
ATOM      2  C   UNL A   1      30.232  28.613  23.454  1.00  0.00     0.116 C 
BRANCH   2   3
ATOM      3  N   UNL A   1      31.110  27.628  22.855  1.00  0.00    -0.356 N 
ATOM      4  C   UNL A   1      31.398  26.357  23.251  1.00  0.00     0.227 C 
ATOM      5  O   UNL A   1      32.188  25.702  22.566  1.00  0.00    -0.274 OA
ATOM      6  H   UNL A   1      31.569  27.923  22.037  1.00  0.00     0.163 HD
BRANCH   4   7
ATOM      7  C   UNL A   1      30.790  25.740  24.511  1.00  0.00     0.103 C 
ATOM      8  C   UNL A   1      30.850  23.767  25.917  1.00  0.00     0.107 C 
ATOM      9  C   UNL A   1      31.625  24.890  26.532  1.00  0.00    -0.006 C 
ATOM     10  C   UNL A   1      30.702  24.218  24.466  1.00  0.00     0.047 C 
ATOM     11  C   UNL A   1      31.550  25.997  25.780  1.00  0.00    -0.016 C 
BRANCH   8  12
ATOM     12  N   UNL A   1      31.559  22.530  26.028  1.00  0.00    -0.332 N 
ATOM     13  C   UNL A   1      32.774  22.063  25.759  1.00  0.00     0.318 C 
ATOM     14  O   UNL A   1      32.847  20.831  25.889  1.00  0.00    -0.249 OA
ATOM     15  H   UNL A   1      30.987  21.828  26.414  1.00  0.00     0.165 HD
BRANCH  13  16
ATOM     16  N   UNL A   1      33.853  22.767  25.321  1.00  0.00    -0.322 N 
ATOM     17  C   UNL A   1      34.359  23.412  24.083  1.00  0.00     0.086 C 
ATOM     18  C   UNL A   1      35.866  23.478  24.384  1.00  0.00     0.027 C 
ATOM     19  C   UNL A   1      35.889  23.962  25.815  1.00  0.00     0.024 C 
ATOM     20  C   UNL A   1      34.680  23.275  26.428  1.00  0.00     0.122 C 
BRANCH  17  21
ATOM     21  C   UNL A   1      34.198  22.894  22.659  1.00  0.00     0.022 C 
ATOM     22  C   UNL A   1      32.769  22.441  22.384  1.00  0.00     0.006 C 
ENDBRANCH  17  21
ENDBRANCH  13  16
ENDBRANCH   8  12
ENDBRANCH   4   7
ENDBRANCH   2   3
ENDBRANCH   1   2
BRANCH   1  23
ATOM     23  C   UNL A   1      32.443  29.330  24.549  1.00  0.00     0.023 C 
BRANCH  23  24
ATOM     24  C   UNL A   1      33.116  29.757  25.843  1.00  0.00     0.116 C 
BRANCH  24  25
ATOM     25  N   UNL A   1      32.698  31.071  26.316  1.00  0.00    -0.352 N 
ATOM     26  C   UNL A   1      33.336  31.859  27.243  1.00  0.00     0.251 C 
ATOM     27  H   UNL A   1      31.870  31.433  25.929  1.00  0.00     0.163 HD
ATOM     28  O   UNL A   1      32.842  32.916  27.623  1.00  0.00    -0.269 OA
BRANCH  26  29
ATOM     29  C   UNL A   1      34.612  31.376  27.800  1.00  0.00     0.039 A 
ATOM     30  C   UNL A   1      35.666  32.275  27.956  1.00  0.00     0.014 A 
ATOM     31  C   UNL A   1      34.715  30.058  28.254  1.00  0.00     0.014 A 
ATOM     32  C   UNL A   1      36.821  31.858  28.616  1.00  0.00     0.010 A 
ATOM     33  C   UNL A   1      35.824  29.678  28.994  1.00  0.00     0.010 A 
ATOM     34  C   UNL A   1      36.899  30.563  29.156  1.00  0.00    -0.014 A 
BRANCH  34  35
ATOM     35  C   UNL A   1      38.121  30.094  29.850  1.00  0.00     0.031 A 
ATOM     36  C   UNL A   1      38.406  30.572  31.249  1.00  0.00     0.074 A 
ATOM     37  C   UNL A   1      39.001  29.307  29.203  1.00  0.00     0.049 A 
ATOM     38  N   UNL A   1      39.431  30.311  32.017  1.00  0.00    -0.248 NA
ATOM     39  C   UNL A   1      37.430  31.499  31.850  1.00  0.00     0.031 C 
ATOM     40  C   UNL A   1      38.881  28.860  27.814  1.00  0.00     0.029 A 
ATOM     41  N   UNL A   1      40.184  28.758  29.627  1.00  0.00    -0.354 N 
ATOM     42  C   UNL A   1      39.243  31.070  33.165  1.00  0.00     0.074 A 
ATOM     43  C   UNL A   1      38.036  31.842  32.975  1.00  0.00     0.031 C 
ATOM     44  C   UNL A   1      39.941  28.093  27.506  1.00  0.00     0.029 A 
ATOM     45  C   UNL A   1      40.821  28.008  28.666  1.00  0.00     0.049 A 
ATOM     46  H   UNL A   1      40.544  28.889  30.534  1.00  0.00     0.167 HD
ATOM     47  C   UNL A   1      39.983  31.091  34.299  1.00  0.00     0.034 A 
ATOM     48  C   UNL A   1      41.978  27.322  28.725  1.00  0.00     0.034 A 
ATOM     49  C   UNL A   1      41.141  30.268  34.507  1.00  0.00     0.049 A 
ATOM     50  C   UNL A   1      42.735  27.288  30.026  1.00  0.00     0.074 A 
ATOM     51  C   UNL A   1      41.912  30.138  35.647  1.00  0.00     0.029 A 
ATOM     52  N   UNL A   1      41.691  29.428  33.551  1.00  0.00    -0.354 N 
ATOM     53  N   UNL A   1      42.453  27.883  31.162  1.00  0.00    -0.248 NA
ATOM     54  C   UNL A   1      43.942  26.451  30.072  1.00  0.00     0.031 C 
ATOM     55  C   UNL A   1      42.936  29.223  35.377  1.00  0.00     0.029 A 
ATOM     56  C   UNL A   1      42.790  28.771  34.075  1.00  0.00     0.049 A 
ATOM     57  H   UNL A   1      41.351  29.317  32.634  1.00  0.00     0.167 HD
ATOM     58  C   UNL A   1      43.422  27.462  32.064  1.00  0.00     0.074 A 
ATOM     59  C   UNL A   1      44.284  26.542  31.349  1.00  0.00     0.031 C 
ATOM     60  C   UNL A   1      43.597  27.815  33.362  1.00  0.00     0.034 A 
BRANCH  47  61
ATOM     61  C   UNL A   1      39.513  31.982  35.419  1.00  0.00     0.023 A 
ATOM     62  C   UNL A   1      38.637  31.465  36.397  1.00  0.00     0.012 A 
ATOM     63  C   UNL A   1      39.957  33.313  35.525  1.00  0.00     0.148 A 
ATOM     64  C   UNL A   1      38.175  32.269  37.437  1.00  0.00     0.002 A 
ATOM     65  C   UNL A   1      39.530  34.096  36.593  1.00  0.00     0.091 A 
ATOM     66  F   UNL A   1      40.769  33.797  34.575  1.00  0.00    -0.205 F 
ATOM     67  C   UNL A   1      38.630  33.580  37.540  1.00  0.00     0.022 A 
BRANCH  65  68
ATOM     68  S   UNL A   1      40.120  35.771  36.862  1.00  0.00     0.127 S 
ATOM     69  O   UNL A   1      39.461  36.117  38.121  1.00  0.00    -0.237 OA
ATOM     70  O   UNL A   1      41.566  35.575  36.964  1.00  0.00    -0.237 OA
ATOM     71  O   UNL A   1      39.691  36.539  35.700  1.00  0.00    -0.744 OA
ENDBRANCH  65  68
ENDBRANCH  47  61
BRANCH  48  72
ATOM     72  C   UNL A   1      42.438  26.529  27.549  1.00  0.00     0.023 A 
ATOM     73  C   UNL A   1      43.250  27.145  26.577  1.00  0.00     0.012 A 
ATOM     74  C   UNL A   1      42.099  25.170  27.398  1.00  0.00     0.148 A 
ATOM     75  C   UNL A   1      43.685  26.436  25.457  1.00  0.00     0.002 A 
ATOM     76  C   UNL A   1      42.580  24.456  26.307  1.00  0.00     0.091 A 
ATOM     77  F   UNL A   1      41.319  24.604  28.329  1.00  0.00    -0.205 F 
ATOM     78  C   UNL A   1      43.358  25.090  25.327  1.00  0.00     0.022 A 
BRANCH  76  79
ATOM     79  S   UNL A   1      42.315  22.687  26.123  1.00  0.00     0.127 S 
ATOM     80  O   UNL A   1      43.020  22.157  27.287  1.00  0.00    -0.237 OA
ATOM     81  O   UNL A   1      40.857  22.590  26.187  1.00  0.00    -0.237 OA
ATOM     82  O   UNL A   1      42.881  22.341  24.826  1.00  0.00    -0.744 OA
ENDBRANCH  76  79
ENDBRANCH  48  72
BRANCH  60  83
ATOM     83  C   UNL A   1      44.738  27.175  34.107  1.00  0.00     0.023 A 
ATOM     84  C   UNL A   1      46.012  27.778  34.090  1.00  0.00     0.012 A 
ATOM     85  C   UNL A   1      44.532  26.013  34.877  1.00  0.00     0.148 A 
ATOM     86  C   UNL A   1      47.073  27.210  34.793  1.00  0.00     0.002 A 
ATOM     87  C   UNL A   1      45.582  25.482  35.616  1.00  0.00     0.091 A 
ATOM     88  F   UNL A   1      43.319  25.442  34.866  1.00  0.00    -0.205 F 
ATOM     89  C   UNL A   1      46.855  26.071  35.565  1.00  0.00     0.022 A 
BRANCH  87  90
ATOM     90  S   UNL A   1      45.358  24.077  36.712  1.00  0.00     0.127 S 
ATOM     91  O   UNL A   1      46.727  23.819  37.151  1.00  0.00    -0.237 OA
ATOM     92  O   UNL A   1      44.479  24.622  37.747  1.00  0.00    -0.237 OA
ATOM     93  O   UNL A   1      44.749  23.034  35.897  1.00  0.00    -0.744 OA
ENDBRANCH  87  90
ENDBRANCH  60  83
ENDBRANCH  34  35
ENDBRANCH  26  29
ENDBRANCH  24  25
ENDBRANCH  23  24
ENDBRANCH   1  23
TORSDOF 17
ENDMDL
