MODEL 1
REMARK VINA RESULT:      -8.3      0.000      0.000
REMARK SMILES COc1ccccc1C(=O)N1[C@@H](C(=O)NCCCCNC(=O)c2ccc(-c3c4nc(c(-c5cccc(S(=O)(=O)[O-])c5F)c5ccc([nH]5)c(-c5cccc(S(=O)(=O)[O-])c5F)c5nc(c(-c6cccc(S(=O)(=O)[O-])c6F)c6ccc3[nH]6)C=C5)C=C4)cc2)COC12CC[NH+](Cc1ccccc1)CC2
REMARK SMILES IDX 17 1 16 2 15 3 13 4 14 5 12 7 11 8 88 9 86 10 87 11 89 12
REMARK SMILES IDX 100 13 90 14 99 15 91 16 9 18 10 19 8 20 3 21 4 22 5 23 7 24
REMARK SMILES IDX 6 25 2 26 1 27 92 28 93 29 94 30 98 31 95 32 97 33 96 34
REMARK SMILES IDX 18 35 19 36 20 37 21 38 22 40 23 41 24 42 85 43 25 44 84 45
REMARK SMILES IDX 26 46 27 47 28 48 78 49 29 50 83 51 77 52 79 53 30 54 82 55
REMARK SMILES IDX 76 56 75 57 31 59 63 60 43 61 62 62 44 63 47 64 61 65 80 66
REMARK SMILES IDX 45 67 46 68 60 70 81 71 48 72 32 73 33 74 41 75 34 76 36 77
REMARK SMILES IDX 42 78 35 79 37 80 38 81 39 82 40 83 64 84 65 85 73 86 66 87
REMARK SMILES IDX 68 88 74 89 67 90 69 91 70 92 71 93 72 94 49 95 50 96 58 97
REMARK SMILES IDX 51 98 53 99 59 100 52 101 54 102 55 103 56 104 57 105
REMARK H PARENT 15 6 91 17 20 39 79 58 47 69
REMARK Flexibility Score: inf
ROOT
ATOM      1  C   UNL A   1      50.408  28.084  25.648  1.00  0.00     0.023 C 
ENDROOT
BRANCH   1   2
ATOM      2  C   UNL A   1      49.737  26.791  25.212  1.00  0.00     0.116 C 
BRANCH   2   3
ATOM      3  N   UNL A   1      48.711  26.941  24.206  1.00  0.00    -0.354 N 
ATOM      4  C   UNL A   1      47.406  27.321  24.361  1.00  0.00     0.245 C 
ATOM      5  O   UNL A   1      46.776  27.567  23.324  1.00  0.00    -0.273 OA
ATOM      6  H   UNL A   1      48.990  26.745  23.282  1.00  0.00     0.163 HD
BRANCH   4   7
ATOM      7  C   UNL A   1      46.709  27.457  25.737  1.00  0.00     0.203 C 
ATOM      8  N   UNL A   1      45.392  26.837  25.849  1.00  0.00    -0.295 N 
ATOM      9  C   UNL A   1      44.397  27.864  26.196  1.00  0.00     0.155 C 
ATOM     10  C   UNL A   1      46.493  28.885  26.165  1.00  0.00     0.198 C 
ATOM     11  O   UNL A   1      45.087  29.119  25.949  1.00  0.00    -0.352 OA
ATOM     12  C   UNL A   1      43.120  27.807  25.351  1.00  0.00     0.120 C 
ATOM     13  C   UNL A   1      44.031  27.940  27.684  1.00  0.00     0.120 C 
ATOM     14  C   UNL A   1      42.130  28.915  25.683  1.00  0.00     0.267 C 
ATOM     15  C   UNL A   1      43.021  29.080  27.929  1.00  0.00     0.267 C 
ATOM     16  N   UNL A   1      41.818  29.020  27.103  1.00  0.00    -0.331 N 
ATOM     17  H   UNL A   1      41.390  29.938  27.226  1.00  0.00     0.348 HD
BRANCH   8  18
ATOM     18  C   UNL A   1      45.346  25.501  26.253  1.00  0.00     0.260 C 
ATOM     19  O   UNL A   1      45.758  24.614  25.499  1.00  0.00    -0.269 OA
BRANCH  18  20
ATOM     20  C   UNL A   1      44.750  25.056  27.554  1.00  0.00     0.082 A 
ATOM     21  C   UNL A   1      43.445  24.594  27.740  1.00  0.00     0.131 A 
ATOM     22  C   UNL A   1      42.984  24.193  29.007  1.00  0.00     0.047 A 
ATOM     23  C   UNL A   1      43.868  24.101  30.077  1.00  0.00     0.004 A 
ATOM     24  C   UNL A   1      45.634  24.925  28.645  1.00  0.00     0.018 A 
ATOM     25  C   UNL A   1      45.205  24.431  29.885  1.00  0.00     0.001 A 
BRANCH  21  26
ATOM     26  O   UNL A   1      42.569  24.418  26.702  1.00  0.00    -0.496 OA
ATOM     27  C   UNL A   1      42.546  23.031  26.346  1.00  0.00     0.278 C 
ENDBRANCH  21  26
ENDBRANCH  18  20
ENDBRANCH   8  18
BRANCH  16  28
ATOM     28  C   UNL A   1      40.693  28.212  27.590  1.00  0.00     0.299 C 
BRANCH  28  29
ATOM     29  C   UNL A   1      39.535  28.932  28.244  1.00  0.00     0.006 A 
ATOM     30  C   UNL A   1      38.300  28.300  28.424  1.00  0.00     0.009 A 
ATOM     31  C   UNL A   1      39.685  30.253  28.702  1.00  0.00     0.009 A 
ATOM     32  C   UNL A   1      37.266  28.957  29.091  1.00  0.00     0.001 A 
ATOM     33  C   UNL A   1      38.676  30.879  29.432  1.00  0.00     0.001 A 
ATOM     34  C   UNL A   1      37.465  30.227  29.630  1.00  0.00     0.000 A 
ENDBRANCH  28  29
ENDBRANCH  16  28
ENDBRANCH   4   7
ENDBRANCH   2   3
ENDBRANCH   1   2
BRANCH   1  35
ATOM     35  C   UNL A   1      51.905  28.155  25.395  1.00  0.00     0.023 C 
BRANCH  35  36
ATOM     36  C   UNL A   1      52.751  28.639  26.567  1.00  0.00     0.116 C 
BRANCH  36  37
ATOM     37  N   UNL A   1      53.662  27.635  27.109  1.00  0.00    -0.352 N 
ATOM     38  C   UNL A   1      53.482  26.793  28.184  1.00  0.00     0.251 C 
ATOM     39  H   UNL A   1      54.524  27.546  26.641  1.00  0.00     0.163 HD
ATOM     40  O   UNL A   1      54.379  26.037  28.547  1.00  0.00    -0.269 OA
BRANCH  38  41
ATOM     41  C   UNL A   1      52.206  26.847  28.927  1.00  0.00     0.039 A 
ATOM     42  C   UNL A   1      52.070  27.760  29.973  1.00  0.00     0.014 A 
ATOM     43  C   UNL A   1      51.121  26.071  28.515  1.00  0.00     0.014 A 
ATOM     44  C   UNL A   1      50.809  27.974  30.536  1.00  0.00     0.010 A 
ATOM     45  C   UNL A   1      49.854  26.353  29.011  1.00  0.00     0.010 A 
ATOM     46  C   UNL A   1      49.681  27.314  30.020  1.00  0.00    -0.014 A 
BRANCH  46  47
ATOM     47  C   UNL A   1      48.309  27.641  30.490  1.00  0.00     0.031 A 
ATOM     48  C   UNL A   1      47.634  28.908  30.039  1.00  0.00     0.074 A 
ATOM     49  C   UNL A   1      47.713  26.854  31.410  1.00  0.00     0.049 A 
ATOM     50  N   UNL A   1      46.470  29.389  30.389  1.00  0.00    -0.248 NA
ATOM     51  C   UNL A   1      48.379  29.760  29.100  1.00  0.00     0.031 C 
ATOM     52  C   UNL A   1      48.299  25.649  32.002  1.00  0.00     0.029 A 
ATOM     53  N   UNL A   1      46.491  26.964  32.027  1.00  0.00    -0.354 N 
ATOM     54  C   UNL A   1      46.359  30.615  29.746  1.00  0.00     0.074 A 
ATOM     55  C   UNL A   1      47.593  30.823  29.018  1.00  0.00     0.031 C 
ATOM     56  C   UNL A   1      47.432  25.126  32.884  1.00  0.00     0.029 A 
ATOM     57  C   UNL A   1      46.243  25.968  32.944  1.00  0.00     0.049 A 
ATOM     58  H   UNL A   1      45.854  27.688  31.831  1.00  0.00     0.167 HD
ATOM     59  C   UNL A   1      45.315  31.478  29.731  1.00  0.00     0.034 A 
ATOM     60  C   UNL A   1      45.178  25.757  33.742  1.00  0.00     0.034 A 
ATOM     61  C   UNL A   1      44.070  31.245  30.410  1.00  0.00     0.049 A 
ATOM     62  C   UNL A   1      44.007  26.700  33.668  1.00  0.00     0.074 A 
ATOM     63  C   UNL A   1      42.913  32.003  30.370  1.00  0.00     0.029 A 
ATOM     64  N   UNL A   1      43.819  30.177  31.259  1.00  0.00    -0.354 N 
ATOM     65  N   UNL A   1      43.851  27.763  32.917  1.00  0.00    -0.248 NA
ATOM     66  C   UNL A   1      42.851  26.395  34.524  1.00  0.00     0.031 C 
ATOM     67  C   UNL A   1      41.969  31.403  31.211  1.00  0.00     0.029 A 
ATOM     68  C   UNL A   1      42.531  30.261  31.758  1.00  0.00     0.049 A 
ATOM     69  H   UNL A   1      44.463  29.465  31.475  1.00  0.00     0.167 HD
ATOM     70  C   UNL A   1      42.570  28.234  33.183  1.00  0.00     0.074 A 
ATOM     71  C   UNL A   1      41.985  27.328  34.150  1.00  0.00     0.031 C 
ATOM     72  C   UNL A   1      41.941  29.325  32.682  1.00  0.00     0.034 A 
BRANCH  59  73
ATOM     73  C   UNL A   1      45.458  32.726  28.900  1.00  0.00     0.023 A 
ATOM     74  C   UNL A   1      46.157  33.833  29.425  1.00  0.00     0.012 A 
ATOM     75  C   UNL A   1      44.933  32.796  27.595  1.00  0.00     0.148 A 
ATOM     76  C   UNL A   1      46.294  35.004  28.682  1.00  0.00     0.002 A 
ATOM     77  C   UNL A   1      45.115  33.951  26.843  1.00  0.00     0.091 A 
ATOM     78  F   UNL A   1      44.250  31.744  27.121  1.00  0.00    -0.205 F 
ATOM     79  C   UNL A   1      45.783  35.060  27.390  1.00  0.00     0.022 A 
BRANCH  77  80
ATOM     80  S   UNL A   1      44.558  34.089  25.141  1.00  0.00     0.127 S 
ATOM     81  O   UNL A   1      43.378  34.940  25.284  1.00  0.00    -0.237 OA
ATOM     82  O   UNL A   1      45.700  34.735  24.492  1.00  0.00    -0.237 OA
ATOM     83  O   UNL A   1      44.303  32.727  24.696  1.00  0.00    -0.744 OA
ENDBRANCH  77  80
ENDBRANCH  59  73
BRANCH  60  84
ATOM     84  C   UNL A   1      45.134  24.550  34.615  1.00  0.00     0.023 A 
ATOM     85  C   UNL A   1      44.783  23.308  34.052  1.00  0.00     0.012 A 
ATOM     86  C   UNL A   1      45.476  24.614  35.980  1.00  0.00     0.148 A 
ATOM     87  C   UNL A   1      44.748  22.154  34.837  1.00  0.00     0.002 A 
ATOM     88  C   UNL A   1      45.491  23.452  36.745  1.00  0.00     0.091 A 
ATOM     89  F   UNL A   1      45.798  25.808  36.498  1.00  0.00    -0.205 F 
ATOM     90  C   UNL A   1      45.112  22.224  36.179  1.00  0.00     0.022 A 
BRANCH  88  91
ATOM     91  S   UNL A   1      46.069  23.422  38.445  1.00  0.00     0.127 S 
ATOM     92  O   UNL A   1      45.962  22.002  38.772  1.00  0.00    -0.237 OA
ATOM     93  O   UNL A   1      47.439  23.920  38.305  1.00  0.00    -0.237 OA
ATOM     94  O   UNL A   1      45.179  24.310  39.180  1.00  0.00    -0.744 OA
ENDBRANCH  88  91
ENDBRANCH  60  84
BRANCH  72  95
ATOM     95  C   UNL A   1      40.533  29.595  33.143  1.00  0.00     0.023 A 
ATOM     96  C   UNL A   1      39.452  28.967  32.493  1.00  0.00     0.012 A 
ATOM     97  C   UNL A   1      40.286  30.406  34.269  1.00  0.00     0.148 A 
ATOM     98  C   UNL A   1      38.145  29.164  32.939  1.00  0.00     0.002 A 
ATOM     99  C   UNL A   1      38.986  30.559  34.737  1.00  0.00     0.091 A 
ATOM    100  F   UNL A   1      41.325  31.011  34.862  1.00  0.00    -0.205 F 
ATOM    101  C   UNL A   1      37.914  29.948  34.066  1.00  0.00     0.022 A 
BRANCH  99 102
ATOM    102  S   UNL A   1      38.605  31.472  36.237  1.00  0.00     0.127 S 
ATOM    103  O   UNL A   1      37.713  30.545  36.932  1.00  0.00    -0.237 OA
ATOM    104  O   UNL A   1      39.925  31.624  36.851  1.00  0.00    -0.237 OA
ATOM    105  O   UNL A   1      37.995  32.721  35.801  1.00  0.00    -0.744 OA
ENDBRANCH  99 102
ENDBRANCH  72  95
ENDBRANCH  46  47
ENDBRANCH  38  41
ENDBRANCH  36  37
ENDBRANCH  35  36
ENDBRANCH   1  35
TORSDOF 19
ENDMDL
MODEL 2
REMARK VINA RESULT:      -8.2      1.911      7.815
REMARK SMILES COc1ccccc1C(=O)N1[C@@H](C(=O)NCCCCNC(=O)c2ccc(-c3c4nc(c(-c5cccc(S(=O)(=O)[O-])c5F)c5ccc([nH]5)c(-c5cccc(S(=O)(=O)[O-])c5F)c5nc(c(-c6cccc(S(=O)(=O)[O-])c6F)c6ccc3[nH]6)C=C5)C=C4)cc2)COC12CC[NH+](Cc1ccccc1)CC2
REMARK SMILES IDX 17 1 16 2 15 3 13 4 14 5 12 7 11 8 88 9 86 10 87 11 89 12
REMARK SMILES IDX 100 13 90 14 99 15 91 16 9 18 10 19 8 20 3 21 4 22 5 23 7 24
REMARK SMILES IDX 6 25 2 26 1 27 92 28 93 29 94 30 98 31 95 32 97 33 96 34
REMARK SMILES IDX 18 35 19 36 20 37 21 38 22 40 23 41 24 42 85 43 25 44 84 45
REMARK SMILES IDX 26 46 27 47 28 48 78 49 29 50 83 51 77 52 79 53 30 54 82 55
REMARK SMILES IDX 76 56 75 57 31 59 63 60 43 61 62 62 44 63 47 64 61 65 80 66
REMARK SMILES IDX 45 67 46 68 60 70 81 71 48 72 32 73 33 74 41 75 34 76 36 77
REMARK SMILES IDX 42 78 35 79 37 80 38 81 39 82 40 83 64 84 65 85 73 86 66 87
REMARK SMILES IDX 68 88 74 89 67 90 69 91 70 92 71 93 72 94 49 95 50 96 58 97
REMARK SMILES IDX 51 98 53 99 59 100 52 101 54 102 55 103 56 104 57 105
REMARK H PARENT 15 6 91 17 20 39 79 58 47 69
REMARK Flexibility Score: inf
ROOT
ATOM      1  C   UNL A   1      49.884  27.439  24.460  1.00  0.00     0.023 C 
ENDROOT
BRANCH   1   2
ATOM      2  C   UNL A   1      48.607  26.628  24.616  1.00  0.00     0.116 C 
BRANCH   2   3
ATOM      3  N   UNL A   1      48.576  25.747  25.762  1.00  0.00    -0.354 N 
ATOM      4  C   UNL A   1      47.607  24.855  26.132  1.00  0.00     0.245 C 
ATOM      5  O   UNL A   1      47.898  24.073  27.046  1.00  0.00    -0.273 OA
ATOM      6  H   UNL A   1      49.360  25.795  26.355  1.00  0.00     0.163 HD
BRANCH   4   7
ATOM      7  C   UNL A   1      46.208  24.784  25.471  1.00  0.00     0.203 C 
ATOM      8  N   UNL A   1      45.073  25.048  26.351  1.00  0.00    -0.295 N 
ATOM      9  C   UNL A   1      44.188  23.872  26.370  1.00  0.00     0.155 C 
ATOM     10  C   UNL A   1      45.903  23.447  24.849  1.00  0.00     0.198 C 
ATOM     11  O   UNL A   1      44.990  22.818  25.771  1.00  0.00    -0.352 OA
ATOM     12  C   UNL A   1      43.747  23.445  27.774  1.00  0.00     0.120 C 
ATOM     13  C   UNL A   1      42.965  23.964  25.448  1.00  0.00     0.120 C 
ATOM     14  C   UNL A   1      42.882  22.192  27.777  1.00  0.00     0.267 C 
ATOM     15  C   UNL A   1      42.143  22.660  25.519  1.00  0.00     0.267 C 
ATOM     16  N   UNL A   1      41.747  22.258  26.865  1.00  0.00    -0.331 N 
ATOM     17  H   UNL A   1      41.427  21.296  26.750  1.00  0.00     0.348 HD
BRANCH   8  18
ATOM     18  C   UNL A   1      44.656  26.374  26.477  1.00  0.00     0.260 C 
ATOM     19  O   UNL A   1      45.174  27.253  25.782  1.00  0.00    -0.269 OA
BRANCH  18  20
ATOM     20  C   UNL A   1      43.634  26.821  27.478  1.00  0.00     0.082 A 
ATOM     21  C   UNL A   1      42.364  27.324  27.181  1.00  0.00     0.131 A 
ATOM     22  C   UNL A   1      41.474  27.711  28.200  1.00  0.00     0.047 A 
ATOM     23  C   UNL A   1      41.780  27.457  29.532  1.00  0.00     0.004 A 
ATOM     24  C   UNL A   1      43.908  26.545  28.833  1.00  0.00     0.018 A 
ATOM     25  C   UNL A   1      42.984  26.836  29.847  1.00  0.00     0.001 A 
BRANCH  21  26
ATOM     26  O   UNL A   1      41.876  27.387  25.904  1.00  0.00    -0.496 OA
ATOM     27  C   UNL A   1      41.631  28.758  25.569  1.00  0.00     0.278 C 
ENDBRANCH  21  26
ENDBRANCH  18  20
ENDBRANCH   8  18
BRANCH  16  28
ATOM     28  C   UNL A   1      40.502  22.815  27.408  1.00  0.00     0.299 C 
BRANCH  28  29
ATOM     29  C   UNL A   1      39.258  22.739  26.550  1.00  0.00     0.006 A 
ATOM     30  C   UNL A   1      38.444  23.859  26.356  1.00  0.00     0.009 A 
ATOM     31  C   UNL A   1      38.906  21.536  25.912  1.00  0.00     0.009 A 
ATOM     32  C   UNL A   1      37.340  23.786  25.506  1.00  0.00     0.001 A 
ATOM     33  C   UNL A   1      37.847  21.486  25.007  1.00  0.00     0.001 A 
ATOM     34  C   UNL A   1      37.065  22.616  24.801  1.00  0.00     0.000 A 
ENDBRANCH  28  29
ENDBRANCH  16  28
ENDBRANCH   4   7
ENDBRANCH   2   3
ENDBRANCH   1   2
BRANCH   1  35
ATOM     35  C   UNL A   1      51.123  26.826  25.092  1.00  0.00     0.023 C 
BRANCH  35  36
ATOM     36  C   UNL A   1      51.959  27.768  25.952  1.00  0.00     0.116 C 
BRANCH  36  37
ATOM     37  N   UNL A   1      52.992  27.106  26.743  1.00  0.00    -0.352 N 
ATOM     38  C   UNL A   1      52.946  26.698  28.058  1.00  0.00     0.251 C 
ATOM     39  H   UNL A   1      53.837  26.924  26.272  1.00  0.00     0.163 HD
ATOM     40  O   UNL A   1      53.932  26.201  28.595  1.00  0.00    -0.269 OA
BRANCH  38  41
ATOM     41  C   UNL A   1      51.705  26.914  28.829  1.00  0.00     0.039 A 
ATOM     42  C   UNL A   1      51.598  28.046  29.638  1.00  0.00     0.014 A 
ATOM     43  C   UNL A   1      50.618  26.053  28.664  1.00  0.00     0.014 A 
ATOM     44  C   UNL A   1      50.361  28.375  30.197  1.00  0.00     0.010 A 
ATOM     45  C   UNL A   1      49.369  26.433  29.142  1.00  0.00     0.010 A 
ATOM     46  C   UNL A   1      49.223  27.603  29.905  1.00  0.00    -0.014 A 
BRANCH  46  47
ATOM     47  C   UNL A   1      47.869  28.018  30.354  1.00  0.00     0.031 A 
ATOM     48  C   UNL A   1      47.141  27.226  31.405  1.00  0.00     0.074 A 
ATOM     49  C   UNL A   1      47.246  29.044  29.737  1.00  0.00     0.049 A 
ATOM     50  N   UNL A   1      45.935  27.398  31.879  1.00  0.00    -0.248 NA
ATOM     51  C   UNL A   1      47.850  26.068  31.975  1.00  0.00     0.031 C 
ATOM     52  C   UNL A   1      47.803  29.834  28.636  1.00  0.00     0.029 A 
ATOM     53  N   UNL A   1      45.998  29.583  29.932  1.00  0.00    -0.354 N 
ATOM     54  C   UNL A   1      45.724  26.353  32.769  1.00  0.00     0.074 A 
ATOM     55  C   UNL A   1      46.912  25.527  32.738  1.00  0.00     0.031 C 
ATOM     56  C   UNL A   1      46.906  30.763  28.264  1.00  0.00     0.029 A 
ATOM     57  C   UNL A   1      45.703  30.619  29.075  1.00  0.00     0.049 A 
ATOM     58  H   UNL A   1      45.373  29.257  30.619  1.00  0.00     0.167 HD
ATOM     59  C   UNL A   1      44.655  26.116  33.567  1.00  0.00     0.034 A 
ATOM     60  C   UNL A   1      44.589  31.368  28.958  1.00  0.00     0.034 A 
ATOM     61  C   UNL A   1      43.499  26.967  33.636  1.00  0.00     0.049 A 
ATOM     62  C   UNL A   1      43.435  31.121  29.892  1.00  0.00     0.074 A 
ATOM     63  C   UNL A   1      42.413  26.875  34.488  1.00  0.00     0.029 A 
ATOM     64  N   UNL A   1      43.273  28.063  32.817  1.00  0.00    -0.354 N 
ATOM     65  N   UNL A   1      43.327  30.234  30.852  1.00  0.00    -0.248 NA
ATOM     66  C   UNL A   1      42.265  32.000  29.752  1.00  0.00     0.031 C 
ATOM     67  C   UNL A   1      41.521  27.905  34.171  1.00  0.00     0.029 A 
ATOM     68  C   UNL A   1      42.061  28.650  33.135  1.00  0.00     0.049 A 
ATOM     69  H   UNL A   1      43.885  28.378  32.113  1.00  0.00     0.167 HD
ATOM     70  C   UNL A   1      42.095  30.469  31.452  1.00  0.00     0.074 A 
ATOM     71  C   UNL A   1      41.502  31.595  30.760  1.00  0.00     0.031 C 
ATOM     72  C   UNL A   1      41.503  29.803  32.474  1.00  0.00     0.034 A 
BRANCH  59  73
ATOM     73  C   UNL A   1      44.721  24.917  34.476  1.00  0.00     0.023 A 
ATOM     74  C   UNL A   1      44.360  23.648  33.978  1.00  0.00     0.012 A 
ATOM     75  C   UNL A   1      45.168  25.036  35.806  1.00  0.00     0.148 A 
ATOM     76  C   UNL A   1      44.401  22.523  34.801  1.00  0.00     0.002 A 
ATOM     77  C   UNL A   1      45.249  23.902  36.606  1.00  0.00     0.091 A 
ATOM     78  F   UNL A   1      45.482  26.253  36.271  1.00  0.00    -0.205 F 
ATOM     79  C   UNL A   1      44.853  22.648  36.110  1.00  0.00     0.022 A 
BRANCH  77  80
ATOM     80  S   UNL A   1      45.893  23.950  38.283  1.00  0.00     0.127 S 
ATOM     81  O   UNL A   1      47.213  24.540  38.074  1.00  0.00    -0.237 OA
ATOM     82  O   UNL A   1      44.934  24.825  38.959  1.00  0.00    -0.237 OA
ATOM     83  O   UNL A   1      45.885  22.571  38.750  1.00  0.00    -0.744 OA
ENDBRANCH  77  80
ENDBRANCH  59  73
BRANCH  60  84
ATOM     84  C   UNL A   1      44.549  32.485  27.971  1.00  0.00     0.023 A 
ATOM     85  C   UNL A   1      44.177  32.212  26.640  1.00  0.00     0.012 A 
ATOM     86  C   UNL A   1      44.833  33.812  28.347  1.00  0.00     0.148 A 
ATOM     87  C   UNL A   1      44.112  33.236  25.694  1.00  0.00     0.002 A 
ATOM     88  C   UNL A   1      44.715  34.836  27.412  1.00  0.00     0.091 A 
ATOM     89  F   UNL A   1      45.194  34.049  29.616  1.00  0.00    -0.205 F 
ATOM     90  C   UNL A   1      44.371  34.548  26.082  1.00  0.00     0.022 A 
BRANCH  88  91
ATOM     91  S   UNL A   1      44.902  36.569  27.849  1.00  0.00     0.127 S 
ATOM     92  O   UNL A   1      46.287  36.827  27.464  1.00  0.00    -0.237 OA
ATOM     93  O   UNL A   1      43.897  37.203  26.994  1.00  0.00    -0.237 OA
ATOM     94  O   UNL A   1      44.614  36.649  29.274  1.00  0.00    -0.744 OA
ENDBRANCH  88  91
ENDBRANCH  60  84
BRANCH  72  95
ATOM     95  C   UNL A   1      40.153  30.286  32.935  1.00  0.00     0.023 A 
ATOM     96  C   UNL A   1      38.988  29.813  32.299  1.00  0.00     0.012 A 
ATOM     97  C   UNL A   1      40.035  31.142  34.048  1.00  0.00     0.148 A 
ATOM     98  C   UNL A   1      37.727  30.209  32.746  1.00  0.00     0.002 A 
ATOM     99  C   UNL A   1      38.775  31.493  34.517  1.00  0.00     0.091 A 
ATOM    100  F   UNL A   1      41.156  31.596  34.628  1.00  0.00    -0.205 F 
ATOM    101  C   UNL A   1      37.620  31.037  33.861  1.00  0.00     0.022 A 
BRANCH  99 102
ATOM    102  S   UNL A   1      38.542  32.476  36.003  1.00  0.00     0.127 S 
ATOM    103  O   UNL A   1      37.085  32.495  36.123  1.00  0.00    -0.237 OA
ATOM    104  O   UNL A   1      39.227  31.674  37.017  1.00  0.00    -0.237 OA
ATOM    105  O   UNL A   1      39.165  33.765  35.731  1.00  0.00    -0.744 OA
ENDBRANCH  99 102
ENDBRANCH  72  95
ENDBRANCH  46  47
ENDBRANCH  38  41
ENDBRANCH  36  37
ENDBRANCH  35  36
ENDBRANCH   1  35
TORSDOF 19
ENDMDL
MODEL 3
REMARK VINA RESULT:      -8.2      4.970     10.912
REMARK SMILES COc1ccccc1C(=O)N1[C@@H](C(=O)NCCCCNC(=O)c2ccc(-c3c4nc(c(-c5cccc(S(=O)(=O)[O-])c5F)c5ccc([nH]5)c(-c5cccc(S(=O)(=O)[O-])c5F)c5nc(c(-c6cccc(S(=O)(=O)[O-])c6F)c6ccc3[nH]6)C=C5)C=C4)cc2)COC12CC[NH+](Cc1ccccc1)CC2
REMARK SMILES IDX 17 1 16 2 15 3 13 4 14 5 12 7 11 8 88 9 86 10 87 11 89 12
REMARK SMILES IDX 100 13 90 14 99 15 91 16 9 18 10 19 8 20 3 21 4 22 5 23 7 24
REMARK SMILES IDX 6 25 2 26 1 27 92 28 93 29 94 30 98 31 95 32 97 33 96 34
REMARK SMILES IDX 18 35 19 36 20 37 21 38 22 40 23 41 24 42 85 43 25 44 84 45
REMARK SMILES IDX 26 46 27 47 28 48 78 49 29 50 83 51 77 52 79 53 30 54 82 55
REMARK SMILES IDX 76 56 75 57 31 59 63 60 43 61 62 62 44 63 47 64 61 65 80 66
REMARK SMILES IDX 45 67 46 68 60 70 81 71 48 72 32 73 33 74 41 75 34 76 36 77
REMARK SMILES IDX 42 78 35 79 37 80 38 81 39 82 40 83 64 84 65 85 73 86 66 87
REMARK SMILES IDX 68 88 74 89 67 90 69 91 70 92 71 93 72 94 49 95 50 96 58 97
REMARK SMILES IDX 51 98 53 99 59 100 52 101 54 102 55 103 56 104 57 105
REMARK H PARENT 15 6 91 17 20 39 79 58 47 69
REMARK Flexibility Score: inf
ROOT
ATOM      1  C   UNL A   1      38.620  32.925  39.528  1.00  0.00     0.023 C 
ENDROOT
BRANCH   1   2
ATOM      2  C   UNL A   1      37.500  32.469  38.606  1.00  0.00     0.116 C 
BRANCH   2   3
ATOM      3  N   UNL A   1      37.774  31.264  37.857  1.00  0.00    -0.354 N 
ATOM      4  C   UNL A   1      38.189  31.136  36.560  1.00  0.00     0.245 C 
ATOM      5  O   UNL A   1      38.545  30.005  36.204  1.00  0.00    -0.273 OA
ATOM      6  H   UNL A   1      37.645  30.421  38.348  1.00  0.00     0.163 HD
BRANCH   4   7
ATOM      7  C   UNL A   1      38.236  32.313  35.553  1.00  0.00     0.203 C 
ATOM      8  N   UNL A   1      38.333  31.942  34.144  1.00  0.00    -0.295 N 
ATOM      9  C   UNL A   1      39.561  32.518  33.573  1.00  0.00     0.155 C 
ATOM     10  C   UNL A   1      39.390  33.253  35.778  1.00  0.00     0.198 C 
ATOM     11  O   UNL A   1      40.331  32.929  34.735  1.00  0.00    -0.352 OA
ATOM     12  C   UNL A   1      40.383  31.532  32.737  1.00  0.00     0.120 C 
ATOM     13  C   UNL A   1      39.364  33.823  32.790  1.00  0.00     0.120 C 
ATOM     14  C   UNL A   1      41.679  32.128  32.205  1.00  0.00     0.267 C 
ATOM     15  C   UNL A   1      40.722  34.352  32.283  1.00  0.00     0.267 C 
ATOM     16  N   UNL A   1      41.501  33.394  31.503  1.00  0.00    -0.331 N 
ATOM     17  H   UNL A   1      42.428  33.815  31.451  1.00  0.00     0.348 HD
BRANCH   8  18
ATOM     18  C   UNL A   1      37.138  31.742  33.451  1.00  0.00     0.260 C 
ATOM     19  O   UNL A   1      36.072  32.136  33.932  1.00  0.00    -0.269 OA
BRANCH  18  20
ATOM     20  C   UNL A   1      37.057  30.999  32.152  1.00  0.00     0.082 A 
ATOM     21  C   UNL A   1      37.238  29.624  31.983  1.00  0.00     0.131 A 
ATOM     22  C   UNL A   1      37.134  29.022  30.716  1.00  0.00     0.047 A 
ATOM     23  C   UNL A   1      36.694  29.761  29.623  1.00  0.00     0.004 A 
ATOM     24  C   UNL A   1      36.583  31.721  31.036  1.00  0.00     0.018 A 
ATOM     25  C   UNL A   1      36.381  31.105  29.793  1.00  0.00     0.001 A 
BRANCH  21  26
ATOM     26  O   UNL A   1      37.436  28.771  33.036  1.00  0.00    -0.496 OA
ATOM     27  C   UNL A   1      38.328  27.729  32.627  1.00  0.00     0.278 C 
ENDBRANCH  21  26
ENDBRANCH  18  20
ENDBRANCH   8  18
BRANCH  16  28
ATOM     28  C   UNL A   1      41.240  33.312  30.061  1.00  0.00     0.299 C 
BRANCH  28  29
ATOM     29  C   UNL A   1      41.949  34.295  29.156  1.00  0.00     0.006 A 
ATOM     30  C   UNL A   1      43.201  33.998  28.607  1.00  0.00     0.009 A 
ATOM     31  C   UNL A   1      41.350  35.526  28.834  1.00  0.00     0.009 A 
ATOM     32  C   UNL A   1      43.807  34.889  27.720  1.00  0.00     0.001 A 
ATOM     33  C   UNL A   1      41.923  36.379  27.893  1.00  0.00     0.001 A 
ATOM     34  C   UNL A   1      43.153  36.057  27.331  1.00  0.00     0.000 A 
ENDBRANCH  28  29
ENDBRANCH  16  28
ENDBRANCH   4   7
ENDBRANCH   2   3
ENDBRANCH   1   2
BRANCH   1  35
ATOM     35  C   UNL A   1      38.223  33.964  40.565  1.00  0.00     0.023 C 
BRANCH  35  36
ATOM     36  C   UNL A   1      39.371  34.773  41.160  1.00  0.00     0.116 C 
BRANCH  36  37
ATOM     37  N   UNL A   1      39.084  36.194  41.328  1.00  0.00    -0.352 N 
ATOM     38  C   UNL A   1      39.500  37.257  40.558  1.00  0.00     0.251 C 
ATOM     39  H   UNL A   1      38.514  36.425  42.097  1.00  0.00     0.163 HD
ATOM     40  O   UNL A   1      39.213  38.410  40.872  1.00  0.00    -0.269 OA
BRANCH  38  41
ATOM     41  C   UNL A   1      40.341  36.995  39.373  1.00  0.00     0.039 A 
ATOM     42  C   UNL A   1      41.729  36.981  39.516  1.00  0.00     0.014 A 
ATOM     43  C   UNL A   1      39.749  36.659  38.153  1.00  0.00     0.014 A 
ATOM     44  C   UNL A   1      42.522  36.522  38.462  1.00  0.00     0.010 A 
ATOM     45  C   UNL A   1      40.532  36.115  37.142  1.00  0.00     0.010 A 
ATOM     46  C   UNL A   1      41.926  36.030  37.288  1.00  0.00    -0.014 A 
BRANCH  46  47
ATOM     47  C   UNL A   1      42.735  35.389  36.218  1.00  0.00     0.031 A 
ATOM     48  C   UNL A   1      43.159  36.180  35.011  1.00  0.00     0.074 A 
ATOM     49  C   UNL A   1      42.995  34.067  36.278  1.00  0.00     0.049 A 
ATOM     50  N   UNL A   1      43.812  35.780  33.952  1.00  0.00    -0.248 NA
ATOM     51  C   UNL A   1      42.767  37.598  34.973  1.00  0.00     0.031 C 
ATOM     52  C   UNL A   1      42.558  33.165  37.347  1.00  0.00     0.029 A 
ATOM     53  N   UNL A   1      43.669  33.245  35.409  1.00  0.00    -0.354 N 
ATOM     54  C   UNL A   1      43.876  36.880  33.107  1.00  0.00     0.074 A 
ATOM     55  C   UNL A   1      43.158  37.954  33.758  1.00  0.00     0.031 C 
ATOM     56  C   UNL A   1      42.987  31.921  37.076  1.00  0.00     0.029 A 
ATOM     57  C   UNL A   1      43.702  31.928  35.805  1.00  0.00     0.049 A 
ATOM     58  H   UNL A   1      44.089  33.569  34.580  1.00  0.00     0.167 HD
ATOM     59  C   UNL A   1      44.503  37.002  31.913  1.00  0.00     0.034 A 
ATOM     60  C   UNL A   1      44.249  30.848  35.213  1.00  0.00     0.034 A 
ATOM     61  C   UNL A   1      45.262  35.951  31.292  1.00  0.00     0.049 A 
ATOM     62  C   UNL A   1      44.986  31.018  33.912  1.00  0.00     0.074 A 
ATOM     63  C   UNL A   1      46.023  36.005  30.138  1.00  0.00     0.029 A 
ATOM     64  N   UNL A   1      45.350  34.651  31.769  1.00  0.00    -0.354 N 
ATOM     65  N   UNL A   1      45.187  32.110  33.215  1.00  0.00    -0.248 NA
ATOM     66  C   UNL A   1      45.605  29.815  33.335  1.00  0.00     0.031 C 
ATOM     67  C   UNL A   1      46.557  34.733  29.907  1.00  0.00     0.029 A 
ATOM     68  C   UNL A   1      46.145  33.891  30.927  1.00  0.00     0.049 A 
ATOM     69  H   UNL A   1      44.914  34.319  32.585  1.00  0.00     0.167 HD
ATOM     70  C   UNL A   1      45.981  31.735  32.137  1.00  0.00     0.074 A 
ATOM     71  C   UNL A   1      46.242  30.318  32.285  1.00  0.00     0.031 C 
ATOM     72  C   UNL A   1      46.440  32.493  31.111  1.00  0.00     0.034 A 
BRANCH  59  73
ATOM     73  C   UNL A   1      44.444  38.344  31.232  1.00  0.00     0.023 A 
ATOM     74  C   UNL A   1      43.504  38.560  30.203  1.00  0.00     0.012 A 
ATOM     75  C   UNL A   1      45.289  39.399  31.627  1.00  0.00     0.148 A 
ATOM     76  C   UNL A   1      43.435  39.788  29.548  1.00  0.00     0.002 A 
ATOM     77  C   UNL A   1      45.183  40.635  31.000  1.00  0.00     0.091 A 
ATOM     78  F   UNL A   1      46.194  39.170  32.589  1.00  0.00    -0.205 F 
ATOM     79  C   UNL A   1      44.266  40.827  29.952  1.00  0.00     0.022 A 
BRANCH  77  80
ATOM     80  S   UNL A   1      46.158  42.057  31.504  1.00  0.00     0.127 S 
ATOM     81  O   UNL A   1      45.802  43.037  30.480  1.00  0.00    -0.237 OA
ATOM     82  O   UNL A   1      45.624  42.345  32.835  1.00  0.00    -0.237 OA
ATOM     83  O   UNL A   1      47.544  41.611  31.494  1.00  0.00    -0.744 OA
ENDBRANCH  77  80
ENDBRANCH  59  73
BRANCH  60  84
ATOM     84  C   UNL A   1      44.194  29.522  35.894  1.00  0.00     0.023 A 
ATOM     85  C   UNL A   1      45.226  29.164  36.781  1.00  0.00     0.012 A 
ATOM     86  C   UNL A   1      43.114  28.639  35.703  1.00  0.00     0.148 A 
ATOM     87  C   UNL A   1      45.199  27.938  37.448  1.00  0.00     0.002 A 
ATOM     88  C   UNL A   1      43.065  27.443  36.411  1.00  0.00     0.091 A 
ATOM     89  F   UNL A   1      42.146  28.996  34.847  1.00  0.00    -0.205 F 
ATOM     90  C   UNL A   1      44.114  27.083  37.272  1.00  0.00     0.022 A 
BRANCH  88  91
ATOM     91  S   UNL A   1      41.648  26.339  36.347  1.00  0.00     0.127 S 
ATOM     92  O   UNL A   1      42.253  25.056  36.696  1.00  0.00    -0.237 OA
ATOM     93  O   UNL A   1      40.778  26.910  37.377  1.00  0.00    -0.237 OA
ATOM     94  O   UNL A   1      41.126  26.447  34.992  1.00  0.00    -0.744 OA
ENDBRANCH  88  91
ENDBRANCH  60  84
BRANCH  72  95
ATOM     95  C   UNL A   1      47.299  31.820  30.074  1.00  0.00     0.023 A 
ATOM     96  C   UNL A   1      48.680  31.663  30.305  1.00  0.00     0.012 A 
ATOM     97  C   UNL A   1      46.727  31.271  28.908  1.00  0.00     0.148 A 
ATOM     98  C   UNL A   1      49.483  30.997  29.379  1.00  0.00     0.002 A 
ATOM     99  C   UNL A   1      47.524  30.567  28.014  1.00  0.00     0.091 A 
ATOM    100  F   UNL A   1      45.414  31.448  28.697  1.00  0.00    -0.205 F 
ATOM    101  C   UNL A   1      48.904  30.438  28.242  1.00  0.00     0.022 A 
BRANCH  99 102
ATOM    102  S   UNL A   1      46.847  29.733  26.574  1.00  0.00     0.127 S 
ATOM    103  O   UNL A   1      48.017  29.019  26.065  1.00  0.00    -0.237 OA
ATOM    104  O   UNL A   1      45.819  28.876  27.165  1.00  0.00    -0.237 OA
ATOM    105  O   UNL A   1      46.330  30.785  25.709  1.00  0.00    -0.744 OA
ENDBRANCH  99 102
ENDBRANCH  72  95
ENDBRANCH  46  47
ENDBRANCH  38  41
ENDBRANCH  36  37
ENDBRANCH  35  36
ENDBRANCH   1  35
TORSDOF 19
ENDMDL
