MODEL 1
REMARK VINA RESULT:     -13.9      0.000      0.000
REMARK SMILES Cc1nn([C@H]2CCS(=O)(=O)C2)c(C)c1/C=C(\CC(=O)NCCCCNC(=O)c1ccc(-c2c3nc(c(-c4cccc(S(=O)(=O)[O-])c4F)c4ccc([nH]4)c(-c4cccc(S(=O)(=O)[O-])c4F)c4nc(c(-c5cccc(S(=O)(=O)[O-])c5F)c5ccc2[nH]5)C=C4)C=C3)cc1)c1nc2ccccc2s1
REMARK SMILES IDX 22 1 21 2 20 3 18 4 19 5 17 7 16 8 15 9 14 10 1 11 2 12 3 13
REMARK SMILES IDX 4 14 12 15 13 16 5 17 6 18 11 19 7 20 8 21 9 22 10 23 91 24
REMARK SMILES IDX 92 25 99 26 93 27 98 28 94 29 97 30 95 31 96 32 23 33 24 34
REMARK SMILES IDX 25 35 26 36 27 38 28 39 29 40 90 41 30 42 89 43 31 44 32 45
REMARK SMILES IDX 33 46 83 47 34 48 88 49 82 50 84 51 35 52 87 53 81 54 80 55
REMARK SMILES IDX 36 57 68 58 48 59 67 60 49 61 52 62 66 63 85 64 50 65 51 66
REMARK SMILES IDX 65 68 86 69 53 70 37 71 38 72 46 73 39 74 41 75 47 76 40 77
REMARK SMILES IDX 42 78 43 79 44 80 45 81 69 82 70 83 78 84 71 85 73 86 79 87
REMARK SMILES IDX 72 88 74 89 75 90 76 91 77 92 54 93 55 94 63 95 56 96 58 97
REMARK SMILES IDX 64 98 57 99 59 100 60 101 61 102 62 103
REMARK H PARENT 20 6 25 37 84 56 52 67
REMARK Flexibility Score: inf
ROOT
ATOM      1  C   UNL A   1      37.185  20.683  24.558  1.00  0.00     0.023 C 
ENDROOT
BRANCH   1   2
ATOM      2  C   UNL A   1      35.863  20.733  25.332  1.00  0.00     0.116 C 
BRANCH   2   3
ATOM      3  N   UNL A   1      35.621  22.061  25.857  1.00  0.00    -0.356 N 
ATOM      4  C   UNL A   1      34.421  22.637  26.163  1.00  0.00     0.224 C 
ATOM      5  O   UNL A   1      34.350  23.859  26.292  1.00  0.00    -0.275 OA
ATOM      6  H   UNL A   1      36.418  22.616  26.012  1.00  0.00     0.163 HD
BRANCH   4   7
ATOM      7  C   UNL A   1      33.242  21.734  26.488  1.00  0.00     0.138 C 
BRANCH   7   8
ATOM      8  C   UNL A   1      32.263  21.403  25.383  1.00  0.00    -0.002 C 
ATOM      9  C   UNL A   1      31.390  22.287  24.840  1.00  0.00     0.019 C 
BRANCH   9  10
ATOM     10  C   UNL A   1      31.054  23.641  25.217  1.00  0.00     0.019 A 
ATOM     11  C   UNL A   1      29.477  23.041  27.242  1.00  0.00     0.069 C 
ATOM     12  C   UNL A   1      30.220  23.948  26.332  1.00  0.00     0.067 A 
ATOM     13  N   UNL A   1      30.147  25.259  26.542  1.00  0.00    -0.177 NA
ATOM     14  N   UNL A   1      30.993  25.800  25.643  1.00  0.00    -0.265 N 
ATOM     15  C   UNL A   1      31.377  24.891  24.681  1.00  0.00     0.043 A 
ATOM     16  C   UNL A   1      31.988  25.324  23.394  1.00  0.00     0.067 C 
BRANCH  14  17
ATOM     17  C   UNL A   1      31.265  27.210  25.851  1.00  0.00     0.123 C 
ATOM     18  C   UNL A   1      31.597  27.500  27.335  1.00  0.00     0.044 C 
ATOM     19  C   UNL A   1      32.373  27.952  25.101  1.00  0.00     0.164 C 
ATOM     20  C   UNL A   1      31.685  29.015  27.455  1.00  0.00     0.139 C 
ATOM     21  S   UNL A   1      32.315  29.572  25.881  1.00  0.00     0.152 S 
ATOM     22  O   UNL A   1      31.252  30.335  25.238  1.00  0.00    -0.229 OA
ATOM     23  O   UNL A   1      33.633  30.103  26.082  1.00  0.00    -0.229 OA
ENDBRANCH  14  17
ENDBRANCH   9  10
BRANCH   8  24
ATOM     24  C   UNL A   1      32.229  20.041  24.913  1.00  0.00     0.121 A 
ATOM     25  N   UNL A   1      32.300  18.988  25.702  1.00  0.00    -0.236 NA
ATOM     26  S   UNL A   1      32.353  19.652  23.233  1.00  0.00    -0.114 S 
ATOM     27  C   UNL A   1      32.927  17.956  25.039  1.00  0.00     0.082 A 
ATOM     28  C   UNL A   1      33.065  18.138  23.662  1.00  0.00     0.055 A 
ATOM     29  C   UNL A   1      33.495  16.816  25.640  1.00  0.00     0.030 A 
ATOM     30  C   UNL A   1      33.750  17.214  22.858  1.00  0.00     0.021 A 
ATOM     31  C   UNL A   1      34.282  15.956  24.869  1.00  0.00     0.002 A 
ATOM     32  C   UNL A   1      34.407  16.155  23.497  1.00  0.00     0.002 A 
ENDBRANCH   8  24
ENDBRANCH   7   8
ENDBRANCH   4   7
ENDBRANCH   2   3
ENDBRANCH   1   2
BRANCH   1  33
ATOM     33  C   UNL A   1      38.150  19.583  25.024  1.00  0.00     0.023 C 
BRANCH  33  34
ATOM     34  C   UNL A   1      39.245  20.096  25.944  1.00  0.00     0.116 C 
BRANCH  34  35
ATOM     35  N   UNL A   1      40.410  19.207  25.957  1.00  0.00    -0.352 N 
ATOM     36  C   UNL A   1      41.742  19.565  25.999  1.00  0.00     0.251 C 
ATOM     37  H   UNL A   1      40.220  18.241  25.933  1.00  0.00     0.163 HD
ATOM     38  O   UNL A   1      42.619  18.804  25.610  1.00  0.00    -0.269 OA
BRANCH  36  39
ATOM     39  C   UNL A   1      42.083  20.881  26.561  1.00  0.00     0.039 A 
ATOM     40  C   UNL A   1      42.441  21.962  25.752  1.00  0.00     0.014 A 
ATOM     41  C   UNL A   1      41.988  21.014  27.945  1.00  0.00     0.014 A 
ATOM     42  C   UNL A   1      42.643  23.201  26.352  1.00  0.00     0.010 A 
ATOM     43  C   UNL A   1      42.012  22.259  28.506  1.00  0.00     0.010 A 
ATOM     44  C   UNL A   1      42.413  23.339  27.731  1.00  0.00    -0.014 A 
BRANCH  44  45
ATOM     45  C   UNL A   1      42.454  24.640  28.382  1.00  0.00     0.031 A 
ATOM     46  C   UNL A   1      41.245  25.466  28.126  1.00  0.00     0.074 A 
ATOM     47  C   UNL A   1      43.384  24.937  29.319  1.00  0.00     0.049 A 
ATOM     48  N   UNL A   1      41.163  26.531  27.398  1.00  0.00    -0.248 NA
ATOM     49  C   UNL A   1      39.936  24.945  28.558  1.00  0.00     0.031 C 
ATOM     50  C   UNL A   1      44.411  24.047  29.883  1.00  0.00     0.029 A 
ATOM     51  N   UNL A   1      43.514  26.052  30.086  1.00  0.00    -0.354 N 
ATOM     52  C   UNL A   1      39.845  26.966  27.529  1.00  0.00     0.074 A 
ATOM     53  C   UNL A   1      39.102  25.835  28.013  1.00  0.00     0.031 C 
ATOM     54  C   UNL A   1      44.851  24.551  31.058  1.00  0.00     0.029 A 
ATOM     55  C   UNL A   1      44.275  25.868  31.241  1.00  0.00     0.049 A 
ATOM     56  H   UNL A   1      43.104  26.915  29.849  1.00  0.00     0.167 HD
ATOM     57  C   UNL A   1      39.549  28.297  27.532  1.00  0.00     0.034 A 
ATOM     58  C   UNL A   1      44.376  26.716  32.296  1.00  0.00     0.034 A 
ATOM     59  C   UNL A   1      40.677  29.069  27.067  1.00  0.00     0.049 A 
ATOM     60  C   UNL A   1      43.933  28.048  31.825  1.00  0.00     0.074 A 
ATOM     61  C   UNL A   1      41.438  29.099  25.916  1.00  0.00     0.029 A 
ATOM     62  N   UNL A   1      41.425  29.692  28.037  1.00  0.00    -0.354 N 
ATOM     63  N   UNL A   1      44.572  28.734  30.919  1.00  0.00    -0.248 NA
ATOM     64  C   UNL A   1      42.534  28.394  32.006  1.00  0.00     0.031 C 
ATOM     65  C   UNL A   1      42.774  29.305  26.369  1.00  0.00     0.029 A 
ATOM     66  C   UNL A   1      42.746  29.485  27.754  1.00  0.00     0.049 A 
ATOM     67  H   UNL A   1      41.071  30.199  28.803  1.00  0.00     0.167 HD
ATOM     68  C   UNL A   1      43.566  29.229  30.100  1.00  0.00     0.074 A 
ATOM     69  C   UNL A   1      42.335  29.081  30.877  1.00  0.00     0.031 C 
ATOM     70  C   UNL A   1      43.780  29.421  28.764  1.00  0.00     0.034 A 
BRANCH  57  71
ATOM     71  C   UNL A   1      38.446  28.957  28.340  1.00  0.00     0.023 A 
ATOM     72  C   UNL A   1      37.583  29.830  27.635  1.00  0.00     0.012 A 
ATOM     73  C   UNL A   1      38.385  29.011  29.751  1.00  0.00     0.148 A 
ATOM     74  C   UNL A   1      36.776  30.765  28.294  1.00  0.00     0.002 A 
ATOM     75  C   UNL A   1      37.528  29.891  30.404  1.00  0.00     0.091 A 
ATOM     76  F   UNL A   1      39.241  28.305  30.491  1.00  0.00    -0.205 F 
ATOM     77  C   UNL A   1      36.749  30.795  29.682  1.00  0.00     0.022 A 
BRANCH  75  78
ATOM     78  S   UNL A   1      37.421  29.951  32.199  1.00  0.00     0.127 S 
ATOM     79  O   UNL A   1      38.741  30.464  32.552  1.00  0.00    -0.237 OA
ATOM     80  O   UNL A   1      36.316  30.887  32.397  1.00  0.00    -0.237 OA
ATOM     81  O   UNL A   1      37.133  28.587  32.624  1.00  0.00    -0.744 OA
ENDBRANCH  75  78
ENDBRANCH  57  71
BRANCH  58  82
ATOM     82  C   UNL A   1      44.557  26.417  33.737  1.00  0.00     0.023 A 
ATOM     83  C   UNL A   1      45.835  26.526  34.327  1.00  0.00     0.012 A 
ATOM     84  C   UNL A   1      43.439  26.303  34.595  1.00  0.00     0.148 A 
ATOM     85  C   UNL A   1      45.988  26.549  35.720  1.00  0.00     0.002 A 
ATOM     86  C   UNL A   1      43.597  26.317  35.978  1.00  0.00     0.091 A 
ATOM     87  F   UNL A   1      42.213  26.286  34.053  1.00  0.00    -0.205 F 
ATOM     88  C   UNL A   1      44.871  26.452  36.545  1.00  0.00     0.022 A 
BRANCH  86  89
ATOM     89  S   UNL A   1      42.193  26.241  37.103  1.00  0.00     0.127 S 
ATOM     90  O   UNL A   1      41.550  24.987  36.710  1.00  0.00    -0.237 OA
ATOM     91  O   UNL A   1      42.854  26.202  38.406  1.00  0.00    -0.237 OA
ATOM     92  O   UNL A   1      41.393  27.432  36.840  1.00  0.00    -0.744 OA
ENDBRANCH  86  89
ENDBRANCH  58  82
BRANCH  70  93
ATOM     93  C   UNL A   1      45.196  29.351  28.252  1.00  0.00     0.023 A 
ATOM     94  C   UNL A   1      45.782  28.166  27.760  1.00  0.00     0.012 A 
ATOM     95  C   UNL A   1      45.880  30.566  28.093  1.00  0.00     0.148 A 
ATOM     96  C   UNL A   1      47.032  28.196  27.132  1.00  0.00     0.002 A 
ATOM     97  C   UNL A   1      47.095  30.600  27.424  1.00  0.00     0.091 A 
ATOM     98  F   UNL A   1      45.305  31.682  28.568  1.00  0.00    -0.205 F 
ATOM     99  C   UNL A   1      47.681  29.416  26.949  1.00  0.00     0.022 A 
BRANCH  97 100
ATOM    100  S   UNL A   1      47.904  32.154  27.046  1.00  0.00     0.127 S 
ATOM    101  O   UNL A   1      46.938  32.792  26.156  1.00  0.00    -0.237 OA
ATOM    102  O   UNL A   1      48.025  32.774  28.367  1.00  0.00    -0.237 OA
ATOM    103  O   UNL A   1      49.182  31.805  26.436  1.00  0.00    -0.744 OA
ENDBRANCH  97 100
ENDBRANCH  70  93
ENDBRANCH  44  45
ENDBRANCH  36  39
ENDBRANCH  34  35
ENDBRANCH  33  34
ENDBRANCH   1  33
TORSDOF 18
ENDMDL
MODEL 2
REMARK VINA RESULT:     -13.8      2.108      5.073
REMARK SMILES Cc1nn([C@H]2CCS(=O)(=O)C2)c(C)c1/C=C(\CC(=O)NCCCCNC(=O)c1ccc(-c2c3nc(c(-c4cccc(S(=O)(=O)[O-])c4F)c4ccc([nH]4)c(-c4cccc(S(=O)(=O)[O-])c4F)c4nc(c(-c5cccc(S(=O)(=O)[O-])c5F)c5ccc2[nH]5)C=C4)C=C3)cc1)c1nc2ccccc2s1
REMARK SMILES IDX 22 1 21 2 20 3 18 4 19 5 17 7 16 8 15 9 14 10 1 11 2 12 3 13
REMARK SMILES IDX 4 14 12 15 13 16 5 17 6 18 11 19 7 20 8 21 9 22 10 23 91 24
REMARK SMILES IDX 92 25 99 26 93 27 98 28 94 29 97 30 95 31 96 32 23 33 24 34
REMARK SMILES IDX 25 35 26 36 27 38 28 39 29 40 90 41 30 42 89 43 31 44 32 45
REMARK SMILES IDX 33 46 83 47 34 48 88 49 82 50 84 51 35 52 87 53 81 54 80 55
REMARK SMILES IDX 36 57 68 58 48 59 67 60 49 61 52 62 66 63 85 64 50 65 51 66
REMARK SMILES IDX 65 68 86 69 53 70 37 71 38 72 46 73 39 74 41 75 47 76 40 77
REMARK SMILES IDX 42 78 43 79 44 80 45 81 69 82 70 83 78 84 71 85 73 86 79 87
REMARK SMILES IDX 72 88 74 89 75 90 76 91 77 92 54 93 55 94 63 95 56 96 58 97
REMARK SMILES IDX 64 98 57 99 59 100 60 101 61 102 62 103
REMARK H PARENT 20 6 25 37 84 56 52 67
REMARK Flexibility Score: inf
ROOT
ATOM      1  C   UNL A   1      37.005  20.357  25.013  1.00  0.00     0.023 C 
ENDROOT
BRANCH   1   2
ATOM      2  C   UNL A   1      37.362  21.847  25.038  1.00  0.00     0.116 C 
BRANCH   2   3
ATOM      3  N   UNL A   1      36.851  22.522  23.864  1.00  0.00    -0.356 N 
ATOM      4  C   UNL A   1      35.867  23.468  23.799  1.00  0.00     0.224 C 
ATOM      5  O   UNL A   1      35.328  23.710  22.720  1.00  0.00    -0.275 OA
ATOM      6  H   UNL A   1      37.262  22.269  23.006  1.00  0.00     0.163 HD
BRANCH   4   7
ATOM      7  C   UNL A   1      35.577  24.301  25.038  1.00  0.00     0.138 C 
BRANCH   7   8
ATOM      8  C   UNL A   1      34.185  24.863  25.218  1.00  0.00    -0.002 C 
ATOM      9  C   UNL A   1      33.065  24.111  25.356  1.00  0.00     0.019 C 
BRANCH   9  10
ATOM     10  C   UNL A   1      32.859  22.686  25.232  1.00  0.00     0.019 A 
ATOM     11  C   UNL A   1      31.113  22.772  23.259  1.00  0.00     0.069 C 
ATOM     12  C   UNL A   1      32.001  22.112  24.249  1.00  0.00     0.067 A 
ATOM     13  N   UNL A   1      32.061  20.784  24.262  1.00  0.00    -0.177 NA
ATOM     14  N   UNL A   1      33.010  20.491  25.173  1.00  0.00    -0.265 N 
ATOM     15  C   UNL A   1      33.347  21.585  25.941  1.00  0.00     0.043 A 
ATOM     16  C   UNL A   1      34.073  21.440  27.233  1.00  0.00     0.067 C 
BRANCH  14  17
ATOM     17  C   UNL A   1      33.423  19.100  25.180  1.00  0.00     0.123 C 
ATOM     18  C   UNL A   1      32.213  18.160  25.402  1.00  0.00     0.044 C 
ATOM     19  C   UNL A   1      34.147  18.452  23.998  1.00  0.00     0.164 C 
ATOM     20  C   UNL A   1      32.793  16.763  25.565  1.00  0.00     0.139 C 
ATOM     21  S   UNL A   1      34.247  16.737  24.531  1.00  0.00     0.152 S 
ATOM     22  O   UNL A   1      35.401  16.614  25.414  1.00  0.00    -0.229 OA
ATOM     23  O   UNL A   1      34.011  15.835  23.440  1.00  0.00    -0.229 OA
ENDBRANCH  14  17
ENDBRANCH   9  10
BRANCH   8  24
ATOM     24  C   UNL A   1      34.040  26.297  25.193  1.00  0.00     0.121 A 
ATOM     25  N   UNL A   1      34.230  27.074  26.238  1.00  0.00    -0.236 NA
ATOM     26  S   UNL A   1      33.343  27.120  23.841  1.00  0.00    -0.114 S 
ATOM     27  C   UNL A   1      33.401  28.172  26.155  1.00  0.00     0.082 A 
ATOM     28  C   UNL A   1      32.802  28.364  24.910  1.00  0.00     0.055 A 
ATOM     29  C   UNL A   1      33.060  29.028  27.221  1.00  0.00     0.030 A 
ATOM     30  C   UNL A   1      31.872  29.392  24.687  1.00  0.00     0.021 A 
ATOM     31  C   UNL A   1      32.046  29.973  27.040  1.00  0.00     0.002 A 
ATOM     32  C   UNL A   1      31.461  30.149  25.789  1.00  0.00     0.002 A 
ENDBRANCH   8  24
ENDBRANCH   7   8
ENDBRANCH   4   7
ENDBRANCH   2   3
ENDBRANCH   1   2
BRANCH   1  33
ATOM     33  C   UNL A   1      38.212  19.415  25.127  1.00  0.00     0.023 C 
BRANCH  33  34
ATOM     34  C   UNL A   1      39.425  20.068  25.768  1.00  0.00     0.116 C 
BRANCH  34  35
ATOM     35  N   UNL A   1      40.579  19.166  25.799  1.00  0.00    -0.352 N 
ATOM     36  C   UNL A   1      41.912  19.509  25.919  1.00  0.00     0.251 C 
ATOM     37  H   UNL A   1      40.383  18.204  25.727  1.00  0.00     0.163 HD
ATOM     38  O   UNL A   1      42.799  18.755  25.541  1.00  0.00    -0.269 OA
BRANCH  36  39
ATOM     39  C   UNL A   1      42.236  20.796  26.551  1.00  0.00     0.039 A 
ATOM     40  C   UNL A   1      42.897  21.815  25.860  1.00  0.00     0.014 A 
ATOM     41  C   UNL A   1      41.813  20.973  27.867  1.00  0.00     0.014 A 
ATOM     42  C   UNL A   1      43.071  23.041  26.493  1.00  0.00     0.010 A 
ATOM     43  C   UNL A   1      41.825  22.222  28.418  1.00  0.00     0.010 A 
ATOM     44  C   UNL A   1      42.519  23.237  27.770  1.00  0.00    -0.014 A 
BRANCH  44  45
ATOM     45  C   UNL A   1      42.532  24.542  28.413  1.00  0.00     0.031 A 
ATOM     46  C   UNL A   1      41.286  25.322  28.188  1.00  0.00     0.074 A 
ATOM     47  C   UNL A   1      43.477  24.880  29.319  1.00  0.00     0.049 A 
ATOM     48  N   UNL A   1      41.144  26.379  27.457  1.00  0.00    -0.248 NA
ATOM     49  C   UNL A   1      40.010  24.757  28.662  1.00  0.00     0.031 C 
ATOM     50  C   UNL A   1      44.552  24.031  29.858  1.00  0.00     0.029 A 
ATOM     51  N   UNL A   1      43.589  26.003  30.077  1.00  0.00    -0.354 N 
ATOM     52  C   UNL A   1      39.815  26.767  27.625  1.00  0.00     0.074 A 
ATOM     53  C   UNL A   1      39.128  25.613  28.137  1.00  0.00     0.031 C 
ATOM     54  C   UNL A   1      45.008  24.558  31.016  1.00  0.00     0.029 A 
ATOM     55  C   UNL A   1      44.390  25.854  31.209  1.00  0.00     0.049 A 
ATOM     56  H   UNL A   1      43.141  26.849  29.847  1.00  0.00     0.167 HD
ATOM     57  C   UNL A   1      39.471  28.085  27.630  1.00  0.00     0.034 A 
ATOM     58  C   UNL A   1      44.491  26.712  32.256  1.00  0.00     0.034 A 
ATOM     59  C   UNL A   1      40.556  28.895  27.127  1.00  0.00     0.049 A 
ATOM     60  C   UNL A   1      43.986  28.024  31.791  1.00  0.00     0.074 A 
ATOM     61  C   UNL A   1      41.281  28.945  25.953  1.00  0.00     0.029 A 
ATOM     62  N   UNL A   1      41.309  29.551  28.071  1.00  0.00    -0.354 N 
ATOM     63  N   UNL A   1      44.573  28.728  30.862  1.00  0.00    -0.248 NA
ATOM     64  C   UNL A   1      42.581  28.321  32.012  1.00  0.00     0.031 C 
ATOM     65  C   UNL A   1      42.621  29.203  26.366  1.00  0.00     0.029 A 
ATOM     66  C   UNL A   1      42.628  29.391  27.750  1.00  0.00     0.049 A 
ATOM     67  H   UNL A   1      40.959  30.051  28.844  1.00  0.00     0.167 HD
ATOM     68  C   UNL A   1      43.525  29.180  30.071  1.00  0.00     0.074 A 
ATOM     69  C   UNL A   1      42.324  28.992  30.886  1.00  0.00     0.031 C 
ATOM     70  C   UNL A   1      43.692  29.371  28.729  1.00  0.00     0.034 A 
BRANCH  57  71
ATOM     71  C   UNL A   1      38.369  28.711  28.466  1.00  0.00     0.023 A 
ATOM     72  C   UNL A   1      37.423  29.504  27.774  1.00  0.00     0.012 A 
ATOM     73  C   UNL A   1      38.371  28.814  29.876  1.00  0.00     0.148 A 
ATOM     74  C   UNL A   1      36.593  30.414  28.438  1.00  0.00     0.002 A 
ATOM     75  C   UNL A   1      37.494  29.667  30.539  1.00  0.00     0.091 A 
ATOM     76  F   UNL A   1      39.300  28.189  30.598  1.00  0.00    -0.205 F 
ATOM     77  C   UNL A   1      36.629  30.496  29.823  1.00  0.00     0.022 A 
BRANCH  75  78
ATOM     78  S   UNL A   1      37.467  29.789  32.333  1.00  0.00     0.127 S 
ATOM     79  O   UNL A   1      38.779  30.369  32.605  1.00  0.00    -0.237 OA
ATOM     80  O   UNL A   1      36.333  30.686  32.551  1.00  0.00    -0.237 OA
ATOM     81  O   UNL A   1      37.257  28.432  32.819  1.00  0.00    -0.744 OA
ENDBRANCH  75  78
ENDBRANCH  57  71
BRANCH  58  82
ATOM     82  C   UNL A   1      44.726  26.429  33.693  1.00  0.00     0.023 A 
ATOM     83  C   UNL A   1      46.010  26.614  34.249  1.00  0.00     0.012 A 
ATOM     84  C   UNL A   1      43.638  26.256  34.579  1.00  0.00     0.148 A 
ATOM     85  C   UNL A   1      46.197  26.650  35.638  1.00  0.00     0.002 A 
ATOM     86  C   UNL A   1      43.830  26.284  35.958  1.00  0.00     0.091 A 
ATOM     87  F   UNL A   1      42.402  26.168  34.069  1.00  0.00    -0.205 F 
ATOM     88  C   UNL A   1      45.108  26.493  36.492  1.00  0.00     0.022 A 
BRANCH  86  89
ATOM     89  S   UNL A   1      42.462  26.133  37.119  1.00  0.00     0.127 S 
ATOM     90  O   UNL A   1      41.596  27.243  36.723  1.00  0.00    -0.237 OA
ATOM     91  O   UNL A   1      41.939  24.808  36.796  1.00  0.00    -0.237 OA
ATOM     92  O   UNL A   1      43.040  26.271  38.452  1.00  0.00    -0.744 OA
ENDBRANCH  86  89
ENDBRANCH  58  82
BRANCH  70  93
ATOM     93  C   UNL A   1      45.094  29.349  28.175  1.00  0.00     0.023 A 
ATOM     94  C   UNL A   1      45.986  30.436  28.286  1.00  0.00     0.012 A 
ATOM     95  C   UNL A   1      45.576  28.119  27.700  1.00  0.00     0.148 A 
ATOM     96  C   UNL A   1      47.328  30.298  27.917  1.00  0.00     0.002 A 
ATOM     97  C   UNL A   1      46.919  27.971  27.384  1.00  0.00     0.091 A 
ATOM     98  F   UNL A   1      44.712  27.097  27.603  1.00  0.00    -0.205 F 
ATOM     99  C   UNL A   1      47.798  29.061  27.482  1.00  0.00     0.022 A 
BRANCH  97 100
ATOM    100  S   UNL A   1      47.600  26.371  26.949  1.00  0.00     0.127 S 
ATOM    101  O   UNL A   1      46.922  26.085  25.687  1.00  0.00    -0.237 OA
ATOM    102  O   UNL A   1      49.029  26.662  26.825  1.00  0.00    -0.237 OA
ATOM    103  O   UNL A   1      47.270  25.479  28.054  1.00  0.00    -0.744 OA
ENDBRANCH  97 100
ENDBRANCH  70  93
ENDBRANCH  44  45
ENDBRANCH  36  39
ENDBRANCH  34  35
ENDBRANCH  33  34
ENDBRANCH   1  33
TORSDOF 18
ENDMDL
MODEL 3
REMARK VINA RESULT:     -13.3      2.937      8.465
REMARK SMILES Cc1nn([C@H]2CCS(=O)(=O)C2)c(C)c1/C=C(\CC(=O)NCCCCNC(=O)c1ccc(-c2c3nc(c(-c4cccc(S(=O)(=O)[O-])c4F)c4ccc([nH]4)c(-c4cccc(S(=O)(=O)[O-])c4F)c4nc(c(-c5cccc(S(=O)(=O)[O-])c5F)c5ccc2[nH]5)C=C4)C=C3)cc1)c1nc2ccccc2s1
REMARK SMILES IDX 22 1 21 2 20 3 18 4 19 5 17 7 16 8 15 9 14 10 1 11 2 12 3 13
REMARK SMILES IDX 4 14 12 15 13 16 5 17 6 18 11 19 7 20 8 21 9 22 10 23 91 24
REMARK SMILES IDX 92 25 99 26 93 27 98 28 94 29 97 30 95 31 96 32 23 33 24 34
REMARK SMILES IDX 25 35 26 36 27 38 28 39 29 40 90 41 30 42 89 43 31 44 32 45
REMARK SMILES IDX 33 46 83 47 34 48 88 49 82 50 84 51 35 52 87 53 81 54 80 55
REMARK SMILES IDX 36 57 68 58 48 59 67 60 49 61 52 62 66 63 85 64 50 65 51 66
REMARK SMILES IDX 65 68 86 69 53 70 37 71 38 72 46 73 39 74 41 75 47 76 40 77
REMARK SMILES IDX 42 78 43 79 44 80 45 81 69 82 70 83 78 84 71 85 73 86 79 87
REMARK SMILES IDX 72 88 74 89 75 90 76 91 77 92 54 93 55 94 63 95 56 96 58 97
REMARK SMILES IDX 64 98 57 99 59 100 60 101 61 102 62 103
REMARK H PARENT 20 6 25 37 84 56 52 67
REMARK Flexibility Score: inf
ROOT
ATOM      1  C   UNL A   1      34.111  29.139  26.423  1.00  0.00     0.023 C 
ENDROOT
BRANCH   1   2
ATOM      2  C   UNL A   1      33.131  28.980  25.256  1.00  0.00     0.116 C 
BRANCH   2   3
ATOM      3  N   UNL A   1      33.558  27.925  24.361  1.00  0.00    -0.356 N 
ATOM      4  C   UNL A   1      33.142  26.624  24.337  1.00  0.00     0.224 C 
ATOM      5  O   UNL A   1      33.815  25.783  23.743  1.00  0.00    -0.275 OA
ATOM      6  H   UNL A   1      34.230  28.175  23.687  1.00  0.00     0.163 HD
BRANCH   4   7
ATOM      7  C   UNL A   1      31.776  26.286  24.915  1.00  0.00     0.138 C 
BRANCH   7   8
ATOM      8  C   UNL A   1      30.717  25.739  23.986  1.00  0.00    -0.002 C 
ATOM      9  C   UNL A   1      30.519  24.420  23.737  1.00  0.00     0.019 C 
BRANCH   9  10
ATOM     10  C   UNL A   1      31.282  23.257  24.128  1.00  0.00     0.019 A 
ATOM     11  C   UNL A   1      30.426  23.117  26.617  1.00  0.00     0.069 C 
ATOM     12  C   UNL A   1      31.187  22.670  25.423  1.00  0.00     0.067 A 
ATOM     13  N   UNL A   1      31.898  21.550  25.507  1.00  0.00    -0.177 NA
ATOM     14  N   UNL A   1      32.377  21.352  24.262  1.00  0.00    -0.265 N 
ATOM     15  C   UNL A   1      32.227  22.467  23.466  1.00  0.00     0.043 A 
ATOM     16  C   UNL A   1      32.994  22.634  22.201  1.00  0.00     0.067 C 
BRANCH  14  17
ATOM     17  C   UNL A   1      32.984  20.050  24.055  1.00  0.00     0.123 C 
ATOM     18  C   UNL A   1      34.240  19.873  24.943  1.00  0.00     0.044 C 
ATOM     19  C   UNL A   1      32.220  18.743  24.277  1.00  0.00     0.164 C 
ATOM     20  C   UNL A   1      34.876  18.560  24.509  1.00  0.00     0.139 C 
ATOM     21  S   UNL A   1      33.512  17.520  24.016  1.00  0.00     0.152 S 
ATOM     22  O   UNL A   1      33.634  17.303  22.580  1.00  0.00    -0.229 OA
ATOM     23  O   UNL A   1      33.406  16.438  24.953  1.00  0.00    -0.229 OA
ENDBRANCH  14  17
ENDBRANCH   9  10
BRANCH   8  24
ATOM     24  C   UNL A   1      29.895  26.691  23.282  1.00  0.00     0.121 A 
ATOM     25  N   UNL A   1      30.364  27.579  22.430  1.00  0.00    -0.236 NA
ATOM     26  S   UNL A   1      28.232  26.935  23.685  1.00  0.00    -0.114 S 
ATOM     27  C   UNL A   1      29.581  28.714  22.467  1.00  0.00     0.082 A 
ATOM     28  C   UNL A   1      28.363  28.565  23.131  1.00  0.00     0.055 A 
ATOM     29  C   UNL A   1      29.949  29.983  21.981  1.00  0.00     0.030 A 
ATOM     30  C   UNL A   1      27.489  29.647  23.322  1.00  0.00     0.021 A 
ATOM     31  C   UNL A   1      29.143  31.087  22.274  1.00  0.00     0.002 A 
ATOM     32  C   UNL A   1      27.930  30.918  22.937  1.00  0.00     0.002 A 
ENDBRANCH   8  24
ENDBRANCH   7   8
ENDBRANCH   4   7
ENDBRANCH   2   3
ENDBRANCH   1   2
BRANCH   1  33
ATOM     33  C   UNL A   1      33.643  30.112  27.514  1.00  0.00     0.023 C 
BRANCH  33  34
ATOM     34  C   UNL A   1      34.470  31.385  27.579  1.00  0.00     0.116 C 
BRANCH  34  35
ATOM     35  N   UNL A   1      34.402  32.016  28.899  1.00  0.00    -0.352 N 
ATOM     36  C   UNL A   1      35.203  31.763  29.995  1.00  0.00     0.251 C 
ATOM     37  H   UNL A   1      33.705  32.701  29.019  1.00  0.00     0.163 HD
ATOM     38  O   UNL A   1      34.830  32.029  31.131  1.00  0.00    -0.269 OA
BRANCH  36  39
ATOM     39  C   UNL A   1      36.538  31.196  29.755  1.00  0.00     0.039 A 
ATOM     40  C   UNL A   1      37.664  32.002  29.571  1.00  0.00     0.014 A 
ATOM     41  C   UNL A   1      36.638  29.806  29.762  1.00  0.00     0.014 A 
ATOM     42  C   UNL A   1      38.908  31.388  29.459  1.00  0.00     0.010 A 
ATOM     43  C   UNL A   1      37.869  29.218  29.829  1.00  0.00     0.010 A 
ATOM     44  C   UNL A   1      38.998  29.994  29.601  1.00  0.00    -0.014 A 
BRANCH  44  45
ATOM     45  C   UNL A   1      40.285  29.317  29.649  1.00  0.00     0.031 A 
ATOM     46  C   UNL A   1      40.780  29.089  31.033  1.00  0.00     0.074 A 
ATOM     47  C   UNL A   1      40.828  28.741  28.553  1.00  0.00     0.049 A 
ATOM     48  N   UNL A   1      41.772  29.676  31.618  1.00  0.00    -0.248 NA
ATOM     49  C   UNL A   1      39.963  28.267  31.943  1.00  0.00     0.031 C 
ATOM     50  C   UNL A   1      40.234  28.621  27.211  1.00  0.00     0.029 A 
ATOM     51  N   UNL A   1      41.960  27.996  28.436  1.00  0.00    -0.354 N 
ATOM     52  C   UNL A   1      41.871  29.073  32.871  1.00  0.00     0.074 A 
ATOM     53  C   UNL A   1      40.604  28.435  33.103  1.00  0.00     0.031 C 
ATOM     54  C   UNL A   1      40.862  27.640  26.525  1.00  0.00     0.029 A 
ATOM     55  C   UNL A   1      42.000  27.188  27.300  1.00  0.00     0.049 A 
ATOM     56  H   UNL A   1      42.688  28.024  29.098  1.00  0.00     0.167 HD
ATOM     57  C   UNL A   1      43.086  28.885  33.458  1.00  0.00     0.034 A 
ATOM     58  C   UNL A   1      42.874  26.181  27.044  1.00  0.00     0.034 A 
ATOM     59  C   UNL A   1      44.101  29.660  32.784  1.00  0.00     0.049 A 
ATOM     60  C   UNL A   1      44.042  26.387  27.930  1.00  0.00     0.074 A 
ATOM     61  C   UNL A   1      44.289  30.999  32.504  1.00  0.00     0.029 A 
ATOM     62  N   UNL A   1      44.915  28.970  31.918  1.00  0.00    -0.354 N 
ATOM     63  N   UNL A   1      44.841  27.413  27.833  1.00  0.00    -0.248 NA
ATOM     64  C   UNL A   1      44.036  25.714  29.218  1.00  0.00     0.031 C 
ATOM     65  C   UNL A   1      44.831  31.021  31.185  1.00  0.00     0.029 A 
ATOM     66  C   UNL A   1      45.034  29.702  30.771  1.00  0.00     0.049 A 
ATOM     67  H   UNL A   1      45.339  28.099  32.095  1.00  0.00     0.167 HD
ATOM     68  C   UNL A   1      45.050  27.803  29.149  1.00  0.00     0.074 A 
ATOM     69  C   UNL A   1      44.622  26.660  29.957  1.00  0.00     0.031 C 
ATOM     70  C   UNL A   1      45.254  29.116  29.467  1.00  0.00     0.034 A 
BRANCH  57  71
ATOM     71  C   UNL A   1      43.474  27.708  34.335  1.00  0.00     0.023 A 
ATOM     72  C   UNL A   1      44.022  28.017  35.603  1.00  0.00     0.012 A 
ATOM     73  C   UNL A   1      43.612  26.371  33.895  1.00  0.00     0.148 A 
ATOM     74  C   UNL A   1      44.743  27.077  36.347  1.00  0.00     0.002 A 
ATOM     75  C   UNL A   1      44.267  25.420  34.671  1.00  0.00     0.091 A 
ATOM     76  F   UNL A   1      43.226  26.020  32.669  1.00  0.00    -0.205 F 
ATOM     77  C   UNL A   1      44.867  25.776  35.880  1.00  0.00     0.022 A 
BRANCH  75  78
ATOM     78  S   UNL A   1      44.426  23.710  34.137  1.00  0.00     0.127 S 
ATOM     79  O   UNL A   1      43.031  23.282  34.113  1.00  0.00    -0.237 OA
ATOM     80  O   UNL A   1      45.051  23.867  32.824  1.00  0.00    -0.237 OA
ATOM     81  O   UNL A   1      45.275  23.062  35.129  1.00  0.00    -0.744 OA
ENDBRANCH  75  78
ENDBRANCH  57  71
BRANCH  58  82
ATOM     82  C   UNL A   1      42.666  24.912  26.306  1.00  0.00     0.023 A 
ATOM     83  C   UNL A   1      43.607  24.494  25.340  1.00  0.00     0.012 A 
ATOM     84  C   UNL A   1      41.705  23.972  26.744  1.00  0.00     0.148 A 
ATOM     85  C   UNL A   1      43.606  23.181  24.851  1.00  0.00     0.002 A 
ATOM     86  C   UNL A   1      41.702  22.671  26.249  1.00  0.00     0.091 A 
ATOM     87  F   UNL A   1      40.862  24.326  27.724  1.00  0.00    -0.205 F 
ATOM     88  C   UNL A   1      42.660  22.268  25.310  1.00  0.00     0.022 A 
BRANCH  86  89
ATOM     89  S   UNL A   1      40.537  21.428  26.831  1.00  0.00     0.127 S 
ATOM     90  O   UNL A   1      41.010  20.220  26.153  1.00  0.00    -0.237 OA
ATOM     91  O   UNL A   1      40.772  21.446  28.273  1.00  0.00    -0.237 OA
ATOM     92  O   UNL A   1      39.215  21.874  26.404  1.00  0.00    -0.744 OA
ENDBRANCH  86  89
ENDBRANCH  58  82
BRANCH  70  93
ATOM     93  C   UNL A   1      45.523  30.087  28.346  1.00  0.00     0.023 A 
ATOM     94  C   UNL A   1      44.502  30.779  27.661  1.00  0.00     0.012 A 
ATOM     95  C   UNL A   1      46.861  30.444  28.115  1.00  0.00     0.148 A 
ATOM     96  C   UNL A   1      44.816  31.799  26.757  1.00  0.00     0.002 A 
ATOM     97  C   UNL A   1      47.165  31.490  27.256  1.00  0.00     0.091 A 
ATOM     98  F   UNL A   1      47.817  29.773  28.777  1.00  0.00    -0.205 F 
ATOM     99  C   UNL A   1      46.147  32.166  26.567  1.00  0.00     0.022 A 
BRANCH  97 100
ATOM    100  S   UNL A   1      48.846  32.088  27.080  1.00  0.00     0.127 S 
ATOM    101  O   UNL A   1      49.532  30.915  26.544  1.00  0.00    -0.237 OA
ATOM    102  O   UNL A   1      48.688  33.192  26.133  1.00  0.00    -0.237 OA
ATOM    103  O   UNL A   1      49.267  32.505  28.412  1.00  0.00    -0.744 OA
ENDBRANCH  97 100
ENDBRANCH  70  93
ENDBRANCH  44  45
ENDBRANCH  36  39
ENDBRANCH  34  35
ENDBRANCH  33  34
ENDBRANCH   1  33
TORSDOF 18
ENDMDL
