MODEL 1
REMARK VINA RESULT:     -12.0      0.000      0.000
REMARK SMILES O=C(Cc1ccn[nH]1)NC[C@H]1CCCC[C@H]1C(=O)NCCCCNC(=O)c1ccc(-c2c3nc(c(-c4cccc(S(=O)(=O)[O-])c4F)c4ccc([nH]4)c(-c4cccc(S(=O)(=O)[O-])c4F)c4nc(c(-c5cccc(S(=O)(=O)[O-])c5F)c5ccc2[nH]5)C=C4)C=C3)cc1
REMARK SMILES IDX 21 1 20 2 19 3 17 4 18 5 16 7 11 8 12 9 13 10 15 11 14 12
REMARK SMILES IDX 10 13 9 14 1 15 2 16 3 18 4 19 5 20 8 21 6 22 7 23 22 25
REMARK SMILES IDX 23 26 24 27 25 28 26 30 27 31 28 32 89 33 29 34 88 35 30 36
REMARK SMILES IDX 31 37 32 38 82 39 33 40 87 41 81 42 83 43 34 44 86 45 80 46
REMARK SMILES IDX 79 47 35 49 67 50 47 51 66 52 48 53 51 54 65 55 84 56 49 57
REMARK SMILES IDX 50 58 64 60 85 61 52 62 36 63 37 64 45 65 38 66 40 67 46 68
REMARK SMILES IDX 39 69 41 70 42 71 43 72 44 73 68 74 69 75 77 76 70 77 72 78
REMARK SMILES IDX 78 79 71 80 73 81 74 82 75 83 76 84 53 85 54 86 62 87 55 88
REMARK SMILES IDX 57 89 63 90 56 91 58 92 59 93 60 94 61 95
REMARK H PARENT 19 6 9 17 8 24 24 29 83 48 51 59
REMARK Flexibility Score: inf
ROOT
ATOM      1  C   UNL A   1      35.040  22.225  25.236  1.00  0.00     0.023 C 
ENDROOT
BRANCH   1   2
ATOM      2  C   UNL A   1      34.906  23.158  26.440  1.00  0.00     0.116 C 
BRANCH   2   3
ATOM      3  N   UNL A   1      33.591  23.074  27.059  1.00  0.00    -0.356 N 
ATOM      4  C   UNL A   1      32.395  23.677  26.823  1.00  0.00     0.223 C 
ATOM      5  O   UNL A   1      31.479  23.414  27.611  1.00  0.00    -0.275 OA
ATOM      6  H   UNL A   1      33.562  22.443  27.815  1.00  0.00     0.163 HD
BRANCH   4   7
ATOM      7  C   UNL A   1      32.121  24.658  25.670  1.00  0.00     0.083 C 
ATOM      8  C   UNL A   1      32.218  24.051  24.231  1.00  0.00     0.021 C 
ATOM      9  C   UNL A   1      31.862  25.102  23.167  1.00  0.00     0.006 C 
ATOM     10  C   UNL A   1      30.569  25.846  23.474  1.00  0.00     0.000 C 
ATOM     11  C   UNL A   1      30.944  25.608  25.944  1.00  0.00     0.014 C 
ATOM     12  C   UNL A   1      30.686  26.581  24.802  1.00  0.00     0.001 C 
BRANCH   8  13
ATOM     13  C   UNL A   1      31.429  22.751  24.086  1.00  0.00     0.120 C 
BRANCH  13  14
ATOM     14  N   UNL A   1      32.039  21.655  23.360  1.00  0.00    -0.355 N 
ATOM     15  O   UNL A   1      32.045  20.255  25.193  1.00  0.00    -0.275 OA
ATOM     16  C   UNL A   1      32.221  20.434  23.990  1.00  0.00     0.226 C 
ATOM     17  H   UNL A   1      32.322  21.776  22.425  1.00  0.00     0.163 HD
BRANCH  16  18
ATOM     18  C   UNL A   1      32.503  19.265  23.067  1.00  0.00     0.155 C 
BRANCH  18  19
ATOM     19  C   UNL A   1      32.966  18.085  23.858  1.00  0.00     0.044 A 
ATOM     20  C   UNL A   1      34.229  17.582  24.088  1.00  0.00     0.045 A 
ATOM     21  N   UNL A   1      32.115  17.278  24.577  1.00  0.00    -0.282 N 
ATOM     22  C   UNL A   1      34.025  16.439  24.880  1.00  0.00     0.135 A 
ATOM     23  N   UNL A   1      32.735  16.228  25.141  1.00  0.00    -0.184 NA
ATOM     24  H   UNL A   1      31.151  17.452  24.669  1.00  0.00     0.190 HD
ENDBRANCH  18  19
ENDBRANCH  16  18
ENDBRANCH  13  14
ENDBRANCH   8  13
ENDBRANCH   4   7
ENDBRANCH   2   3
ENDBRANCH   1   2
BRANCH   1  25
ATOM     25  C   UNL A   1      36.046  21.099  25.374  1.00  0.00     0.023 C 
BRANCH  25  26
ATOM     26  C   UNL A   1      37.491  21.517  25.201  1.00  0.00     0.116 C 
BRANCH  26  27
ATOM     27  N   UNL A   1      38.453  20.476  25.544  1.00  0.00    -0.352 N 
ATOM     28  C   UNL A   1      39.650  20.607  26.213  1.00  0.00     0.251 C 
ATOM     29  H   UNL A   1      38.218  19.563  25.260  1.00  0.00     0.163 HD
ATOM     30  O   UNL A   1      40.399  19.651  26.355  1.00  0.00    -0.269 OA
BRANCH  28  31
ATOM     31  C   UNL A   1      40.023  21.940  26.727  1.00  0.00     0.039 A 
ATOM     32  C   UNL A   1      40.993  22.042  27.725  1.00  0.00     0.014 A 
ATOM     33  C   UNL A   1      39.481  23.084  26.139  1.00  0.00     0.014 A 
ATOM     34  C   UNL A   1      41.475  23.303  28.081  1.00  0.00     0.010 A 
ATOM     35  C   UNL A   1      40.044  24.321  26.409  1.00  0.00     0.010 A 
ATOM     36  C   UNL A   1      41.033  24.448  27.396  1.00  0.00    -0.014 A 
BRANCH  36  37
ATOM     37  C   UNL A   1      41.554  25.800  27.708  1.00  0.00     0.031 A 
ATOM     38  C   UNL A   1      42.962  26.156  27.309  1.00  0.00     0.074 A 
ATOM     39  C   UNL A   1      40.817  26.656  28.441  1.00  0.00     0.049 A 
ATOM     40  N   UNL A   1      43.648  27.236  27.576  1.00  0.00    -0.248 NA
ATOM     41  C   UNL A   1      43.718  25.141  26.553  1.00  0.00     0.031 C 
ATOM     42  C   UNL A   1      39.481  26.385  28.978  1.00  0.00     0.029 A 
ATOM     43  N   UNL A   1      41.101  27.922  28.887  1.00  0.00    -0.354 N 
ATOM     44  C   UNL A   1      44.923  27.005  27.075  1.00  0.00     0.074 A 
ATOM     45  C   UNL A   1      44.933  25.666  26.533  1.00  0.00     0.031 C 
ATOM     46  C   UNL A   1      39.057  27.457  29.667  1.00  0.00     0.029 A 
ATOM     47  C   UNL A   1      40.096  28.482  29.642  1.00  0.00     0.049 A 
ATOM     48  H   UNL A   1      41.945  28.387  28.686  1.00  0.00     0.167 HD
ATOM     49  C   UNL A   1      45.981  27.848  27.026  1.00  0.00     0.034 A 
ATOM     50  C   UNL A   1      40.021  29.688  30.237  1.00  0.00     0.034 A 
ATOM     51  C   UNL A   1      45.935  29.208  27.483  1.00  0.00     0.049 A 
ATOM     52  C   UNL A   1      41.169  30.648  30.073  1.00  0.00     0.074 A 
ATOM     53  C   UNL A   1      46.907  30.185  27.377  1.00  0.00     0.029 A 
ATOM     54  N   UNL A   1      44.848  29.786  28.121  1.00  0.00    -0.354 N 
ATOM     55  N   UNL A   1      42.308  30.473  29.447  1.00  0.00    -0.248 NA
ATOM     56  C   UNL A   1      41.007  31.986  30.660  1.00  0.00     0.031 C 
ATOM     57  C   UNL A   1      46.406  31.358  27.954  1.00  0.00     0.029 A 
ATOM     58  C   UNL A   1      45.121  31.110  28.410  1.00  0.00     0.049 A 
ATOM     59  H   UNL A   1      44.008  29.322  28.337  1.00  0.00     0.167 HD
ATOM     60  C   UNL A   1      42.983  31.685  29.532  1.00  0.00     0.074 A 
ATOM     61  C   UNL A   1      42.115  32.594  30.253  1.00  0.00     0.031 C 
ATOM     62  C   UNL A   1      44.215  32.014  29.071  1.00  0.00     0.034 A 
BRANCH  49  63
ATOM     63  C   UNL A   1      47.245  27.340  26.383  1.00  0.00     0.023 A 
ATOM     64  C   UNL A   1      47.479  27.600  25.016  1.00  0.00     0.012 A 
ATOM     65  C   UNL A   1      48.207  26.629  27.124  1.00  0.00     0.148 A 
ATOM     66  C   UNL A   1      48.627  27.124  24.386  1.00  0.00     0.002 A 
ATOM     67  C   UNL A   1      49.372  26.197  26.500  1.00  0.00     0.091 A 
ATOM     68  F   UNL A   1      47.957  26.366  28.415  1.00  0.00    -0.205 F 
ATOM     69  C   UNL A   1      49.578  26.432  25.130  1.00  0.00     0.022 A 
BRANCH  67  70
ATOM     70  S   UNL A   1      50.692  25.365  27.391  1.00  0.00     0.127 S 
ATOM     71  O   UNL A   1      51.111  26.400  28.334  1.00  0.00    -0.237 OA
ATOM     72  O   UNL A   1      49.990  24.234  28.000  1.00  0.00    -0.237 OA
ATOM     73  O   UNL A   1      51.678  24.992  26.385  1.00  0.00    -0.744 OA
ENDBRANCH  67  70
ENDBRANCH  49  63
BRANCH  50  74
ATOM     74  C   UNL A   1      38.775  30.092  30.946  1.00  0.00     0.023 A 
ATOM     75  C   UNL A   1      38.596  29.708  32.290  1.00  0.00     0.012 A 
ATOM     76  C   UNL A   1      37.791  30.883  30.323  1.00  0.00     0.148 A 
ATOM     77  C   UNL A   1      37.449  30.078  32.992  1.00  0.00     0.002 A 
ATOM     78  C   UNL A   1      36.672  31.290  31.043  1.00  0.00     0.091 A 
ATOM     79  F   UNL A   1      37.973  31.231  29.041  1.00  0.00    -0.205 F 
ATOM     80  C   UNL A   1      36.493  30.877  32.373  1.00  0.00     0.022 A 
BRANCH  78  81
ATOM     81  S   UNL A   1      35.451  32.422  30.367  1.00  0.00     0.127 S 
ATOM     82  O   UNL A   1      34.977  31.686  29.198  1.00  0.00    -0.237 OA
ATOM     83  O   UNL A   1      34.487  32.520  31.465  1.00  0.00    -0.237 OA
ATOM     84  O   UNL A   1      36.172  33.656  30.093  1.00  0.00    -0.744 OA
ENDBRANCH  78  81
ENDBRANCH  50  74
BRANCH  62  85
ATOM     85  C   UNL A   1      44.693  33.422  29.301  1.00  0.00     0.023 A 
ATOM     86  C   UNL A   1      45.361  33.743  30.498  1.00  0.00     0.012 A 
ATOM     87  C   UNL A   1      44.560  34.399  28.295  1.00  0.00     0.148 A 
ATOM     88  C   UNL A   1      45.868  35.026  30.703  1.00  0.00     0.002 A 
ATOM     89  C   UNL A   1      45.107  35.663  28.488  1.00  0.00     0.091 A 
ATOM     90  F   UNL A   1      43.902  34.079  27.172  1.00  0.00    -0.205 F 
ATOM     91  C   UNL A   1      45.753  35.979  29.694  1.00  0.00     0.022 A 
BRANCH  89  92
ATOM     92  S   UNL A   1      45.088  36.916  27.202  1.00  0.00     0.127 S 
ATOM     93  O   UNL A   1      45.713  38.050  27.881  1.00  0.00    -0.237 OA
ATOM     94  O   UNL A   1      45.907  36.304  26.154  1.00  0.00    -0.237 OA
ATOM     95  O   UNL A   1      43.687  37.093  26.841  1.00  0.00    -0.744 OA
ENDBRANCH  89  92
ENDBRANCH  62  85
ENDBRANCH  36  37
ENDBRANCH  28  31
ENDBRANCH  26  27
ENDBRANCH  25  26
ENDBRANCH   1  25
TORSDOF 18
ENDMDL
MODEL 2
REMARK VINA RESULT:     -11.7      4.603      9.312
REMARK SMILES O=C(Cc1ccn[nH]1)NC[C@H]1CCCC[C@H]1C(=O)NCCCCNC(=O)c1ccc(-c2c3nc(c(-c4cccc(S(=O)(=O)[O-])c4F)c4ccc([nH]4)c(-c4cccc(S(=O)(=O)[O-])c4F)c4nc(c(-c5cccc(S(=O)(=O)[O-])c5F)c5ccc2[nH]5)C=C4)C=C3)cc1
REMARK SMILES IDX 21 1 20 2 19 3 17 4 18 5 16 7 11 8 12 9 13 10 15 11 14 12
REMARK SMILES IDX 10 13 9 14 1 15 2 16 3 18 4 19 5 20 8 21 6 22 7 23 22 25
REMARK SMILES IDX 23 26 24 27 25 28 26 30 27 31 28 32 89 33 29 34 88 35 30 36
REMARK SMILES IDX 31 37 32 38 82 39 33 40 87 41 81 42 83 43 34 44 86 45 80 46
REMARK SMILES IDX 79 47 35 49 67 50 47 51 66 52 48 53 51 54 65 55 84 56 49 57
REMARK SMILES IDX 50 58 64 60 85 61 52 62 36 63 37 64 45 65 38 66 40 67 46 68
REMARK SMILES IDX 39 69 41 70 42 71 43 72 44 73 68 74 69 75 77 76 70 77 72 78
REMARK SMILES IDX 78 79 71 80 73 81 74 82 75 83 76 84 53 85 54 86 62 87 55 88
REMARK SMILES IDX 57 89 63 90 56 91 58 92 59 93 60 94 61 95
REMARK H PARENT 19 6 9 17 8 24 24 29 83 48 51 59
REMARK Flexibility Score: inf
ROOT
ATOM      1  C   UNL A   1      31.739  28.210  27.195  1.00  0.00     0.023 C 
ENDROOT
BRANCH   1   2
ATOM      2  C   UNL A   1      31.080  27.130  26.335  1.00  0.00     0.116 C 
BRANCH   2   3
ATOM      3  N   UNL A   1      31.204  25.804  26.924  1.00  0.00    -0.356 N 
ATOM      4  C   UNL A   1      31.562  24.585  26.440  1.00  0.00     0.223 C 
ATOM      5  O   UNL A   1      31.488  23.635  27.227  1.00  0.00    -0.275 OA
ATOM      6  H   UNL A   1      30.979  25.787  27.883  1.00  0.00     0.163 HD
BRANCH   4   7
ATOM      7  C   UNL A   1      32.028  24.317  24.998  1.00  0.00     0.083 C 
ATOM      8  C   UNL A   1      33.528  24.649  24.701  1.00  0.00     0.021 C 
ATOM      9  C   UNL A   1      33.895  24.283  23.255  1.00  0.00     0.006 C 
ATOM     10  C   UNL A   1      33.451  22.879  22.865  1.00  0.00     0.000 C 
ATOM     11  C   UNL A   1      31.480  23.005  24.414  1.00  0.00     0.014 C 
ATOM     12  C   UNL A   1      31.938  22.753  22.983  1.00  0.00     0.001 C 
BRANCH   8  13
ATOM     13  C   UNL A   1      34.478  24.054  25.738  1.00  0.00     0.120 C 
BRANCH  13  14
ATOM     14  N   UNL A   1      35.242  22.877  25.374  1.00  0.00    -0.355 N 
ATOM     15  O   UNL A   1      33.971  21.471  26.688  1.00  0.00    -0.275 OA
ATOM     16  C   UNL A   1      34.846  21.633  25.841  1.00  0.00     0.226 C 
ATOM     17  H   UNL A   1      36.036  22.959  24.799  1.00  0.00     0.163 HD
BRANCH  16  18
ATOM     18  C   UNL A   1      35.456  20.447  25.120  1.00  0.00     0.155 C 
BRANCH  18  19
ATOM     19  C   UNL A   1      34.395  19.453  24.776  1.00  0.00     0.044 A 
ATOM     20  C   UNL A   1      34.474  18.124  24.418  1.00  0.00     0.045 A 
ATOM     21  N   UNL A   1      33.050  19.742  24.814  1.00  0.00    -0.282 N 
ATOM     22  C   UNL A   1      33.144  17.732  24.186  1.00  0.00     0.135 A 
ATOM     23  N   UNL A   1      32.281  18.728  24.383  1.00  0.00    -0.184 NA
ATOM     24  H   UNL A   1      32.689  20.603  25.125  1.00  0.00     0.190 HD
ENDBRANCH  18  19
ENDBRANCH  16  18
ENDBRANCH  13  14
ENDBRANCH   8  13
ENDBRANCH   4   7
ENDBRANCH   2   3
ENDBRANCH   1   2
BRANCH   1  25
ATOM     25  C   UNL A   1      33.255  28.233  27.191  1.00  0.00     0.023 C 
BRANCH  25  26
ATOM     26  C   UNL A   1      33.866  29.419  26.474  1.00  0.00     0.116 C 
BRANCH  26  27
ATOM     27  N   UNL A   1      33.754  30.675  27.208  1.00  0.00    -0.352 N 
ATOM     28  C   UNL A   1      34.618  31.195  28.147  1.00  0.00     0.251 C 
ATOM     29  H   UNL A   1      32.958  31.220  27.008  1.00  0.00     0.163 HD
ATOM     30  O   UNL A   1      34.348  32.226  28.746  1.00  0.00    -0.269 OA
BRANCH  28  31
ATOM     31  C   UNL A   1      35.865  30.458  28.435  1.00  0.00     0.039 A 
ATOM     32  C   UNL A   1      36.996  30.695  27.652  1.00  0.00     0.014 A 
ATOM     33  C   UNL A   1      35.929  29.615  29.546  1.00  0.00     0.014 A 
ATOM     34  C   UNL A   1      38.218  30.139  28.035  1.00  0.00     0.010 A 
ATOM     35  C   UNL A   1      37.161  29.164  29.988  1.00  0.00     0.010 A 
ATOM     36  C   UNL A   1      38.316  29.403  29.228  1.00  0.00    -0.014 A 
BRANCH  36  37
ATOM     37  C   UNL A   1      39.604  28.836  29.697  1.00  0.00     0.031 A 
ATOM     38  C   UNL A   1      40.338  29.511  30.825  1.00  0.00     0.074 A 
ATOM     39  C   UNL A   1      40.164  27.800  29.044  1.00  0.00     0.049 A 
ATOM     40  N   UNL A   1      41.520  29.247  31.317  1.00  0.00    -0.248 NA
ATOM     41  C   UNL A   1      39.677  30.671  31.452  1.00  0.00     0.031 C 
ATOM     42  C   UNL A   1      39.601  27.131  27.868  1.00  0.00     0.029 A 
ATOM     43  N   UNL A   1      41.351  27.146  29.259  1.00  0.00    -0.354 N 
ATOM     44  C   UNL A   1      41.764  30.236  32.261  1.00  0.00     0.074 A 
ATOM     45  C   UNL A   1      40.633  31.135  32.240  1.00  0.00     0.031 C 
ATOM     46  C   UNL A   1      40.434  26.153  27.477  1.00  0.00     0.029 A 
ATOM     47  C   UNL A   1      41.599  26.138  28.355  1.00  0.00     0.049 A 
ATOM     48  H   UNL A   1      41.967  27.376  29.992  1.00  0.00     0.167 HD
ATOM     49  C   UNL A   1      42.814  30.363  33.105  1.00  0.00     0.034 A 
ATOM     50  C   UNL A   1      42.646  25.296  28.256  1.00  0.00     0.034 A 
ATOM     51  C   UNL A   1      43.889  29.414  33.184  1.00  0.00     0.049 A 
ATOM     52  C   UNL A   1      43.748  25.387  29.277  1.00  0.00     0.074 A 
ATOM     53  C   UNL A   1      44.942  29.378  34.078  1.00  0.00     0.029 A 
ATOM     54  N   UNL A   1      44.038  28.323  32.341  1.00  0.00    -0.354 N 
ATOM     55  N   UNL A   1      43.881  26.228  30.275  1.00  0.00    -0.248 NA
ATOM     56  C   UNL A   1      44.824  24.389  29.187  1.00  0.00     0.031 C 
ATOM     57  C   UNL A   1      45.730  28.263  33.774  1.00  0.00     0.029 A 
ATOM     58  C   UNL A   1      45.161  27.602  32.697  1.00  0.00     0.049 A 
ATOM     59  H   UNL A   1      43.432  28.097  31.598  1.00  0.00     0.167 HD
ATOM     60  C   UNL A   1      45.031  25.841  30.952  1.00  0.00     0.074 A 
ATOM     61  C   UNL A   1      45.547  24.676  30.262  1.00  0.00     0.031 C 
ATOM     62  C   UNL A   1      45.619  26.407  32.035  1.00  0.00     0.034 A 
BRANCH  49  63
ATOM     63  C   UNL A   1      42.800  31.525  34.062  1.00  0.00     0.023 A 
ATOM     64  C   UNL A   1      43.409  32.741  33.684  1.00  0.00     0.012 A 
ATOM     65  C   UNL A   1      42.172  31.431  35.318  1.00  0.00     0.148 A 
ATOM     66  C   UNL A   1      43.433  33.828  34.555  1.00  0.00     0.002 A 
ATOM     67  C   UNL A   1      42.160  32.535  36.164  1.00  0.00     0.091 A 
ATOM     68  F   UNL A   1      41.622  30.261  35.674  1.00  0.00    -0.205 F 
ATOM     69  C   UNL A   1      42.800  33.728  35.790  1.00  0.00     0.022 A 
BRANCH  67  70
ATOM     70  S   UNL A   1      41.303  32.529  37.743  1.00  0.00     0.127 S 
ATOM     71  O   UNL A   1      42.128  31.609  38.524  1.00  0.00    -0.237 OA
ATOM     72  O   UNL A   1      41.399  33.931  38.154  1.00  0.00    -0.237 OA
ATOM     73  O   UNL A   1      39.948  32.075  37.459  1.00  0.00    -0.744 OA
ENDBRANCH  67  70
ENDBRANCH  49  63
BRANCH  50  74
ATOM     74  C   UNL A   1      42.644  24.227  27.219  1.00  0.00     0.023 A 
ATOM     75  C   UNL A   1      43.321  24.451  26.003  1.00  0.00     0.012 A 
ATOM     76  C   UNL A   1      42.022  22.983  27.437  1.00  0.00     0.148 A 
ATOM     77  C   UNL A   1      43.354  23.469  25.013  1.00  0.00     0.002 A 
ATOM     78  C   UNL A   1      42.099  21.990  26.465  1.00  0.00     0.091 A 
ATOM     79  F   UNL A   1      41.374  22.790  28.595  1.00  0.00    -0.205 F 
ATOM     80  C   UNL A   1      42.753  22.237  25.247  1.00  0.00     0.022 A 
BRANCH  78  81
ATOM     81  S   UNL A   1      41.463  20.331  26.730  1.00  0.00     0.127 S 
ATOM     82  O   UNL A   1      41.699  19.709  25.430  1.00  0.00    -0.237 OA
ATOM     83  O   UNL A   1      42.323  19.844  27.810  1.00  0.00    -0.237 OA
ATOM     84  O   UNL A   1      40.067  20.504  27.107  1.00  0.00    -0.744 OA
ENDBRANCH  78  81
ENDBRANCH  50  74
BRANCH  62  85
ATOM     85  C   UNL A   1      46.869  25.761  32.568  1.00  0.00     0.023 A 
ATOM     86  C   UNL A   1      48.126  26.180  32.090  1.00  0.00     0.012 A 
ATOM     87  C   UNL A   1      46.801  24.808  33.602  1.00  0.00     0.148 A 
ATOM     88  C   UNL A   1      49.298  25.639  32.617  1.00  0.00     0.002 A 
ATOM     89  C   UNL A   1      47.974  24.306  34.154  1.00  0.00     0.091 A 
ATOM     90  F   UNL A   1      45.594  24.408  34.028  1.00  0.00    -0.205 F 
ATOM     91  C   UNL A   1      49.223  24.714  33.656  1.00  0.00     0.022 A 
BRANCH  89  92
ATOM     92  S   UNL A   1      47.966  23.187  35.558  1.00  0.00     0.127 S 
ATOM     93  O   UNL A   1      49.362  22.758  35.607  1.00  0.00    -0.237 OA
ATOM     94  O   UNL A   1      47.558  24.064  36.657  1.00  0.00    -0.237 OA
ATOM     95  O   UNL A   1      46.999  22.147  35.230  1.00  0.00    -0.744 OA
ENDBRANCH  89  92
ENDBRANCH  62  85
ENDBRANCH  36  37
ENDBRANCH  28  31
ENDBRANCH  26  27
ENDBRANCH  25  26
ENDBRANCH   1  25
TORSDOF 18
ENDMDL
MODEL 3
REMARK VINA RESULT:     -11.6      4.704      9.844
REMARK SMILES O=C(Cc1ccn[nH]1)NC[C@H]1CCCC[C@H]1C(=O)NCCCCNC(=O)c1ccc(-c2c3nc(c(-c4cccc(S(=O)(=O)[O-])c4F)c4ccc([nH]4)c(-c4cccc(S(=O)(=O)[O-])c4F)c4nc(c(-c5cccc(S(=O)(=O)[O-])c5F)c5ccc2[nH]5)C=C4)C=C3)cc1
REMARK SMILES IDX 21 1 20 2 19 3 17 4 18 5 16 7 11 8 12 9 13 10 15 11 14 12
REMARK SMILES IDX 10 13 9 14 1 15 2 16 3 18 4 19 5 20 8 21 6 22 7 23 22 25
REMARK SMILES IDX 23 26 24 27 25 28 26 30 27 31 28 32 89 33 29 34 88 35 30 36
REMARK SMILES IDX 31 37 32 38 82 39 33 40 87 41 81 42 83 43 34 44 86 45 80 46
REMARK SMILES IDX 79 47 35 49 67 50 47 51 66 52 48 53 51 54 65 55 84 56 49 57
REMARK SMILES IDX 50 58 64 60 85 61 52 62 36 63 37 64 45 65 38 66 40 67 46 68
REMARK SMILES IDX 39 69 41 70 42 71 43 72 44 73 68 74 69 75 77 76 70 77 72 78
REMARK SMILES IDX 78 79 71 80 73 81 74 82 75 83 76 84 53 85 54 86 62 87 55 88
REMARK SMILES IDX 57 89 63 90 56 91 58 92 59 93 60 94 61 95
REMARK H PARENT 19 6 9 17 8 24 24 29 83 48 51 59
REMARK Flexibility Score: inf
ROOT
ATOM      1  C   UNL A   1      31.834  27.466  26.516  1.00  0.00     0.023 C 
ENDROOT
BRANCH   1   2
ATOM      2  C   UNL A   1      30.945  26.370  25.929  1.00  0.00     0.116 C 
BRANCH   2   3
ATOM      3  N   UNL A   1      30.953  25.159  26.738  1.00  0.00    -0.356 N 
ATOM      4  C   UNL A   1      31.828  24.128  26.887  1.00  0.00     0.223 C 
ATOM      5  O   UNL A   1      31.473  23.206  27.630  1.00  0.00    -0.275 OA
ATOM      6  H   UNL A   1      30.149  25.066  27.299  1.00  0.00     0.163 HD
BRANCH   4   7
ATOM      7  C   UNL A   1      33.196  24.033  26.190  1.00  0.00     0.083 C 
ATOM      8  C   UNL A   1      34.254  23.128  26.904  1.00  0.00     0.021 C 
ATOM      9  C   UNL A   1      35.554  23.056  26.087  1.00  0.00     0.006 C 
ATOM     10  C   UNL A   1      35.318  22.743  24.616  1.00  0.00     0.000 C 
ATOM     11  C   UNL A   1      33.095  23.907  24.661  1.00  0.00     0.014 C 
ATOM     12  C   UNL A   1      34.454  23.823  23.979  1.00  0.00     0.001 C 
BRANCH   8  13
ATOM     13  C   UNL A   1      33.698  21.756  27.279  1.00  0.00     0.120 C 
BRANCH  13  14
ATOM     14  N   UNL A   1      33.954  20.643  26.387  1.00  0.00    -0.355 N 
ATOM     15  O   UNL A   1      31.835  20.696  25.479  1.00  0.00    -0.275 OA
ATOM     16  C   UNL A   1      32.982  20.257  25.477  1.00  0.00     0.226 C 
ATOM     17  H   UNL A   1      34.813  20.163  26.427  1.00  0.00     0.163 HD
BRANCH  16  18
ATOM     18  C   UNL A   1      33.466  19.360  24.355  1.00  0.00     0.155 C 
BRANCH  18  19
ATOM     19  C   UNL A   1      33.470  17.934  24.801  1.00  0.00     0.044 A 
ATOM     20  C   UNL A   1      34.383  16.920  24.600  1.00  0.00     0.045 A 
ATOM     21  N   UNL A   1      32.487  17.389  25.594  1.00  0.00    -0.282 N 
ATOM     22  C   UNL A   1      33.823  15.798  25.235  1.00  0.00     0.135 A 
ATOM     23  N   UNL A   1      32.647  16.071  25.802  1.00  0.00    -0.184 NA
ATOM     24  H   UNL A   1      31.742  17.911  25.970  1.00  0.00     0.190 HD
ENDBRANCH  18  19
ENDBRANCH  16  18
ENDBRANCH  13  14
ENDBRANCH   8  13
ENDBRANCH   4   7
ENDBRANCH   2   3
ENDBRANCH   1   2
BRANCH   1  25
ATOM     25  C   UNL A   1      31.757  28.821  25.840  1.00  0.00     0.023 C 
BRANCH  25  26
ATOM     26  C   UNL A   1      32.987  29.687  26.020  1.00  0.00     0.116 C 
BRANCH  26  27
ATOM     27  N   UNL A   1      32.692  31.048  26.454  1.00  0.00    -0.352 N 
ATOM     28  C   UNL A   1      33.422  31.850  27.305  1.00  0.00     0.251 C 
ATOM     29  H   UNL A   1      31.866  31.445  26.094  1.00  0.00     0.163 HD
ATOM     30  O   UNL A   1      33.004  32.946  27.647  1.00  0.00    -0.269 OA
BRANCH  28  31
ATOM     31  C   UNL A   1      34.707  31.336  27.819  1.00  0.00     0.039 A 
ATOM     32  C   UNL A   1      35.778  32.216  27.987  1.00  0.00     0.014 A 
ATOM     33  C   UNL A   1      34.806  30.006  28.230  1.00  0.00     0.014 A 
ATOM     34  C   UNL A   1      36.928  31.774  28.640  1.00  0.00     0.010 A 
ATOM     35  C   UNL A   1      35.899  29.605  28.981  1.00  0.00     0.010 A 
ATOM     36  C   UNL A   1      36.981  30.476  29.178  1.00  0.00    -0.014 A 
BRANCH  36  37
ATOM     37  C   UNL A   1      38.164  29.982  29.922  1.00  0.00     0.031 A 
ATOM     38  C   UNL A   1      38.404  30.463  31.329  1.00  0.00     0.074 A 
ATOM     39  C   UNL A   1      39.073  29.203  29.305  1.00  0.00     0.049 A 
ATOM     40  N   UNL A   1      39.424  30.242  32.115  1.00  0.00    -0.248 NA
ATOM     41  C   UNL A   1      37.384  31.355  31.911  1.00  0.00     0.031 C 
ATOM     42  C   UNL A   1      39.006  28.758  27.910  1.00  0.00     0.029 A 
ATOM     43  N   UNL A   1      40.251  28.670  29.765  1.00  0.00    -0.354 N 
ATOM     44  C   UNL A   1      39.196  31.009  33.251  1.00  0.00     0.074 A 
ATOM     45  C   UNL A   1      37.968  31.740  33.034  1.00  0.00     0.031 C 
ATOM     46  C   UNL A   1      40.086  28.009  27.635  1.00  0.00     0.029 A 
ATOM     47  C   UNL A   1      40.933  27.937  28.821  1.00  0.00     0.049 A 
ATOM     48  H   UNL A   1      40.576  28.799  30.685  1.00  0.00     0.167 HD
ATOM     49  C   UNL A   1      39.917  31.066  34.394  1.00  0.00     0.034 A 
ATOM     50  C   UNL A   1      42.104  27.277  28.910  1.00  0.00     0.034 A 
ATOM     51  C   UNL A   1      41.084  30.267  34.638  1.00  0.00     0.049 A 
ATOM     52  C   UNL A   1      42.831  27.267  30.228  1.00  0.00     0.074 A 
ATOM     53  C   UNL A   1      41.826  30.156  35.800  1.00  0.00     0.029 A 
ATOM     54  N   UNL A   1      41.672  29.427  33.704  1.00  0.00    -0.354 N 
ATOM     55  N   UNL A   1      42.512  27.864  31.352  1.00  0.00    -0.248 NA
ATOM     56  C   UNL A   1      44.057  26.459  30.306  1.00  0.00     0.031 C 
ATOM     57  C   UNL A   1      42.864  29.249  35.566  1.00  0.00     0.029 A 
ATOM     58  C   UNL A   1      42.763  28.789  34.262  1.00  0.00     0.049 A 
ATOM     59  H   UNL A   1      41.358  29.306  32.779  1.00  0.00     0.167 HD
ATOM     60  C   UNL A   1      43.472  27.477  32.278  1.00  0.00     0.074 A 
ATOM     61  C   UNL A   1      44.375  26.577  31.589  1.00  0.00     0.031 C 
ATOM     62  C   UNL A   1      43.608  27.846  33.576  1.00  0.00     0.034 A 
BRANCH  49  63
ATOM     63  C   UNL A   1      39.410  31.965  35.491  1.00  0.00     0.023 A 
ATOM     64  C   UNL A   1      38.454  31.472  36.403  1.00  0.00     0.012 A 
ATOM     65  C   UNL A   1      39.888  33.281  35.637  1.00  0.00     0.148 A 
ATOM     66  C   UNL A   1      37.948  32.285  37.415  1.00  0.00     0.002 A 
ATOM     67  C   UNL A   1      39.413  34.071  36.678  1.00  0.00     0.091 A 
ATOM     68  F   UNL A   1      40.777  33.744  34.747  1.00  0.00    -0.205 F 
ATOM     69  C   UNL A   1      38.434  33.581  37.558  1.00  0.00     0.022 A 
BRANCH  67  70
ATOM     70  S   UNL A   1      40.036  35.727  36.992  1.00  0.00     0.127 S 
ATOM     71  O   UNL A   1      41.471  35.485  37.120  1.00  0.00    -0.237 OA
ATOM     72  O   UNL A   1      39.644  36.442  35.777  1.00  0.00    -0.237 OA
ATOM     73  O   UNL A   1      39.363  36.182  38.203  1.00  0.00    -0.744 OA
ENDBRANCH  67  70
ENDBRANCH  49  63
BRANCH  50  74
ATOM     74  C   UNL A   1      42.602  26.485  27.750  1.00  0.00     0.023 A 
ATOM     75  C   UNL A   1      43.277  27.149  26.707  1.00  0.00     0.012 A 
ATOM     76  C   UNL A   1      42.452  25.087  27.689  1.00  0.00     0.148 A 
ATOM     77  C   UNL A   1      43.770  26.441  25.611  1.00  0.00     0.002 A 
ATOM     78  C   UNL A   1      42.988  24.380  26.617  1.00  0.00     0.091 A 
ATOM     79  F   UNL A   1      41.799  24.473  28.685  1.00  0.00    -0.205 F 
ATOM     80  C   UNL A   1      43.634  25.057  25.570  1.00  0.00     0.022 A 
BRANCH  78  81
ATOM     81  S   UNL A   1      42.971  22.584  26.542  1.00  0.00     0.127 S 
ATOM     82  O   UNL A   1      42.146  22.342  25.362  1.00  0.00    -0.237 OA
ATOM     83  O   UNL A   1      44.393  22.274  26.373  1.00  0.00    -0.237 OA
ATOM     84  O   UNL A   1      42.410  22.146  27.812  1.00  0.00    -0.744 OA
ENDBRANCH  78  81
ENDBRANCH  50  74
BRANCH  62  85
ATOM     85  C   UNL A   1      44.753  27.256  34.353  1.00  0.00     0.023 A 
ATOM     86  C   UNL A   1      45.958  27.975  34.472  1.00  0.00     0.012 A 
ATOM     87  C   UNL A   1      44.602  26.034  35.038  1.00  0.00     0.148 A 
ATOM     88  C   UNL A   1      47.008  27.473  35.240  1.00  0.00     0.002 A 
ATOM     89  C   UNL A   1      45.637  25.563  35.838  1.00  0.00     0.091 A 
ATOM     90  F   UNL A   1      43.456  25.355  34.894  1.00  0.00    -0.205 F 
ATOM     91  C   UNL A   1      46.842  26.277  35.933  1.00  0.00     0.022 A 
BRANCH  89  92
ATOM     92  S   UNL A   1      45.469  24.081  36.839  1.00  0.00     0.127 S 
ATOM     93  O   UNL A   1      44.640  24.559  37.944  1.00  0.00    -0.237 OA
ATOM     94  O   UNL A   1      44.794  23.158  35.924  1.00  0.00    -0.237 OA
ATOM     95  O   UNL A   1      46.826  23.686  37.194  1.00  0.00    -0.744 OA
ENDBRANCH  89  92
ENDBRANCH  62  85
ENDBRANCH  36  37
ENDBRANCH  28  31
ENDBRANCH  26  27
ENDBRANCH  25  26
ENDBRANCH   1  25
TORSDOF 18
ENDMDL
