MODEL 1
REMARK VINA RESULT:     -12.6      0.000      0.000
REMARK SMILES O=C(NCCCCNC(=O)[C@@]12CN(CC3CC3)C(=O)[C@@H]1CN(c1nc3ccccc3o1)C2)c1ccc(-c2c3nc(c(-c4cccc(S(=O)(=O)[O-])c4F)c4ccc([nH]4)c(-c4cccc(S(=O)(=O)[O-])c4F)c4nc(c(-c5cccc(S(=O)(=O)[O-])c5F)c5ccc2[nH]5)C=C4)C=C3)cc1
REMARK SMILES IDX 5 1 4 2 3 3 1 4 2 5 33 7 34 8 95 9 35 10 94 11 36 12 37 13
REMARK SMILES IDX 38 14 88 15 39 16 93 17 87 18 89 19 40 20 92 21 86 22 85 23
REMARK SMILES IDX 41 25 73 26 53 27 72 28 54 29 57 30 71 31 90 32 55 33 56 34
REMARK SMILES IDX 70 36 91 37 58 38 42 39 43 40 51 41 44 42 46 43 52 44 45 45
REMARK SMILES IDX 47 46 48 47 49 48 50 49 74 50 75 51 83 52 76 53 78 54 84 55
REMARK SMILES IDX 77 56 79 57 80 58 81 59 82 60 59 61 60 62 68 63 61 64 63 65
REMARK SMILES IDX 69 66 62 67 64 68 65 69 66 70 67 71 6 72 7 73 8 74 9 75
REMARK SMILES IDX 10 77 11 78 12 79 20 80 32 81 13 82 18 83 21 84 22 85 19 86
REMARK SMILES IDX 14 87 15 88 16 89 17 90 23 91 24 92 31 93 25 94 30 95 26 96
REMARK SMILES IDX 29 97 27 98 28 99
REMARK H PARENT 3 6 89 24 57 35 8 76
REMARK Flexibility Score: inf
ROOT
ATOM      1  C   UNL A   1      34.378  31.841  27.287  1.00  0.00     0.023 C 
ENDROOT
BRANCH   1   2
ATOM      2  C   UNL A   1      33.029  32.290  27.820  1.00  0.00     0.116 C 
BRANCH   2   3
ATOM      3  N   UNL A   1      32.862  33.739  27.795  1.00  0.00    -0.352 N 
ATOM      4  O   UNL A   1      33.242  35.845  28.538  1.00  0.00    -0.269 OA
ATOM      5  C   UNL A   1      33.532  34.667  28.569  1.00  0.00     0.251 C 
ATOM      6  H   UNL A   1      32.200  34.093  27.156  1.00  0.00     0.163 HD
BRANCH   5   7
ATOM      7  C   UNL A   1      34.580  34.147  29.477  1.00  0.00     0.039 A 
ATOM      8  C   UNL A   1      35.921  34.374  29.167  1.00  0.00     0.014 A 
ATOM      9  C   UNL A   1      34.223  33.307  30.534  1.00  0.00     0.014 A 
ATOM     10  C   UNL A   1      36.899  33.619  29.797  1.00  0.00     0.010 A 
ATOM     11  C   UNL A   1      35.222  32.626  31.237  1.00  0.00     0.010 A 
ATOM     12  C   UNL A   1      36.564  32.741  30.844  1.00  0.00    -0.014 A 
BRANCH  12  13
ATOM     13  C   UNL A   1      37.663  32.017  31.538  1.00  0.00     0.031 A 
ATOM     14  C   UNL A   1      38.464  30.940  30.860  1.00  0.00     0.074 A 
ATOM     15  C   UNL A   1      37.967  32.398  32.794  1.00  0.00     0.049 A 
ATOM     16  N   UNL A   1      39.498  30.281  31.318  1.00  0.00    -0.248 NA
ATOM     17  C   UNL A   1      38.056  30.538  29.504  1.00  0.00     0.031 C 
ATOM     18  C   UNL A   1      37.223  33.395  33.569  1.00  0.00     0.029 A 
ATOM     19  N   UNL A   1      38.984  32.021  33.632  1.00  0.00    -0.354 N 
ATOM     20  C   UNL A   1      39.840  29.363  30.332  1.00  0.00     0.074 A 
ATOM     21  C   UNL A   1      38.902  29.548  29.245  1.00  0.00     0.031 C 
ATOM     22  C   UNL A   1      37.838  33.593  34.741  1.00  0.00     0.029 A 
ATOM     23  C   UNL A   1      38.984  32.696  34.830  1.00  0.00     0.049 A 
ATOM     24  H   UNL A   1      39.649  31.334  33.399  1.00  0.00     0.167 HD
ATOM     25  C   UNL A   1      40.852  28.460  30.329  1.00  0.00     0.034 A 
ATOM     26  C   UNL A   1      39.808  32.604  35.890  1.00  0.00     0.034 A 
ATOM     27  C   UNL A   1      41.807  28.311  31.398  1.00  0.00     0.049 A 
ATOM     28  C   UNL A   1      40.961  31.648  35.825  1.00  0.00     0.074 A 
ATOM     29  C   UNL A   1      42.885  27.445  31.475  1.00  0.00     0.029 A 
ATOM     30  N   UNL A   1      41.806  29.050  32.571  1.00  0.00    -0.354 N 
ATOM     31  N   UNL A   1      41.319  30.860  34.841  1.00  0.00    -0.248 NA
ATOM     32  C   UNL A   1      41.834  31.583  37.003  1.00  0.00     0.031 C 
ATOM     33  C   UNL A   1      43.535  27.661  32.695  1.00  0.00     0.029 A 
ATOM     34  C   UNL A   1      42.867  28.665  33.375  1.00  0.00     0.049 A 
ATOM     35  H   UNL A   1      41.149  29.745  32.800  1.00  0.00     0.167 HD
ATOM     36  C   UNL A   1      42.458  30.200  35.281  1.00  0.00     0.074 A 
ATOM     37  C   UNL A   1      42.759  30.722  36.600  1.00  0.00     0.031 C 
ATOM     38  C   UNL A   1      43.169  29.223  34.668  1.00  0.00     0.034 A 
BRANCH  25  39
ATOM     39  C   UNL A   1      41.022  27.590  29.110  1.00  0.00     0.023 A 
ATOM     40  C   UNL A   1      40.264  26.408  28.995  1.00  0.00     0.012 A 
ATOM     41  C   UNL A   1      41.851  27.984  28.039  1.00  0.00     0.148 A 
ATOM     42  C   UNL A   1      40.338  25.622  27.845  1.00  0.00     0.002 A 
ATOM     43  C   UNL A   1      41.895  27.213  26.881  1.00  0.00     0.091 A 
ATOM     44  F   UNL A   1      42.581  29.101  28.173  1.00  0.00    -0.205 F 
ATOM     45  C   UNL A   1      41.144  26.031  26.786  1.00  0.00     0.022 A 
BRANCH  43  46
ATOM     46  S   UNL A   1      42.847  27.689  25.433  1.00  0.00     0.127 S 
ATOM     47  O   UNL A   1      42.806  26.463  24.638  1.00  0.00    -0.237 OA
ATOM     48  O   UNL A   1      42.055  28.794  24.892  1.00  0.00    -0.237 OA
ATOM     49  O   UNL A   1      44.163  28.072  25.927  1.00  0.00    -0.744 OA
ENDBRANCH  43  46
ENDBRANCH  25  39
BRANCH  26  50
ATOM     50  C   UNL A   1      39.580  33.481  37.072  1.00  0.00     0.023 A 
ATOM     51  C   UNL A   1      39.983  34.828  37.028  1.00  0.00     0.012 A 
ATOM     52  C   UNL A   1      38.888  33.008  38.203  1.00  0.00     0.148 A 
ATOM     53  C   UNL A   1      39.712  35.684  38.098  1.00  0.00     0.002 A 
ATOM     54  C   UNL A   1      38.559  33.883  39.231  1.00  0.00     0.091 A 
ATOM     55  F   UNL A   1      38.531  31.716  38.242  1.00  0.00    -0.205 F 
ATOM     56  C   UNL A   1      38.984  35.217  39.190  1.00  0.00     0.022 A 
BRANCH  54  57
ATOM     57  S   UNL A   1      37.464  33.374  40.562  1.00  0.00     0.127 S 
ATOM     58  O   UNL A   1      36.237  33.056  39.839  1.00  0.00    -0.237 OA
ATOM     59  O   UNL A   1      38.166  32.219  41.124  1.00  0.00    -0.237 OA
ATOM     60  O   UNL A   1      37.413  34.525  41.456  1.00  0.00    -0.744 OA
ENDBRANCH  54  57
ENDBRANCH  26  50
BRANCH  38  61
ATOM     61  C   UNL A   1      44.331  28.649  35.432  1.00  0.00     0.023 A 
ATOM     62  C   UNL A   1      45.627  29.143  35.185  1.00  0.00     0.012 A 
ATOM     63  C   UNL A   1      44.143  27.651  36.406  1.00  0.00     0.148 A 
ATOM     64  C   UNL A   1      46.725  28.628  35.870  1.00  0.00     0.002 A 
ATOM     65  C   UNL A   1      45.239  27.168  37.113  1.00  0.00     0.091 A 
ATOM     66  F   UNL A   1      42.906  27.174  36.608  1.00  0.00    -0.205 F 
ATOM     67  C   UNL A   1      46.531  27.647  36.840  1.00  0.00     0.022 A 
BRANCH  65  68
ATOM     68  S   UNL A   1      45.057  25.958  38.427  1.00  0.00     0.127 S 
ATOM     69  O   UNL A   1      44.135  26.636  39.334  1.00  0.00    -0.237 OA
ATOM     70  O   UNL A   1      44.485  24.808  37.724  1.00  0.00    -0.237 OA
ATOM     71  O   UNL A   1      46.404  25.735  38.939  1.00  0.00    -0.744 OA
ENDBRANCH  65  68
ENDBRANCH  38  61
ENDBRANCH  12  13
ENDBRANCH   5   7
ENDBRANCH   2   3
ENDBRANCH   1   2
BRANCH   1  72
ATOM     72  C   UNL A   1      34.736  30.434  27.759  1.00  0.00     0.023 C 
BRANCH  72  73
ATOM     73  C   UNL A   1      34.115  29.331  26.887  1.00  0.00     0.116 C 
BRANCH  73  74
ATOM     74  N   UNL A   1      32.989  28.742  27.588  1.00  0.00    -0.355 N 
ATOM     75  C   UNL A   1      31.981  27.948  27.135  1.00  0.00     0.230 C 
ATOM     76  H   UNL A   1      32.947  28.952  28.549  1.00  0.00     0.163 HD
ATOM     77  O   UNL A   1      30.971  27.897  27.844  1.00  0.00    -0.274 OA
BRANCH  75  78
ATOM     78  C   UNL A   1      32.135  27.024  25.931  1.00  0.00     0.097 C 
ATOM     79  C   UNL A   1      33.327  26.113  26.197  1.00  0.00     0.139 C 
ATOM     80  C   UNL A   1      30.954  26.034  25.822  1.00  0.00     0.117 C 
ATOM     81  C   UNL A   1      32.131  27.632  24.524  1.00  0.00     0.141 C 
ATOM     82  N   UNL A   1      32.956  24.851  25.601  1.00  0.00    -0.341 N 
ATOM     83  C   UNL A   1      31.614  24.805  25.240  1.00  0.00     0.228 C 
ATOM     84  C   UNL A   1      29.942  26.700  24.897  1.00  0.00     0.136 C 
ATOM     85  N   UNL A   1      30.734  27.656  24.145  1.00  0.00    -0.324 N 
ATOM     86  O   UNL A   1      31.052  23.922  24.615  1.00  0.00    -0.274 OA
BRANCH  82  87
ATOM     87  C   UNL A   1      33.934  23.821  25.315  1.00  0.00     0.123 C 
BRANCH  87  88
ATOM     88  C   UNL A   1      34.774  24.089  24.097  1.00  0.00     0.008 C 
ATOM     89  C   UNL A   1      35.799  23.152  23.492  1.00  0.00     0.006 C 
ATOM     90  C   UNL A   1      34.458  23.308  22.840  1.00  0.00     0.006 C 
ENDBRANCH  87  88
ENDBRANCH  82  87
BRANCH  85  91
ATOM     91  C   UNL A   1      30.190  28.667  23.446  1.00  0.00     0.298 A 
ATOM     92  N   UNL A   1      29.675  28.665  22.235  1.00  0.00    -0.193 NA
ATOM     93  O   UNL A   1      30.087  29.866  24.103  1.00  0.00    -0.423 OA
ATOM     94  C   UNL A   1      29.136  29.923  22.105  1.00  0.00     0.111 A 
ATOM     95  C   UNL A   1      29.397  30.663  23.245  1.00  0.00     0.156 A 
ATOM     96  C   UNL A   1      28.395  30.517  21.075  1.00  0.00     0.032 A 
ATOM     97  C   UNL A   1      28.989  31.973  23.461  1.00  0.00     0.049 A 
ATOM     98  C   UNL A   1      27.945  31.835  21.259  1.00  0.00     0.003 A 
ATOM     99  C   UNL A   1      28.240  32.547  22.430  1.00  0.00     0.004 A 
ENDBRANCH  85  91
ENDBRANCH  75  78
ENDBRANCH  73  74
ENDBRANCH  72  73
ENDBRANCH   1  72
TORSDOF 17
ENDMDL
MODEL 2
REMARK VINA RESULT:     -12.6      2.823      9.038
REMARK SMILES O=C(NCCCCNC(=O)[C@@]12CN(CC3CC3)C(=O)[C@@H]1CN(c1nc3ccccc3o1)C2)c1ccc(-c2c3nc(c(-c4cccc(S(=O)(=O)[O-])c4F)c4ccc([nH]4)c(-c4cccc(S(=O)(=O)[O-])c4F)c4nc(c(-c5cccc(S(=O)(=O)[O-])c5F)c5ccc2[nH]5)C=C4)C=C3)cc1
REMARK SMILES IDX 5 1 4 2 3 3 1 4 2 5 33 7 34 8 95 9 35 10 94 11 36 12 37 13
REMARK SMILES IDX 38 14 88 15 39 16 93 17 87 18 89 19 40 20 92 21 86 22 85 23
REMARK SMILES IDX 41 25 73 26 53 27 72 28 54 29 57 30 71 31 90 32 55 33 56 34
REMARK SMILES IDX 70 36 91 37 58 38 42 39 43 40 51 41 44 42 46 43 52 44 45 45
REMARK SMILES IDX 47 46 48 47 49 48 50 49 74 50 75 51 83 52 76 53 78 54 84 55
REMARK SMILES IDX 77 56 79 57 80 58 81 59 82 60 59 61 60 62 68 63 61 64 63 65
REMARK SMILES IDX 69 66 62 67 64 68 65 69 66 70 67 71 6 72 7 73 8 74 9 75
REMARK SMILES IDX 10 77 11 78 12 79 20 80 32 81 13 82 18 83 21 84 22 85 19 86
REMARK SMILES IDX 14 87 15 88 16 89 17 90 23 91 24 92 31 93 25 94 30 95 26 96
REMARK SMILES IDX 29 97 27 98 28 99
REMARK H PARENT 3 6 89 24 57 35 8 76
REMARK Flexibility Score: inf
ROOT
ATOM      1  C   UNL A   1      31.605  28.336  27.076  1.00  0.00     0.023 C 
ENDROOT
BRANCH   1   2
ATOM      2  C   UNL A   1      32.805  29.229  26.809  1.00  0.00     0.116 C 
BRANCH   2   3
ATOM      3  N   UNL A   1      32.484  30.649  26.884  1.00  0.00    -0.352 N 
ATOM      4  O   UNL A   1      32.894  32.800  27.467  1.00  0.00    -0.269 OA
ATOM      5  C   UNL A   1      33.299  31.662  27.355  1.00  0.00     0.251 C 
ATOM      6  H   UNL A   1      31.591  30.915  26.565  1.00  0.00     0.163 HD
BRANCH   5   7
ATOM      7  C   UNL A   1      34.670  31.280  27.766  1.00  0.00     0.039 A 
ATOM      8  C   UNL A   1      34.923  29.962  28.144  1.00  0.00     0.014 A 
ATOM      9  C   UNL A   1      35.644  32.267  27.922  1.00  0.00     0.014 A 
ATOM     10  C   UNL A   1      36.082  29.668  28.846  1.00  0.00     0.010 A 
ATOM     11  C   UNL A   1      36.858  31.943  28.538  1.00  0.00     0.010 A 
ATOM     12  C   UNL A   1      37.068  30.652  29.046  1.00  0.00    -0.014 A 
BRANCH  12  13
ATOM     13  C   UNL A   1      38.327  30.262  29.735  1.00  0.00     0.031 A 
ATOM     14  C   UNL A   1      38.646  30.712  31.134  1.00  0.00     0.074 A 
ATOM     15  C   UNL A   1      39.164  29.430  29.084  1.00  0.00     0.049 A 
ATOM     16  N   UNL A   1      39.668  30.386  31.883  1.00  0.00    -0.248 NA
ATOM     17  C   UNL A   1      37.715  31.654  31.776  1.00  0.00     0.031 C 
ATOM     18  C   UNL A   1      38.981  28.972  27.704  1.00  0.00     0.029 A 
ATOM     19  N   UNL A   1      40.313  28.803  29.491  1.00  0.00    -0.354 N 
ATOM     20  C   UNL A   1      39.529  31.108  33.064  1.00  0.00     0.074 A 
ATOM     21  C   UNL A   1      38.320  31.893  32.933  1.00  0.00     0.031 C 
ATOM     22  C   UNL A   1      39.945  28.095  27.398  1.00  0.00     0.029 A 
ATOM     23  C   UNL A   1      40.850  27.974  28.534  1.00  0.00     0.049 A 
ATOM     24  H   UNL A   1      40.714  28.934  30.380  1.00  0.00     0.167 HD
ATOM     25  C   UNL A   1      40.329  31.103  34.159  1.00  0.00     0.034 A 
ATOM     26  C   UNL A   1      41.954  27.204  28.560  1.00  0.00     0.034 A 
ATOM     27  C   UNL A   1      41.508  30.286  34.296  1.00  0.00     0.049 A 
ATOM     28  C   UNL A   1      42.776  27.165  29.813  1.00  0.00     0.074 A 
ATOM     29  C   UNL A   1      42.368  30.190  35.378  1.00  0.00     0.029 A 
ATOM     30  N   UNL A   1      41.991  29.419  33.327  1.00  0.00    -0.354 N 
ATOM     31  N   UNL A   1      42.569  27.782  30.950  1.00  0.00    -0.248 NA
ATOM     32  C   UNL A   1      43.968  26.309  29.795  1.00  0.00     0.031 C 
ATOM     33  C   UNL A   1      43.369  29.266  35.062  1.00  0.00     0.029 A 
ATOM     34  C   UNL A   1      43.131  28.780  33.787  1.00  0.00     0.049 A 
ATOM     35  H   UNL A   1      41.584  29.279  32.443  1.00  0.00     0.167 HD
ATOM     36  C   UNL A   1      43.608  27.395  31.785  1.00  0.00     0.074 A 
ATOM     37  C   UNL A   1      44.411  26.447  31.038  1.00  0.00     0.031 C 
ATOM     38  C   UNL A   1      43.894  27.814  33.041  1.00  0.00     0.034 A 
BRANCH  25  39
ATOM     39  C   UNL A   1      39.935  31.968  35.328  1.00  0.00     0.023 A 
ATOM     40  C   UNL A   1      40.387  33.301  35.383  1.00  0.00     0.012 A 
ATOM     41  C   UNL A   1      39.045  31.500  36.317  1.00  0.00     0.148 A 
ATOM     42  C   UNL A   1      39.975  34.152  36.409  1.00  0.00     0.002 A 
ATOM     43  C   UNL A   1      38.612  32.365  37.319  1.00  0.00     0.091 A 
ATOM     44  F   UNL A   1      38.640  30.224  36.261  1.00  0.00    -0.205 F 
ATOM     45  C   UNL A   1      39.081  33.687  37.369  1.00  0.00     0.022 A 
BRANCH  43  46
ATOM     46  S   UNL A   1      37.406  31.883  38.562  1.00  0.00     0.127 S 
ATOM     47  O   UNL A   1      36.359  32.884  38.359  1.00  0.00    -0.237 OA
ATOM     48  O   UNL A   1      37.047  30.530  38.137  1.00  0.00    -0.237 OA
ATOM     49  O   UNL A   1      38.099  31.953  39.841  1.00  0.00    -0.744 OA
ENDBRANCH  43  46
ENDBRANCH  25  39
BRANCH  26  50
ATOM     50  C   UNL A   1      42.299  26.382  27.367  1.00  0.00     0.023 A 
ATOM     51  C   UNL A   1      43.067  26.944  26.332  1.00  0.00     0.012 A 
ATOM     52  C   UNL A   1      41.943  25.021  27.296  1.00  0.00     0.148 A 
ATOM     53  C   UNL A   1      43.463  26.168  25.240  1.00  0.00     0.002 A 
ATOM     54  C   UNL A   1      42.401  24.239  26.244  1.00  0.00     0.091 A 
ATOM     55  F   UNL A   1      41.190  24.505  28.278  1.00  0.00    -0.205 F 
ATOM     56  C   UNL A   1      43.146  24.812  25.205  1.00  0.00     0.022 A 
BRANCH  54  57
ATOM     57  S   UNL A   1      42.179  22.455  26.254  1.00  0.00     0.127 S 
ATOM     58  O   UNL A   1      40.725  22.331  26.256  1.00  0.00    -0.237 OA
ATOM     59  O   UNL A   1      42.832  22.049  25.009  1.00  0.00    -0.237 OA
ATOM     60  O   UNL A   1      42.871  22.006  27.457  1.00  0.00    -0.744 OA
ENDBRANCH  54  57
ENDBRANCH  26  50
BRANCH  38  61
ATOM     61  C   UNL A   1      45.140  27.256  33.674  1.00  0.00     0.023 A 
ATOM     62  C   UNL A   1      46.358  27.946  33.517  1.00  0.00     0.012 A 
ATOM     63  C   UNL A   1      45.104  26.076  34.440  1.00  0.00     0.148 A 
ATOM     64  C   UNL A   1      47.531  27.452  34.084  1.00  0.00     0.002 A 
ATOM     65  C   UNL A   1      46.271  25.609  35.035  1.00  0.00     0.091 A 
ATOM     66  F   UNL A   1      43.941  25.419  34.556  1.00  0.00    -0.205 F 
ATOM     67  C   UNL A   1      47.487  26.289  34.850  1.00  0.00     0.022 A 
BRANCH  65  68
ATOM     68  S   UNL A   1      46.277  24.160  36.095  1.00  0.00     0.127 S 
ATOM     69  O   UNL A   1      45.315  24.538  37.127  1.00  0.00    -0.237 OA
ATOM     70  O   UNL A   1      45.819  23.103  35.192  1.00  0.00    -0.237 OA
ATOM     71  O   UNL A   1      47.658  24.009  36.539  1.00  0.00    -0.744 OA
ENDBRANCH  65  68
ENDBRANCH  38  61
ENDBRANCH  12  13
ENDBRANCH   5   7
ENDBRANCH   2   3
ENDBRANCH   1   2
BRANCH   1  72
ATOM     72  C   UNL A   1      31.897  26.876  26.740  1.00  0.00     0.023 C 
BRANCH  72  73
ATOM     73  C   UNL A   1      30.714  26.168  26.059  1.00  0.00     0.116 C 
BRANCH  73  74
ATOM     74  N   UNL A   1      30.679  24.780  26.481  1.00  0.00    -0.355 N 
ATOM     75  C   UNL A   1      30.934  23.637  25.788  1.00  0.00     0.230 C 
ATOM     76  H   UNL A   1      30.429  24.643  27.423  1.00  0.00     0.163 HD
ATOM     77  O   UNL A   1      30.476  22.597  26.272  1.00  0.00    -0.274 OA
BRANCH  75  78
ATOM     78  C   UNL A   1      31.878  23.590  24.591  1.00  0.00     0.097 C 
ATOM     79  C   UNL A   1      31.522  24.756  23.677  1.00  0.00     0.139 C 
ATOM     80  C   UNL A   1      33.334  23.900  25.004  1.00  0.00     0.117 C 
ATOM     81  C   UNL A   1      32.067  22.264  23.847  1.00  0.00     0.141 C 
ATOM     82  N   UNL A   1      32.789  25.186  23.133  1.00  0.00    -0.341 N 
ATOM     83  C   UNL A   1      33.873  24.610  23.785  1.00  0.00     0.228 C 
ATOM     84  C   UNL A   1      33.981  22.548  25.281  1.00  0.00     0.136 C 
ATOM     85  N   UNL A   1      33.154  21.610  24.545  1.00  0.00    -0.324 N 
ATOM     86  O   UNL A   1      35.048  24.695  23.470  1.00  0.00    -0.274 OA
BRANCH  82  87
ATOM     87  C   UNL A   1      32.872  26.029  21.957  1.00  0.00     0.123 C 
BRANCH  87  88
ATOM     88  C   UNL A   1      33.565  27.343  22.188  1.00  0.00     0.008 C 
ATOM     89  C   UNL A   1      32.897  28.663  22.513  1.00  0.00     0.006 C 
ATOM     90  C   UNL A   1      33.581  27.891  23.599  1.00  0.00     0.006 C 
ENDBRANCH  87  88
ENDBRANCH  82  87
BRANCH  85  91
ATOM     91  C   UNL A   1      33.180  20.283  24.765  1.00  0.00     0.298 A 
ATOM     92  N   UNL A   1      32.203  19.474  25.116  1.00  0.00    -0.193 NA
ATOM     93  O   UNL A   1      34.376  19.657  24.526  1.00  0.00    -0.423 OA
ATOM     94  C   UNL A   1      32.770  18.224  25.041  1.00  0.00     0.111 A 
ATOM     95  C   UNL A   1      34.104  18.336  24.690  1.00  0.00     0.156 A 
ATOM     96  C   UNL A   1      32.231  16.945  25.229  1.00  0.00     0.032 A 
ATOM     97  C   UNL A   1      34.978  17.272  24.512  1.00  0.00     0.049 A 
ATOM     98  C   UNL A   1      33.075  15.837  25.041  1.00  0.00     0.003 A 
ATOM     99  C   UNL A   1      34.422  16.001  24.690  1.00  0.00     0.004 A 
ENDBRANCH  85  91
ENDBRANCH  75  78
ENDBRANCH  73  74
ENDBRANCH  72  73
ENDBRANCH   1  72
TORSDOF 17
ENDMDL
MODEL 3
REMARK VINA RESULT:     -12.6      5.693      8.422
REMARK SMILES O=C(NCCCCNC(=O)[C@@]12CN(CC3CC3)C(=O)[C@@H]1CN(c1nc3ccccc3o1)C2)c1ccc(-c2c3nc(c(-c4cccc(S(=O)(=O)[O-])c4F)c4ccc([nH]4)c(-c4cccc(S(=O)(=O)[O-])c4F)c4nc(c(-c5cccc(S(=O)(=O)[O-])c5F)c5ccc2[nH]5)C=C4)C=C3)cc1
REMARK SMILES IDX 5 1 4 2 3 3 1 4 2 5 33 7 34 8 95 9 35 10 94 11 36 12 37 13
REMARK SMILES IDX 38 14 88 15 39 16 93 17 87 18 89 19 40 20 92 21 86 22 85 23
REMARK SMILES IDX 41 25 73 26 53 27 72 28 54 29 57 30 71 31 90 32 55 33 56 34
REMARK SMILES IDX 70 36 91 37 58 38 42 39 43 40 51 41 44 42 46 43 52 44 45 45
REMARK SMILES IDX 47 46 48 47 49 48 50 49 74 50 75 51 83 52 76 53 78 54 84 55
REMARK SMILES IDX 77 56 79 57 80 58 81 59 82 60 59 61 60 62 68 63 61 64 63 65
REMARK SMILES IDX 69 66 62 67 64 68 65 69 66 70 67 71 6 72 7 73 8 74 9 75
REMARK SMILES IDX 10 77 11 78 12 79 20 80 32 81 13 82 18 83 21 84 22 85 19 86
REMARK SMILES IDX 14 87 15 88 16 89 17 90 23 91 24 92 31 93 25 94 30 95 26 96
REMARK SMILES IDX 29 97 27 98 28 99
REMARK H PARENT 3 6 89 24 57 35 8 76
REMARK Flexibility Score: inf
ROOT
ATOM      1  C   UNL A   1      36.054  21.779  24.329  1.00  0.00     0.023 C 
ENDROOT
BRANCH   1   2
ATOM      2  C   UNL A   1      36.897  21.678  25.588  1.00  0.00     0.116 C 
BRANCH   2   3
ATOM      3  N   UNL A   1      37.854  20.578  25.546  1.00  0.00    -0.352 N 
ATOM      4  O   UNL A   1      39.909  19.657  25.790  1.00  0.00    -0.269 OA
ATOM      5  C   UNL A   1      39.171  20.604  25.965  1.00  0.00     0.251 C 
ATOM      6  H   UNL A   1      37.525  19.725  25.179  1.00  0.00     0.163 HD
BRANCH   5   7
ATOM      7  C   UNL A   1      39.649  21.861  26.586  1.00  0.00     0.039 A 
ATOM      8  C   UNL A   1      39.132  23.077  26.143  1.00  0.00     0.014 A 
ATOM      9  C   UNL A   1      40.717  21.823  27.485  1.00  0.00     0.014 A 
ATOM     10  C   UNL A   1      39.799  24.252  26.456  1.00  0.00     0.010 A 
ATOM     11  C   UNL A   1      41.322  23.020  27.882  1.00  0.00     0.010 A 
ATOM     12  C   UNL A   1      40.898  24.240  27.335  1.00  0.00    -0.014 A 
BRANCH  12  13
ATOM     13  C   UNL A   1      41.524  25.539  27.700  1.00  0.00     0.031 A 
ATOM     14  C   UNL A   1      42.900  25.923  27.228  1.00  0.00     0.074 A 
ATOM     15  C   UNL A   1      40.793  26.404  28.429  1.00  0.00     0.049 A 
ATOM     16  N   UNL A   1      43.538  27.052  27.405  1.00  0.00    -0.248 NA
ATOM     17  C   UNL A   1      43.666  24.920  26.471  1.00  0.00     0.031 C 
ATOM     18  C   UNL A   1      39.468  26.115  28.986  1.00  0.00     0.029 A 
ATOM     19  N   UNL A   1      41.036  27.698  28.809  1.00  0.00    -0.354 N 
ATOM     20  C   UNL A   1      44.790  26.886  26.822  1.00  0.00     0.074 A 
ATOM     21  C   UNL A   1      44.824  25.543  26.284  1.00  0.00     0.031 C 
ATOM     22  C   UNL A   1      38.992  27.214  29.583  1.00  0.00     0.029 A 
ATOM     23  C   UNL A   1      39.998  28.266  29.509  1.00  0.00     0.049 A 
ATOM     24  H   UNL A   1      41.873  28.173  28.602  1.00  0.00     0.167 HD
ATOM     25  C   UNL A   1      45.808  27.776  26.734  1.00  0.00     0.034 A 
ATOM     26  C   UNL A   1      39.866  29.496  30.039  1.00  0.00     0.034 A 
ATOM     27  C   UNL A   1      45.749  29.126  27.237  1.00  0.00     0.049 A 
ATOM     28  C   UNL A   1      40.982  30.481  29.860  1.00  0.00     0.074 A 
ATOM     29  C   UNL A   1      46.719  30.112  27.170  1.00  0.00     0.029 A 
ATOM     30  N   UNL A   1      44.661  29.682  27.892  1.00  0.00    -0.354 N 
ATOM     31  N   UNL A   1      42.115  30.330  29.221  1.00  0.00    -0.248 NA
ATOM     32  C   UNL A   1      40.792  31.810  30.454  1.00  0.00     0.031 C 
ATOM     33  C   UNL A   1      46.216  31.264  27.784  1.00  0.00     0.029 A 
ATOM     34  C   UNL A   1      44.931  30.999  28.228  1.00  0.00     0.049 A 
ATOM     35  H   UNL A   1      43.820  29.211  28.089  1.00  0.00     0.167 HD
ATOM     36  C   UNL A   1      42.780  31.543  29.338  1.00  0.00     0.074 A 
ATOM     37  C   UNL A   1      41.896  32.434  30.064  1.00  0.00     0.031 C 
ATOM     38  C   UNL A   1      44.024  31.878  28.919  1.00  0.00     0.034 A 
BRANCH  25  39
ATOM     39  C   UNL A   1      47.064  27.348  26.020  1.00  0.00     0.023 A 
ATOM     40  C   UNL A   1      47.990  26.522  26.689  1.00  0.00     0.012 A 
ATOM     41  C   UNL A   1      47.285  27.676  24.667  1.00  0.00     0.148 A 
ATOM     42  C   UNL A   1      49.123  26.043  26.031  1.00  0.00     0.002 A 
ATOM     43  C   UNL A   1      48.400  27.166  24.007  1.00  0.00     0.091 A 
ATOM     44  F   UNL A   1      46.405  28.478  24.051  1.00  0.00    -0.205 F 
ATOM     45  C   UNL A   1      49.321  26.355  24.689  1.00  0.00     0.022 A 
BRANCH  43  46
ATOM     46  S   UNL A   1      48.709  27.453  22.259  1.00  0.00     0.127 S 
ATOM     47  O   UNL A   1      47.546  28.256  21.883  1.00  0.00    -0.237 OA
ATOM     48  O   UNL A   1      49.975  28.186  22.285  1.00  0.00    -0.237 OA
ATOM     49  O   UNL A   1      48.784  26.134  21.645  1.00  0.00    -0.744 OA
ENDBRANCH  43  46
ENDBRANCH  25  39
BRANCH  26  50
ATOM     50  C   UNL A   1      38.606  29.856  30.746  1.00  0.00     0.023 A 
ATOM     51  C   UNL A   1      38.442  29.509  32.100  1.00  0.00     0.012 A 
ATOM     52  C   UNL A   1      37.607  30.614  30.107  1.00  0.00     0.148 A 
ATOM     53  C   UNL A   1      37.299  29.902  32.799  1.00  0.00     0.002 A 
ATOM     54  C   UNL A   1      36.507  31.062  30.828  1.00  0.00     0.091 A 
ATOM     55  F   UNL A   1      37.764  30.916  28.810  1.00  0.00    -0.205 F 
ATOM     56  C   UNL A   1      36.341  30.693  32.169  1.00  0.00     0.022 A 
BRANCH  54  57
ATOM     57  S   UNL A   1      35.350  32.236  30.113  1.00  0.00     0.127 S 
ATOM     58  O   UNL A   1      34.829  31.492  28.971  1.00  0.00    -0.237 OA
ATOM     59  O   UNL A   1      34.395  32.442  31.203  1.00  0.00    -0.237 OA
ATOM     60  O   UNL A   1      36.159  33.411  29.809  1.00  0.00    -0.744 OA
ENDBRANCH  54  57
ENDBRANCH  26  50
BRANCH  38  61
ATOM     61  C   UNL A   1      44.501  33.265  29.253  1.00  0.00     0.023 A 
ATOM     62  C   UNL A   1      45.065  33.511  30.520  1.00  0.00     0.012 A 
ATOM     63  C   UNL A   1      44.420  34.311  28.315  1.00  0.00     0.148 A 
ATOM     64  C   UNL A   1      45.509  34.786  30.864  1.00  0.00     0.002 A 
ATOM     65  C   UNL A   1      44.900  35.572  28.651  1.00  0.00     0.091 A 
ATOM     66  F   UNL A   1      43.856  34.065  27.124  1.00  0.00    -0.205 F 
ATOM     67  C   UNL A   1      45.435  35.814  29.928  1.00  0.00     0.022 A 
BRANCH  65  68
ATOM     68  S   UNL A   1      44.905  36.927  27.472  1.00  0.00     0.127 S 
ATOM     69  O   UNL A   1      45.786  36.412  26.428  1.00  0.00    -0.237 OA
ATOM     70  O   UNL A   1      43.495  37.021  27.090  1.00  0.00    -0.237 OA
ATOM     71  O   UNL A   1      45.402  38.082  28.210  1.00  0.00    -0.744 OA
ENDBRANCH  65  68
ENDBRANCH  38  61
ENDBRANCH  12  13
ENDBRANCH   5   7
ENDBRANCH   2   3
ENDBRANCH   1   2
BRANCH   1  72
ATOM     72  C   UNL A   1      36.238  23.121  23.627  1.00  0.00     0.023 C 
BRANCH  72  73
ATOM     73  C   UNL A   1      35.417  24.252  24.267  1.00  0.00     0.116 C 
BRANCH  73  74
ATOM     74  N   UNL A   1      34.729  24.994  23.227  1.00  0.00    -0.355 N 
ATOM     75  C   UNL A   1      33.496  24.815  22.680  1.00  0.00     0.230 C 
ATOM     76  H   UNL A   1      35.237  25.751  22.857  1.00  0.00     0.163 HD
ATOM     77  O   UNL A   1      33.311  25.341  21.578  1.00  0.00    -0.274 OA
BRANCH  75  78
ATOM     78  C   UNL A   1      32.341  24.168  23.438  1.00  0.00     0.097 C 
ATOM     79  C   UNL A   1      32.581  22.663  23.449  1.00  0.00     0.139 C 
ATOM     80  C   UNL A   1      32.369  24.539  24.937  1.00  0.00     0.117 C 
ATOM     81  C   UNL A   1      30.904  24.557  23.073  1.00  0.00     0.141 C 
ATOM     82  N   UNL A   1      32.086  22.230  24.735  1.00  0.00    -0.341 N 
ATOM     83  C   UNL A   1      31.819  23.293  25.591  1.00  0.00     0.228 C 
ATOM     84  C   UNL A   1      31.476  25.767  25.075  1.00  0.00     0.136 C 
ATOM     85  N   UNL A   1      30.618  25.706  23.906  1.00  0.00    -0.324 N 
ATOM     86  O   UNL A   1      31.286  23.237  26.685  1.00  0.00    -0.274 OA
BRANCH  82  87
ATOM     87  C   UNL A   1      31.796  20.839  25.015  1.00  0.00     0.123 C 
BRANCH  87  88
ATOM     88  C   UNL A   1      32.911  19.893  24.661  1.00  0.00     0.008 C 
ATOM     89  C   UNL A   1      33.151  18.526  25.266  1.00  0.00     0.006 C 
ATOM     90  C   UNL A   1      32.550  18.637  23.898  1.00  0.00     0.006 C 
ENDBRANCH  87  88
ENDBRANCH  82  87
BRANCH  85  91
ATOM     91  C   UNL A   1      29.898  26.755  23.472  1.00  0.00     0.298 A 
ATOM     92  N   UNL A   1      28.626  27.034  23.664  1.00  0.00    -0.193 NA
ATOM     93  O   UNL A   1      30.592  27.719  22.786  1.00  0.00    -0.423 OA
ATOM     94  C   UNL A   1      28.482  28.292  23.130  1.00  0.00     0.111 A 
ATOM     95  C   UNL A   1      29.683  28.708  22.583  1.00  0.00     0.156 A 
ATOM     96  C   UNL A   1      27.386  29.163  23.082  1.00  0.00     0.032 A 
ATOM     97  C   UNL A   1      29.902  29.935  21.969  1.00  0.00     0.049 A 
ATOM     98  C   UNL A   1      27.567  30.423  22.487  1.00  0.00     0.003 A 
ATOM     99  C   UNL A   1      28.803  30.797  21.941  1.00  0.00     0.004 A 
ENDBRANCH  85  91
ENDBRANCH  75  78
ENDBRANCH  73  74
ENDBRANCH  72  73
ENDBRANCH   1  72
TORSDOF 17
ENDMDL
