MODEL 1
REMARK VINA RESULT:     -12.1      0.000      0.000
REMARK SMILES Cc1cccc(NC(=O)C[C@@H]2CCCCO2)c1C(=O)NCCCCNC(=O)c1ccc(-c2c3nc(c(-c4cccc(S(=O)(=O)[O-])c4F)c4ccc([nH]4)c(-c4cccc(S(=O)(=O)[O-])c4F)c4nc(c(-c5cccc(S(=O)(=O)[O-])c5F)c5ccc2[nH]5)C=C4)C=C3)cc1
REMARK SMILES IDX 22 1 21 2 20 3 18 4 19 5 17 7 1 8 2 9 3 10 4 11 6 12 5 13
REMARK SMILES IDX 7 14 8 15 9 17 10 18 11 19 12 20 16 21 13 22 15 23 14 24
REMARK SMILES IDX 23 25 24 26 25 27 26 28 27 30 28 31 29 32 90 33 30 34 89 35
REMARK SMILES IDX 31 36 32 37 33 38 83 39 34 40 88 41 82 42 84 43 35 44 87 45
REMARK SMILES IDX 81 46 80 47 36 49 68 50 48 51 67 52 49 53 52 54 66 55 85 56
REMARK SMILES IDX 50 57 51 58 65 60 86 61 53 62 37 63 38 64 46 65 39 66 41 67
REMARK SMILES IDX 47 68 40 69 42 70 43 71 44 72 45 73 69 74 70 75 78 76 71 77
REMARK SMILES IDX 73 78 79 79 72 80 74 81 75 82 76 83 77 84 54 85 55 86 63 87
REMARK SMILES IDX 56 88 58 89 64 90 57 91 59 92 60 93 61 94 62 95
REMARK H PARENT 20 6 7 16 25 29 84 48 52 59
REMARK Flexibility Score: inf
ROOT
ATOM      1  C   UNL A   1      36.329  23.974  24.788  1.00  0.00     0.023 C 
ENDROOT
BRANCH   1   2
ATOM      2  C   UNL A   1      36.111  23.163  23.501  1.00  0.00     0.116 C 
BRANCH   2   3
ATOM      3  N   UNL A   1      34.725  23.258  23.095  1.00  0.00    -0.352 N 
ATOM      4  C   UNL A   1      33.531  22.868  23.639  1.00  0.00     0.253 C 
ATOM      5  O   UNL A   1      32.560  22.970  22.885  1.00  0.00    -0.269 OA
ATOM      6  H   UNL A   1      34.616  23.709  22.226  1.00  0.00     0.163 HD
BRANCH   4   7
ATOM      7  C   UNL A   1      33.313  22.500  25.083  1.00  0.00     0.066 A 
ATOM      8  C   UNL A   1      34.240  20.101  25.043  1.00  0.00     0.045 C 
ATOM      9  C   UNL A   1      33.829  21.363  25.744  1.00  0.00    -0.036 A 
ATOM     10  C   UNL A   1      33.764  21.275  27.149  1.00  0.00     0.004 A 
ATOM     11  C   UNL A   1      33.083  22.230  27.890  1.00  0.00     0.002 A 
ATOM     12  C   UNL A   1      32.393  23.300  25.825  1.00  0.00     0.054 A 
ATOM     13  C   UNL A   1      32.369  23.221  27.225  1.00  0.00     0.027 A 
BRANCH  12  14
ATOM     14  N   UNL A   1      31.410  24.052  25.130  1.00  0.00    -0.325 N 
ATOM     15  C   UNL A   1      31.128  25.397  25.143  1.00  0.00     0.227 C 
ATOM     16  H   UNL A   1      30.833  23.520  24.538  1.00  0.00     0.169 HD
ATOM     17  O   UNL A   1      30.127  25.799  24.538  1.00  0.00    -0.275 OA
BRANCH  15  18
ATOM     18  C   UNL A   1      31.982  26.401  25.890  1.00  0.00     0.132 C 
BRANCH  18  19
ATOM     19  C   UNL A   1      33.441  26.546  25.410  1.00  0.00     0.127 C 
ATOM     20  C   UNL A   1      33.956  27.978  25.638  1.00  0.00     0.033 C 
ATOM     21  O   UNL A   1      33.711  26.197  24.050  1.00  0.00    -0.378 OA
ATOM     22  C   UNL A   1      33.279  28.973  24.696  1.00  0.00     0.005 C 
ATOM     23  C   UNL A   1      33.124  27.036  23.069  1.00  0.00     0.160 C 
ATOM     24  C   UNL A   1      33.407  28.519  23.248  1.00  0.00     0.029 C 
ENDBRANCH  18  19
ENDBRANCH  15  18
ENDBRANCH  12  14
ENDBRANCH   4   7
ENDBRANCH   2   3
ENDBRANCH   1   2
BRANCH   1  25
ATOM     25  C   UNL A   1      37.062  23.271  25.941  1.00  0.00     0.023 C 
BRANCH  25  26
ATOM     26  C   UNL A   1      38.265  22.425  25.550  1.00  0.00     0.116 C 
BRANCH  26  27
ATOM     27  N   UNL A   1      39.099  22.108  26.706  1.00  0.00    -0.352 N 
ATOM     28  C   UNL A   1      40.073  22.861  27.329  1.00  0.00     0.251 C 
ATOM     29  H   UNL A   1      38.943  21.221  27.102  1.00  0.00     0.163 HD
ATOM     30  O   UNL A   1      40.985  22.275  27.898  1.00  0.00    -0.269 OA
BRANCH  28  31
ATOM     31  C   UNL A   1      39.944  24.331  27.382  1.00  0.00     0.039 A 
ATOM     32  C   UNL A   1      40.503  25.172  26.411  1.00  0.00     0.014 A 
ATOM     33  C   UNL A   1      39.418  24.879  28.541  1.00  0.00     0.014 A 
ATOM     34  C   UNL A   1      40.660  26.528  26.700  1.00  0.00     0.010 A 
ATOM     35  C   UNL A   1      39.296  26.219  28.688  1.00  0.00     0.010 A 
ATOM     36  C   UNL A   1      40.118  27.003  27.887  1.00  0.00    -0.014 A 
BRANCH  36  37
ATOM     37  C   UNL A   1      40.465  28.229  28.578  1.00  0.00     0.031 A 
ATOM     38  C   UNL A   1      39.570  29.379  28.470  1.00  0.00     0.074 A 
ATOM     39  C   UNL A   1      41.241  27.992  29.667  1.00  0.00     0.049 A 
ATOM     40  N   UNL A   1      39.773  30.510  29.044  1.00  0.00    -0.248 NA
ATOM     41  C   UNL A   1      38.348  29.333  27.676  1.00  0.00     0.031 C 
ATOM     42  C   UNL A   1      41.176  28.622  30.974  1.00  0.00     0.029 A 
ATOM     43  N   UNL A   1      42.239  27.018  29.830  1.00  0.00    -0.354 N 
ATOM     44  C   UNL A   1      38.563  31.174  29.021  1.00  0.00     0.074 A 
ATOM     45  C   UNL A   1      37.803  30.510  27.993  1.00  0.00     0.031 C 
ATOM     46  C   UNL A   1      42.246  28.234  31.691  1.00  0.00     0.029 A 
ATOM     47  C   UNL A   1      43.131  27.520  30.781  1.00  0.00     0.049 A 
ATOM     48  H   UNL A   1      42.298  26.152  29.365  1.00  0.00     0.167 HD
ATOM     49  C   UNL A   1      38.286  32.051  30.029  1.00  0.00     0.034 A 
ATOM     50  C   UNL A   1      44.393  27.919  30.434  1.00  0.00     0.034 A 
ATOM     51  C   UNL A   1      39.465  32.188  30.916  1.00  0.00     0.049 A 
ATOM     52  C   UNL A   1      44.560  29.429  30.552  1.00  0.00     0.074 A 
ATOM     53  C   UNL A   1      39.758  31.703  32.181  1.00  0.00     0.029 A 
ATOM     54  N   UNL A   1      40.676  32.634  30.388  1.00  0.00    -0.354 N 
ATOM     55  N   UNL A   1      43.594  30.248  30.870  1.00  0.00    -0.248 NA
ATOM     56  C   UNL A   1      45.813  30.142  30.325  1.00  0.00     0.031 C 
ATOM     57  C   UNL A   1      41.175  31.740  32.349  1.00  0.00     0.029 A 
ATOM     58  C   UNL A   1      41.742  32.287  31.209  1.00  0.00     0.049 A 
ATOM     59  H   UNL A   1      40.764  33.129  29.541  1.00  0.00     0.167 HD
ATOM     60  C   UNL A   1      44.000  31.545  30.746  1.00  0.00     0.074 A 
ATOM     61  C   UNL A   1      45.428  31.422  30.493  1.00  0.00     0.031 C 
ATOM     62  C   UNL A   1      43.118  32.594  30.799  1.00  0.00     0.034 A 
BRANCH  49  63
ATOM     63  C   UNL A   1      36.902  32.577  30.421  1.00  0.00     0.023 A 
ATOM     64  C   UNL A   1      36.413  32.196  31.693  1.00  0.00     0.012 A 
ATOM     65  C   UNL A   1      36.009  33.359  29.644  1.00  0.00     0.148 A 
ATOM     66  C   UNL A   1      35.122  32.511  32.138  1.00  0.00     0.002 A 
ATOM     67  C   UNL A   1      34.720  33.682  30.086  1.00  0.00     0.091 A 
ATOM     68  F   UNL A   1      36.374  33.821  28.453  1.00  0.00    -0.205 F 
ATOM     69  C   UNL A   1      34.269  33.249  31.332  1.00  0.00     0.022 A 
BRANCH  67  70
ATOM     70  S   UNL A   1      33.560  34.648  29.092  1.00  0.00     0.127 S 
ATOM     71  O   UNL A   1      33.072  33.651  28.136  1.00  0.00    -0.237 OA
ATOM     72  O   UNL A   1      32.574  35.069  30.087  1.00  0.00    -0.237 OA
ATOM     73  O   UNL A   1      34.325  35.734  28.492  1.00  0.00    -0.744 OA
ENDBRANCH  67  70
ENDBRANCH  49  63
BRANCH  50  74
ATOM     74  C   UNL A   1      45.010  27.033  29.392  1.00  0.00     0.023 A 
ATOM     75  C   UNL A   1      45.211  25.680  29.761  1.00  0.00     0.012 A 
ATOM     76  C   UNL A   1      44.919  27.351  28.023  1.00  0.00     0.148 A 
ATOM     77  C   UNL A   1      45.148  24.658  28.810  1.00  0.00     0.002 A 
ATOM     78  C   UNL A   1      44.827  26.323  27.083  1.00  0.00     0.091 A 
ATOM     79  F   UNL A   1      44.807  28.640  27.675  1.00  0.00    -0.205 F 
ATOM     80  C   UNL A   1      44.903  24.978  27.480  1.00  0.00     0.022 A 
BRANCH  78  81
ATOM     81  S   UNL A   1      44.430  26.647  25.356  1.00  0.00     0.127 S 
ATOM     82  O   UNL A   1      43.757  27.938  25.446  1.00  0.00    -0.237 OA
ATOM     83  O   UNL A   1      45.748  26.684  24.729  1.00  0.00    -0.237 OA
ATOM     84  O   UNL A   1      43.605  25.519  24.941  1.00  0.00    -0.744 OA
ENDBRANCH  78  81
ENDBRANCH  50  74
BRANCH  62  85
ATOM     85  C   UNL A   1      43.460  34.029  30.444  1.00  0.00     0.023 A 
ATOM     86  C   UNL A   1      43.797  34.991  31.414  1.00  0.00     0.012 A 
ATOM     87  C   UNL A   1      43.610  34.416  29.086  1.00  0.00     0.148 A 
ATOM     88  C   UNL A   1      44.192  36.286  31.065  1.00  0.00     0.002 A 
ATOM     89  C   UNL A   1      44.134  35.659  28.746  1.00  0.00     0.091 A 
ATOM     90  F   UNL A   1      43.225  33.586  28.105  1.00  0.00    -0.205 F 
ATOM     91  C   UNL A   1      44.387  36.614  29.731  1.00  0.00     0.022 A 
BRANCH  89  92
ATOM     92  S   UNL A   1      44.663  36.003  27.063  1.00  0.00     0.127 S 
ATOM     93  O   UNL A   1      43.409  35.909  26.323  1.00  0.00    -0.237 OA
ATOM     94  O   UNL A   1      45.205  37.359  27.176  1.00  0.00    -0.237 OA
ATOM     95  O   UNL A   1      45.665  34.988  26.768  1.00  0.00    -0.744 OA
ENDBRANCH  89  92
ENDBRANCH  62  85
ENDBRANCH  36  37
ENDBRANCH  28  31
ENDBRANCH  26  27
ENDBRANCH  25  26
ENDBRANCH   1  25
TORSDOF 17
ENDMDL
MODEL 2
REMARK VINA RESULT:     -12.0      4.090      9.427
REMARK SMILES Cc1cccc(NC(=O)C[C@@H]2CCCCO2)c1C(=O)NCCCCNC(=O)c1ccc(-c2c3nc(c(-c4cccc(S(=O)(=O)[O-])c4F)c4ccc([nH]4)c(-c4cccc(S(=O)(=O)[O-])c4F)c4nc(c(-c5cccc(S(=O)(=O)[O-])c5F)c5ccc2[nH]5)C=C4)C=C3)cc1
REMARK SMILES IDX 22 1 21 2 20 3 18 4 19 5 17 7 1 8 2 9 3 10 4 11 6 12 5 13
REMARK SMILES IDX 7 14 8 15 9 17 10 18 11 19 12 20 16 21 13 22 15 23 14 24
REMARK SMILES IDX 23 25 24 26 25 27 26 28 27 30 28 31 29 32 90 33 30 34 89 35
REMARK SMILES IDX 31 36 32 37 33 38 83 39 34 40 88 41 82 42 84 43 35 44 87 45
REMARK SMILES IDX 81 46 80 47 36 49 68 50 48 51 67 52 49 53 52 54 66 55 85 56
REMARK SMILES IDX 50 57 51 58 65 60 86 61 53 62 37 63 38 64 46 65 39 66 41 67
REMARK SMILES IDX 47 68 40 69 42 70 43 71 44 72 45 73 69 74 70 75 78 76 71 77
REMARK SMILES IDX 73 78 79 79 72 80 74 81 75 82 76 83 77 84 54 85 55 86 63 87
REMARK SMILES IDX 56 88 58 89 64 90 57 91 59 92 60 93 61 94 62 95
REMARK H PARENT 20 6 7 16 25 29 84 48 52 59
REMARK Flexibility Score: inf
ROOT
ATOM      1  C   UNL A   1      32.384  29.272  27.275  1.00  0.00     0.023 C 
ENDROOT
BRANCH   1   2
ATOM      2  C   UNL A   1      32.757  27.856  26.807  1.00  0.00     0.116 C 
BRANCH   2   3
ATOM      3  N   UNL A   1      31.610  26.984  26.936  1.00  0.00    -0.352 N 
ATOM      4  C   UNL A   1      30.744  26.391  26.056  1.00  0.00     0.253 C 
ATOM      5  O   UNL A   1      29.764  25.853  26.577  1.00  0.00    -0.269 OA
ATOM      6  H   UNL A   1      31.404  26.766  27.874  1.00  0.00     0.163 HD
BRANCH   4   7
ATOM      7  C   UNL A   1      30.990  26.217  24.580  1.00  0.00     0.066 A 
ATOM      8  C   UNL A   1      30.212  28.526  23.756  1.00  0.00     0.045 C 
ATOM      9  C   UNL A   1      30.962  27.235  23.601  1.00  0.00    -0.036 A 
ATOM     10  C   UNL A   1      31.461  26.982  22.307  1.00  0.00     0.004 A 
ATOM     11  C   UNL A   1      31.862  25.706  21.937  1.00  0.00     0.002 A 
ATOM     12  C   UNL A   1      31.135  24.881  24.100  1.00  0.00     0.054 A 
ATOM     13  C   UNL A   1      31.664  24.651  22.822  1.00  0.00     0.027 A 
BRANCH  12  14
ATOM     14  N   UNL A   1      30.599  23.808  24.860  1.00  0.00    -0.325 N 
ATOM     15  C   UNL A   1      31.193  22.674  25.361  1.00  0.00     0.227 C 
ATOM     16  H   UNL A   1      29.641  23.891  25.064  1.00  0.00     0.169 HD
ATOM     17  O   UNL A   1      30.477  21.815  25.891  1.00  0.00    -0.275 OA
BRANCH  15  18
ATOM     18  C   UNL A   1      32.684  22.425  25.266  1.00  0.00     0.132 C 
BRANCH  18  19
ATOM     19  C   UNL A   1      33.546  23.003  26.406  1.00  0.00     0.127 C 
ATOM     20  C   UNL A   1      33.986  24.443  26.089  1.00  0.00     0.033 C 
ATOM     21  O   UNL A   1      34.712  22.261  26.774  1.00  0.00    -0.378 OA
ATOM     22  C   UNL A   1      35.010  24.478  24.955  1.00  0.00     0.005 C 
ATOM     23  C   UNL A   1      35.739  22.202  25.798  1.00  0.00     0.160 C 
ATOM     24  C   UNL A   1      36.181  23.551  25.255  1.00  0.00     0.029 C 
ENDBRANCH  18  19
ENDBRANCH  15  18
ENDBRANCH  12  14
ENDBRANCH   4   7
ENDBRANCH   2   3
ENDBRANCH   1   2
BRANCH   1  25
ATOM     25  C   UNL A   1      33.253  30.429  26.758  1.00  0.00     0.023 C 
BRANCH  25  26
ATOM     26  C   UNL A   1      34.242  31.018  27.754  1.00  0.00     0.116 C 
BRANCH  26  27
ATOM     27  N   UNL A   1      33.926  32.408  28.070  1.00  0.00    -0.352 N 
ATOM     28  C   UNL A   1      34.336  33.193  29.129  1.00  0.00     0.251 C 
ATOM     29  H   UNL A   1      33.329  32.857  27.428  1.00  0.00     0.163 HD
ATOM     30  O   UNL A   1      33.596  34.093  29.505  1.00  0.00    -0.269 OA
BRANCH  28  31
ATOM     31  C   UNL A   1      35.678  32.997  29.711  1.00  0.00     0.039 A 
ATOM     32  C   UNL A   1      36.852  33.368  29.042  1.00  0.00     0.014 A 
ATOM     33  C   UNL A   1      35.762  32.243  30.870  1.00  0.00     0.014 A 
ATOM     34  C   UNL A   1      38.071  32.840  29.469  1.00  0.00     0.010 A 
ATOM     35  C   UNL A   1      36.956  31.984  31.453  1.00  0.00     0.010 A 
ATOM     36  C   UNL A   1      38.074  32.082  30.632  1.00  0.00    -0.014 A 
BRANCH  36  37
ATOM     37  C   UNL A   1      39.088  31.137  31.058  1.00  0.00     0.031 A 
ATOM     38  C   UNL A   1      39.184  29.848  30.377  1.00  0.00     0.074 A 
ATOM     39  C   UNL A   1      40.155  31.762  31.619  1.00  0.00     0.049 A 
ATOM     40  N   UNL A   1      40.046  28.940  30.665  1.00  0.00    -0.248 NA
ATOM     41  C   UNL A   1      38.282  29.479  29.293  1.00  0.00     0.031 C 
ATOM     42  C   UNL A   1      41.565  31.454  31.460  1.00  0.00     0.029 A 
ATOM     43  N   UNL A   1      40.167  32.915  32.420  1.00  0.00    -0.354 N 
ATOM     44  C   UNL A   1      40.067  28.077  29.588  1.00  0.00     0.074 A 
ATOM     45  C   UNL A   1      38.830  28.329  28.895  1.00  0.00     0.031 C 
ATOM     46  C   UNL A   1      42.268  32.191  32.341  1.00  0.00     0.029 A 
ATOM     47  C   UNL A   1      41.303  32.824  33.229  1.00  0.00     0.049 A 
ATOM     48  H   UNL A   1      39.505  33.643  32.413  1.00  0.00     0.167 HD
ATOM     49  C   UNL A   1      41.232  27.424  29.304  1.00  0.00     0.034 A 
ATOM     50  C   UNL A   1      41.203  32.596  34.575  1.00  0.00     0.034 A 
ATOM     51  C   UNL A   1      42.242  27.719  30.347  1.00  0.00     0.049 A 
ATOM     52  C   UNL A   1      41.720  31.213  34.953  1.00  0.00     0.074 A 
ATOM     53  C   UNL A   1      43.365  28.532  30.372  1.00  0.00     0.029 A 
ATOM     54  N   UNL A   1      41.975  27.395  31.676  1.00  0.00    -0.354 N 
ATOM     55  N   UNL A   1      42.134  30.326  34.088  1.00  0.00    -0.248 NA
ATOM     56  C   UNL A   1      41.815  30.713  36.321  1.00  0.00     0.031 C 
ATOM     57  C   UNL A   1      43.684  28.799  31.737  1.00  0.00     0.029 A 
ATOM     58  C   UNL A   1      42.787  28.116  32.544  1.00  0.00     0.049 A 
ATOM     59  H   UNL A   1      41.298  26.741  31.964  1.00  0.00     0.167 HD
ATOM     60  C   UNL A   1      42.389  29.136  34.703  1.00  0.00     0.074 A 
ATOM     61  C   UNL A   1      42.264  29.459  36.116  1.00  0.00     0.031 C 
ATOM     62  C   UNL A   1      42.616  27.983  33.995  1.00  0.00     0.034 A 
BRANCH  49  63
ATOM     63  C   UNL A   1      41.598  26.756  27.975  1.00  0.00     0.023 A 
ATOM     64  C   UNL A   1      41.595  27.583  26.826  1.00  0.00     0.012 A 
ATOM     65  C   UNL A   1      41.887  25.389  27.731  1.00  0.00     0.148 A 
ATOM     66  C   UNL A   1      41.803  27.087  25.531  1.00  0.00     0.002 A 
ATOM     67  C   UNL A   1      42.101  24.890  26.440  1.00  0.00     0.091 A 
ATOM     68  F   UNL A   1      41.969  24.524  28.736  1.00  0.00    -0.205 F 
ATOM     69  C   UNL A   1      42.048  25.737  25.335  1.00  0.00     0.022 A 
BRANCH  67  70
ATOM     70  S   UNL A   1      42.436  23.144  26.111  1.00  0.00     0.127 S 
ATOM     71  O   UNL A   1      41.101  22.551  26.216  1.00  0.00    -0.237 OA
ATOM     72  O   UNL A   1      42.979  23.183  24.754  1.00  0.00    -0.237 OA
ATOM     73  O   UNL A   1      43.375  22.698  27.133  1.00  0.00    -0.744 OA
ENDBRANCH  67  70
ENDBRANCH  49  63
BRANCH  50  74
ATOM     74  C   UNL A   1      40.040  33.313  35.195  1.00  0.00     0.023 A 
ATOM     75  C   UNL A   1      38.817  32.599  35.242  1.00  0.00     0.012 A 
ATOM     76  C   UNL A   1      40.241  34.365  36.109  1.00  0.00     0.148 A 
ATOM     77  C   UNL A   1      37.901  32.809  36.275  1.00  0.00     0.002 A 
ATOM     78  C   UNL A   1      39.335  34.549  37.155  1.00  0.00     0.091 A 
ATOM     79  F   UNL A   1      41.365  35.088  36.011  1.00  0.00    -0.205 F 
ATOM     80  C   UNL A   1      38.186  33.747  37.261  1.00  0.00     0.022 A 
BRANCH  78  81
ATOM     81  S   UNL A   1      39.670  35.683  38.514  1.00  0.00     0.127 S 
ATOM     82  O   UNL A   1      41.037  35.319  38.872  1.00  0.00    -0.237 OA
ATOM     83  O   UNL A   1      39.529  36.990  37.878  1.00  0.00    -0.237 OA
ATOM     84  O   UNL A   1      38.646  35.392  39.510  1.00  0.00    -0.744 OA
ENDBRANCH  78  81
ENDBRANCH  50  74
BRANCH  62  85
ATOM     85  C   UNL A   1      42.677  26.594  34.603  1.00  0.00     0.023 A 
ATOM     86  C   UNL A   1      41.614  26.044  35.343  1.00  0.00     0.012 A 
ATOM     87  C   UNL A   1      43.762  25.727  34.308  1.00  0.00     0.148 A 
ATOM     88  C   UNL A   1      41.651  24.731  35.826  1.00  0.00     0.002 A 
ATOM     89  C   UNL A   1      43.729  24.385  34.673  1.00  0.00     0.091 A 
ATOM     90  F   UNL A   1      44.849  26.202  33.684  1.00  0.00    -0.205 F 
ATOM     91  C   UNL A   1      42.696  23.892  35.468  1.00  0.00     0.022 A 
BRANCH  89  92
ATOM     92  S   UNL A   1      44.913  23.218  33.986  1.00  0.00     0.127 S 
ATOM     93  O   UNL A   1      44.749  23.426  32.550  1.00  0.00    -0.237 OA
ATOM     94  O   UNL A   1      46.183  23.702  34.531  1.00  0.00    -0.237 OA
ATOM     95  O   UNL A   1      44.504  21.918  34.501  1.00  0.00    -0.744 OA
ENDBRANCH  89  92
ENDBRANCH  62  85
ENDBRANCH  36  37
ENDBRANCH  28  31
ENDBRANCH  26  27
ENDBRANCH  25  26
ENDBRANCH   1  25
TORSDOF 17
ENDMDL
MODEL 3
REMARK VINA RESULT:     -11.4      3.421      4.484
REMARK SMILES Cc1cccc(NC(=O)C[C@@H]2CCCCO2)c1C(=O)NCCCCNC(=O)c1ccc(-c2c3nc(c(-c4cccc(S(=O)(=O)[O-])c4F)c4ccc([nH]4)c(-c4cccc(S(=O)(=O)[O-])c4F)c4nc(c(-c5cccc(S(=O)(=O)[O-])c5F)c5ccc2[nH]5)C=C4)C=C3)cc1
REMARK SMILES IDX 22 1 21 2 20 3 18 4 19 5 17 7 1 8 2 9 3 10 4 11 6 12 5 13
REMARK SMILES IDX 7 14 8 15 9 17 10 18 11 19 12 20 16 21 13 22 15 23 14 24
REMARK SMILES IDX 23 25 24 26 25 27 26 28 27 30 28 31 29 32 90 33 30 34 89 35
REMARK SMILES IDX 31 36 32 37 33 38 83 39 34 40 88 41 82 42 84 43 35 44 87 45
REMARK SMILES IDX 81 46 80 47 36 49 68 50 48 51 67 52 49 53 52 54 66 55 85 56
REMARK SMILES IDX 50 57 51 58 65 60 86 61 53 62 37 63 38 64 46 65 39 66 41 67
REMARK SMILES IDX 47 68 40 69 42 70 43 71 44 72 45 73 69 74 70 75 78 76 71 77
REMARK SMILES IDX 73 78 79 79 72 80 74 81 75 82 76 83 77 84 54 85 55 86 63 87
REMARK SMILES IDX 56 88 58 89 64 90 57 91 59 92 60 93 61 94 62 95
REMARK H PARENT 20 6 7 16 25 29 84 48 52 59
REMARK Flexibility Score: inf
ROOT
ATOM      1  C   UNL A   1      38.935  23.300  26.454  1.00  0.00     0.023 C 
ENDROOT
BRANCH   1   2
ATOM      2  C   UNL A   1      37.472  23.637  26.125  1.00  0.00     0.116 C 
BRANCH   2   3
ATOM      3  N   UNL A   1      37.281  23.626  24.691  1.00  0.00    -0.352 N 
ATOM      4  C   UNL A   1      36.498  22.910  23.826  1.00  0.00     0.253 C 
ATOM      5  O   UNL A   1      36.760  23.073  22.632  1.00  0.00    -0.269 OA
ATOM      6  H   UNL A   1      37.846  24.288  24.229  1.00  0.00     0.163 HD
BRANCH   4   7
ATOM      7  C   UNL A   1      35.285  22.106  24.216  1.00  0.00     0.066 A 
ATOM      8  C   UNL A   1      36.441  19.900  24.861  1.00  0.00     0.045 C 
ATOM      9  C   UNL A   1      35.286  20.858  24.880  1.00  0.00    -0.036 A 
ATOM     10  C   UNL A   1      34.087  20.342  25.411  1.00  0.00     0.004 A 
ATOM     11  C   UNL A   1      32.876  20.979  25.181  1.00  0.00     0.002 A 
ATOM     12  C   UNL A   1      34.018  22.578  23.759  1.00  0.00     0.054 A 
ATOM     13  C   UNL A   1      32.839  22.075  24.326  1.00  0.00     0.027 A 
BRANCH  12  14
ATOM     14  N   UNL A   1      33.965  23.439  22.631  1.00  0.00    -0.325 N 
ATOM     15  C   UNL A   1      33.231  24.578  22.401  1.00  0.00     0.227 C 
ATOM     16  H   UNL A   1      34.553  23.176  21.889  1.00  0.00     0.169 HD
ATOM     17  O   UNL A   1      33.265  25.088  21.274  1.00  0.00    -0.275 OA
BRANCH  15  18
ATOM     18  C   UNL A   1      32.364  25.218  23.466  1.00  0.00     0.132 C 
BRANCH  18  19
ATOM     19  C   UNL A   1      33.094  26.095  24.504  1.00  0.00     0.127 C 
ATOM     20  C   UNL A   1      32.099  26.706  25.506  1.00  0.00     0.033 C 
ATOM     21  O   UNL A   1      33.908  27.154  23.995  1.00  0.00    -0.378 OA
ATOM     22  C   UNL A   1      31.223  27.771  24.846  1.00  0.00     0.005 C 
ATOM     23  C   UNL A   1      33.215  28.205  23.342  1.00  0.00     0.160 C 
ATOM     24  C   UNL A   1      32.079  28.817  24.146  1.00  0.00     0.029 C 
ENDBRANCH  18  19
ENDBRANCH  15  18
ENDBRANCH  12  14
ENDBRANCH   4   7
ENDBRANCH   2   3
ENDBRANCH   1   2
BRANCH   1  25
ATOM     25  C   UNL A   1      39.435  21.902  26.060  1.00  0.00     0.023 C 
BRANCH  25  26
ATOM     26  C   UNL A   1      40.308  21.191  27.084  1.00  0.00     0.116 C 
BRANCH  26  27
ATOM     27  N   UNL A   1      41.391  20.448  26.446  1.00  0.00    -0.352 N 
ATOM     28  C   UNL A   1      42.557  20.904  25.865  1.00  0.00     0.251 C 
ATOM     29  H   UNL A   1      41.273  19.471  26.429  1.00  0.00     0.163 HD
ATOM     30  O   UNL A   1      43.052  20.243  24.962  1.00  0.00    -0.269 OA
BRANCH  28  31
ATOM     31  C   UNL A   1      43.224  22.106  26.403  1.00  0.00     0.039 A 
ATOM     32  C   UNL A   1      43.435  22.302  27.774  1.00  0.00     0.014 A 
ATOM     33  C   UNL A   1      43.465  23.145  25.519  1.00  0.00     0.014 A 
ATOM     34  C   UNL A   1      43.731  23.584  28.237  1.00  0.00     0.010 A 
ATOM     35  C   UNL A   1      44.041  24.298  25.934  1.00  0.00     0.010 A 
ATOM     36  C   UNL A   1      43.945  24.579  27.292  1.00  0.00    -0.014 A 
BRANCH  36  37
ATOM     37  C   UNL A   1      43.883  26.012  27.501  1.00  0.00     0.031 A 
ATOM     38  C   UNL A   1      42.599  26.694  27.356  1.00  0.00     0.074 A 
ATOM     39  C   UNL A   1      44.861  26.442  28.339  1.00  0.00     0.049 A 
ATOM     40  N   UNL A   1      42.426  27.955  27.525  1.00  0.00    -0.248 NA
ATOM     41  C   UNL A   1      41.382  25.977  26.995  1.00  0.00     0.031 C 
ATOM     42  C   UNL A   1      44.772  27.438  29.392  1.00  0.00     0.029 A 
ATOM     43  N   UNL A   1      46.178  25.968  28.457  1.00  0.00    -0.354 N 
ATOM     44  C   UNL A   1      41.067  28.138  27.680  1.00  0.00     0.074 A 
ATOM     45  C   UNL A   1      40.473  26.945  27.132  1.00  0.00     0.031 C 
ATOM     46  C   UNL A   1      46.014  27.698  29.843  1.00  0.00     0.029 A 
ATOM     47  C   UNL A   1      46.941  27.034  28.938  1.00  0.00     0.049 A 
ATOM     48  H   UNL A   1      46.499  25.062  28.242  1.00  0.00     0.167 HD
ATOM     49  C   UNL A   1      40.637  29.176  28.454  1.00  0.00     0.034 A 
ATOM     50  C   UNL A   1      47.859  27.669  28.145  1.00  0.00     0.034 A 
ATOM     51  C   UNL A   1      41.794  29.993  28.890  1.00  0.00     0.049 A 
ATOM     52  C   UNL A   1      47.425  29.089  27.804  1.00  0.00     0.074 A 
ATOM     53  C   UNL A   1      42.467  30.112  30.096  1.00  0.00     0.029 A 
ATOM     54  N   UNL A   1      42.617  30.587  27.933  1.00  0.00    -0.354 N 
ATOM     55  N   UNL A   1      46.281  29.609  28.161  1.00  0.00    -0.248 NA
ATOM     56  C   UNL A   1      48.230  30.038  27.042  1.00  0.00     0.031 C 
ATOM     57  C   UNL A   1      43.757  30.662  29.828  1.00  0.00     0.029 A 
ATOM     58  C   UNL A   1      43.856  30.919  28.470  1.00  0.00     0.049 A 
ATOM     59  H   UNL A   1      42.355  30.749  26.998  1.00  0.00     0.167 HD
ATOM     60  C   UNL A   1      46.107  30.833  27.585  1.00  0.00     0.074 A 
ATOM     61  C   UNL A   1      47.399  31.096  26.969  1.00  0.00     0.031 C 
ATOM     62  C   UNL A   1      44.902  31.487  27.612  1.00  0.00     0.034 A 
BRANCH  49  63
ATOM     63  C   UNL A   1      39.246  29.330  29.077  1.00  0.00     0.023 A 
ATOM     64  C   UNL A   1      38.153  29.401  28.182  1.00  0.00     0.012 A 
ATOM     65  C   UNL A   1      38.910  29.470  30.449  1.00  0.00     0.148 A 
ATOM     66  C   UNL A   1      36.839  29.651  28.603  1.00  0.00     0.002 A 
ATOM     67  C   UNL A   1      37.599  29.712  30.875  1.00  0.00     0.091 A 
ATOM     68  F   UNL A   1      39.844  29.368  31.388  1.00  0.00    -0.205 F 
ATOM     69  C   UNL A   1      36.560  29.815  29.951  1.00  0.00     0.022 A 
BRANCH  67  70
ATOM     70  S   UNL A   1      37.162  29.927  32.616  1.00  0.00     0.127 S 
ATOM     71  O   UNL A   1      35.800  30.458  32.527  1.00  0.00    -0.237 OA
ATOM     72  O   UNL A   1      37.249  28.560  33.129  1.00  0.00    -0.237 OA
ATOM     73  O   UNL A   1      38.134  30.855  33.180  1.00  0.00    -0.744 OA
ENDBRANCH  67  70
ENDBRANCH  49  63
BRANCH  50  74
ATOM     74  C   UNL A   1      48.593  26.720  27.243  1.00  0.00     0.023 A 
ATOM     75  C   UNL A   1      47.959  26.406  26.016  1.00  0.00     0.012 A 
ATOM     76  C   UNL A   1      49.990  26.563  27.340  1.00  0.00     0.148 A 
ATOM     77  C   UNL A   1      48.708  26.114  24.874  1.00  0.00     0.002 A 
ATOM     78  C   UNL A   1      50.733  26.299  26.188  1.00  0.00     0.091 A 
ATOM     79  F   UNL A   1      50.575  26.785  28.524  1.00  0.00    -0.205 F 
ATOM     80  C   UNL A   1      50.097  26.113  24.949  1.00  0.00     0.022 A 
BRANCH  78  81
ATOM     81  S   UNL A   1      52.533  26.362  26.182  1.00  0.00     0.127 S 
ATOM     82  O   UNL A   1      52.778  27.796  26.285  1.00  0.00    -0.237 OA
ATOM     83  O   UNL A   1      52.881  25.593  27.374  1.00  0.00    -0.237 OA
ATOM     84  O   UNL A   1      52.929  25.730  24.930  1.00  0.00    -0.744 OA
ENDBRANCH  78  81
ENDBRANCH  50  74
BRANCH  62  85
ATOM     85  C   UNL A   1      44.575  32.730  26.804  1.00  0.00     0.023 A 
ATOM     86  C   UNL A   1      44.283  32.684  25.428  1.00  0.00     0.012 A 
ATOM     87  C   UNL A   1      44.395  33.981  27.451  1.00  0.00     0.148 A 
ATOM     88  C   UNL A   1      43.902  33.826  24.715  1.00  0.00     0.002 A 
ATOM     89  C   UNL A   1      43.885  35.078  26.766  1.00  0.00     0.091 A 
ATOM     90  F   UNL A   1      44.737  34.124  28.740  1.00  0.00    -0.205 F 
ATOM     91  C   UNL A   1      43.676  35.018  25.388  1.00  0.00     0.022 A 
BRANCH  89  92
ATOM     92  S   UNL A   1      43.314  36.532  27.656  1.00  0.00     0.127 S 
ATOM     93  O   UNL A   1      42.638  35.940  28.806  1.00  0.00    -0.237 OA
ATOM     94  O   UNL A   1      44.569  37.218  27.972  1.00  0.00    -0.237 OA
ATOM     95  O   UNL A   1      42.471  37.248  26.708  1.00  0.00    -0.744 OA
ENDBRANCH  89  92
ENDBRANCH  62  85
ENDBRANCH  36  37
ENDBRANCH  28  31
ENDBRANCH  26  27
ENDBRANCH  25  26
ENDBRANCH   1  25
TORSDOF 17
ENDMDL
