MODEL 1
REMARK VINA RESULT:     -10.6      0.000      0.000
REMARK SMILES C[N@H+](CC(C)(C)C(=O)NCCCCNC(=O)c1ccc(-c2c3nc(c(-c4cccc(S(=O)(=O)[O-])c4F)c4ccc([nH]4)c(-c4cccc(S(=O)(=O)[O-])c4F)c4nc(c(-c5cccc(S(=O)(=O)[O-])c5F)c5ccc2[nH]5)C=C4)C=C3)cc1)[C@@H]1CCCC[C@@H]1C[NH3+]
REMARK SMILES IDX 10 1 9 2 7 3 8 4 4 6 5 7 6 8 3 9 2 10 1 11 80 13 81 14 85 15
REMARK SMILES IDX 82 16 84 17 83 18 86 19 87 20 11 24 12 25 13 26 14 27 15 28
REMARK SMILES IDX 16 30 17 31 18 32 79 33 19 34 78 35 20 36 21 37 22 38 72 39
REMARK SMILES IDX 23 40 77 41 71 42 73 43 24 44 76 45 70 46 69 47 25 49 57 50
REMARK SMILES IDX 37 51 56 52 38 53 41 54 55 55 74 56 39 57 40 58 54 60 75 61
REMARK SMILES IDX 42 62 26 63 27 64 35 65 28 66 30 67 36 68 29 69 31 70 32 71
REMARK SMILES IDX 33 72 34 73 58 74 59 75 67 76 60 77 62 78 68 79 61 80 63 81
REMARK SMILES IDX 64 82 65 83 66 84 43 85 44 86 52 87 45 88 47 89 53 90 46 91
REMARK SMILES IDX 48 92 49 93 50 94 51 95
REMARK H PARENT 9 5 2 12 87 21 87 22 87 23 14 29 73 48 41 59
REMARK Flexibility Score: inf
ROOT
ATOM      1  C   UNL A   1      33.806  21.888  24.305  1.00  0.00     0.116 C 
ENDROOT
BRANCH   1   2
ATOM      2  N   UNL A   1      34.087  22.981  23.402  1.00  0.00    -0.355 N 
ATOM      3  C   UNL A   1      33.370  24.014  22.912  1.00  0.00     0.231 C 
ATOM      4  O   UNL A   1      33.949  24.641  22.011  1.00  0.00    -0.274 OA
ATOM      5  H   UNL A   1      35.013  22.970  23.070  1.00  0.00     0.163 HD
BRANCH   3   6
ATOM      6  C   UNL A   1      31.922  24.387  23.298  1.00  0.00     0.092 C 
ATOM      7  C   UNL A   1      30.767  23.401  23.093  1.00  0.00     0.027 C 
ATOM      8  C   UNL A   1      31.584  25.566  22.349  1.00  0.00     0.027 C 
BRANCH   6   9
ATOM      9  C   UNL A   1      31.936  24.874  24.806  1.00  0.00     0.278 C 
BRANCH   9  10
ATOM     10  N   UNL A   1      31.524  26.282  25.054  1.00  0.00    -0.334 N 
ATOM     11  C   UNL A   1      30.083  26.370  25.322  1.00  0.00     0.333 C 
ATOM     12  H   UNL A   1      31.723  26.746  24.167  1.00  0.00     0.348 HD
BRANCH  10  13
ATOM     13  C   UNL A   1      32.368  27.120  25.955  1.00  0.00     0.192 C 
ATOM     14  C   UNL A   1      31.572  28.170  26.802  1.00  0.00     0.065 C 
ATOM     15  C   UNL A   1      33.517  27.831  25.178  1.00  0.00     0.102 C 
ATOM     16  C   UNL A   1      32.427  29.169  27.588  1.00  0.00     0.006 C 
ATOM     17  C   UNL A   1      34.370  28.700  26.116  1.00  0.00     0.015 C 
ATOM     18  C   UNL A   1      33.540  29.792  26.765  1.00  0.00     0.001 C 
BRANCH  15  19
ATOM     19  C   UNL A   1      33.111  28.661  23.925  1.00  0.00     0.268 C 
BRANCH  19  20
ATOM     20  N   UNL A   1      34.153  28.936  22.948  1.00  0.00    -0.357 N 
ATOM     21  H   UNL A   1      34.343  28.093  22.407  1.00  0.00     0.344 HD
ATOM     22  H   UNL A   1      35.002  29.229  23.431  1.00  0.00     0.344 HD
ATOM     23  H   UNL A   1      33.845  29.680  22.321  1.00  0.00     0.344 HD
ENDBRANCH  19  20
ENDBRANCH  15  19
ENDBRANCH  10  13
ENDBRANCH   9  10
ENDBRANCH   6   9
ENDBRANCH   3   6
ENDBRANCH   1   2
BRANCH   1  24
ATOM     24  C   UNL A   1      34.835  21.830  25.426  1.00  0.00     0.023 C 
BRANCH  24  25
ATOM     25  C   UNL A   1      36.219  21.350  24.986  1.00  0.00     0.023 C 
BRANCH  25  26
ATOM     26  C   UNL A   1      37.389  21.989  25.729  1.00  0.00     0.116 C 
BRANCH  26  27
ATOM     27  N   UNL A   1      38.443  21.030  26.034  1.00  0.00    -0.352 N 
ATOM     28  C   UNL A   1      39.725  21.255  26.465  1.00  0.00     0.251 C 
ATOM     29  H   UNL A   1      38.199  20.084  25.914  1.00  0.00     0.163 HD
ATOM     30  O   UNL A   1      40.540  20.332  26.474  1.00  0.00    -0.269 OA
BRANCH  28  31
ATOM     31  C   UNL A   1      40.127  22.607  26.904  1.00  0.00     0.039 A 
ATOM     32  C   UNL A   1      41.044  22.738  27.948  1.00  0.00     0.014 A 
ATOM     33  C   UNL A   1      39.604  23.742  26.277  1.00  0.00     0.014 A 
ATOM     34  C   UNL A   1      41.480  24.009  28.325  1.00  0.00     0.010 A 
ATOM     35  C   UNL A   1      40.107  25.000  26.594  1.00  0.00     0.010 A 
ATOM     36  C   UNL A   1      41.040  25.148  27.630  1.00  0.00    -0.014 A 
BRANCH  36  37
ATOM     37  C   UNL A   1      41.553  26.500  27.974  1.00  0.00     0.031 A 
ATOM     38  C   UNL A   1      42.971  26.883  27.645  1.00  0.00     0.074 A 
ATOM     39  C   UNL A   1      40.761  27.360  28.644  1.00  0.00     0.049 A 
ATOM     40  N   UNL A   1      43.595  28.008  27.878  1.00  0.00    -0.248 NA
ATOM     41  C   UNL A   1      43.807  25.862  26.990  1.00  0.00     0.031 C 
ATOM     42  C   UNL A   1      39.396  27.076  29.097  1.00  0.00     0.029 A 
ATOM     43  N   UNL A   1      40.993  28.641  29.079  1.00  0.00    -0.354 N 
ATOM     44  C   UNL A   1      44.898  27.821  27.433  1.00  0.00     0.074 A 
ATOM     45  C   UNL A   1      44.988  26.460  26.952  1.00  0.00     0.031 C 
ATOM     46  C   UNL A   1      38.909  28.156  29.731  1.00  0.00     0.029 A 
ATOM     47  C   UNL A   1      39.934  29.194  29.760  1.00  0.00     0.049 A 
ATOM     48  H   UNL A   1      41.839  29.118  28.918  1.00  0.00     0.167 HD
ATOM     49  C   UNL A   1      45.920  28.709  27.398  1.00  0.00     0.034 A 
ATOM     50  C   UNL A   1      39.804  30.400  30.348  1.00  0.00     0.034 A 
ATOM     51  C   UNL A   1      45.817  30.071  27.848  1.00  0.00     0.049 A 
ATOM     52  C   UNL A   1      40.943  31.378  30.264  1.00  0.00     0.074 A 
ATOM     53  C   UNL A   1      46.768  31.073  27.776  1.00  0.00     0.029 A 
ATOM     54  N   UNL A   1      44.705  30.618  28.466  1.00  0.00    -0.354 N 
ATOM     55  N   UNL A   1      42.114  31.237  29.692  1.00  0.00    -0.248 NA
ATOM     56  C   UNL A   1      40.728  32.700  30.872  1.00  0.00     0.031 C 
ATOM     57  C   UNL A   1      46.242  32.218  28.384  1.00  0.00     0.029 A 
ATOM     58  C   UNL A   1      44.948  31.942  28.795  1.00  0.00     0.049 A 
ATOM     59  H   UNL A   1      43.864  30.138  28.645  1.00  0.00     0.167 HD
ATOM     60  C   UNL A   1      42.761  32.458  29.839  1.00  0.00     0.074 A 
ATOM     61  C   UNL A   1      41.841  33.336  30.532  1.00  0.00     0.031 C 
ATOM     62  C   UNL A   1      44.007  32.819  29.444  1.00  0.00     0.034 A 
BRANCH  49  63
ATOM     63  C   UNL A   1      47.230  28.246  26.813  1.00  0.00     0.023 A 
ATOM     64  C   UNL A   1      48.298  27.909  27.671  1.00  0.00     0.012 A 
ATOM     65  C   UNL A   1      47.388  28.091  25.422  1.00  0.00     0.148 A 
ATOM     66  C   UNL A   1      49.514  27.462  27.153  1.00  0.00     0.002 A 
ATOM     67  C   UNL A   1      48.586  27.598  24.916  1.00  0.00     0.091 A 
ATOM     68  F   UNL A   1      46.371  28.436  24.620  1.00  0.00    -0.205 F 
ATOM     69  C   UNL A   1      49.654  27.297  25.778  1.00  0.00     0.022 A 
BRANCH  67  70
ATOM     70  S   UNL A   1      48.838  27.268  23.169  1.00  0.00     0.127 S 
ATOM     71  O   UNL A   1      48.140  28.395  22.552  1.00  0.00    -0.237 OA
ATOM     72  O   UNL A   1      50.297  27.318  23.056  1.00  0.00    -0.237 OA
ATOM     73  O   UNL A   1      48.253  25.959  22.916  1.00  0.00    -0.744 OA
ENDBRANCH  67  70
ENDBRANCH  49  63
BRANCH  50  74
ATOM     74  C   UNL A   1      38.524  30.770  31.016  1.00  0.00     0.023 A 
ATOM     75  C   UNL A   1      38.315  30.418  32.364  1.00  0.00     0.012 A 
ATOM     76  C   UNL A   1      37.523  31.484  30.331  1.00  0.00     0.148 A 
ATOM     77  C   UNL A   1      37.117  30.735  33.005  1.00  0.00     0.002 A 
ATOM     78  C   UNL A   1      36.355  31.848  30.992  1.00  0.00     0.091 A 
ATOM     79  F   UNL A   1      37.737  31.803  29.046  1.00  0.00    -0.205 F 
ATOM     80  C   UNL A   1      36.142  31.458  32.324  1.00  0.00     0.022 A 
BRANCH  78  81
ATOM     81  S   UNL A   1      35.104  32.890  30.236  1.00  0.00     0.127 S 
ATOM     82  O   UNL A   1      35.902  34.018  29.762  1.00  0.00    -0.237 OA
ATOM     83  O   UNL A   1      34.583  32.018  29.183  1.00  0.00    -0.237 OA
ATOM     84  O   UNL A   1      34.149  33.191  31.293  1.00  0.00    -0.744 OA
ENDBRANCH  78  81
ENDBRANCH  50  74
BRANCH  62  85
ATOM     85  C   UNL A   1      44.441  34.237  29.711  1.00  0.00     0.023 A 
ATOM     86  C   UNL A   1      45.117  34.558  30.904  1.00  0.00     0.012 A 
ATOM     87  C   UNL A   1      44.228  35.242  28.745  1.00  0.00     0.148 A 
ATOM     88  C   UNL A   1      45.538  35.864  31.151  1.00  0.00     0.002 A 
ATOM     89  C   UNL A   1      44.698  36.529  28.974  1.00  0.00     0.091 A 
ATOM     90  F   UNL A   1      43.567  34.921  27.623  1.00  0.00    -0.205 F 
ATOM     91  C   UNL A   1      45.339  36.846  30.183  1.00  0.00     0.022 A 
BRANCH  89  92
ATOM     92  S   UNL A   1      44.576  37.832  27.743  1.00  0.00     0.127 S 
ATOM     93  O   UNL A   1      45.393  37.292  26.658  1.00  0.00    -0.237 OA
ATOM     94  O   UNL A   1      43.140  37.864  27.468  1.00  0.00    -0.237 OA
ATOM     95  O   UNL A   1      45.097  39.035  28.379  1.00  0.00    -0.744 OA
ENDBRANCH  89  92
ENDBRANCH  62  85
ENDBRANCH  36  37
ENDBRANCH  28  31
ENDBRANCH  26  27
ENDBRANCH  25  26
ENDBRANCH  24  25
ENDBRANCH   1  24
TORSDOF 19
ENDMDL
MODEL 2
REMARK VINA RESULT:     -10.6      1.679      2.445
REMARK SMILES C[N@H+](CC(C)(C)C(=O)NCCCCNC(=O)c1ccc(-c2c3nc(c(-c4cccc(S(=O)(=O)[O-])c4F)c4ccc([nH]4)c(-c4cccc(S(=O)(=O)[O-])c4F)c4nc(c(-c5cccc(S(=O)(=O)[O-])c5F)c5ccc2[nH]5)C=C4)C=C3)cc1)[C@@H]1CCCC[C@@H]1C[NH3+]
REMARK SMILES IDX 10 1 9 2 7 3 8 4 4 6 5 7 6 8 3 9 2 10 1 11 80 13 81 14 85 15
REMARK SMILES IDX 82 16 84 17 83 18 86 19 87 20 11 24 12 25 13 26 14 27 15 28
REMARK SMILES IDX 16 30 17 31 18 32 79 33 19 34 78 35 20 36 21 37 22 38 72 39
REMARK SMILES IDX 23 40 77 41 71 42 73 43 24 44 76 45 70 46 69 47 25 49 57 50
REMARK SMILES IDX 37 51 56 52 38 53 41 54 55 55 74 56 39 57 40 58 54 60 75 61
REMARK SMILES IDX 42 62 26 63 27 64 35 65 28 66 30 67 36 68 29 69 31 70 32 71
REMARK SMILES IDX 33 72 34 73 58 74 59 75 67 76 60 77 62 78 68 79 61 80 63 81
REMARK SMILES IDX 64 82 65 83 66 84 43 85 44 86 52 87 45 88 47 89 53 90 46 91
REMARK SMILES IDX 48 92 49 93 50 94 51 95
REMARK H PARENT 9 5 2 12 87 21 87 22 87 23 14 29 73 48 41 59
REMARK Flexibility Score: inf
ROOT
ATOM      1  C   UNL A   1      36.594  22.326  24.863  1.00  0.00     0.116 C 
ENDROOT
BRANCH   1   2
ATOM      2  N   UNL A   1      35.856  22.821  23.724  1.00  0.00    -0.355 N 
ATOM      3  C   UNL A   1      34.657  23.418  23.557  1.00  0.00     0.231 C 
ATOM      4  O   UNL A   1      34.316  23.531  22.369  1.00  0.00    -0.274 OA
ATOM      5  H   UNL A   1      36.339  22.695  22.875  1.00  0.00     0.163 HD
BRANCH   3   6
ATOM      6  C   UNL A   1      33.689  23.853  24.678  1.00  0.00     0.092 C 
ATOM      7  C   UNL A   1      33.861  23.347  26.116  1.00  0.00     0.027 C 
ATOM      8  C   UNL A   1      32.326  23.261  24.233  1.00  0.00     0.027 C 
BRANCH   6   9
ATOM      9  C   UNL A   1      33.634  25.437  24.681  1.00  0.00     0.278 C 
BRANCH   9  10
ATOM     10  N   UNL A   1      32.333  26.055  25.053  1.00  0.00    -0.334 N 
ATOM     11  C   UNL A   1      32.265  26.311  26.497  1.00  0.00     0.333 C 
ATOM     12  H   UNL A   1      31.652  25.335  24.812  1.00  0.00     0.348 HD
BRANCH  10  13
ATOM     13  C   UNL A   1      31.810  27.169  24.207  1.00  0.00     0.192 C 
ATOM     14  C   UNL A   1      31.642  28.532  24.958  1.00  0.00     0.065 C 
ATOM     15  C   UNL A   1      30.473  26.785  23.505  1.00  0.00     0.102 C 
ATOM     16  C   UNL A   1      30.929  29.637  24.170  1.00  0.00     0.006 C 
ATOM     17  C   UNL A   1      29.940  27.943  22.647  1.00  0.00     0.015 C 
ATOM     18  C   UNL A   1      29.653  29.170  23.493  1.00  0.00     0.001 C 
BRANCH  15  19
ATOM     19  C   UNL A   1      29.331  26.240  24.414  1.00  0.00     0.268 C 
BRANCH  19  20
ATOM     20  N   UNL A   1      27.993  26.207  23.844  1.00  0.00    -0.357 N 
ATOM     21  H   UNL A   1      27.746  27.134  23.499  1.00  0.00     0.344 HD
ATOM     22  H   UNL A   1      27.326  25.921  24.561  1.00  0.00     0.344 HD
ATOM     23  H   UNL A   1      27.969  25.539  23.073  1.00  0.00     0.344 HD
ENDBRANCH  19  20
ENDBRANCH  15  19
ENDBRANCH  10  13
ENDBRANCH   9  10
ENDBRANCH   6   9
ENDBRANCH   3   6
ENDBRANCH   1   2
BRANCH   1  24
ATOM     24  C   UNL A   1      36.414  20.822  25.016  1.00  0.00     0.023 C 
BRANCH  24  25
ATOM     25  C   UNL A   1      37.714  20.020  24.939  1.00  0.00     0.023 C 
BRANCH  25  26
ATOM     26  C   UNL A   1      38.877  20.598  25.741  1.00  0.00     0.116 C 
BRANCH  26  27
ATOM     27  N   UNL A   1      39.934  19.622  25.968  1.00  0.00    -0.352 N 
ATOM     28  C   UNL A   1      41.256  19.827  26.271  1.00  0.00     0.251 C 
ATOM     29  H   UNL A   1      39.661  18.679  25.892  1.00  0.00     0.163 HD
ATOM     30  O   UNL A   1      42.048  18.885  26.224  1.00  0.00    -0.269 OA
BRANCH  28  31
ATOM     31  C   UNL A   1      41.726  21.177  26.639  1.00  0.00     0.039 A 
ATOM     32  C   UNL A   1      42.068  22.077  25.629  1.00  0.00     0.014 A 
ATOM     33  C   UNL A   1      41.819  21.554  27.982  1.00  0.00     0.014 A 
ATOM     34  C   UNL A   1      42.450  23.377  25.965  1.00  0.00     0.010 A 
ATOM     35  C   UNL A   1      42.114  22.875  28.310  1.00  0.00     0.010 A 
ATOM     36  C   UNL A   1      42.445  23.796  27.307  1.00  0.00    -0.014 A 
BRANCH  36  37
ATOM     37  C   UNL A   1      42.778  25.197  27.671  1.00  0.00     0.031 A 
ATOM     38  C   UNL A   1      44.201  25.684  27.605  1.00  0.00     0.074 A 
ATOM     39  C   UNL A   1      41.807  26.013  28.128  1.00  0.00     0.049 A 
ATOM     40  N   UNL A   1      44.682  26.865  27.896  1.00  0.00    -0.248 NA
ATOM     41  C   UNL A   1      45.224  24.712  27.182  1.00  0.00     0.031 C 
ATOM     42  C   UNL A   1      40.404  25.635  28.319  1.00  0.00     0.029 A 
ATOM     43  N   UNL A   1      41.854  27.325  28.531  1.00  0.00    -0.354 N 
ATOM     44  C   UNL A   1      46.057  26.770  27.724  1.00  0.00     0.074 A 
ATOM     45  C   UNL A   1      46.341  25.404  27.343  1.00  0.00     0.031 C 
ATOM     46  C   UNL A   1      39.723  26.693  28.788  1.00  0.00     0.029 A 
ATOM     47  C   UNL A   1      40.642  27.813  28.961  1.00  0.00     0.049 A 
ATOM     48  H   UNL A   1      42.677  27.864  28.513  1.00  0.00     0.167 HD
ATOM     49  C   UNL A   1      46.997  27.738  27.842  1.00  0.00     0.034 A 
ATOM     50  C   UNL A   1      40.309  29.025  29.448  1.00  0.00     0.034 A 
ATOM     51  C   UNL A   1      46.707  29.102  28.190  1.00  0.00     0.049 A 
ATOM     52  C   UNL A   1      41.367  30.091  29.536  1.00  0.00     0.074 A 
ATOM     53  C   UNL A   1      47.576  30.177  28.252  1.00  0.00     0.029 A 
ATOM     54  N   UNL A   1      45.456  29.578  28.549  1.00  0.00    -0.354 N 
ATOM     55  N   UNL A   1      42.635  30.026  29.211  1.00  0.00    -0.248 NA
ATOM     56  C   UNL A   1      40.938  31.412  30.019  1.00  0.00     0.031 C 
ATOM     57  C   UNL A   1      46.857  31.296  28.683  1.00  0.00     0.029 A 
ATOM     58  C   UNL A   1      45.531  30.929  28.848  1.00  0.00     0.049 A 
ATOM     59  H   UNL A   1      44.635  29.037  28.586  1.00  0.00     0.167 HD
ATOM     60  C   UNL A   1      43.148  31.301  29.416  1.00  0.00     0.074 A 
ATOM     61  C   UNL A   1      42.046  32.125  29.868  1.00  0.00     0.031 C 
ATOM     62  C   UNL A   1      44.418  31.748  29.254  1.00  0.00     0.034 A 
BRANCH  49  63
ATOM     63  C   UNL A   1      48.428  27.364  27.549  1.00  0.00     0.023 A 
ATOM     64  C   UNL A   1      49.196  26.711  28.537  1.00  0.00     0.012 A 
ATOM     65  C   UNL A   1      48.996  27.605  26.283  1.00  0.00     0.148 A 
ATOM     66  C   UNL A   1      50.516  26.341  28.283  1.00  0.00     0.002 A 
ATOM     67  C   UNL A   1      50.296  27.187  26.021  1.00  0.00     0.091 A 
ATOM     68  F   UNL A   1      48.259  28.243  25.363  1.00  0.00    -0.205 F 
ATOM     69  C   UNL A   1      51.062  26.569  27.023  1.00  0.00     0.022 A 
BRANCH  67  70
ATOM     70  S   UNL A   1      51.062  27.357  24.405  1.00  0.00     0.127 S 
ATOM     71  O   UNL A   1      51.198  28.809  24.294  1.00  0.00    -0.237 OA
ATOM     72  O   UNL A   1      52.325  26.640  24.589  1.00  0.00    -0.237 OA
ATOM     73  O   UNL A   1      50.145  26.742  23.457  1.00  0.00    -0.744 OA
ENDBRANCH  67  70
ENDBRANCH  49  63
BRANCH  50  74
ATOM     74  C   UNL A   1      38.898  29.313  29.832  1.00  0.00     0.023 A 
ATOM     75  C   UNL A   1      38.470  29.057  31.150  1.00  0.00     0.012 A 
ATOM     76  C   UNL A   1      37.985  29.855  28.907  1.00  0.00     0.148 A 
ATOM     77  C   UNL A   1      37.149  29.299  31.529  1.00  0.00     0.002 A 
ATOM     78  C   UNL A   1      36.686  30.148  29.307  1.00  0.00     0.091 A 
ATOM     79  F   UNL A   1      38.409  30.084  27.656  1.00  0.00    -0.205 F 
ATOM     80  C   UNL A   1      36.261  29.853  30.612  1.00  0.00     0.022 A 
BRANCH  78  81
ATOM     81  S   UNL A   1      35.513  30.982  28.234  1.00  0.00     0.127 S 
ATOM     82  O   UNL A   1      35.228  29.948  27.243  1.00  0.00    -0.237 OA
ATOM     83  O   UNL A   1      34.416  31.272  29.156  1.00  0.00    -0.237 OA
ATOM     84  O   UNL A   1      36.205  32.162  27.734  1.00  0.00    -0.744 OA
ENDBRANCH  78  81
ENDBRANCH  50  74
BRANCH  62  85
ATOM     85  C   UNL A   1      44.684  33.207  29.524  1.00  0.00     0.023 A 
ATOM     86  C   UNL A   1      45.151  33.619  30.787  1.00  0.00     0.012 A 
ATOM     87  C   UNL A   1      44.526  34.163  28.500  1.00  0.00     0.148 A 
ATOM     88  C   UNL A   1      45.417  34.964  31.041  1.00  0.00     0.002 A 
ATOM     89  C   UNL A   1      44.845  35.493  28.743  1.00  0.00     0.091 A 
ATOM     90  F   UNL A   1      44.064  33.754  27.309  1.00  0.00    -0.205 F 
ATOM     91  C   UNL A   1      45.275  35.898  30.017  1.00  0.00     0.022 A 
BRANCH  89  92
ATOM     92  S   UNL A   1      44.789  36.747  27.458  1.00  0.00     0.127 S 
ATOM     93  O   UNL A   1      45.149  37.952  28.202  1.00  0.00    -0.237 OA
ATOM     94  O   UNL A   1      45.813  36.278  26.525  1.00  0.00    -0.237 OA
ATOM     95  O   UNL A   1      43.432  36.721  26.929  1.00  0.00    -0.744 OA
ENDBRANCH  89  92
ENDBRANCH  62  85
ENDBRANCH  36  37
ENDBRANCH  28  31
ENDBRANCH  26  27
ENDBRANCH  25  26
ENDBRANCH  24  25
ENDBRANCH   1  24
TORSDOF 19
ENDMDL
MODEL 3
REMARK VINA RESULT:     -10.5      1.718      2.122
REMARK SMILES C[N@H+](CC(C)(C)C(=O)NCCCCNC(=O)c1ccc(-c2c3nc(c(-c4cccc(S(=O)(=O)[O-])c4F)c4ccc([nH]4)c(-c4cccc(S(=O)(=O)[O-])c4F)c4nc(c(-c5cccc(S(=O)(=O)[O-])c5F)c5ccc2[nH]5)C=C4)C=C3)cc1)[C@@H]1CCCC[C@@H]1C[NH3+]
REMARK SMILES IDX 10 1 9 2 7 3 8 4 4 6 5 7 6 8 3 9 2 10 1 11 80 13 81 14 85 15
REMARK SMILES IDX 82 16 84 17 83 18 86 19 87 20 11 24 12 25 13 26 14 27 15 28
REMARK SMILES IDX 16 30 17 31 18 32 79 33 19 34 78 35 20 36 21 37 22 38 72 39
REMARK SMILES IDX 23 40 77 41 71 42 73 43 24 44 76 45 70 46 69 47 25 49 57 50
REMARK SMILES IDX 37 51 56 52 38 53 41 54 55 55 74 56 39 57 40 58 54 60 75 61
REMARK SMILES IDX 42 62 26 63 27 64 35 65 28 66 30 67 36 68 29 69 31 70 32 71
REMARK SMILES IDX 33 72 34 73 58 74 59 75 67 76 60 77 62 78 68 79 61 80 63 81
REMARK SMILES IDX 64 82 65 83 66 84 43 85 44 86 52 87 45 88 47 89 53 90 46 91
REMARK SMILES IDX 48 92 49 93 50 94 51 95
REMARK H PARENT 9 5 2 12 87 21 87 22 87 23 14 29 73 48 41 59
REMARK Flexibility Score: inf
ROOT
ATOM      1  C   UNL A   1      34.333  21.916  26.878  1.00  0.00     0.116 C 
ENDROOT
BRANCH   1   2
ATOM      2  N   UNL A   1      33.154  21.282  26.333  1.00  0.00    -0.355 N 
ATOM      3  C   UNL A   1      32.251  21.613  25.386  1.00  0.00     0.231 C 
ATOM      4  O   UNL A   1      31.272  20.852  25.341  1.00  0.00    -0.274 OA
ATOM      5  H   UNL A   1      32.967  20.410  26.749  1.00  0.00     0.163 HD
BRANCH   3   6
ATOM      6  C   UNL A   1      32.298  22.857  24.473  1.00  0.00     0.092 C 
ATOM      7  C   UNL A   1      31.112  23.227  23.574  1.00  0.00     0.027 C 
ATOM      8  C   UNL A   1      33.440  22.534  23.474  1.00  0.00     0.027 C 
BRANCH   6   9
ATOM      9  C   UNL A   1      32.683  24.103  25.374  1.00  0.00     0.278 C 
BRANCH   9  10
ATOM     10  N   UNL A   1      32.061  25.403  25.010  1.00  0.00    -0.334 N 
ATOM     11  C   UNL A   1      31.107  25.838  26.038  1.00  0.00     0.333 C 
ATOM     12  H   UNL A   1      31.549  25.189  24.154  1.00  0.00     0.348 HD
BRANCH  10  13
ATOM     13  C   UNL A   1      32.943  26.491  24.492  1.00  0.00     0.192 C 
ATOM     14  C   UNL A   1      32.544  27.931  24.963  1.00  0.00     0.065 C 
ATOM     15  C   UNL A   1      33.056  26.456  22.939  1.00  0.00     0.102 C 
ATOM     16  C   UNL A   1      33.310  29.078  24.296  1.00  0.00     0.006 C 
ATOM     17  C   UNL A   1      33.957  27.588  22.419  1.00  0.00     0.015 C 
ATOM     18  C   UNL A   1      33.399  28.950  22.786  1.00  0.00     0.001 C 
BRANCH  15  19
ATOM     19  C   UNL A   1      31.722  26.441  22.135  1.00  0.00     0.268 C 
BRANCH  19  20
ATOM     20  N   UNL A   1      31.778  25.939  20.771  1.00  0.00    -0.357 N 
ATOM     21  H   UNL A   1      30.831  25.829  20.410  1.00  0.00     0.344 HD
ATOM     22  H   UNL A   1      32.253  25.037  20.760  1.00  0.00     0.344 HD
ATOM     23  H   UNL A   1      32.290  26.600  20.187  1.00  0.00     0.344 HD
ENDBRANCH  19  20
ENDBRANCH  15  19
ENDBRANCH  10  13
ENDBRANCH   9  10
ENDBRANCH   6   9
ENDBRANCH   3   6
ENDBRANCH   1   2
BRANCH   1  24
ATOM     24  C   UNL A   1      35.594  21.391  26.204  1.00  0.00     0.023 C 
BRANCH  24  25
ATOM     25  C   UNL A   1      36.370  22.444  25.411  1.00  0.00     0.023 C 
BRANCH  25  26
ATOM     26  C   UNL A   1      37.567  21.910  24.630  1.00  0.00     0.116 C 
BRANCH  26  27
ATOM     27  N   UNL A   1      38.279  20.864  25.352  1.00  0.00    -0.352 N 
ATOM     28  C   UNL A   1      39.375  20.963  26.169  1.00  0.00     0.251 C 
ATOM     29  H   UNL A   1      37.921  19.954  25.237  1.00  0.00     0.163 HD
ATOM     30  O   UNL A   1      39.966  19.944  26.530  1.00  0.00    -0.269 OA
BRANCH  28  31
ATOM     31  C   UNL A   1      39.852  22.292  26.602  1.00  0.00     0.039 A 
ATOM     32  C   UNL A   1      40.803  22.374  27.621  1.00  0.00     0.014 A 
ATOM     33  C   UNL A   1      39.365  23.453  25.996  1.00  0.00     0.014 A 
ATOM     34  C   UNL A   1      41.308  23.621  27.991  1.00  0.00     0.010 A 
ATOM     35  C   UNL A   1      39.934  24.685  26.305  1.00  0.00     0.010 A 
ATOM     36  C   UNL A   1      40.902  24.784  27.314  1.00  0.00    -0.014 A 
BRANCH  36  37
ATOM     37  C   UNL A   1      41.487  26.108  27.649  1.00  0.00     0.031 A 
ATOM     38  C   UNL A   1      42.910  26.428  27.278  1.00  0.00     0.074 A 
ATOM     39  C   UNL A   1      40.756  26.999  28.349  1.00  0.00     0.049 A 
ATOM     40  N   UNL A   1      43.592  27.522  27.499  1.00  0.00    -0.248 NA
ATOM     41  C   UNL A   1      43.678  25.376  26.592  1.00  0.00     0.031 C 
ATOM     42  C   UNL A   1      39.394  26.775  28.842  1.00  0.00     0.029 A 
ATOM     43  N   UNL A   1      41.061  28.265  28.784  1.00  0.00    -0.354 N 
ATOM     44  C   UNL A   1      44.871  27.279  27.012  1.00  0.00     0.074 A 
ATOM     45  C   UNL A   1      44.883  25.919  26.520  1.00  0.00     0.031 C 
ATOM     46  C   UNL A   1      38.978  27.870  29.497  1.00  0.00     0.029 A 
ATOM     47  C   UNL A   1      40.049  28.860  29.501  1.00  0.00     0.049 A 
ATOM     48  H   UNL A   1      41.922  28.704  28.599  1.00  0.00     0.167 HD
ATOM     49  C   UNL A   1      45.930  28.120  26.950  1.00  0.00     0.034 A 
ATOM     50  C   UNL A   1      39.993  30.067  30.099  1.00  0.00     0.034 A 
ATOM     51  C   UNL A   1      45.904  29.482  27.410  1.00  0.00     0.049 A 
ATOM     52  C   UNL A   1      41.173  30.993  29.985  1.00  0.00     0.074 A 
ATOM     53  C   UNL A   1      46.897  30.441  27.315  1.00  0.00     0.029 A 
ATOM     54  N   UNL A   1      44.838  30.075  28.066  1.00  0.00    -0.354 N 
ATOM     55  N   UNL A   1      42.317  30.802  29.376  1.00  0.00    -0.248 NA
ATOM     56  C   UNL A   1      41.037  32.319  30.607  1.00  0.00     0.031 C 
ATOM     57  C   UNL A   1      46.443  31.604  27.945  1.00  0.00     0.029 A 
ATOM     58  C   UNL A   1      45.151  31.384  28.394  1.00  0.00     0.049 A 
ATOM     59  H   UNL A   1      43.982  29.632  28.269  1.00  0.00     0.167 HD
ATOM     60  C   UNL A   1      43.023  31.992  29.509  1.00  0.00     0.074 A 
ATOM     61  C   UNL A   1      42.167  32.906  30.235  1.00  0.00     0.031 C 
ATOM     62  C   UNL A   1      44.272  32.298  29.078  1.00  0.00     0.034 A 
BRANCH  49  63
ATOM     63  C   UNL A   1      47.200  27.602  26.322  1.00  0.00     0.023 A 
ATOM     64  C   UNL A   1      47.471  27.877  24.965  1.00  0.00     0.012 A 
ATOM     65  C   UNL A   1      48.150  26.895  27.084  1.00  0.00     0.148 A 
ATOM     66  C   UNL A   1      48.646  27.423  24.367  1.00  0.00     0.002 A 
ATOM     67  C   UNL A   1      49.341  26.489  26.494  1.00  0.00     0.091 A 
ATOM     68  F   UNL A   1      47.868  26.625  28.367  1.00  0.00    -0.205 F 
ATOM     69  C   UNL A   1      49.585  26.739  25.134  1.00  0.00     0.022 A 
BRANCH  67  70
ATOM     70  S   UNL A   1      50.652  25.677  27.415  1.00  0.00     0.127 S 
ATOM     71  O   UNL A   1      50.921  26.654  28.470  1.00  0.00    -0.237 OA
ATOM     72  O   UNL A   1      49.992  24.453  27.872  1.00  0.00    -0.237 OA
ATOM     73  O   UNL A   1      51.739  25.466  26.470  1.00  0.00    -0.744 OA
ENDBRANCH  67  70
ENDBRANCH  49  63
BRANCH  50  74
ATOM     74  C   UNL A   1      38.752  30.491  30.809  1.00  0.00     0.023 A 
ATOM     75  C   UNL A   1      38.617  30.233  32.187  1.00  0.00     0.012 A 
ATOM     76  C   UNL A   1      37.717  31.163  30.132  1.00  0.00     0.148 A 
ATOM     77  C   UNL A   1      37.457  30.601  32.869  1.00  0.00     0.002 A 
ATOM     78  C   UNL A   1      36.589  31.579  30.830  1.00  0.00     0.091 A 
ATOM     79  F   UNL A   1      37.861  31.392  28.819  1.00  0.00    -0.205 F 
ATOM     80  C   UNL A   1      36.448  31.282  32.194  1.00  0.00     0.022 A 
BRANCH  78  81
ATOM     81  S   UNL A   1      35.301  32.575  30.073  1.00  0.00     0.127 S 
ATOM     82  O   UNL A   1      36.065  33.709  29.558  1.00  0.00    -0.237 OA
ATOM     83  O   UNL A   1      34.781  31.668  29.051  1.00  0.00    -0.237 OA
ATOM     84  O   UNL A   1      34.359  32.881  31.141  1.00  0.00    -0.744 OA
ENDBRANCH  78  81
ENDBRANCH  50  74
BRANCH  62  85
ATOM     85  C   UNL A   1      44.779  33.694  29.339  1.00  0.00     0.023 A 
ATOM     86  C   UNL A   1      45.393  34.005  30.568  1.00  0.00     0.012 A 
ATOM     87  C   UNL A   1      44.697  34.681  28.336  1.00  0.00     0.148 A 
ATOM     88  C   UNL A   1      45.880  35.289  30.811  1.00  0.00     0.002 A 
ATOM     89  C   UNL A   1      45.233  35.942  28.566  1.00  0.00     0.091 A 
ATOM     90  F   UNL A   1      44.093  34.371  27.180  1.00  0.00    -0.205 F 
ATOM     91  C   UNL A   1      45.811  36.252  29.807  1.00  0.00     0.022 A 
BRANCH  89  92
ATOM     92  S   UNL A   1      45.280  37.214  27.298  1.00  0.00     0.127 S 
ATOM     93  O   UNL A   1      45.952  38.307  27.997  1.00  0.00    -0.237 OA
ATOM     94  O   UNL A   1      46.079  36.577  26.251  1.00  0.00    -0.237 OA
ATOM     95  O   UNL A   1      43.893  37.466  26.930  1.00  0.00    -0.744 OA
ENDBRANCH  89  92
ENDBRANCH  62  85
ENDBRANCH  36  37
ENDBRANCH  28  31
ENDBRANCH  26  27
ENDBRANCH  25  26
ENDBRANCH  24  25
ENDBRANCH   1  24
TORSDOF 19
ENDMDL
