MODEL 1
REMARK VINA RESULT:     -12.8      0.000      0.000
REMARK SMILES Cc1c(CC(=O)NCCCCNC(=O)c2ccc(-c3c4nc(c(-c5cccc(S(=O)(=O)[O-])c5F)c5ccc([nH]5)c(-c5cccc(S(=O)(=O)[O-])c5F)c5nc(c(-c6cccc(S(=O)(=O)[O-])c6F)c6ccc3[nH]6)C=C5)C=C4)cc2)cccc1-c1ccn(C(F)F)c(=O)c1
REMARK SMILES IDX 9 1 8 2 7 3 5 4 6 5 4 7 3 8 1 9 2 10 81 11 78 12 80 13 79 14
REMARK SMILES IDX 82 15 83 16 91 17 84 18 89 19 85 20 90 21 86 22 87 23 88 24
REMARK SMILES IDX 10 25 11 26 12 27 13 28 14 30 15 31 16 32 77 33 17 34 76 35
REMARK SMILES IDX 18 36 19 37 20 38 70 39 21 40 75 41 69 42 71 43 22 44 74 45
REMARK SMILES IDX 68 46 67 47 23 49 55 50 35 51 54 52 36 53 39 54 53 55 72 56
REMARK SMILES IDX 37 57 38 58 52 60 73 61 40 62 24 63 25 64 33 65 26 66 28 67
REMARK SMILES IDX 34 68 27 69 29 70 30 71 31 72 32 73 56 74 57 75 65 76 58 77
REMARK SMILES IDX 60 78 66 79 59 80 61 81 62 82 63 83 64 84 41 85 42 86 50 87
REMARK SMILES IDX 43 88 45 89 51 90 44 91 46 92 47 93 48 94 49 95
REMARK H PARENT 7 6 12 29 71 48 39 59
REMARK Flexibility Score: inf
ROOT
ATOM      1  C   UNL A   1      32.016  29.854  25.762  1.00  0.00     0.023 C 
ENDROOT
BRANCH   1   2
ATOM      2  C   UNL A   1      31.651  29.476  24.318  1.00  0.00     0.116 C 
BRANCH   2   3
ATOM      3  N   UNL A   1      32.807  29.391  23.441  1.00  0.00    -0.356 N 
ATOM      4  C   UNL A   1      33.330  28.314  22.788  1.00  0.00     0.224 C 
ATOM      5  O   UNL A   1      34.352  28.474  22.113  1.00  0.00    -0.275 OA
ATOM      6  H   UNL A   1      33.285  30.240  23.297  1.00  0.00     0.163 HD
BRANCH   4   7
ATOM      7  C   UNL A   1      32.652  26.950  22.854  1.00  0.00     0.135 C 
BRANCH   7   8
ATOM      8  C   UNL A   1      33.306  25.982  23.823  1.00  0.00    -0.035 A 
ATOM      9  C   UNL A   1      33.169  24.052  22.168  1.00  0.00     0.045 C 
ATOM     10  C   UNL A   1      33.462  24.598  23.549  1.00  0.00    -0.040 A 
ATOM     11  C   UNL A   1      33.923  23.746  24.586  1.00  0.00    -0.015 A 
ATOM     12  C   UNL A   1      33.704  26.494  25.075  1.00  0.00     0.004 A 
ATOM     13  C   UNL A   1      34.277  24.287  25.836  1.00  0.00     0.009 A 
ATOM     14  C   UNL A   1      34.184  25.654  26.073  1.00  0.00     0.001 A 
BRANCH  11  15
ATOM     15  C   UNL A   1      33.980  22.275  24.429  1.00  0.00    -0.011 A 
ATOM     16  C   UNL A   1      32.840  21.479  24.019  1.00  0.00     0.027 A 
ATOM     17  C   UNL A   1      35.125  21.652  24.767  1.00  0.00     0.080 A 
ATOM     18  C   UNL A   1      32.890  20.143  24.079  1.00  0.00     0.095 A 
ATOM     19  C   UNL A   1      35.222  20.167  24.746  1.00  0.00     0.255 A 
ATOM     20  N   UNL A   1      34.047  19.491  24.462  1.00  0.00    -0.258 N 
ATOM     21  O   UNL A   1      36.304  19.645  24.988  1.00  0.00    -0.269 OA
BRANCH  20  22
ATOM     22  C   UNL A   1      34.082  18.055  24.561  1.00  0.00     0.451 C 
ATOM     23  F   UNL A   1      32.907  17.568  25.032  1.00  0.00    -0.185 F 
ATOM     24  F   UNL A   1      34.326  17.485  23.358  1.00  0.00    -0.185 F 
ENDBRANCH  20  22
ENDBRANCH  11  15
ENDBRANCH   7   8
ENDBRANCH   4   7
ENDBRANCH   2   3
ENDBRANCH   1   2
BRANCH   1  25
ATOM     25  C   UNL A   1      33.496  30.142  26.010  1.00  0.00     0.023 C 
BRANCH  25  26
ATOM     26  C   UNL A   1      33.795  30.531  27.445  1.00  0.00     0.116 C 
BRANCH  26  27
ATOM     27  N   UNL A   1      34.795  31.568  27.595  1.00  0.00    -0.352 N 
ATOM     28  C   UNL A   1      36.087  31.489  28.096  1.00  0.00     0.251 C 
ATOM     29  H   UNL A   1      34.516  32.463  27.298  1.00  0.00     0.163 HD
ATOM     30  O   UNL A   1      36.641  32.525  28.408  1.00  0.00    -0.269 OA
BRANCH  28  31
ATOM     31  C   UNL A   1      36.828  30.190  28.101  1.00  0.00     0.039 A 
ATOM     32  C   UNL A   1      36.908  29.490  29.315  1.00  0.00     0.014 A 
ATOM     33  C   UNL A   1      37.627  29.789  27.037  1.00  0.00     0.014 A 
ATOM     34  C   UNL A   1      37.961  28.604  29.539  1.00  0.00     0.010 A 
ATOM     35  C   UNL A   1      38.743  29.027  27.290  1.00  0.00     0.010 A 
ATOM     36  C   UNL A   1      38.938  28.485  28.561  1.00  0.00    -0.014 A 
BRANCH  36  37
ATOM     37  C   UNL A   1      40.232  27.858  28.738  1.00  0.00     0.031 A 
ATOM     38  C   UNL A   1      40.381  26.411  28.508  1.00  0.00     0.074 A 
ATOM     39  C   UNL A   1      41.310  28.667  28.838  1.00  0.00     0.049 A 
ATOM     40  N   UNL A   1      41.382  25.717  28.921  1.00  0.00    -0.248 NA
ATOM     41  C   UNL A   1      39.383  25.629  27.787  1.00  0.00     0.031 C 
ATOM     42  C   UNL A   1      42.699  28.332  28.552  1.00  0.00     0.029 A 
ATOM     43  N   UNL A   1      41.375  29.944  29.404  1.00  0.00    -0.354 N 
ATOM     44  C   UNL A   1      41.307  24.486  28.304  1.00  0.00     0.074 A 
ATOM     45  C   UNL A   1      40.009  24.453  27.674  1.00  0.00     0.031 C 
ATOM     46  C   UNL A   1      43.491  29.222  29.171  1.00  0.00     0.029 A 
ATOM     47  C   UNL A   1      42.635  30.037  30.018  1.00  0.00     0.049 A 
ATOM     48  H   UNL A   1      40.677  30.639  29.377  1.00  0.00     0.167 HD
ATOM     49  C   UNL A   1      42.419  23.703  28.251  1.00  0.00     0.034 A 
ATOM     50  C   UNL A   1      42.813  30.243  31.355  1.00  0.00     0.034 A 
ATOM     51  C   UNL A   1      43.551  24.369  28.908  1.00  0.00     0.049 A 
ATOM     52  C   UNL A   1      43.606  29.133  32.020  1.00  0.00     0.074 A 
ATOM     53  C   UNL A   1      44.578  25.154  28.408  1.00  0.00     0.029 A 
ATOM     54  N   UNL A   1      43.560  24.535  30.286  1.00  0.00    -0.354 N 
ATOM     55  N   UNL A   1      43.891  27.997  31.447  1.00  0.00    -0.248 NA
ATOM     56  C   UNL A   1      44.122  29.202  33.384  1.00  0.00     0.031 C 
ATOM     57  C   UNL A   1      45.167  25.848  29.493  1.00  0.00     0.029 A 
ATOM     58  C   UNL A   1      44.518  25.467  30.655  1.00  0.00     0.049 A 
ATOM     59  H   UNL A   1      42.969  24.058  30.912  1.00  0.00     0.167 HD
ATOM     60  C   UNL A   1      44.481  27.150  32.349  1.00  0.00     0.074 A 
ATOM     61  C   UNL A   1      44.672  27.981  33.525  1.00  0.00     0.031 C 
ATOM     62  C   UNL A   1      44.702  25.829  32.057  1.00  0.00     0.034 A 
BRANCH  49  63
ATOM     63  C   UNL A   1      42.602  22.520  27.315  1.00  0.00     0.023 A 
ATOM     64  C   UNL A   1      41.840  21.361  27.590  1.00  0.00     0.012 A 
ATOM     65  C   UNL A   1      43.491  22.431  26.221  1.00  0.00     0.148 A 
ATOM     66  C   UNL A   1      42.028  20.153  26.913  1.00  0.00     0.002 A 
ATOM     67  C   UNL A   1      43.727  21.208  25.583  1.00  0.00     0.091 A 
ATOM     68  F   UNL A   1      44.059  23.540  25.735  1.00  0.00    -0.205 F 
ATOM     69  C   UNL A   1      43.001  20.065  25.932  1.00  0.00     0.022 A 
BRANCH  67  70
ATOM     70  S   UNL A   1      45.028  20.987  24.355  1.00  0.00     0.127 S 
ATOM     71  O   UNL A   1      44.968  19.547  24.094  1.00  0.00    -0.237 OA
ATOM     72  O   UNL A   1      44.564  21.822  23.250  1.00  0.00    -0.237 OA
ATOM     73  O   UNL A   1      46.263  21.419  24.998  1.00  0.00    -0.744 OA
ENDBRANCH  67  70
ENDBRANCH  49  63
BRANCH  50  74
ATOM     74  C   UNL A   1      41.702  31.012  31.994  1.00  0.00     0.023 A 
ATOM     75  C   UNL A   1      41.485  32.331  31.526  1.00  0.00     0.012 A 
ATOM     76  C   UNL A   1      40.666  30.358  32.684  1.00  0.00     0.148 A 
ATOM     77  C   UNL A   1      40.225  32.923  31.611  1.00  0.00     0.002 A 
ATOM     78  C   UNL A   1      39.410  30.958  32.765  1.00  0.00     0.091 A 
ATOM     79  F   UNL A   1      40.896  29.132  33.172  1.00  0.00    -0.205 F 
ATOM     80  C   UNL A   1      39.176  32.219  32.194  1.00  0.00     0.022 A 
BRANCH  78  81
ATOM     81  S   UNL A   1      38.004  30.085  33.473  1.00  0.00     0.127 S 
ATOM     82  O   UNL A   1      38.196  28.741  32.939  1.00  0.00    -0.237 OA
ATOM     83  O   UNL A   1      38.235  30.219  34.909  1.00  0.00    -0.237 OA
ATOM     84  O   UNL A   1      36.839  30.813  32.991  1.00  0.00    -0.744 OA
ENDBRANCH  78  81
ENDBRANCH  50  74
BRANCH  62  85
ATOM     85  C   UNL A   1      45.105  24.748  33.045  1.00  0.00     0.023 A 
ATOM     86  C   UNL A   1      44.282  23.645  33.337  1.00  0.00     0.012 A 
ATOM     87  C   UNL A   1      46.412  24.724  33.604  1.00  0.00     0.148 A 
ATOM     88  C   UNL A   1      44.704  22.603  34.172  1.00  0.00     0.002 A 
ATOM     89  C   UNL A   1      46.867  23.629  34.334  1.00  0.00     0.091 A 
ATOM     90  F   UNL A   1      47.227  25.779  33.452  1.00  0.00    -0.205 F 
ATOM     91  C   UNL A   1      46.006  22.580  34.648  1.00  0.00     0.022 A 
BRANCH  89  92
ATOM     92  S   UNL A   1      48.611  23.461  34.746  1.00  0.00     0.127 S 
ATOM     93  O   UNL A   1      48.761  22.013  34.858  1.00  0.00    -0.237 OA
ATOM     94  O   UNL A   1      49.271  24.053  33.580  1.00  0.00    -0.237 OA
ATOM     95  O   UNL A   1      48.779  24.227  35.974  1.00  0.00    -0.744 OA
ENDBRANCH  89  92
ENDBRANCH  62  85
ENDBRANCH  36  37
ENDBRANCH  28  31
ENDBRANCH  26  27
ENDBRANCH  25  26
ENDBRANCH   1  25
TORSDOF 17
ENDMDL
MODEL 2
REMARK VINA RESULT:     -12.3      1.746      2.374
REMARK SMILES Cc1c(CC(=O)NCCCCNC(=O)c2ccc(-c3c4nc(c(-c5cccc(S(=O)(=O)[O-])c5F)c5ccc([nH]5)c(-c5cccc(S(=O)(=O)[O-])c5F)c5nc(c(-c6cccc(S(=O)(=O)[O-])c6F)c6ccc3[nH]6)C=C5)C=C4)cc2)cccc1-c1ccn(C(F)F)c(=O)c1
REMARK SMILES IDX 9 1 8 2 7 3 5 4 6 5 4 7 3 8 1 9 2 10 81 11 78 12 80 13 79 14
REMARK SMILES IDX 82 15 83 16 91 17 84 18 89 19 85 20 90 21 86 22 87 23 88 24
REMARK SMILES IDX 10 25 11 26 12 27 13 28 14 30 15 31 16 32 77 33 17 34 76 35
REMARK SMILES IDX 18 36 19 37 20 38 70 39 21 40 75 41 69 42 71 43 22 44 74 45
REMARK SMILES IDX 68 46 67 47 23 49 55 50 35 51 54 52 36 53 39 54 53 55 72 56
REMARK SMILES IDX 37 57 38 58 52 60 73 61 40 62 24 63 25 64 33 65 26 66 28 67
REMARK SMILES IDX 34 68 27 69 29 70 30 71 31 72 32 73 56 74 57 75 65 76 58 77
REMARK SMILES IDX 60 78 66 79 59 80 61 81 62 82 63 83 64 84 41 85 42 86 50 87
REMARK SMILES IDX 43 88 45 89 51 90 44 91 46 92 47 93 48 94 49 95
REMARK H PARENT 7 6 12 29 71 48 39 59
REMARK Flexibility Score: inf
ROOT
ATOM      1  C   UNL A   1      31.772  29.581  26.047  1.00  0.00     0.023 C 
ENDROOT
BRANCH   1   2
ATOM      2  C   UNL A   1      32.040  29.445  24.540  1.00  0.00     0.116 C 
BRANCH   2   3
ATOM      3  N   UNL A   1      30.826  29.458  23.741  1.00  0.00    -0.356 N 
ATOM      4  C   UNL A   1      29.948  28.449  23.470  1.00  0.00     0.224 C 
ATOM      5  O   UNL A   1      28.989  28.688  22.730  1.00  0.00    -0.275 OA
ATOM      6  H   UNL A   1      30.603  30.327  23.335  1.00  0.00     0.163 HD
BRANCH   4   7
ATOM      7  C   UNL A   1      30.121  27.069  24.093  1.00  0.00     0.135 C 
BRANCH   7   8
ATOM      8  C   UNL A   1      31.163  26.207  23.402  1.00  0.00    -0.035 A 
ATOM      9  C   UNL A   1      31.765  25.003  25.564  1.00  0.00     0.045 C 
ATOM     10  C   UNL A   1      32.009  25.306  24.101  1.00  0.00    -0.040 A 
ATOM     11  C   UNL A   1      33.067  24.678  23.393  1.00  0.00    -0.015 A 
ATOM     12  C   UNL A   1      31.325  26.381  22.013  1.00  0.00     0.004 A 
ATOM     13  C   UNL A   1      33.221  24.903  22.013  1.00  0.00     0.009 A 
ATOM     14  C   UNL A   1      32.345  25.736  21.324  1.00  0.00     0.001 A 
BRANCH  11  15
ATOM     15  C   UNL A   1      34.077  23.837  24.073  1.00  0.00    -0.011 A 
ATOM     16  C   UNL A   1      35.316  24.367  24.610  1.00  0.00     0.027 A 
ATOM     17  C   UNL A   1      33.863  22.509  24.113  1.00  0.00     0.080 A 
ATOM     18  C   UNL A   1      36.276  23.540  25.040  1.00  0.00     0.095 A 
ATOM     19  C   UNL A   1      34.886  21.585  24.677  1.00  0.00     0.255 A 
ATOM     20  N   UNL A   1      36.085  22.172  25.050  1.00  0.00    -0.258 N 
ATOM     21  O   UNL A   1      34.618  20.393  24.763  1.00  0.00    -0.269 OA
BRANCH  20  22
ATOM     22  C   UNL A   1      37.137  21.286  25.477  1.00  0.00     0.451 C 
ATOM     23  F   UNL A   1      37.668  20.614  24.427  1.00  0.00    -0.185 F 
ATOM     24  F   UNL A   1      38.132  21.967  26.093  1.00  0.00    -0.185 F 
ENDBRANCH  20  22
ENDBRANCH  11  15
ENDBRANCH   7   8
ENDBRANCH   4   7
ENDBRANCH   2   3
ENDBRANCH   1   2
BRANCH   1  25
ATOM     25  C   UNL A   1      32.416  30.792  26.720  1.00  0.00     0.023 C 
BRANCH  25  26
ATOM     26  C   UNL A   1      33.579  30.424  27.622  1.00  0.00     0.116 C 
BRANCH  26  27
ATOM     27  N   UNL A   1      34.428  31.535  27.997  1.00  0.00    -0.352 N 
ATOM     28  C   UNL A   1      35.671  31.532  28.618  1.00  0.00     0.251 C 
ATOM     29  H   UNL A   1      34.071  32.426  27.781  1.00  0.00     0.163 HD
ATOM     30  O   UNL A   1      36.065  32.573  29.106  1.00  0.00    -0.269 OA
BRANCH  28  31
ATOM     31  C   UNL A   1      36.559  30.331  28.545  1.00  0.00     0.039 A 
ATOM     32  C   UNL A   1      36.786  29.617  29.731  1.00  0.00     0.014 A 
ATOM     33  C   UNL A   1      37.342  30.056  27.430  1.00  0.00     0.014 A 
ATOM     34  C   UNL A   1      37.947  28.857  29.875  1.00  0.00     0.010 A 
ATOM     35  C   UNL A   1      38.552  29.427  27.604  1.00  0.00     0.010 A 
ATOM     36  C   UNL A   1      38.878  28.881  28.846  1.00  0.00    -0.014 A 
BRANCH  36  37
ATOM     37  C   UNL A   1      40.244  28.409  28.938  1.00  0.00     0.031 A 
ATOM     38  C   UNL A   1      40.552  26.998  28.650  1.00  0.00     0.074 A 
ATOM     39  C   UNL A   1      41.223  29.339  29.014  1.00  0.00     0.049 A 
ATOM     40  N   UNL A   1      41.649  26.418  28.991  1.00  0.00    -0.248 NA
ATOM     41  C   UNL A   1      39.618  26.123  27.951  1.00  0.00     0.031 C 
ATOM     42  C   UNL A   1      42.624  29.182  28.651  1.00  0.00     0.029 A 
ATOM     43  N   UNL A   1      41.164  30.597  29.621  1.00  0.00    -0.354 N 
ATOM     44  C   UNL A   1      41.688  25.205  28.335  1.00  0.00     0.074 A 
ATOM     45  C   UNL A   1      40.372  25.035  27.767  1.00  0.00     0.031 C 
ATOM     46  C   UNL A   1      43.337  30.142  29.262  1.00  0.00     0.029 A 
ATOM     47  C   UNL A   1      42.435  30.823  30.177  1.00  0.00     0.049 A 
ATOM     48  H   UNL A   1      40.389  31.204  29.653  1.00  0.00     0.167 HD
ATOM     49  C   UNL A   1      42.882  24.563  28.201  1.00  0.00     0.034 A 
ATOM     50  C   UNL A   1      42.656  31.010  31.511  1.00  0.00     0.034 A 
ATOM     51  C   UNL A   1      43.959  25.342  28.825  1.00  0.00     0.049 A 
ATOM     52  C   UNL A   1      43.609  29.985  32.098  1.00  0.00     0.074 A 
ATOM     53  C   UNL A   1      44.858  26.259  28.304  1.00  0.00     0.029 A 
ATOM     54  N   UNL A   1      44.020  25.467  30.206  1.00  0.00    -0.354 N 
ATOM     55  N   UNL A   1      43.996  28.909  31.472  1.00  0.00    -0.248 NA
ATOM     56  C   UNL A   1      44.183  30.075  33.437  1.00  0.00     0.031 C 
ATOM     57  C   UNL A   1      45.416  26.987  29.384  1.00  0.00     0.029 A 
ATOM     58  C   UNL A   1      44.878  26.496  30.562  1.00  0.00     0.049 A 
ATOM     59  H   UNL A   1      43.522  24.904  30.843  1.00  0.00     0.167 HD
ATOM     60  C   UNL A   1      44.729  28.112  32.313  1.00  0.00     0.074 A 
ATOM     61  C   UNL A   1      44.880  28.926  33.508  1.00  0.00     0.031 C 
ATOM     62  C   UNL A   1      45.090  26.837  31.965  1.00  0.00     0.034 A 
BRANCH  49  63
ATOM     63  C   UNL A   1      43.154  23.440  27.216  1.00  0.00     0.023 A 
ATOM     64  C   UNL A   1      43.867  23.775  26.041  1.00  0.00     0.012 A 
ATOM     65  C   UNL A   1      42.729  22.096  27.319  1.00  0.00     0.148 A 
ATOM     66  C   UNL A   1      44.044  22.881  24.982  1.00  0.00     0.002 A 
ATOM     67  C   UNL A   1      42.848  21.217  26.236  1.00  0.00     0.091 A 
ATOM     68  F   UNL A   1      42.276  21.631  28.489  1.00  0.00    -0.205 F 
ATOM     69  C   UNL A   1      43.499  21.610  25.063  1.00  0.00     0.022 A 
BRANCH  67  70
ATOM     70  S   UNL A   1      42.101  19.578  26.228  1.00  0.00     0.127 S 
ATOM     71  O   UNL A   1      40.674  19.887  26.109  1.00  0.00    -0.237 OA
ATOM     72  O   UNL A   1      42.689  18.967  25.039  1.00  0.00    -0.237 OA
ATOM     73  O   UNL A   1      42.467  18.965  27.500  1.00  0.00    -0.744 OA
ENDBRANCH  67  70
ENDBRANCH  49  63
BRANCH  50  74
ATOM     74  C   UNL A   1      41.496  31.621  32.229  1.00  0.00     0.023 A 
ATOM     75  C   UNL A   1      41.148  32.946  31.871  1.00  0.00     0.012 A 
ATOM     76  C   UNL A   1      40.543  30.822  32.884  1.00  0.00     0.148 A 
ATOM     77  C   UNL A   1      39.841  33.409  32.026  1.00  0.00     0.002 A 
ATOM     78  C   UNL A   1      39.240  31.294  33.036  1.00  0.00     0.091 A 
ATOM     79  F   UNL A   1      40.897  29.589  33.270  1.00  0.00    -0.205 F 
ATOM     80  C   UNL A   1      38.877  32.568  32.571  1.00  0.00     0.022 A 
BRANCH  78  81
ATOM     81  S   UNL A   1      37.939  30.242  33.699  1.00  0.00     0.127 S 
ATOM     82  O   UNL A   1      38.114  30.430  35.135  1.00  0.00    -0.237 OA
ATOM     83  O   UNL A   1      36.728  30.841  33.140  1.00  0.00    -0.237 OA
ATOM     84  O   UNL A   1      38.237  28.916  33.179  1.00  0.00    -0.744 OA
ENDBRANCH  78  81
ENDBRANCH  50  74
BRANCH  62  85
ATOM     85  C   UNL A   1      45.669  25.784  32.894  1.00  0.00     0.023 A 
ATOM     86  C   UNL A   1      44.946  24.643  33.289  1.00  0.00     0.012 A 
ATOM     87  C   UNL A   1      47.036  25.829  33.282  1.00  0.00     0.148 A 
ATOM     88  C   UNL A   1      45.523  23.629  34.063  1.00  0.00     0.002 A 
ATOM     89  C   UNL A   1      47.635  24.763  33.948  1.00  0.00     0.091 A 
ATOM     90  F   UNL A   1      47.772  26.922  33.026  1.00  0.00    -0.205 F 
ATOM     91  C   UNL A   1      46.875  23.674  34.369  1.00  0.00     0.022 A 
BRANCH  89  92
ATOM     92  S   UNL A   1      49.424  24.684  34.134  1.00  0.00     0.127 S 
ATOM     93  O   UNL A   1      49.771  26.084  34.359  1.00  0.00    -0.237 OA
ATOM     94  O   UNL A   1      49.583  23.822  35.307  1.00  0.00    -0.237 OA
ATOM     95  O   UNL A   1      49.900  24.090  32.891  1.00  0.00    -0.744 OA
ENDBRANCH  89  92
ENDBRANCH  62  85
ENDBRANCH  36  37
ENDBRANCH  28  31
ENDBRANCH  26  27
ENDBRANCH  25  26
ENDBRANCH   1  25
TORSDOF 17
ENDMDL
MODEL 3
REMARK VINA RESULT:     -12.2      3.130      4.265
REMARK SMILES Cc1c(CC(=O)NCCCCNC(=O)c2ccc(-c3c4nc(c(-c5cccc(S(=O)(=O)[O-])c5F)c5ccc([nH]5)c(-c5cccc(S(=O)(=O)[O-])c5F)c5nc(c(-c6cccc(S(=O)(=O)[O-])c6F)c6ccc3[nH]6)C=C5)C=C4)cc2)cccc1-c1ccn(C(F)F)c(=O)c1
REMARK SMILES IDX 9 1 8 2 7 3 5 4 6 5 4 7 3 8 1 9 2 10 81 11 78 12 80 13 79 14
REMARK SMILES IDX 82 15 83 16 91 17 84 18 89 19 85 20 90 21 86 22 87 23 88 24
REMARK SMILES IDX 10 25 11 26 12 27 13 28 14 30 15 31 16 32 77 33 17 34 76 35
REMARK SMILES IDX 18 36 19 37 20 38 70 39 21 40 75 41 69 42 71 43 22 44 74 45
REMARK SMILES IDX 68 46 67 47 23 49 55 50 35 51 54 52 36 53 39 54 53 55 72 56
REMARK SMILES IDX 37 57 38 58 52 60 73 61 40 62 24 63 25 64 33 65 26 66 28 67
REMARK SMILES IDX 34 68 27 69 29 70 30 71 31 72 32 73 56 74 57 75 65 76 58 77
REMARK SMILES IDX 60 78 66 79 59 80 61 81 62 82 63 83 64 84 41 85 42 86 50 87
REMARK SMILES IDX 43 88 45 89 51 90 44 91 46 92 47 93 48 94 49 95
REMARK H PARENT 7 6 12 29 71 48 39 59
REMARK Flexibility Score: inf
ROOT
ATOM      1  C   UNL A   1      32.488  30.430  26.714  1.00  0.00     0.023 C 
ENDROOT
BRANCH   1   2
ATOM      2  C   UNL A   1      32.710  29.702  25.378  1.00  0.00     0.116 C 
BRANCH   2   3
ATOM      3  N   UNL A   1      31.646  29.939  24.416  1.00  0.00    -0.356 N 
ATOM      4  C   UNL A   1      30.679  29.093  23.956  1.00  0.00     0.224 C 
ATOM      5  O   UNL A   1      29.890  29.510  23.104  1.00  0.00    -0.275 OA
ATOM      6  H   UNL A   1      31.619  30.849  24.040  1.00  0.00     0.163 HD
BRANCH   4   7
ATOM      7  C   UNL A   1      30.549  27.677  24.506  1.00  0.00     0.135 C 
BRANCH   7   8
ATOM      8  C   UNL A   1      31.395  26.651  23.775  1.00  0.00    -0.035 A 
ATOM      9  C   UNL A   1      32.099  25.517  25.944  1.00  0.00     0.045 C 
ATOM     10  C   UNL A   1      32.206  25.696  24.444  1.00  0.00    -0.040 A 
ATOM     11  C   UNL A   1      33.093  24.899  23.676  1.00  0.00    -0.015 A 
ATOM     12  C   UNL A   1      31.414  26.717  22.367  1.00  0.00     0.004 A 
ATOM     13  C   UNL A   1      33.111  25.017  22.275  1.00  0.00     0.009 A 
ATOM     14  C   UNL A   1      32.265  25.908  21.623  1.00  0.00     0.001 A 
BRANCH  11  15
ATOM     15  C   UNL A   1      34.071  23.982  24.305  1.00  0.00    -0.011 A 
ATOM     16  C   UNL A   1      35.271  24.444  24.974  1.00  0.00     0.027 A 
ATOM     17  C   UNL A   1      33.866  22.658  24.168  1.00  0.00     0.080 A 
ATOM     18  C   UNL A   1      36.212  23.572  25.354  1.00  0.00     0.095 A 
ATOM     19  C   UNL A   1      34.864  21.674  24.672  1.00  0.00     0.255 A 
ATOM     20  N   UNL A   1      36.033  22.212  25.184  1.00  0.00    -0.258 N 
ATOM     21  O   UNL A   1      34.602  20.480  24.595  1.00  0.00    -0.269 OA
BRANCH  20  22
ATOM     22  C   UNL A   1      37.067  21.283  25.559  1.00  0.00     0.451 C 
ATOM     23  F   UNL A   1      37.517  20.590  24.485  1.00  0.00    -0.185 F 
ATOM     24  F   UNL A   1      38.119  21.920  26.125  1.00  0.00    -0.185 F 
ENDBRANCH  20  22
ENDBRANCH  11  15
ENDBRANCH   7   8
ENDBRANCH   4   7
ENDBRANCH   2   3
ENDBRANCH   1   2
BRANCH   1  25
ATOM     25  C   UNL A   1      33.636  30.321  27.716  1.00  0.00     0.023 C 
BRANCH  25  26
ATOM     26  C   UNL A   1      34.579  31.509  27.672  1.00  0.00     0.116 C 
BRANCH  26  27
ATOM     27  N   UNL A   1      34.003  32.756  28.129  1.00  0.00    -0.352 N 
ATOM     28  C   UNL A   1      34.300  33.512  29.256  1.00  0.00     0.251 C 
ATOM     29  H   UNL A   1      33.293  33.124  27.555  1.00  0.00     0.163 HD
ATOM     30  O   UNL A   1      33.498  34.357  29.602  1.00  0.00    -0.269 OA
BRANCH  28  31
ATOM     31  C   UNL A   1      35.634  33.397  29.923  1.00  0.00     0.039 A 
ATOM     32  C   UNL A   1      36.756  33.856  29.216  1.00  0.00     0.014 A 
ATOM     33  C   UNL A   1      35.823  32.646  31.077  1.00  0.00     0.014 A 
ATOM     34  C   UNL A   1      38.018  33.336  29.501  1.00  0.00     0.010 A 
ATOM     35  C   UNL A   1      37.032  32.023  31.277  1.00  0.00     0.010 A 
ATOM     36  C   UNL A   1      38.113  32.326  30.448  1.00  0.00    -0.014 A 
BRANCH  36  37
ATOM     37  C   UNL A   1      39.266  31.474  30.655  1.00  0.00     0.031 A 
ATOM     38  C   UNL A   1      39.341  30.167  29.979  1.00  0.00     0.074 A 
ATOM     39  C   UNL A   1      40.355  32.026  31.237  1.00  0.00     0.049 A 
ATOM     40  N   UNL A   1      40.149  29.227  30.323  1.00  0.00    -0.248 NA
ATOM     41  C   UNL A   1      38.483  29.822  28.852  1.00  0.00     0.031 C 
ATOM     42  C   UNL A   1      41.736  31.577  31.137  1.00  0.00     0.029 A 
ATOM     43  N   UNL A   1      40.390  33.034  32.206  1.00  0.00    -0.354 N 
ATOM     44  C   UNL A   1      40.119  28.279  29.321  1.00  0.00     0.074 A 
ATOM     45  C   UNL A   1      39.014  28.656  28.472  1.00  0.00     0.031 C 
ATOM     46  C   UNL A   1      42.430  32.088  32.167  1.00  0.00     0.029 A 
ATOM     47  C   UNL A   1      41.468  32.725  33.052  1.00  0.00     0.049 A 
ATOM     48  H   UNL A   1      39.783  33.806  32.279  1.00  0.00     0.167 HD
ATOM     49  C   UNL A   1      41.139  27.382  29.227  1.00  0.00     0.034 A 
ATOM     50  C   UNL A   1      41.334  32.472  34.387  1.00  0.00     0.034 A 
ATOM     51  C   UNL A   1      42.132  27.618  30.282  1.00  0.00     0.049 A 
ATOM     52  C   UNL A   1      41.845  31.097  34.778  1.00  0.00     0.074 A 
ATOM     53  C   UNL A   1      43.313  28.343  30.296  1.00  0.00     0.029 A 
ATOM     54  N   UNL A   1      41.822  27.341  31.607  1.00  0.00    -0.354 N 
ATOM     55  N   UNL A   1      42.160  30.166  33.920  1.00  0.00    -0.248 NA
ATOM     56  C   UNL A   1      42.019  30.652  36.157  1.00  0.00     0.031 C 
ATOM     57  C   UNL A   1      43.680  28.558  31.647  1.00  0.00     0.029 A 
ATOM     58  C   UNL A   1      42.739  27.943  32.455  1.00  0.00     0.049 A 
ATOM     59  H   UNL A   1      41.058  26.795  31.902  1.00  0.00     0.167 HD
ATOM     60  C   UNL A   1      42.439  28.996  34.577  1.00  0.00     0.074 A 
ATOM     61  C   UNL A   1      42.411  29.376  35.980  1.00  0.00     0.031 C 
ATOM     62  C   UNL A   1      42.609  27.815  33.902  1.00  0.00     0.034 A 
BRANCH  49  63
ATOM     63  C   UNL A   1      41.439  26.539  28.000  1.00  0.00     0.023 A 
ATOM     64  C   UNL A   1      41.177  27.123  26.739  1.00  0.00     0.012 A 
ATOM     65  C   UNL A   1      41.909  25.206  27.978  1.00  0.00     0.148 A 
ATOM     66  C   UNL A   1      41.252  26.407  25.542  1.00  0.00     0.002 A 
ATOM     67  C   UNL A   1      41.925  24.467  26.789  1.00  0.00     0.091 A 
ATOM     68  F   UNL A   1      42.418  24.664  29.090  1.00  0.00    -0.205 F 
ATOM     69  C   UNL A   1      41.590  25.064  25.570  1.00  0.00     0.022 A 
BRANCH  67  70
ATOM     70  S   UNL A   1      42.275  22.700  26.748  1.00  0.00     0.127 S 
ATOM     71  O   UNL A   1      42.534  22.468  25.324  1.00  0.00    -0.237 OA
ATOM     72  O   UNL A   1      43.454  22.590  27.603  1.00  0.00    -0.237 OA
ATOM     73  O   UNL A   1      41.071  22.042  27.243  1.00  0.00    -0.744 OA
ENDBRANCH  67  70
ENDBRANCH  49  63
BRANCH  50  74
ATOM     74  C   UNL A   1      40.173  33.172  35.014  1.00  0.00     0.023 A 
ATOM     75  C   UNL A   1      38.916  32.523  34.935  1.00  0.00     0.012 A 
ATOM     76  C   UNL A   1      40.361  34.168  35.988  1.00  0.00     0.148 A 
ATOM     77  C   UNL A   1      37.929  32.754  35.894  1.00  0.00     0.002 A 
ATOM     78  C   UNL A   1      39.369  34.393  36.942  1.00  0.00     0.091 A 
ATOM     79  F   UNL A   1      41.533  34.816  36.022  1.00  0.00    -0.205 F 
ATOM     80  C   UNL A   1      38.172  33.659  36.922  1.00  0.00     0.022 A 
BRANCH  78  81
ATOM     81  S   UNL A   1      39.636  35.522  38.317  1.00  0.00     0.127 S 
ATOM     82  O   UNL A   1      40.966  35.125  38.767  1.00  0.00    -0.237 OA
ATOM     83  O   UNL A   1      39.568  36.832  37.673  1.00  0.00    -0.237 OA
ATOM     84  O   UNL A   1      38.536  35.254  39.232  1.00  0.00    -0.744 OA
ENDBRANCH  78  81
ENDBRANCH  50  74
BRANCH  62  85
ATOM     85  C   UNL A   1      42.666  26.429  34.522  1.00  0.00     0.023 A 
ATOM     86  C   UNL A   1      41.601  25.888  35.265  1.00  0.00     0.012 A 
ATOM     87  C   UNL A   1      43.749  25.551  34.242  1.00  0.00     0.148 A 
ATOM     88  C   UNL A   1      41.623  24.573  35.746  1.00  0.00     0.002 A 
ATOM     89  C   UNL A   1      43.711  24.211  34.620  1.00  0.00     0.091 A 
ATOM     90  F   UNL A   1      44.845  26.013  33.620  1.00  0.00    -0.205 F 
ATOM     91  C   UNL A   1      42.665  23.725  35.400  1.00  0.00     0.022 A 
BRANCH  89  92
ATOM     92  S   UNL A   1      44.916  23.041  33.975  1.00  0.00     0.127 S 
ATOM     93  O   UNL A   1      44.636  23.071  32.542  1.00  0.00    -0.237 OA
ATOM     94  O   UNL A   1      46.190  23.654  34.358  1.00  0.00    -0.237 OA
ATOM     95  O   UNL A   1      44.627  21.791  34.666  1.00  0.00    -0.744 OA
ENDBRANCH  89  92
ENDBRANCH  62  85
ENDBRANCH  36  37
ENDBRANCH  28  31
ENDBRANCH  26  27
ENDBRANCH  25  26
ENDBRANCH   1  25
TORSDOF 17
ENDMDL
