MODEL 1
REMARK VINA RESULT:     -12.0      0.000      0.000
REMARK SMILES CC(C)COc1cccc(N2C[C@@H](C(=O)NCCCCNC(=O)c3ccc(-c4c5nc(c(-c6cccc(S(=O)(=O)[O-])c6F)c6ccc([nH]6)c(-c6cccc(S(=O)(=O)[O-])c6F)c6nc(c(-c7cccc(S(=O)(=O)[O-])c7F)c7ccc4[nH]7)C=C6)C=C5)cc3)CC2=O)c1
REMARK SMILES IDX 18 1 17 2 16 3 14 4 15 5 13 7 11 8 12 9 88 10 87 11 89 12
REMARK SMILES IDX 10 13 6 14 7 15 90 16 8 17 9 18 5 19 4 20 2 21 1 22 3 23
REMARK SMILES IDX 19 24 20 25 21 26 22 27 23 29 24 30 25 31 86 32 26 33 85 34
REMARK SMILES IDX 27 35 28 36 29 37 79 38 30 39 84 40 78 41 80 42 31 43 83 44
REMARK SMILES IDX 77 45 76 46 32 48 64 49 44 50 63 51 45 52 48 53 62 54 81 55
REMARK SMILES IDX 46 56 47 57 61 59 82 60 49 61 33 62 34 63 42 64 35 65 37 66
REMARK SMILES IDX 43 67 36 68 38 69 39 70 40 71 41 72 65 73 66 74 74 75 67 76
REMARK SMILES IDX 69 77 75 78 68 79 70 80 71 81 72 82 73 83 50 84 51 85 59 86
REMARK SMILES IDX 52 87 54 88 60 89 53 90 55 91 56 92 57 93 58 94
REMARK H PARENT 16 6 21 28 80 47 48 58
REMARK Flexibility Score: inf
ROOT
ATOM      1  C   UNL A   1      32.988  28.070  24.828  1.00  0.00     0.023 C 
ENDROOT
BRANCH   1   2
ATOM      2  C   UNL A   1      32.109  27.053  25.559  1.00  0.00     0.116 C 
BRANCH   2   3
ATOM      3  N   UNL A   1      30.749  27.025  25.050  1.00  0.00    -0.356 N 
ATOM      4  C   UNL A   1      30.096  26.160  24.232  1.00  0.00     0.225 C 
ATOM      5  O   UNL A   1      28.897  26.373  24.029  1.00  0.00    -0.275 OA
ATOM      6  H   UNL A   1      30.194  27.778  25.356  1.00  0.00     0.163 HD
BRANCH   4   7
ATOM      7  C   UNL A   1      30.748  24.952  23.592  1.00  0.00     0.107 C 
ATOM      8  N   UNL A   1      32.706  23.662  23.787  1.00  0.00    -0.311 N 
ATOM      9  C   UNL A   1      31.583  24.137  24.561  1.00  0.00     0.139 C 
ATOM     10  C   UNL A   1      32.798  24.303  22.551  1.00  0.00     0.227 C 
ATOM     11  C   UNL A   1      31.638  25.246  22.400  1.00  0.00     0.116 C 
ATOM     12  O   UNL A   1      33.656  24.171  21.686  1.00  0.00    -0.274 OA
BRANCH   8  13
ATOM     13  C   UNL A   1      33.722  22.864  24.375  1.00  0.00     0.047 A 
ATOM     14  C   UNL A   1      34.601  20.648  24.769  1.00  0.00     0.121 A 
ATOM     15  C   UNL A   1      35.843  21.164  25.113  1.00  0.00     0.046 A 
ATOM     16  C   UNL A   1      33.522  21.493  24.532  1.00  0.00     0.072 A 
ATOM     17  C   UNL A   1      36.027  22.547  25.098  1.00  0.00     0.006 A 
ATOM     18  C   UNL A   1      34.987  23.388  24.679  1.00  0.00     0.026 A 
BRANCH  14  19
ATOM     19  O   UNL A   1      34.420  19.299  24.629  1.00  0.00    -0.493 OA
BRANCH  19  20
ATOM     20  C   UNL A   1      33.062  18.984  24.235  1.00  0.00     0.232 C 
BRANCH  20  21
ATOM     21  C   UNL A   1      32.821  17.469  24.011  1.00  0.00     0.020 C 
ATOM     22  C   UNL A   1      34.036  16.772  23.383  1.00  0.00     0.011 C 
ATOM     23  C   UNL A   1      32.523  16.755  25.333  1.00  0.00     0.011 C 
ENDBRANCH  20  21
ENDBRANCH  19  20
ENDBRANCH  14  19
ENDBRANCH   8  13
ENDBRANCH   4   7
ENDBRANCH   2   3
ENDBRANCH   1   2
BRANCH   1  24
ATOM     24  C   UNL A   1      32.590  29.538  25.010  1.00  0.00     0.023 C 
BRANCH  24  25
ATOM     25  C   UNL A   1      32.190  29.953  26.423  1.00  0.00     0.116 C 
BRANCH  25  26
ATOM     26  N   UNL A   1      32.169  31.396  26.610  1.00  0.00    -0.352 N 
ATOM     27  C   UNL A   1      33.052  32.209  27.281  1.00  0.00     0.251 C 
ATOM     28  H   UNL A   1      31.408  31.860  26.194  1.00  0.00     0.163 HD
ATOM     29  O   UNL A   1      32.782  33.399  27.426  1.00  0.00    -0.269 OA
BRANCH  27  30
ATOM     30  C   UNL A   1      34.303  31.658  27.851  1.00  0.00     0.039 A 
ATOM     31  C   UNL A   1      35.373  32.527  28.079  1.00  0.00     0.014 A 
ATOM     32  C   UNL A   1      34.433  30.300  28.157  1.00  0.00     0.014 A 
ATOM     33  C   UNL A   1      36.543  32.050  28.675  1.00  0.00     0.010 A 
ATOM     34  C   UNL A   1      35.570  29.842  28.823  1.00  0.00     0.010 A 
ATOM     35  C   UNL A   1      36.638  30.711  29.090  1.00  0.00    -0.014 A 
BRANCH  35  36
ATOM     36  C   UNL A   1      37.828  30.231  29.844  1.00  0.00     0.031 A 
ATOM     37  C   UNL A   1      38.098  30.696  31.249  1.00  0.00     0.074 A 
ATOM     38  C   UNL A   1      38.710  29.416  29.230  1.00  0.00     0.049 A 
ATOM     39  N   UNL A   1      39.079  30.366  32.050  1.00  0.00    -0.248 NA
ATOM     40  C   UNL A   1      37.164  31.679  31.822  1.00  0.00     0.031 C 
ATOM     41  C   UNL A   1      38.616  28.969  27.839  1.00  0.00     0.029 A 
ATOM     42  N   UNL A   1      39.868  28.838  29.687  1.00  0.00    -0.354 N 
ATOM     43  C   UNL A   1      38.900  31.118  33.206  1.00  0.00     0.074 A 
ATOM     44  C   UNL A   1      37.735  31.948  32.988  1.00  0.00     0.031 C 
ATOM     45  C   UNL A   1      39.662  28.175  27.560  1.00  0.00     0.029 A 
ATOM     46  C   UNL A   1      40.518  28.082  28.738  1.00  0.00     0.049 A 
ATOM     47  H   UNL A   1      40.202  28.951  30.606  1.00  0.00     0.167 HD
ATOM     48  C   UNL A   1      39.623  31.103  34.351  1.00  0.00     0.034 A 
ATOM     49  C   UNL A   1      41.677  27.398  28.802  1.00  0.00     0.034 A 
ATOM     50  C   UNL A   1      40.765  30.256  34.574  1.00  0.00     0.049 A 
ATOM     51  C   UNL A   1      42.437  27.362  30.098  1.00  0.00     0.074 A 
ATOM     52  C   UNL A   1      41.501  30.093  35.737  1.00  0.00     0.029 A 
ATOM     53  N   UNL A   1      41.355  29.448  33.614  1.00  0.00    -0.354 N 
ATOM     54  N   UNL A   1      42.148  27.940  31.240  1.00  0.00    -0.248 NA
ATOM     55  C   UNL A   1      43.662  26.550  30.128  1.00  0.00     0.031 C 
ATOM     56  C   UNL A   1      42.560  29.220  35.466  1.00  0.00     0.029 A 
ATOM     57  C   UNL A   1      42.458  28.803  34.149  1.00  0.00     0.049 A 
ATOM     58  H   UNL A   1      41.036  29.348  32.688  1.00  0.00     0.167 HD
ATOM     59  C   UNL A   1      43.138  27.540  32.130  1.00  0.00     0.074 A 
ATOM     60  C   UNL A   1      44.017  26.647  31.402  1.00  0.00     0.031 C 
ATOM     61  C   UNL A   1      43.311  27.892  33.428  1.00  0.00     0.034 A 
BRANCH  48  62
ATOM     62  C   UNL A   1      39.179  32.008  35.473  1.00  0.00     0.023 A 
ATOM     63  C   UNL A   1      38.268  31.532  36.440  1.00  0.00     0.012 A 
ATOM     64  C   UNL A   1      39.708  33.306  35.606  1.00  0.00     0.148 A 
ATOM     65  C   UNL A   1      37.860  32.346  37.496  1.00  0.00     0.002 A 
ATOM     66  C   UNL A   1      39.335  34.094  36.689  1.00  0.00     0.091 A 
ATOM     67  F   UNL A   1      40.559  33.750  34.671  1.00  0.00    -0.205 F 
ATOM     68  C   UNL A   1      38.401  33.621  37.626  1.00  0.00     0.022 A 
BRANCH  66  69
ATOM     69  S   UNL A   1      40.037  35.720  36.994  1.00  0.00     0.127 S 
ATOM     70  O   UNL A   1      41.462  35.411  37.093  1.00  0.00    -0.237 OA
ATOM     71  O   UNL A   1      39.653  36.451  35.786  1.00  0.00    -0.237 OA
ATOM     72  O   UNL A   1      39.416  36.202  38.219  1.00  0.00    -0.744 OA
ENDBRANCH  66  69
ENDBRANCH  48  62
BRANCH  49  73
ATOM     73  C   UNL A   1      42.160  26.649  27.607  1.00  0.00     0.023 A 
ATOM     74  C   UNL A   1      42.935  27.309  26.634  1.00  0.00     0.012 A 
ATOM     75  C   UNL A   1      41.884  25.277  27.452  1.00  0.00     0.148 A 
ATOM     76  C   UNL A   1      43.401  26.623  25.512  1.00  0.00     0.002 A 
ATOM     77  C   UNL A   1      42.402  24.586  26.364  1.00  0.00     0.091 A 
ATOM     78  F   UNL A   1      41.138  24.671  28.385  1.00  0.00    -0.205 F 
ATOM     79  C   UNL A   1      43.145  25.261  25.382  1.00  0.00     0.022 A 
BRANCH  77  80
ATOM     80  S   UNL A   1      42.241  22.806  26.188  1.00  0.00     0.127 S 
ATOM     81  O   UNL A   1      42.858  22.577  24.883  1.00  0.00    -0.237 OA
ATOM     82  O   UNL A   1      43.016  22.321  27.331  1.00  0.00    -0.237 OA
ATOM     83  O   UNL A   1      40.814  22.528  26.269  1.00  0.00    -0.744 OA
ENDBRANCH  77  80
ENDBRANCH  49  73
BRANCH  61  84
ATOM     84  C   UNL A   1      44.485  27.292  34.162  1.00  0.00     0.023 A 
ATOM     85  C   UNL A   1      45.734  27.944  34.144  1.00  0.00     0.012 A 
ATOM     86  C   UNL A   1      44.334  26.108  34.910  1.00  0.00     0.148 A 
ATOM     87  C   UNL A   1      46.826  27.405  34.825  1.00  0.00     0.002 A 
ATOM     88  C   UNL A   1      45.413  25.606  35.630  1.00  0.00     0.091 A 
ATOM     89  F   UNL A   1      43.144  25.492  34.902  1.00  0.00    -0.205 F 
ATOM     90  C   UNL A   1      46.662  26.243  35.575  1.00  0.00     0.022 A 
BRANCH  88  91
ATOM     91  S   UNL A   1      45.271  24.172  36.702  1.00  0.00     0.127 S 
ATOM     92  O   UNL A   1      46.645  24.017  37.177  1.00  0.00    -0.237 OA
ATOM     93  O   UNL A   1      44.323  24.635  37.716  1.00  0.00    -0.237 OA
ATOM     94  O   UNL A   1      44.776  23.089  35.863  1.00  0.00    -0.744 OA
ENDBRANCH  88  91
ENDBRANCH  61  84
ENDBRANCH  35  36
ENDBRANCH  27  30
ENDBRANCH  25  26
ENDBRANCH  24  25
ENDBRANCH   1  24
TORSDOF 18
ENDMDL
MODEL 2
REMARK VINA RESULT:     -11.9      4.969     10.544
REMARK SMILES CC(C)COc1cccc(N2C[C@@H](C(=O)NCCCCNC(=O)c3ccc(-c4c5nc(c(-c6cccc(S(=O)(=O)[O-])c6F)c6ccc([nH]6)c(-c6cccc(S(=O)(=O)[O-])c6F)c6nc(c(-c7cccc(S(=O)(=O)[O-])c7F)c7ccc4[nH]7)C=C6)C=C5)cc3)CC2=O)c1
REMARK SMILES IDX 18 1 17 2 16 3 14 4 15 5 13 7 11 8 12 9 88 10 87 11 89 12
REMARK SMILES IDX 10 13 6 14 7 15 90 16 8 17 9 18 5 19 4 20 2 21 1 22 3 23
REMARK SMILES IDX 19 24 20 25 21 26 22 27 23 29 24 30 25 31 86 32 26 33 85 34
REMARK SMILES IDX 27 35 28 36 29 37 79 38 30 39 84 40 78 41 80 42 31 43 83 44
REMARK SMILES IDX 77 45 76 46 32 48 64 49 44 50 63 51 45 52 48 53 62 54 81 55
REMARK SMILES IDX 46 56 47 57 61 59 82 60 49 61 33 62 34 63 42 64 35 65 37 66
REMARK SMILES IDX 43 67 36 68 38 69 39 70 40 71 41 72 65 73 66 74 74 75 67 76
REMARK SMILES IDX 69 77 75 78 68 79 70 80 71 81 72 82 73 83 50 84 51 85 59 86
REMARK SMILES IDX 52 87 54 88 60 89 53 90 55 91 56 92 57 93 58 94
REMARK H PARENT 16 6 21 28 80 47 48 58
REMARK Flexibility Score: inf
ROOT
ATOM      1  C   UNL A   1      35.775  20.275  24.920  1.00  0.00     0.023 C 
ENDROOT
BRANCH   1   2
ATOM      2  C   UNL A   1      34.317  20.670  25.169  1.00  0.00     0.116 C 
BRANCH   2   3
ATOM      3  N   UNL A   1      34.113  21.236  26.491  1.00  0.00    -0.356 N 
ATOM      4  C   UNL A   1      33.233  22.154  26.967  1.00  0.00     0.225 C 
ATOM      5  O   UNL A   1      33.261  22.386  28.179  1.00  0.00    -0.275 OA
ATOM      6  H   UNL A   1      34.730  20.886  27.173  1.00  0.00     0.163 HD
BRANCH   4   7
ATOM      7  C   UNL A   1      32.216  22.871  26.102  1.00  0.00     0.107 C 
ATOM      8  N   UNL A   1      31.898  24.965  25.078  1.00  0.00    -0.311 N 
ATOM      9  C   UNL A   1      32.839  23.871  25.148  1.00  0.00     0.139 C 
ATOM     10  C   UNL A   1      30.919  24.877  26.068  1.00  0.00     0.227 C 
ATOM     11  C   UNL A   1      31.130  23.614  26.855  1.00  0.00     0.116 C 
ATOM     12  O   UNL A   1      30.012  25.664  26.316  1.00  0.00    -0.274 OA
BRANCH   8  13
ATOM     13  C   UNL A   1      32.155  26.109  24.278  1.00  0.00     0.047 A 
ATOM     14  C   UNL A   1      31.280  27.771  22.756  1.00  0.00     0.121 A 
ATOM     15  C   UNL A   1      32.377  28.595  22.972  1.00  0.00     0.046 A 
ATOM     16  C   UNL A   1      31.236  26.492  23.300  1.00  0.00     0.072 A 
ATOM     17  C   UNL A   1      33.380  28.170  23.843  1.00  0.00     0.006 A 
ATOM     18  C   UNL A   1      33.242  26.957  24.532  1.00  0.00     0.026 A 
BRANCH  14  19
ATOM     19  O   UNL A   1      30.209  28.210  22.029  1.00  0.00    -0.493 OA
BRANCH  19  20
ATOM     20  C   UNL A   1      29.989  29.630  22.211  1.00  0.00     0.232 C 
BRANCH  20  21
ATOM     21  C   UNL A   1      28.875  29.956  23.237  1.00  0.00     0.020 C 
ATOM     22  C   UNL A   1      28.564  31.458  23.305  1.00  0.00     0.011 C 
ATOM     23  C   UNL A   1      27.569  29.239  22.882  1.00  0.00     0.011 C 
ENDBRANCH  20  21
ENDBRANCH  19  20
ENDBRANCH  14  19
ENDBRANCH   8  13
ENDBRANCH   4   7
ENDBRANCH   2   3
ENDBRANCH   1   2
BRANCH   1  24
ATOM     24  C   UNL A   1      36.689  21.401  24.429  1.00  0.00     0.023 C 
BRANCH  24  25
ATOM     25  C   UNL A   1      37.630  22.001  25.471  1.00  0.00     0.116 C 
BRANCH  25  26
ATOM     26  N   UNL A   1      38.675  21.082  25.894  1.00  0.00    -0.352 N 
ATOM     27  C   UNL A   1      39.883  21.340  26.497  1.00  0.00     0.251 C 
ATOM     28  H   UNL A   1      38.489  20.131  25.722  1.00  0.00     0.163 HD
ATOM     29  O   UNL A   1      40.682  20.421  26.662  1.00  0.00    -0.269 OA
BRANCH  27  30
ATOM     30  C   UNL A   1      40.237  22.715  26.920  1.00  0.00     0.039 A 
ATOM     31  C   UNL A   1      41.098  22.878  28.009  1.00  0.00     0.014 A 
ATOM     32  C   UNL A   1      39.730  23.838  26.261  1.00  0.00     0.014 A 
ATOM     33  C   UNL A   1      41.501  24.159  28.392  1.00  0.00     0.010 A 
ATOM     34  C   UNL A   1      40.195  25.110  26.594  1.00  0.00     0.010 A 
ATOM     35  C   UNL A   1      41.086  25.286  27.663  1.00  0.00    -0.014 A 
BRANCH  35  36
ATOM     36  C   UNL A   1      41.619  26.638  27.984  1.00  0.00     0.031 A 
ATOM     37  C   UNL A   1      43.031  27.021  27.635  1.00  0.00     0.074 A 
ATOM     38  C   UNL A   1      40.839  27.509  28.658  1.00  0.00     0.049 A 
ATOM     39  N   UNL A   1      43.647  28.159  27.831  1.00  0.00    -0.248 NA
ATOM     40  C   UNL A   1      43.871  25.988  27.009  1.00  0.00     0.031 C 
ATOM     41  C   UNL A   1      39.485  27.228  29.140  1.00  0.00     0.029 A 
ATOM     42  N   UNL A   1      41.078  28.795  29.071  1.00  0.00    -0.354 N 
ATOM     43  C   UNL A   1      44.949  27.972  27.383  1.00  0.00     0.074 A 
ATOM     44  C   UNL A   1      45.045  26.599  26.936  1.00  0.00     0.031 C 
ATOM     45  C   UNL A   1      39.008  28.312  29.770  1.00  0.00     0.029 A 
ATOM     46  C   UNL A   1      40.030  29.354  29.766  1.00  0.00     0.049 A 
ATOM     47  H   UNL A   1      41.918  29.274  28.887  1.00  0.00     0.167 HD
ATOM     48  C   UNL A   1      45.966  28.866  27.325  1.00  0.00     0.034 A 
ATOM     49  C   UNL A   1      39.906  30.564  30.346  1.00  0.00     0.034 A 
ATOM     50  C   UNL A   1      45.860  30.239  27.746  1.00  0.00     0.049 A 
ATOM     51  C   UNL A   1      41.032  31.552  30.230  1.00  0.00     0.074 A 
ATOM     52  C   UNL A   1      46.801  31.248  27.632  1.00  0.00     0.029 A 
ATOM     53  N   UNL A   1      44.758  30.792  28.381  1.00  0.00    -0.354 N 
ATOM     54  N   UNL A   1      42.194  31.413  29.638  1.00  0.00    -0.248 NA
ATOM     55  C   UNL A   1      40.817  32.878  30.827  1.00  0.00     0.031 C 
ATOM     56  C   UNL A   1      46.284  32.399  28.237  1.00  0.00     0.029 A 
ATOM     57  C   UNL A   1      45.004  32.120  28.687  1.00  0.00     0.049 A 
ATOM     58  H   UNL A   1      43.924  30.311  28.585  1.00  0.00     0.167 HD
ATOM     59  C   UNL A   1      42.837  32.639  29.768  1.00  0.00     0.074 A 
ATOM     60  C   UNL A   1      41.921  33.517  30.467  1.00  0.00     0.031 C 
ATOM     61  C   UNL A   1      44.078  32.998  29.356  1.00  0.00     0.034 A 
BRANCH  48  62
ATOM     62  C   UNL A   1      47.281  28.398  26.754  1.00  0.00     0.023 A 
ATOM     63  C   UNL A   1      48.376  28.166  27.613  1.00  0.00     0.012 A 
ATOM     64  C   UNL A   1      47.417  28.132  25.378  1.00  0.00     0.148 A 
ATOM     65  C   UNL A   1      49.595  27.715  27.107  1.00  0.00     0.002 A 
ATOM     66  C   UNL A   1      48.619  27.636  24.888  1.00  0.00     0.091 A 
ATOM     67  F   UNL A   1      46.373  28.375  24.572  1.00  0.00    -0.205 F 
ATOM     68  C   UNL A   1      49.713  27.440  25.748  1.00  0.00     0.022 A 
BRANCH  66  69
ATOM     69  S   UNL A   1      48.848  27.171  23.167  1.00  0.00     0.127 S 
ATOM     70  O   UNL A   1      48.200  28.283  22.474  1.00  0.00    -0.237 OA
ATOM     71  O   UNL A   1      50.307  27.144  23.048  1.00  0.00    -0.237 OA
ATOM     72  O   UNL A   1      48.202  25.876  23.011  1.00  0.00    -0.744 OA
ENDBRANCH  66  69
ENDBRANCH  48  62
BRANCH  49  73
ATOM     73  C   UNL A   1      38.639  30.922  31.046  1.00  0.00     0.023 A 
ATOM     74  C   UNL A   1      38.521  30.704  32.432  1.00  0.00     0.012 A 
ATOM     75  C   UNL A   1      37.566  31.508  30.348  1.00  0.00     0.148 A 
ATOM     76  C   UNL A   1      37.346  31.038  33.107  1.00  0.00     0.002 A 
ATOM     77  C   UNL A   1      36.422  31.894  31.036  1.00  0.00     0.091 A 
ATOM     78  F   UNL A   1      37.696  31.698  29.028  1.00  0.00    -0.205 F 
ATOM     79  C   UNL A   1      36.301  31.643  32.412  1.00  0.00     0.022 A 
BRANCH  77  80
ATOM     80  S   UNL A   1      35.087  32.803  30.250  1.00  0.00     0.127 S 
ATOM     81  O   UNL A   1      35.779  34.000  29.776  1.00  0.00    -0.237 OA
ATOM     82  O   UNL A   1      34.670  31.874  29.199  1.00  0.00    -0.237 OA
ATOM     83  O   UNL A   1      34.091  33.020  31.290  1.00  0.00    -0.744 OA
ENDBRANCH  77  80
ENDBRANCH  49  73
BRANCH  61  84
ATOM     84  C   UNL A   1      44.518  34.416  29.629  1.00  0.00     0.023 A 
ATOM     85  C   UNL A   1      45.049  34.757  30.889  1.00  0.00     0.012 A 
ATOM     86  C   UNL A   1      44.452  35.395  28.619  1.00  0.00     0.148 A 
ATOM     87  C   UNL A   1      45.467  36.062  31.152  1.00  0.00     0.002 A 
ATOM     88  C   UNL A   1      44.921  36.679  28.872  1.00  0.00     0.091 A 
ATOM     89  F   UNL A   1      43.928  35.056  27.432  1.00  0.00    -0.205 F 
ATOM     90  C   UNL A   1      45.413  37.018  30.141  1.00  0.00     0.022 A 
BRANCH  88  91
ATOM     91  S   UNL A   1      44.981  37.949  27.603  1.00  0.00     0.127 S 
ATOM     92  O   UNL A   1      43.581  38.023  27.187  1.00  0.00    -0.237 OA
ATOM     93  O   UNL A   1      45.457  39.112  28.352  1.00  0.00    -0.237 OA
ATOM     94  O   UNL A   1      45.907  37.462  26.590  1.00  0.00    -0.744 OA
ENDBRANCH  88  91
ENDBRANCH  61  84
ENDBRANCH  35  36
ENDBRANCH  27  30
ENDBRANCH  25  26
ENDBRANCH  24  25
ENDBRANCH   1  24
TORSDOF 18
ENDMDL
MODEL 3
REMARK VINA RESULT:     -11.8      1.990      7.769
REMARK SMILES CC(C)COc1cccc(N2C[C@@H](C(=O)NCCCCNC(=O)c3ccc(-c4c5nc(c(-c6cccc(S(=O)(=O)[O-])c6F)c6ccc([nH]6)c(-c6cccc(S(=O)(=O)[O-])c6F)c6nc(c(-c7cccc(S(=O)(=O)[O-])c7F)c7ccc4[nH]7)C=C6)C=C5)cc3)CC2=O)c1
REMARK SMILES IDX 18 1 17 2 16 3 14 4 15 5 13 7 11 8 12 9 88 10 87 11 89 12
REMARK SMILES IDX 10 13 6 14 7 15 90 16 8 17 9 18 5 19 4 20 2 21 1 22 3 23
REMARK SMILES IDX 19 24 20 25 21 26 22 27 23 29 24 30 25 31 86 32 26 33 85 34
REMARK SMILES IDX 27 35 28 36 29 37 79 38 30 39 84 40 78 41 80 42 31 43 83 44
REMARK SMILES IDX 77 45 76 46 32 48 64 49 44 50 63 51 45 52 48 53 62 54 81 55
REMARK SMILES IDX 46 56 47 57 61 59 82 60 49 61 33 62 34 63 42 64 35 65 37 66
REMARK SMILES IDX 43 67 36 68 38 69 39 70 40 71 41 72 65 73 66 74 74 75 67 76
REMARK SMILES IDX 69 77 75 78 68 79 70 80 71 81 72 82 73 83 50 84 51 85 59 86
REMARK SMILES IDX 52 87 54 88 60 89 53 90 55 91 56 92 57 93 58 94
REMARK H PARENT 16 6 21 28 80 47 48 58
REMARK Flexibility Score: inf
ROOT
ATOM      1  C   UNL A   1      31.462  30.006  25.708  1.00  0.00     0.023 C 
ENDROOT
BRANCH   1   2
ATOM      2  C   UNL A   1      32.836  29.359  25.893  1.00  0.00     0.116 C 
BRANCH   2   3
ATOM      3  N   UNL A   1      33.649  29.424  24.691  1.00  0.00    -0.356 N 
ATOM      4  C   UNL A   1      33.795  28.578  23.639  1.00  0.00     0.225 C 
ATOM      5  O   UNL A   1      34.525  28.948  22.716  1.00  0.00    -0.275 OA
ATOM      6  H   UNL A   1      34.198  30.238  24.626  1.00  0.00     0.163 HD
BRANCH   4   7
ATOM      7  C   UNL A   1      33.093  27.239  23.533  1.00  0.00     0.107 C 
ATOM      8  N   UNL A   1      33.574  24.945  23.739  1.00  0.00    -0.311 N 
ATOM      9  C   UNL A   1      33.659  26.189  24.469  1.00  0.00     0.139 C 
ATOM     10  C   UNL A   1      33.281  25.149  22.390  1.00  0.00     0.227 C 
ATOM     11  C   UNL A   1      33.079  26.619  22.149  1.00  0.00     0.116 C 
ATOM     12  O   UNL A   1      33.191  24.317  21.495  1.00  0.00    -0.274 OA
BRANCH   8  13
ATOM     13  C   UNL A   1      34.032  23.726  24.303  1.00  0.00     0.047 A 
ATOM     14  C   UNL A   1      33.804  21.323  24.423  1.00  0.00     0.121 A 
ATOM     15  C   UNL A   1      35.062  21.198  24.996  1.00  0.00     0.046 A 
ATOM     16  C   UNL A   1      33.246  22.578  24.202  1.00  0.00     0.072 A 
ATOM     17  C   UNL A   1      35.813  22.349  25.235  1.00  0.00     0.006 A 
ATOM     18  C   UNL A   1      35.321  23.601  24.841  1.00  0.00     0.026 A 
BRANCH  14  19
ATOM     19  O   UNL A   1      33.098  20.216  24.037  1.00  0.00    -0.493 OA
BRANCH  19  20
ATOM     20  C   UNL A   1      33.140  19.180  25.049  1.00  0.00     0.232 C 
BRANCH  20  21
ATOM     21  C   UNL A   1      33.509  17.784  24.487  1.00  0.00     0.020 C 
ATOM     22  C   UNL A   1      32.997  16.643  25.378  1.00  0.00     0.011 C 
ATOM     23  C   UNL A   1      32.912  17.573  23.093  1.00  0.00     0.011 C 
ENDBRANCH  20  21
ENDBRANCH  19  20
ENDBRANCH  14  19
ENDBRANCH   8  13
ENDBRANCH   4   7
ENDBRANCH   2   3
ENDBRANCH   1   2
BRANCH   1  24
ATOM     24  C   UNL A   1      31.269  31.357  26.404  1.00  0.00     0.023 C 
BRANCH  24  25
ATOM     25  C   UNL A   1      32.514  31.964  27.044  1.00  0.00     0.116 C 
BRANCH  25  26
ATOM     26  N   UNL A   1      32.386  33.391  27.304  1.00  0.00    -0.352 N 
ATOM     27  C   UNL A   1      33.108  34.199  28.148  1.00  0.00     0.251 C 
ATOM     28  H   UNL A   1      31.673  33.844  26.799  1.00  0.00     0.163 HD
ATOM     29  O   UNL A   1      32.754  35.364  28.314  1.00  0.00    -0.269 OA
BRANCH  27  30
ATOM     30  C   UNL A   1      34.284  33.672  28.878  1.00  0.00     0.039 A 
ATOM     31  C   UNL A   1      34.069  32.917  30.034  1.00  0.00     0.014 A 
ATOM     32  C   UNL A   1      35.589  33.916  28.440  1.00  0.00     0.014 A 
ATOM     33  C   UNL A   1      35.155  32.352  30.709  1.00  0.00     0.010 A 
ATOM     34  C   UNL A   1      36.663  33.286  29.067  1.00  0.00     0.010 A 
ATOM     35  C   UNL A   1      36.460  32.497  30.209  1.00  0.00    -0.014 A 
BRANCH  35  36
ATOM     36  C   UNL A   1      37.601  31.788  30.847  1.00  0.00     0.031 A 
ATOM     37  C   UNL A   1      38.376  30.733  30.104  1.00  0.00     0.074 A 
ATOM     38  C   UNL A   1      37.903  32.053  32.135  1.00  0.00     0.049 A 
ATOM     39  N   UNL A   1      39.404  30.030  30.508  1.00  0.00    -0.248 NA
ATOM     40  C   UNL A   1      37.923  30.402  28.744  1.00  0.00     0.031 C 
ATOM     41  C   UNL A   1      37.170  32.983  32.997  1.00  0.00     0.029 A 
ATOM     42  N   UNL A   1      38.888  31.552  32.949  1.00  0.00    -0.354 N 
ATOM     43  C   UNL A   1      39.703  29.157  29.468  1.00  0.00     0.074 A 
ATOM     44  C   UNL A   1      38.725  29.394  28.428  1.00  0.00     0.031 C 
ATOM     45  C   UNL A   1      37.738  32.998  34.213  1.00  0.00     0.029 A 
ATOM     46  C   UNL A   1      38.853  32.056  34.229  1.00  0.00     0.049 A 
ATOM     47  H   UNL A   1      39.556  30.896  32.647  1.00  0.00     0.167 HD
ATOM     48  C   UNL A   1      40.711  28.257  29.376  1.00  0.00     0.034 A 
ATOM     49  C   UNL A   1      39.624  31.786  35.301  1.00  0.00     0.034 A 
ATOM     50  C   UNL A   1      41.698  28.043  30.402  1.00  0.00     0.049 A 
ATOM     51  C   UNL A   1      40.764  30.817  35.159  1.00  0.00     0.074 A 
ATOM     52  C   UNL A   1      42.819  27.229  30.361  1.00  0.00     0.029 A 
ATOM     53  N   UNL A   1      41.676  28.624  31.661  1.00  0.00    -0.354 N 
ATOM     54  N   UNL A   1      41.140  30.135  34.104  1.00  0.00    -0.248 NA
ATOM     55  C   UNL A   1      41.609  30.608  36.343  1.00  0.00     0.031 C 
ATOM     56  C   UNL A   1      43.447  27.286  31.608  1.00  0.00     0.029 A 
ATOM     57  C   UNL A   1      42.746  28.169  32.413  1.00  0.00     0.049 A 
ATOM     58  H   UNL A   1      40.998  29.265  31.974  1.00  0.00     0.167 HD
ATOM     59  C   UNL A   1      42.280  29.437  34.489  1.00  0.00     0.074 A 
ATOM     60  C   UNL A   1      42.549  29.805  35.864  1.00  0.00     0.031 C 
ATOM     61  C   UNL A   1      43.027  28.562  33.771  1.00  0.00     0.034 A 
BRANCH  48  62
ATOM     62  C   UNL A   1      40.823  27.455  28.104  1.00  0.00     0.023 A 
ATOM     63  C   UNL A   1      41.404  28.036  26.957  1.00  0.00     0.012 A 
ATOM     64  C   UNL A   1      40.408  26.110  28.059  1.00  0.00     0.148 A 
ATOM     65  C   UNL A   1      41.534  27.306  25.777  1.00  0.00     0.002 A 
ATOM     66  C   UNL A   1      40.586  25.373  26.894  1.00  0.00     0.091 A 
ATOM     67  F   UNL A   1      39.841  25.578  29.151  1.00  0.00    -0.205 F 
ATOM     68  C   UNL A   1      41.136  25.972  25.749  1.00  0.00     0.022 A 
BRANCH  66  69
ATOM     69  S   UNL A   1      40.183  23.626  26.780  1.00  0.00     0.127 S 
ATOM     70  O   UNL A   1      41.148  23.165  25.783  1.00  0.00    -0.237 OA
ATOM     71  O   UNL A   1      40.443  23.161  28.143  1.00  0.00    -0.237 OA
ATOM     72  O   UNL A   1      38.787  23.562  26.372  1.00  0.00    -0.744 OA
ENDBRANCH  66  69
ENDBRANCH  48  62
BRANCH  49  73
ATOM     73  C   UNL A   1      39.369  32.489  36.591  1.00  0.00     0.023 A 
ATOM     74  C   UNL A   1      40.077  33.667  36.898  1.00  0.00     0.012 A 
ATOM     75  C   UNL A   1      38.403  32.011  37.497  1.00  0.00     0.148 A 
ATOM     76  C   UNL A   1      39.848  34.341  38.098  1.00  0.00     0.002 A 
ATOM     77  C   UNL A   1      38.136  32.720  38.661  1.00  0.00     0.091 A 
ATOM     78  F   UNL A   1      37.747  30.884  37.189  1.00  0.00    -0.205 F 
ATOM     79  C   UNL A   1      38.870  33.875  38.974  1.00  0.00     0.022 A 
BRANCH  77  80
ATOM     80  S   UNL A   1      36.802  32.273  39.777  1.00  0.00     0.127 S 
ATOM     81  O   UNL A   1      35.639  32.334  38.893  1.00  0.00    -0.237 OA
ATOM     82  O   UNL A   1      37.194  30.925  40.188  1.00  0.00    -0.237 OA
ATOM     83  O   UNL A   1      36.833  33.261  40.847  1.00  0.00    -0.744 OA
ENDBRANCH  77  80
ENDBRANCH  49  73
BRANCH  61  84
ATOM     84  C   UNL A   1      44.228  27.952  34.450  1.00  0.00     0.023 A 
ATOM     85  C   UNL A   1      45.473  28.610  34.400  1.00  0.00     0.012 A 
ATOM     86  C   UNL A   1      44.108  26.754  35.180  1.00  0.00     0.148 A 
ATOM     87  C   UNL A   1      46.591  28.062  35.030  1.00  0.00     0.002 A 
ATOM     88  C   UNL A   1      45.213  26.243  35.851  1.00  0.00     0.091 A 
ATOM     89  F   UNL A   1      42.921  26.134  35.203  1.00  0.00    -0.205 F 
ATOM     90  C   UNL A   1      46.458  26.885  35.764  1.00  0.00     0.022 A 
BRANCH  88  91
ATOM     91  S   UNL A   1      45.115  24.787  36.900  1.00  0.00     0.127 S 
ATOM     92  O   UNL A   1      44.586  23.787  35.974  1.00  0.00    -0.237 OA
ATOM     93  O   UNL A   1      46.512  24.586  37.282  1.00  0.00    -0.237 OA
ATOM     94  O   UNL A   1      44.233  25.145  38.002  1.00  0.00    -0.744 OA
ENDBRANCH  88  91
ENDBRANCH  61  84
ENDBRANCH  35  36
ENDBRANCH  27  30
ENDBRANCH  25  26
ENDBRANCH  24  25
ENDBRANCH   1  24
TORSDOF 18
ENDMDL
