MODEL 1
REMARK VINA RESULT:     -12.3      0.000      0.000
REMARK SMILES O=C(Cn1cccc1C(=O)N1CCC2(CCCC2)CC1)NCCCCNC(=O)c1ccc(-c2c3nc(c(-c4cccc(S(=O)(=O)[O-])c4F)c4ccc([nH]4)c(-c4cccc(S(=O)(=O)[O-])c4F)c4nc(c(-c5cccc(S(=O)(=O)[O-])c5F)c5ccc2[nH]5)C=C4)C=C3)cc1
REMARK SMILES IDX 24 1 23 2 22 3 21 4 1 5 2 6 3 8 4 9 5 10 8 11 6 12 7 13 9 14
REMARK SMILES IDX 10 15 11 16 12 17 20 18 13 19 19 20 14 21 15 22 18 23 16 24
REMARK SMILES IDX 17 25 25 26 26 27 27 28 28 30 29 31 30 32 91 33 31 34 90 35
REMARK SMILES IDX 32 36 33 37 34 38 84 39 35 40 89 41 83 42 85 43 36 44 88 45
REMARK SMILES IDX 82 46 81 47 37 49 69 50 49 51 68 52 50 53 53 54 67 55 86 56
REMARK SMILES IDX 51 57 52 58 66 60 87 61 54 62 38 63 39 64 47 65 40 66 42 67
REMARK SMILES IDX 48 68 41 69 43 70 44 71 45 72 46 73 70 74 71 75 79 76 72 77
REMARK SMILES IDX 74 78 80 79 73 80 75 81 76 82 77 83 78 84 55 85 56 86 64 87
REMARK SMILES IDX 57 88 59 89 65 90 58 91 60 92 61 93 62 94 63 95
REMARK H PARENT 21 7 26 29 85 48 53 59
REMARK Flexibility Score: inf
ROOT
ATOM      1  C   UNL A   1      38.982  21.013  26.134  1.00  0.00     0.023 C 
ENDROOT
BRANCH   1   2
ATOM      2  C   UNL A   1      38.019  22.087  25.602  1.00  0.00     0.023 C 
BRANCH   2   3
ATOM      3  C   UNL A   1      36.631  21.691  25.052  1.00  0.00     0.116 C 
BRANCH   3   4
ATOM      4  N   UNL A   1      35.686  22.765  24.763  1.00  0.00    -0.355 N 
ATOM      5  O   UNL A   1      36.355  23.015  22.601  1.00  0.00    -0.273 OA
ATOM      6  C   UNL A   1      35.564  23.316  23.503  1.00  0.00     0.239 C 
ATOM      7  H   UNL A   1      35.117  23.107  25.490  1.00  0.00     0.163 HD
BRANCH   6   8
ATOM      8  C   UNL A   1      34.549  24.423  23.241  1.00  0.00     0.222 C 
BRANCH   8   9
ATOM      9  N   UNL A   1      33.705  24.894  24.329  1.00  0.00    -0.334 N 
ATOM     10  C   UNL A   1      34.131  25.867  25.210  1.00  0.00     0.087 A 
ATOM     11  C   UNL A   1      32.459  24.423  24.725  1.00  0.00     0.107 A 
ATOM     12  C   UNL A   1      33.090  26.174  26.049  1.00  0.00     0.020 A 
ATOM     13  C   UNL A   1      32.036  25.296  25.725  1.00  0.00     0.033 A 
BRANCH  11  14
ATOM     14  C   UNL A   1      31.639  23.382  24.135  1.00  0.00     0.270 C 
ATOM     15  O   UNL A   1      30.726  23.645  23.334  1.00  0.00    -0.267 OA
ATOM     16  N   UNL A   1      32.012  22.060  24.324  1.00  0.00    -0.337 N 
ATOM     17  C   UNL A   1      31.905  21.198  23.180  1.00  0.00     0.120 C 
ATOM     18  C   UNL A   1      31.834  21.363  25.587  1.00  0.00     0.120 C 
ATOM     19  C   UNL A   1      33.085  20.249  23.212  1.00  0.00     0.028 C 
ATOM     20  C   UNL A   1      32.805  20.172  25.744  1.00  0.00     0.028 C 
ATOM     21  C   UNL A   1      33.167  19.373  24.462  1.00  0.00    -0.026 C 
ATOM     22  C   UNL A   1      34.612  18.794  24.549  1.00  0.00     0.007 C 
ATOM     23  C   UNL A   1      32.303  18.117  24.219  1.00  0.00     0.007 C 
ATOM     24  C   UNL A   1      34.559  17.354  24.046  1.00  0.00     0.001 C 
ATOM     25  C   UNL A   1      33.203  17.201  23.385  1.00  0.00     0.001 C 
ENDBRANCH  11  14
ENDBRANCH   8   9
ENDBRANCH   6   8
ENDBRANCH   3   4
ENDBRANCH   2   3
ENDBRANCH   1   2
BRANCH   1  26
ATOM     26  C   UNL A   1      39.129  19.734  25.343  1.00  0.00     0.116 C 
BRANCH  26  27
ATOM     27  N   UNL A   1      40.158  18.905  25.930  1.00  0.00    -0.352 N 
ATOM     28  C   UNL A   1      41.486  19.230  26.066  1.00  0.00     0.251 C 
ATOM     29  H   UNL A   1      39.881  18.022  26.264  1.00  0.00     0.163 HD
ATOM     30  O   UNL A   1      42.319  18.348  25.913  1.00  0.00    -0.269 OA
BRANCH  28  31
ATOM     31  C   UNL A   1      41.897  20.605  26.434  1.00  0.00     0.039 A 
ATOM     32  C   UNL A   1      42.208  21.485  25.390  1.00  0.00     0.014 A 
ATOM     33  C   UNL A   1      42.096  20.993  27.766  1.00  0.00     0.014 A 
ATOM     34  C   UNL A   1      42.707  22.746  25.683  1.00  0.00     0.010 A 
ATOM     35  C   UNL A   1      42.550  22.265  28.065  1.00  0.00     0.010 A 
ATOM     36  C   UNL A   1      42.864  23.130  27.022  1.00  0.00    -0.014 A 
BRANCH  36  37
ATOM     37  C   UNL A   1      43.186  24.535  27.319  1.00  0.00     0.031 A 
ATOM     38  C   UNL A   1      41.877  25.311  27.579  1.00  0.00     0.074 A 
ATOM     39  C   UNL A   1      44.511  24.878  27.250  1.00  0.00     0.049 A 
ATOM     40  N   UNL A   1      41.496  26.475  27.147  1.00  0.00    -0.248 NA
ATOM     41  C   UNL A   1      40.750  24.620  28.274  1.00  0.00     0.031 C 
ATOM     42  C   UNL A   1      45.634  23.922  27.083  1.00  0.00     0.029 A 
ATOM     43  N   UNL A   1      45.201  26.070  27.317  1.00  0.00    -0.354 N 
ATOM     44  C   UNL A   1      40.235  26.748  27.737  1.00  0.00     0.074 A 
ATOM     45  C   UNL A   1      39.748  25.503  28.235  1.00  0.00     0.031 C 
ATOM     46  C   UNL A   1      46.818  24.568  26.971  1.00  0.00     0.029 A 
ATOM     47  C   UNL A   1      46.599  25.998  27.062  1.00  0.00     0.049 A 
ATOM     48  H   UNL A   1      44.752  26.921  27.528  1.00  0.00     0.167 HD
ATOM     49  C   UNL A   1      39.788  28.021  27.966  1.00  0.00     0.034 A 
ATOM     50  C   UNL A   1      47.496  27.024  26.888  1.00  0.00     0.034 A 
ATOM     51  C   UNL A   1      40.803  28.933  27.546  1.00  0.00     0.049 A 
ATOM     52  C   UNL A   1      46.732  28.239  27.192  1.00  0.00     0.074 A 
ATOM     53  C   UNL A   1      41.290  29.285  26.316  1.00  0.00     0.029 A 
ATOM     54  N   UNL A   1      41.722  29.245  28.523  1.00  0.00    -0.354 N 
ATOM     55  N   UNL A   1      46.382  28.612  28.388  1.00  0.00    -0.248 NA
ATOM     56  C   UNL A   1      46.197  29.023  26.073  1.00  0.00     0.031 C 
ATOM     57  C   UNL A   1      42.680  29.343  26.542  1.00  0.00     0.029 A 
ATOM     58  C   UNL A   1      42.944  29.318  27.918  1.00  0.00     0.049 A 
ATOM     59  H   UNL A   1      41.533  29.388  29.479  1.00  0.00     0.167 HD
ATOM     60  C   UNL A   1      45.303  29.413  28.117  1.00  0.00     0.074 A 
ATOM     61  C   UNL A   1      45.473  29.898  26.764  1.00  0.00     0.031 C 
ATOM     62  C   UNL A   1      44.119  29.174  28.737  1.00  0.00     0.034 A 
BRANCH  49  63
ATOM     63  C   UNL A   1      38.692  28.625  28.823  1.00  0.00     0.023 A 
ATOM     64  C   UNL A   1      37.813  29.515  28.134  1.00  0.00     0.012 A 
ATOM     65  C   UNL A   1      38.646  28.644  30.226  1.00  0.00     0.148 A 
ATOM     66  C   UNL A   1      37.056  30.482  28.791  1.00  0.00     0.002 A 
ATOM     67  C   UNL A   1      37.834  29.577  30.883  1.00  0.00     0.091 A 
ATOM     68  F   UNL A   1      39.430  27.822  30.927  1.00  0.00    -0.205 F 
ATOM     69  C   UNL A   1      37.082  30.524  30.170  1.00  0.00     0.022 A 
BRANCH  67  70
ATOM     70  S   UNL A   1      37.689  29.666  32.673  1.00  0.00     0.127 S 
ATOM     71  O   UNL A   1      36.585  30.605  32.843  1.00  0.00    -0.237 OA
ATOM     72  O   UNL A   1      37.363  28.279  33.012  1.00  0.00    -0.237 OA
ATOM     73  O   UNL A   1      38.992  30.104  33.157  1.00  0.00    -0.744 OA
ENDBRANCH  67  70
ENDBRANCH  49  63
BRANCH  50  74
ATOM     74  C   UNL A   1      48.913  27.232  26.383  1.00  0.00     0.023 A 
ATOM     75  C   UNL A   1      50.068  27.095  27.165  1.00  0.00     0.012 A 
ATOM     76  C   UNL A   1      49.140  27.527  24.999  1.00  0.00     0.148 A 
ATOM     77  C   UNL A   1      51.356  27.158  26.582  1.00  0.00     0.002 A 
ATOM     78  C   UNL A   1      50.396  27.458  24.406  1.00  0.00     0.091 A 
ATOM     79  F   UNL A   1      48.129  27.936  24.229  1.00  0.00    -0.205 F 
ATOM     80  C   UNL A   1      51.520  27.288  25.202  1.00  0.00     0.022 A 
BRANCH  78  81
ATOM     81  S   UNL A   1      50.598  27.439  22.610  1.00  0.00     0.127 S 
ATOM     82  O   UNL A   1      51.954  26.917  22.452  1.00  0.00    -0.237 OA
ATOM     83  O   UNL A   1      49.535  26.520  22.206  1.00  0.00    -0.237 OA
ATOM     84  O   UNL A   1      50.411  28.812  22.157  1.00  0.00    -0.744 OA
ENDBRANCH  78  81
ENDBRANCH  50  74
BRANCH  62  85
ATOM     85  C   UNL A   1      44.218  28.532  30.118  1.00  0.00     0.023 A 
ATOM     86  C   UNL A   1      43.876  27.168  30.193  1.00  0.00     0.012 A 
ATOM     87  C   UNL A   1      44.528  29.191  31.336  1.00  0.00     0.148 A 
ATOM     88  C   UNL A   1      43.841  26.481  31.410  1.00  0.00     0.002 A 
ATOM     89  C   UNL A   1      44.472  28.508  32.559  1.00  0.00     0.091 A 
ATOM     90  F   UNL A   1      44.873  30.478  31.299  1.00  0.00    -0.205 F 
ATOM     91  C   UNL A   1      44.138  27.148  32.592  1.00  0.00     0.022 A 
BRANCH  89  92
ATOM     92  S   UNL A   1      44.733  29.290  34.171  1.00  0.00     0.127 S 
ATOM     93  O   UNL A   1      43.469  29.998  34.387  1.00  0.00    -0.237 OA
ATOM     94  O   UNL A   1      44.925  28.138  35.047  1.00  0.00    -0.237 OA
ATOM     95  O   UNL A   1      45.888  30.171  34.021  1.00  0.00    -0.744 OA
ENDBRANCH  89  92
ENDBRANCH  62  85
ENDBRANCH  36  37
ENDBRANCH  28  31
ENDBRANCH  26  27
ENDBRANCH   1  26
TORSDOF 16
ENDMDL
MODEL 2
REMARK VINA RESULT:     -12.3      1.372      3.246
REMARK SMILES O=C(Cn1cccc1C(=O)N1CCC2(CCCC2)CC1)NCCCCNC(=O)c1ccc(-c2c3nc(c(-c4cccc(S(=O)(=O)[O-])c4F)c4ccc([nH]4)c(-c4cccc(S(=O)(=O)[O-])c4F)c4nc(c(-c5cccc(S(=O)(=O)[O-])c5F)c5ccc2[nH]5)C=C4)C=C3)cc1
REMARK SMILES IDX 24 1 23 2 22 3 21 4 1 5 2 6 3 8 4 9 5 10 8 11 6 12 7 13 9 14
REMARK SMILES IDX 10 15 11 16 12 17 20 18 13 19 19 20 14 21 15 22 18 23 16 24
REMARK SMILES IDX 17 25 25 26 26 27 27 28 28 30 29 31 30 32 91 33 31 34 90 35
REMARK SMILES IDX 32 36 33 37 34 38 84 39 35 40 89 41 83 42 85 43 36 44 88 45
REMARK SMILES IDX 82 46 81 47 37 49 69 50 49 51 68 52 50 53 53 54 67 55 86 56
REMARK SMILES IDX 51 57 52 58 66 60 87 61 54 62 38 63 39 64 47 65 40 66 42 67
REMARK SMILES IDX 48 68 41 69 43 70 44 71 45 72 46 73 70 74 71 75 79 76 72 77
REMARK SMILES IDX 74 78 80 79 73 80 75 81 76 82 77 83 78 84 55 85 56 86 64 87
REMARK SMILES IDX 57 88 59 89 65 90 58 91 60 92 61 93 62 94 63 95
REMARK H PARENT 21 7 26 29 85 48 53 59
REMARK Flexibility Score: inf
ROOT
ATOM      1  C   UNL A   1      38.243  20.731  25.961  1.00  0.00     0.023 C 
ENDROOT
BRANCH   1   2
ATOM      2  C   UNL A   1      38.420  22.250  25.798  1.00  0.00     0.023 C 
BRANCH   2   3
ATOM      3  C   UNL A   1      37.254  23.123  25.285  1.00  0.00     0.116 C 
BRANCH   3   4
ATOM      4  N   UNL A   1      35.951  22.485  25.123  1.00  0.00    -0.355 N 
ATOM      5  O   UNL A   1      35.073  23.384  27.022  1.00  0.00    -0.273 OA
ATOM      6  C   UNL A   1      34.903  22.725  25.989  1.00  0.00     0.239 C 
ATOM      7  H   UNL A   1      35.816  21.864  24.371  1.00  0.00     0.163 HD
BRANCH   6   8
ATOM      8  C   UNL A   1      33.553  22.053  25.769  1.00  0.00     0.222 C 
BRANCH   8   9
ATOM      9  N   UNL A   1      33.066  21.846  24.413  1.00  0.00    -0.334 N 
ATOM     10  C   UNL A   1      32.583  20.623  23.993  1.00  0.00     0.087 A 
ATOM     11  C   UNL A   1      33.091  22.728  23.340  1.00  0.00     0.107 A 
ATOM     12  C   UNL A   1      32.105  20.765  22.715  1.00  0.00     0.020 A 
ATOM     13  C   UNL A   1      32.392  22.087  22.320  1.00  0.00     0.033 A 
BRANCH  11  14
ATOM     14  C   UNL A   1      33.550  24.104  23.290  1.00  0.00     0.270 C 
ATOM     15  O   UNL A   1      34.670  24.403  22.841  1.00  0.00    -0.267 OA
ATOM     16  N   UNL A   1      32.642  25.114  23.572  1.00  0.00    -0.337 N 
ATOM     17  C   UNL A   1      32.695  26.272  22.724  1.00  0.00     0.120 C 
ATOM     18  C   UNL A   1      32.182  25.408  24.919  1.00  0.00     0.120 C 
ATOM     19  C   UNL A   1      31.273  26.740  22.500  1.00  0.00     0.028 C 
ATOM     20  C   UNL A   1      30.812  26.120  24.930  1.00  0.00     0.028 C 
ATOM     21  C   UNL A   1      30.516  27.116  23.775  1.00  0.00    -0.026 C 
ATOM     22  C   UNL A   1      28.994  27.150  23.437  1.00  0.00     0.007 C 
ATOM     23  C   UNL A   1      30.834  28.592  24.098  1.00  0.00     0.007 C 
ATOM     24  C   UNL A   1      28.597  28.613  23.262  1.00  0.00     0.001 C 
ATOM     25  C   UNL A   1      29.901  29.384  23.179  1.00  0.00     0.001 C 
ENDBRANCH  11  14
ENDBRANCH   8   9
ENDBRANCH   6   8
ENDBRANCH   3   4
ENDBRANCH   2   3
ENDBRANCH   1   2
BRANCH   1  26
ATOM     26  C   UNL A   1      39.002  19.820  25.023  1.00  0.00     0.116 C 
BRANCH  26  27
ATOM     27  N   UNL A   1      39.894  18.968  25.776  1.00  0.00    -0.352 N 
ATOM     28  C   UNL A   1      41.210  19.228  26.075  1.00  0.00     0.251 C 
ATOM     29  H   UNL A   1      39.523  18.118  26.106  1.00  0.00     0.163 HD
ATOM     30  O   UNL A   1      42.001  18.296  26.071  1.00  0.00    -0.269 OA
BRANCH  28  31
ATOM     31  C   UNL A   1      41.649  20.595  26.438  1.00  0.00     0.039 A 
ATOM     32  C   UNL A   1      42.033  21.446  25.394  1.00  0.00     0.014 A 
ATOM     33  C   UNL A   1      41.805  21.001  27.770  1.00  0.00     0.014 A 
ATOM     34  C   UNL A   1      42.560  22.695  25.687  1.00  0.00     0.010 A 
ATOM     35  C   UNL A   1      42.286  22.263  28.067  1.00  0.00     0.010 A 
ATOM     36  C   UNL A   1      42.672  23.098  27.024  1.00  0.00    -0.014 A 
BRANCH  36  37
ATOM     37  C   UNL A   1      43.028  24.497  27.312  1.00  0.00     0.031 A 
ATOM     38  C   UNL A   1      41.738  25.304  27.576  1.00  0.00     0.074 A 
ATOM     39  C   UNL A   1      44.359  24.811  27.233  1.00  0.00     0.049 A 
ATOM     40  N   UNL A   1      41.380  26.473  27.140  1.00  0.00    -0.248 NA
ATOM     41  C   UNL A   1      40.601  24.641  28.282  1.00  0.00     0.031 C 
ATOM     42  C   UNL A   1      45.460  23.829  27.063  1.00  0.00     0.029 A 
ATOM     43  N   UNL A   1      45.076  25.988  27.288  1.00  0.00    -0.354 N 
ATOM     44  C   UNL A   1      40.129  26.777  27.737  1.00  0.00     0.074 A 
ATOM     45  C   UNL A   1      39.618  25.546  28.245  1.00  0.00     0.031 C 
ATOM     46  C   UNL A   1      46.658  24.448  26.940  1.00  0.00     0.029 A 
ATOM     47  C   UNL A   1      46.470  25.883  27.025  1.00  0.00     0.049 A 
ATOM     48  H   UNL A   1      44.648  26.849  27.497  1.00  0.00     0.167 HD
ATOM     49  C   UNL A   1      39.712  28.061  27.962  1.00  0.00     0.034 A 
ATOM     50  C   UNL A   1      47.389  26.888  26.839  1.00  0.00     0.034 A 
ATOM     51  C   UNL A   1      40.744  28.948  27.530  1.00  0.00     0.049 A 
ATOM     52  C   UNL A   1      46.654  28.121  27.142  1.00  0.00     0.074 A 
ATOM     53  C   UNL A   1      41.231  29.282  26.295  1.00  0.00     0.029 A 
ATOM     54  N   UNL A   1      41.677  29.245  28.499  1.00  0.00    -0.354 N 
ATOM     55  N   UNL A   1      46.320  28.508  28.338  1.00  0.00    -0.248 NA
ATOM     56  C   UNL A   1      46.129  28.911  26.022  1.00  0.00     0.031 C 
ATOM     57  C   UNL A   1      42.623  29.312  26.512  1.00  0.00     0.029 A 
ATOM     58  C   UNL A   1      42.896  29.288  27.887  1.00  0.00     0.049 A 
ATOM     59  H   UNL A   1      41.497  29.397  29.456  1.00  0.00     0.167 HD
ATOM     60  C   UNL A   1      45.258  29.332  28.069  1.00  0.00     0.074 A 
ATOM     61  C   UNL A   1      45.429  29.805  26.713  1.00  0.00     0.031 C 
ATOM     62  C   UNL A   1      44.073  29.122  28.698  1.00  0.00     0.034 A 
BRANCH  49  63
ATOM     63  C   UNL A   1      38.636  28.694  28.823  1.00  0.00     0.023 A 
ATOM     64  C   UNL A   1      37.793  29.623  28.143  1.00  0.00     0.012 A 
ATOM     65  C   UNL A   1      38.584  28.696  30.226  1.00  0.00     0.148 A 
ATOM     66  C   UNL A   1      37.069  30.609  28.808  1.00  0.00     0.002 A 
ATOM     67  C   UNL A   1      37.805  29.650  30.892  1.00  0.00     0.091 A 
ATOM     68  F   UNL A   1      39.336  27.838  30.919  1.00  0.00    -0.205 F 
ATOM     69  C   UNL A   1      37.091  30.633  30.189  1.00  0.00     0.022 A 
BRANCH  67  70
ATOM     70  S   UNL A   1      37.656  29.722  32.682  1.00  0.00     0.127 S 
ATOM     71  O   UNL A   1      38.971  30.217  33.078  1.00  0.00    -0.237 OA
ATOM     72  O   UNL A   1      36.569  30.690  32.850  1.00  0.00    -0.237 OA
ATOM     73  O   UNL A   1      37.318  28.371  33.108  1.00  0.00    -0.744 OA
ENDBRANCH  67  70
ENDBRANCH  49  63
BRANCH  50  74
ATOM     74  C   UNL A   1      48.807  27.062  26.324  1.00  0.00     0.023 A 
ATOM     75  C   UNL A   1      49.965  26.850  27.084  1.00  0.00     0.012 A 
ATOM     76  C   UNL A   1      49.029  27.403  24.949  1.00  0.00     0.148 A 
ATOM     77  C   UNL A   1      51.248  26.887  26.487  1.00  0.00     0.002 A 
ATOM     78  C   UNL A   1      50.273  27.310  24.338  1.00  0.00     0.091 A 
ATOM     79  F   UNL A   1      48.025  27.880  24.210  1.00  0.00    -0.205 F 
ATOM     80  C   UNL A   1      51.400  27.066  25.111  1.00  0.00     0.022 A 
BRANCH  78  81
ATOM     81  S   UNL A   1      50.454  27.354  22.539  1.00  0.00     0.127 S 
ATOM     82  O   UNL A   1      49.354  26.504  22.092  1.00  0.00    -0.237 OA
ATOM     83  O   UNL A   1      50.280  28.780  22.265  1.00  0.00    -0.237 OA
ATOM     84  O   UNL A   1      51.787  26.843  22.244  1.00  0.00    -0.744 OA
ENDBRANCH  78  81
ENDBRANCH  50  74
BRANCH  62  85
ATOM     85  C   UNL A   1      44.166  28.485  30.082  1.00  0.00     0.023 A 
ATOM     86  C   UNL A   1      43.814  27.124  30.164  1.00  0.00     0.012 A 
ATOM     87  C   UNL A   1      44.481  29.147  31.297  1.00  0.00     0.148 A 
ATOM     88  C   UNL A   1      43.773  26.443  31.383  1.00  0.00     0.002 A 
ATOM     89  C   UNL A   1      44.420  28.470  32.523  1.00  0.00     0.091 A 
ATOM     90  F   UNL A   1      44.836  30.431  31.255  1.00  0.00    -0.205 F 
ATOM     91  C   UNL A   1      44.075  27.112  32.562  1.00  0.00     0.022 A 
BRANCH  89  92
ATOM     92  S   UNL A   1      44.688  29.257  34.132  1.00  0.00     0.127 S 
ATOM     93  O   UNL A   1      43.633  30.273  34.166  1.00  0.00    -0.237 OA
ATOM     94  O   UNL A   1      44.475  28.149  35.058  1.00  0.00    -0.237 OA
ATOM     95  O   UNL A   1      46.039  29.808  34.103  1.00  0.00    -0.744 OA
ENDBRANCH  89  92
ENDBRANCH  62  85
ENDBRANCH  36  37
ENDBRANCH  28  31
ENDBRANCH  26  27
ENDBRANCH   1  26
TORSDOF 16
ENDMDL
MODEL 3
REMARK VINA RESULT:     -12.3      3.917      8.752
REMARK SMILES O=C(Cn1cccc1C(=O)N1CCC2(CCCC2)CC1)NCCCCNC(=O)c1ccc(-c2c3nc(c(-c4cccc(S(=O)(=O)[O-])c4F)c4ccc([nH]4)c(-c4cccc(S(=O)(=O)[O-])c4F)c4nc(c(-c5cccc(S(=O)(=O)[O-])c5F)c5ccc2[nH]5)C=C4)C=C3)cc1
REMARK SMILES IDX 24 1 23 2 22 3 21 4 1 5 2 6 3 8 4 9 5 10 8 11 6 12 7 13 9 14
REMARK SMILES IDX 10 15 11 16 12 17 20 18 13 19 19 20 14 21 15 22 18 23 16 24
REMARK SMILES IDX 17 25 25 26 26 27 27 28 28 30 29 31 30 32 91 33 31 34 90 35
REMARK SMILES IDX 32 36 33 37 34 38 84 39 35 40 89 41 83 42 85 43 36 44 88 45
REMARK SMILES IDX 82 46 81 47 37 49 69 50 49 51 68 52 50 53 53 54 67 55 86 56
REMARK SMILES IDX 51 57 52 58 66 60 87 61 54 62 38 63 39 64 47 65 40 66 42 67
REMARK SMILES IDX 48 68 41 69 43 70 44 71 45 72 46 73 70 74 71 75 79 76 72 77
REMARK SMILES IDX 74 78 80 79 73 80 75 81 76 82 77 83 78 84 55 85 56 86 64 87
REMARK SMILES IDX 57 88 59 89 65 90 58 91 60 92 61 93 62 94 63 95
REMARK H PARENT 21 7 26 29 85 48 53 59
REMARK Flexibility Score: inf
ROOT
ATOM      1  C   UNL A   1      41.316  21.297  26.524  1.00  0.00     0.023 C 
ENDROOT
BRANCH   1   2
ATOM      2  C   UNL A   1      39.967  21.983  26.795  1.00  0.00     0.023 C 
BRANCH   2   3
ATOM      3  C   UNL A   1      38.827  21.908  25.755  1.00  0.00     0.116 C 
BRANCH   3   4
ATOM      4  N   UNL A   1      37.458  22.044  26.242  1.00  0.00    -0.355 N 
ATOM      5  O   UNL A   1      36.782  23.356  24.508  1.00  0.00    -0.273 OA
ATOM      6  C   UNL A   1      36.488  22.718  25.526  1.00  0.00     0.239 C 
ATOM      7  H   UNL A   1      37.218  21.641  27.108  1.00  0.00     0.163 HD
BRANCH   6   8
ATOM      8  C   UNL A   1      35.065  22.818  26.063  1.00  0.00     0.222 C 
BRANCH   8   9
ATOM      9  N   UNL A   1      34.049  21.896  25.577  1.00  0.00    -0.334 N 
ATOM     10  C   UNL A   1      34.380  20.752  24.879  1.00  0.00     0.087 A 
ATOM     11  C   UNL A   1      32.666  22.029  25.620  1.00  0.00     0.107 A 
ATOM     12  C   UNL A   1      33.230  20.040  24.650  1.00  0.00     0.020 A 
ATOM     13  C   UNL A   1      32.165  20.822  25.142  1.00  0.00     0.033 A 
BRANCH  11  14
ATOM     14  C   UNL A   1      31.862  23.085  26.208  1.00  0.00     0.270 C 
ATOM     15  O   UNL A   1      31.371  22.976  27.344  1.00  0.00    -0.267 OA
ATOM     16  N   UNL A   1      31.806  24.310  25.561  1.00  0.00    -0.337 N 
ATOM     17  C   UNL A   1      31.881  25.476  26.397  1.00  0.00     0.120 C 
ATOM     18  C   UNL A   1      31.042  24.526  24.343  1.00  0.00     0.120 C 
ATOM     19  C   UNL A   1      32.704  26.513  25.662  1.00  0.00     0.028 C 
ATOM     20  C   UNL A   1      31.572  25.720  23.520  1.00  0.00     0.028 C 
ATOM     21  C   UNL A   1      32.135  26.936  24.306  1.00  0.00    -0.026 C 
ATOM     22  C   UNL A   1      33.272  27.645  23.509  1.00  0.00     0.007 C 
ATOM     23  C   UNL A   1      31.120  28.072  24.551  1.00  0.00     0.007 C 
ATOM     24  C   UNL A   1      33.035  29.148  23.614  1.00  0.00     0.001 C 
ATOM     25  C   UNL A   1      31.990  29.323  24.699  1.00  0.00     0.001 C 
ENDBRANCH  11  14
ENDBRANCH   8   9
ENDBRANCH   6   8
ENDBRANCH   3   4
ENDBRANCH   2   3
ENDBRANCH   1   2
BRANCH   1  26
ATOM     26  C   UNL A   1      42.361  22.063  25.745  1.00  0.00     0.116 C 
BRANCH  26  27
ATOM     27  N   UNL A   1      43.653  21.918  26.377  1.00  0.00    -0.352 N 
ATOM     28  C   UNL A   1      44.475  22.937  26.793  1.00  0.00     0.251 C 
ATOM     29  H   UNL A   1      43.976  20.999  26.523  1.00  0.00     0.163 HD
ATOM     30  O   UNL A   1      45.683  22.800  26.662  1.00  0.00    -0.269 OA
BRANCH  28  31
ATOM     31  C   UNL A   1      43.914  24.153  27.427  1.00  0.00     0.039 A 
ATOM     32  C   UNL A   1      43.078  23.973  28.536  1.00  0.00     0.014 A 
ATOM     33  C   UNL A   1      44.095  25.431  26.881  1.00  0.00     0.014 A 
ATOM     34  C   UNL A   1      42.437  25.069  29.095  1.00  0.00     0.010 A 
ATOM     35  C   UNL A   1      43.495  26.533  27.463  1.00  0.00     0.010 A 
ATOM     36  C   UNL A   1      42.661  26.344  28.559  1.00  0.00    -0.014 A 
BRANCH  36  37
ATOM     37  C   UNL A   1      42.150  27.516  29.289  1.00  0.00     0.031 A 
ATOM     38  C   UNL A   1      43.001  27.732  30.559  1.00  0.00     0.074 A 
ATOM     39  C   UNL A   1      41.037  28.118  28.763  1.00  0.00     0.049 A 
ATOM     40  N   UNL A   1      42.634  27.995  31.776  1.00  0.00    -0.248 NA
ATOM     41  C   UNL A   1      44.465  27.439  30.509  1.00  0.00     0.031 C 
ATOM     42  C   UNL A   1      40.435  27.797  27.444  1.00  0.00     0.029 A 
ATOM     43  N   UNL A   1      40.189  29.117  29.192  1.00  0.00    -0.354 N 
ATOM     44  C   UNL A   1      43.816  28.162  32.543  1.00  0.00     0.074 A 
ATOM     45  C   UNL A   1      44.878  27.608  31.768  1.00  0.00     0.031 C 
ATOM     46  C   UNL A   1      39.300  28.503  27.236  1.00  0.00     0.029 A 
ATOM     47  C   UNL A   1      39.047  29.359  28.379  1.00  0.00     0.049 A 
ATOM     48  H   UNL A   1      40.364  29.632  30.012  1.00  0.00     0.167 HD
ATOM     49  C   UNL A   1      43.864  28.946  33.664  1.00  0.00     0.034 A 
ATOM     50  C   UNL A   1      37.957  30.153  28.642  1.00  0.00     0.034 A 
ATOM     51  C   UNL A   1      42.576  29.533  33.852  1.00  0.00     0.049 A 
ATOM     52  C   UNL A   1      38.298  30.851  29.886  1.00  0.00     0.074 A 
ATOM     53  C   UNL A   1      41.360  29.020  34.217  1.00  0.00     0.029 A 
ATOM     54  N   UNL A   1      42.403  30.737  33.205  1.00  0.00    -0.354 N 
ATOM     55  N   UNL A   1      39.157  31.822  29.978  1.00  0.00    -0.248 NA
ATOM     56  C   UNL A   1      37.748  30.334  31.146  1.00  0.00     0.031 C 
ATOM     57  C   UNL A   1      40.474  29.686  33.347  1.00  0.00     0.029 A 
ATOM     58  C   UNL A   1      41.128  30.754  32.719  1.00  0.00     0.049 A 
ATOM     59  H   UNL A   1      43.075  31.451  33.111  1.00  0.00     0.167 HD
ATOM     60  C   UNL A   1      39.511  31.748  31.300  1.00  0.00     0.074 A 
ATOM     61  C   UNL A   1      38.407  31.119  31.992  1.00  0.00     0.031 C 
ATOM     62  C   UNL A   1      40.823  31.654  31.638  1.00  0.00     0.034 A 
BRANCH  49  63
ATOM     63  C   UNL A   1      44.980  29.563  34.484  1.00  0.00     0.023 A 
ATOM     64  C   UNL A   1      44.865  29.371  35.894  1.00  0.00     0.012 A 
ATOM     65  C   UNL A   1      45.904  30.525  34.045  1.00  0.00     0.148 A 
ATOM     66  C   UNL A   1      45.500  30.196  36.819  1.00  0.00     0.002 A 
ATOM     67  C   UNL A   1      46.588  31.311  34.981  1.00  0.00     0.091 A 
ATOM     68  F   UNL A   1      46.070  30.737  32.738  1.00  0.00    -0.205 F 
ATOM     69  C   UNL A   1      46.350  31.181  36.359  1.00  0.00     0.022 A 
BRANCH  67  70
ATOM     70  S   UNL A   1      47.804  32.551  34.521  1.00  0.00     0.127 S 
ATOM     71  O   UNL A   1      46.987  33.533  33.814  1.00  0.00    -0.237 OA
ATOM     72  O   UNL A   1      48.284  32.995  35.833  1.00  0.00    -0.237 OA
ATOM     73  O   UNL A   1      48.807  31.852  33.729  1.00  0.00    -0.744 OA
ENDBRANCH  67  70
ENDBRANCH  49  63
BRANCH  50  74
ATOM     74  C   UNL A   1      36.557  30.390  28.103  1.00  0.00     0.023 A 
ATOM     75  C   UNL A   1      35.679  29.380  27.687  1.00  0.00     0.012 A 
ATOM     76  C   UNL A   1      36.026  31.721  28.057  1.00  0.00     0.148 A 
ATOM     77  C   UNL A   1      34.339  29.674  27.340  1.00  0.00     0.002 A 
ATOM     78  C   UNL A   1      34.680  31.992  27.845  1.00  0.00     0.091 A 
ATOM     79  F   UNL A   1      36.845  32.769  28.174  1.00  0.00    -0.205 F 
ATOM     80  C   UNL A   1      33.826  30.966  27.467  1.00  0.00     0.022 A 
BRANCH  78  81
ATOM     81  S   UNL A   1      33.974  33.621  28.187  1.00  0.00     0.127 S 
ATOM     82  O   UNL A   1      32.576  33.445  27.800  1.00  0.00    -0.237 OA
ATOM     83  O   UNL A   1      34.204  33.742  29.626  1.00  0.00    -0.237 OA
ATOM     84  O   UNL A   1      34.721  34.575  27.375  1.00  0.00    -0.744 OA
ENDBRANCH  78  81
ENDBRANCH  50  74
BRANCH  62  85
ATOM     85  C   UNL A   1      41.801  32.298  30.660  1.00  0.00     0.023 A 
ATOM     86  C   UNL A   1      42.670  31.420  29.983  1.00  0.00     0.012 A 
ATOM     87  C   UNL A   1      41.981  33.688  30.437  1.00  0.00     0.148 A 
ATOM     88  C   UNL A   1      43.670  31.886  29.125  1.00  0.00     0.002 A 
ATOM     89  C   UNL A   1      42.999  34.157  29.593  1.00  0.00     0.091 A 
ATOM     90  F   UNL A   1      41.165  34.547  31.048  1.00  0.00    -0.205 F 
ATOM     91  C   UNL A   1      43.836  33.251  28.930  1.00  0.00     0.022 A 
BRANCH  89  92
ATOM     92  S   UNL A   1      43.381  35.909  29.341  1.00  0.00     0.127 S 
ATOM     93  O   UNL A   1      42.173  36.403  28.676  1.00  0.00    -0.237 OA
ATOM     94  O   UNL A   1      43.545  36.390  30.709  1.00  0.00    -0.237 OA
ATOM     95  O   UNL A   1      44.578  35.954  28.506  1.00  0.00    -0.744 OA
ENDBRANCH  89  92
ENDBRANCH  62  85
ENDBRANCH  36  37
ENDBRANCH  28  31
ENDBRANCH  26  27
ENDBRANCH   1  26
TORSDOF 16
ENDMDL
