MODEL 1
REMARK VINA RESULT:     -11.0      0.000      0.000
REMARK SMILES CCN1C(=O)N(CC)[C@H]2NC(=O)N(CCCC(=O)NCCCCNC(=O)c3ccc(-c4c5nc(c(-c6cccc(S(=O)(=O)[O-])c6F)c6ccc([nH]6)c(-c6cccc(S(=O)(=O)[O-])c6F)c6nc(c(-c7cccc(S(=O)(=O)[O-])c7F)c7ccc4[nH]7)C=C6)C=C5)cc3)[C@@H]21
REMARK SMILES IDX 21 1 20 2 19 3 17 4 18 5 16 7 15 8 14 9 13 10 3 11 4 12
REMARK SMILES IDX 90 13 5 14 6 15 9 16 10 17 11 18 12 20 2 21 1 22 7 23 8 24
REMARK SMILES IDX 22 25 23 26 24 27 25 28 26 30 27 31 28 32 89 33 29 34 88 35
REMARK SMILES IDX 30 36 31 37 32 38 82 39 33 40 87 41 81 42 83 43 34 44 86 45
REMARK SMILES IDX 80 46 79 47 35 49 67 50 47 51 66 52 48 53 51 54 65 55 84 56
REMARK SMILES IDX 49 57 50 58 64 60 85 61 52 62 36 63 37 64 45 65 38 66 40 67
REMARK SMILES IDX 46 68 39 69 41 70 42 71 43 72 44 73 68 74 69 75 77 76 70 77
REMARK SMILES IDX 72 78 78 79 71 80 73 81 74 82 75 83 76 84 53 85 54 86 62 87
REMARK SMILES IDX 55 88 57 89 63 90 56 91 58 92 59 93 60 94 61 95
REMARK H PARENT 19 6 10 19 24 29 83 48 51 59
REMARK Flexibility Score: inf
ROOT
ATOM      1  C   UNL A   1      38.938  21.896  25.980  1.00  0.00     0.023 C 
ENDROOT
BRANCH   1   2
ATOM      2  C   UNL A   1      37.532  21.399  25.641  1.00  0.00     0.116 C 
BRANCH   2   3
ATOM      3  N   UNL A   1      37.035  21.871  24.364  1.00  0.00    -0.356 N 
ATOM      4  C   UNL A   1      36.442  23.029  23.976  1.00  0.00     0.220 C 
ATOM      5  O   UNL A   1      36.425  23.256  22.760  1.00  0.00    -0.275 OA
ATOM      6  H   UNL A   1      37.151  21.223  23.632  1.00  0.00     0.163 HD
BRANCH   4   7
ATOM      7  C   UNL A   1      35.848  24.071  24.924  1.00  0.00     0.102 C 
BRANCH   7   8
ATOM      8  C   UNL A   1      34.374  24.378  24.826  1.00  0.00     0.031 C 
BRANCH   8   9
ATOM      9  C   UNL A   1      33.413  23.561  25.667  1.00  0.00     0.124 C 
BRANCH   9  10
ATOM     10  N   UNL A   1      33.329  22.099  25.594  1.00  0.00    -0.300 N 
ATOM     11  N   UNL A   1      32.299  20.796  23.396  1.00  0.00    -0.300 N 
ATOM     12  C   UNL A   1      32.376  19.351  23.252  1.00  0.00     0.323 C 
ATOM     13  C   UNL A   1      33.217  21.118  24.501  1.00  0.00     0.231 C 
ATOM     14  O   UNL A   1      32.153  18.712  22.240  1.00  0.00    -0.248 OA
ATOM     15  N   UNL A   1      32.841  18.835  24.466  1.00  0.00    -0.300 N 
ATOM     16  C   UNL A   1      32.823  19.904  25.375  1.00  0.00     0.228 C 
ATOM     17  N   UNL A   1      33.610  20.015  26.523  1.00  0.00    -0.314 N 
ATOM     18  C   UNL A   1      33.703  21.379  26.779  1.00  0.00     0.320 C 
ATOM     19  H   UNL A   1      34.014  19.282  27.042  1.00  0.00     0.167 HD
ATOM     20  O   UNL A   1      34.021  21.840  27.859  1.00  0.00    -0.249 OA
BRANCH  11  21
ATOM     21  C   UNL A   1      32.061  21.516  22.153  1.00  0.00     0.120 C 
ATOM     22  C   UNL A   1      32.904  22.781  22.004  1.00  0.00     0.027 C 
ENDBRANCH  11  21
BRANCH  15  23
ATOM     23  C   UNL A   1      33.261  17.482  24.746  1.00  0.00     0.120 C 
ATOM     24  C   UNL A   1      34.739  17.238  24.496  1.00  0.00     0.027 C 
ENDBRANCH  15  23
ENDBRANCH   9  10
ENDBRANCH   8   9
ENDBRANCH   7   8
ENDBRANCH   4   7
ENDBRANCH   2   3
ENDBRANCH   1   2
BRANCH   1  25
ATOM     25  C   UNL A   1      39.818  20.810  26.583  1.00  0.00     0.023 C 
BRANCH  25  26
ATOM     26  C   UNL A   1      39.973  19.578  25.696  1.00  0.00     0.116 C 
BRANCH  26  27
ATOM     27  N   UNL A   1      41.158  18.786  26.001  1.00  0.00    -0.352 N 
ATOM     28  C   UNL A   1      42.416  19.232  26.343  1.00  0.00     0.251 C 
ATOM     29  H   UNL A   1      41.045  17.809  25.958  1.00  0.00     0.163 HD
ATOM     30  O   UNL A   1      43.340  18.437  26.484  1.00  0.00    -0.269 OA
BRANCH  28  31
ATOM     31  C   UNL A   1      42.646  20.685  26.495  1.00  0.00     0.039 A 
ATOM     32  C   UNL A   1      42.663  21.236  27.778  1.00  0.00     0.014 A 
ATOM     33  C   UNL A   1      42.927  21.480  25.381  1.00  0.00     0.014 A 
ATOM     34  C   UNL A   1      43.029  22.573  27.945  1.00  0.00     0.010 A 
ATOM     35  C   UNL A   1      43.391  22.779  25.561  1.00  0.00     0.010 A 
ATOM     36  C   UNL A   1      43.435  23.347  26.843  1.00  0.00    -0.014 A 
BRANCH  36  37
ATOM     37  C   UNL A   1      43.904  24.747  27.028  1.00  0.00     0.031 A 
ATOM     38  C   UNL A   1      42.973  25.796  27.579  1.00  0.00     0.074 A 
ATOM     39  C   UNL A   1      45.152  25.090  26.649  1.00  0.00     0.049 A 
ATOM     40  N   UNL A   1      43.214  27.056  27.832  1.00  0.00    -0.248 NA
ATOM     41  C   UNL A   1      41.586  25.388  27.854  1.00  0.00     0.031 C 
ATOM     42  C   UNL A   1      46.121  24.196  26.009  1.00  0.00     0.029 A 
ATOM     43  N   UNL A   1      45.818  26.288  26.736  1.00  0.00    -0.354 N 
ATOM     44  C   UNL A   1      42.007  27.596  28.261  1.00  0.00     0.074 A 
ATOM     45  C   UNL A   1      41.024  26.538  28.193  1.00  0.00     0.031 C 
ATOM     46  C   UNL A   1      47.259  24.869  25.780  1.00  0.00     0.029 A 
ATOM     47  C   UNL A   1      47.097  26.248  26.229  1.00  0.00     0.049 A 
ATOM     48  H   UNL A   1      45.419  27.099  27.125  1.00  0.00     0.167 HD
ATOM     49  C   UNL A   1      41.743  28.848  28.702  1.00  0.00     0.034 A 
ATOM     50  C   UNL A   1      48.035  27.212  26.135  1.00  0.00     0.034 A 
ATOM     51  C   UNL A   1      42.729  29.889  28.808  1.00  0.00     0.049 A 
ATOM     52  C   UNL A   1      47.734  28.578  26.691  1.00  0.00     0.074 A 
ATOM     53  C   UNL A   1      42.585  31.159  29.336  1.00  0.00     0.029 A 
ATOM     54  N   UNL A   1      44.038  29.785  28.364  1.00  0.00    -0.354 N 
ATOM     55  N   UNL A   1      46.636  29.016  27.257  1.00  0.00    -0.248 NA
ATOM     56  C   UNL A   1      48.818  29.570  26.635  1.00  0.00     0.031 C 
ATOM     57  C   UNL A   1      43.797  31.840  29.174  1.00  0.00     0.029 A 
ATOM     58  C   UNL A   1      44.709  30.975  28.591  1.00  0.00     0.049 A 
ATOM     59  H   UNL A   1      44.432  28.986  27.948  1.00  0.00     0.167 HD
ATOM     60  C   UNL A   1      46.908  30.319  27.658  1.00  0.00     0.074 A 
ATOM     61  C   UNL A   1      48.285  30.588  27.295  1.00  0.00     0.031 C 
ATOM     62  C   UNL A   1      46.091  31.217  28.263  1.00  0.00     0.034 A 
BRANCH  49  63
ATOM     63  C   UNL A   1      40.335  29.155  29.144  1.00  0.00     0.023 A 
ATOM     64  C   UNL A   1      39.371  29.554  28.195  1.00  0.00     0.012 A 
ATOM     65  C   UNL A   1      39.951  28.990  30.489  1.00  0.00     0.148 A 
ATOM     66  C   UNL A   1      38.057  29.817  28.581  1.00  0.00     0.002 A 
ATOM     67  C   UNL A   1      38.628  29.204  30.858  1.00  0.00     0.091 A 
ATOM     68  F   UNL A   1      40.884  28.632  31.382  1.00  0.00    -0.205 F 
ATOM     69  C   UNL A   1      37.684  29.631  29.909  1.00  0.00     0.022 A 
BRANCH  67  70
ATOM     70  S   UNL A   1      38.026  28.907  32.524  1.00  0.00     0.127 S 
ATOM     71  O   UNL A   1      38.184  27.459  32.642  1.00  0.00    -0.237 OA
ATOM     72  O   UNL A   1      38.963  29.691  33.331  1.00  0.00    -0.237 OA
ATOM     73  O   UNL A   1      36.652  29.388  32.548  1.00  0.00    -0.744 OA
ENDBRANCH  67  70
ENDBRANCH  49  63
BRANCH  50  74
ATOM     74  C   UNL A   1      49.368  26.907  25.542  1.00  0.00     0.023 A 
ATOM     75  C   UNL A   1      50.362  26.292  26.330  1.00  0.00     0.012 A 
ATOM     76  C   UNL A   1      49.654  27.218  24.199  1.00  0.00     0.148 A 
ATOM     77  C   UNL A   1      51.628  26.031  25.803  1.00  0.00     0.002 A 
ATOM     78  C   UNL A   1      50.896  26.900  23.663  1.00  0.00     0.091 A 
ATOM     79  F   UNL A   1      48.700  27.811  23.469  1.00  0.00    -0.205 F 
ATOM     80  C   UNL A   1      51.892  26.326  24.470  1.00  0.00     0.022 A 
BRANCH  78  81
ATOM     81  S   UNL A   1      51.277  27.120  21.923  1.00  0.00     0.127 S 
ATOM     82  O   UNL A   1      51.339  28.575  21.811  1.00  0.00    -0.237 OA
ATOM     83  O   UNL A   1      52.566  26.435  21.808  1.00  0.00    -0.237 OA
ATOM     84  O   UNL A   1      50.190  26.476  21.198  1.00  0.00    -0.744 OA
ENDBRANCH  78  81
ENDBRANCH  50  74
BRANCH  62  85
ATOM     85  C   UNL A   1      46.674  32.562  28.616  1.00  0.00     0.023 A 
ATOM     86  C   UNL A   1      47.270  32.769  29.875  1.00  0.00     0.012 A 
ATOM     87  C   UNL A   1      46.666  33.610  27.675  1.00  0.00     0.148 A 
ATOM     88  C   UNL A   1      47.802  34.014  30.211  1.00  0.00     0.002 A 
ATOM     89  C   UNL A   1      47.250  34.830  27.996  1.00  0.00     0.091 A 
ATOM     90  F   UNL A   1      46.080  33.402  26.487  1.00  0.00    -0.205 F 
ATOM     91  C   UNL A   1      47.801  35.039  29.270  1.00  0.00     0.022 A 
BRANCH  89  92
ATOM     92  S   UNL A   1      47.385  36.170  26.808  1.00  0.00     0.127 S 
ATOM     93  O   UNL A   1      45.980  36.456  26.521  1.00  0.00    -0.237 OA
ATOM     94  O   UNL A   1      48.073  37.204  27.582  1.00  0.00    -0.237 OA
ATOM     95  O   UNL A   1      48.158  35.640  25.693  1.00  0.00    -0.744 OA
ENDBRANCH  89  92
ENDBRANCH  62  85
ENDBRANCH  36  37
ENDBRANCH  28  31
ENDBRANCH  26  27
ENDBRANCH  25  26
ENDBRANCH   1  25
TORSDOF 19
ENDMDL
MODEL 2
REMARK VINA RESULT:     -10.9      1.813      3.163
REMARK SMILES CCN1C(=O)N(CC)[C@H]2NC(=O)N(CCCC(=O)NCCCCNC(=O)c3ccc(-c4c5nc(c(-c6cccc(S(=O)(=O)[O-])c6F)c6ccc([nH]6)c(-c6cccc(S(=O)(=O)[O-])c6F)c6nc(c(-c7cccc(S(=O)(=O)[O-])c7F)c7ccc4[nH]7)C=C6)C=C5)cc3)[C@@H]21
REMARK SMILES IDX 21 1 20 2 19 3 17 4 18 5 16 7 15 8 14 9 13 10 3 11 4 12
REMARK SMILES IDX 90 13 5 14 6 15 9 16 10 17 11 18 12 20 2 21 1 22 7 23 8 24
REMARK SMILES IDX 22 25 23 26 24 27 25 28 26 30 27 31 28 32 89 33 29 34 88 35
REMARK SMILES IDX 30 36 31 37 32 38 82 39 33 40 87 41 81 42 83 43 34 44 86 45
REMARK SMILES IDX 80 46 79 47 35 49 67 50 47 51 66 52 48 53 51 54 65 55 84 56
REMARK SMILES IDX 49 57 50 58 64 60 85 61 52 62 36 63 37 64 45 65 38 66 40 67
REMARK SMILES IDX 46 68 39 69 41 70 42 71 43 72 44 73 68 74 69 75 77 76 70 77
REMARK SMILES IDX 72 78 78 79 71 80 73 81 74 82 75 83 76 84 53 85 54 86 62 87
REMARK SMILES IDX 55 88 57 89 63 90 56 91 58 92 59 93 60 94 61 95
REMARK H PARENT 19 6 10 19 24 29 83 48 51 59
REMARK Flexibility Score: inf
ROOT
ATOM      1  C   UNL A   1      39.444  22.845  26.441  1.00  0.00     0.023 C 
ENDROOT
BRANCH   1   2
ATOM      2  C   UNL A   1      38.171  23.631  26.126  1.00  0.00     0.116 C 
BRANCH   2   3
ATOM      3  N   UNL A   1      36.948  22.914  26.430  1.00  0.00    -0.356 N 
ATOM      4  C   UNL A   1      35.773  22.771  25.764  1.00  0.00     0.220 C 
ATOM      5  O   UNL A   1      35.046  21.841  26.131  1.00  0.00    -0.275 OA
ATOM      6  H   UNL A   1      36.975  22.436  27.290  1.00  0.00     0.163 HD
BRANCH   4   7
ATOM      7  C   UNL A   1      35.322  23.635  24.587  1.00  0.00     0.102 C 
BRANCH   7   8
ATOM      8  C   UNL A   1      35.061  22.967  23.260  1.00  0.00     0.031 C 
BRANCH   8   9
ATOM      9  C   UNL A   1      33.712  23.178  22.603  1.00  0.00     0.124 C 
BRANCH   9  10
ATOM     10  N   UNL A   1      32.899  24.380  22.811  1.00  0.00    -0.300 N 
ATOM     11  N   UNL A   1      31.461  24.799  25.123  1.00  0.00    -0.300 N 
ATOM     12  C   UNL A   1      30.799  26.065  25.399  1.00  0.00     0.323 C 
ATOM     13  C   UNL A   1      32.358  25.078  23.990  1.00  0.00     0.231 C 
ATOM     14  O   UNL A   1      30.333  26.418  26.466  1.00  0.00    -0.248 OA
ATOM     15  N   UNL A   1      30.874  26.837  24.236  1.00  0.00    -0.300 N 
ATOM     16  C   UNL A   1      31.358  25.983  23.233  1.00  0.00     0.228 C 
ATOM     17  N   UNL A   1      32.033  26.380  22.076  1.00  0.00    -0.314 N 
ATOM     18  C   UNL A   1      32.794  25.279  21.696  1.00  0.00     0.320 C 
ATOM     19  H   UNL A   1      31.981  27.254  21.626  1.00  0.00     0.167 HD
ATOM     20  O   UNL A   1      33.247  25.131  20.576  1.00  0.00    -0.249 OA
BRANCH  11  21
ATOM     21  C   UNL A   1      31.685  23.966  26.295  1.00  0.00     0.120 C 
ATOM     22  C   UNL A   1      31.521  22.471  26.027  1.00  0.00     0.027 C 
ENDBRANCH  11  21
BRANCH  15  23
ATOM     23  C   UNL A   1      30.533  28.232  24.081  1.00  0.00     0.120 C 
ATOM     24  C   UNL A   1      29.366  28.473  23.140  1.00  0.00     0.027 C 
ENDBRANCH  15  23
ENDBRANCH   9  10
ENDBRANCH   8   9
ENDBRANCH   7   8
ENDBRANCH   4   7
ENDBRANCH   2   3
ENDBRANCH   1   2
BRANCH   1  25
ATOM     25  C   UNL A   1      39.442  21.449  25.834  1.00  0.00     0.023 C 
BRANCH  25  26
ATOM     26  C   UNL A   1      39.786  20.343  26.828  1.00  0.00     0.116 C 
BRANCH  26  27
ATOM     27  N   UNL A   1      40.702  19.343  26.292  1.00  0.00    -0.352 N 
ATOM     28  C   UNL A   1      42.036  19.489  25.983  1.00  0.00     0.251 C 
ATOM     29  H   UNL A   1      40.318  18.451  26.132  1.00  0.00     0.163 HD
ATOM     30  O   UNL A   1      42.655  18.572  25.452  1.00  0.00    -0.269 OA
BRANCH  28  31
ATOM     31  C   UNL A   1      42.700  20.781  26.261  1.00  0.00     0.039 A 
ATOM     32  C   UNL A   1      43.091  21.584  25.188  1.00  0.00     0.014 A 
ATOM     33  C   UNL A   1      42.859  21.230  27.575  1.00  0.00     0.014 A 
ATOM     34  C   UNL A   1      43.579  22.869  25.435  1.00  0.00     0.010 A 
ATOM     35  C   UNL A   1      43.246  22.545  27.810  1.00  0.00     0.010 A 
ATOM     36  C   UNL A   1      43.625  23.377  26.746  1.00  0.00    -0.014 A 
BRANCH  36  37
ATOM     37  C   UNL A   1      44.066  24.774  27.006  1.00  0.00     0.031 A 
ATOM     38  C   UNL A   1      43.101  25.786  27.565  1.00  0.00     0.074 A 
ATOM     39  C   UNL A   1      45.322  25.149  26.688  1.00  0.00     0.049 A 
ATOM     40  N   UNL A   1      43.313  27.038  27.879  1.00  0.00    -0.248 NA
ATOM     41  C   UNL A   1      41.710  25.349  27.771  1.00  0.00     0.031 C 
ATOM     42  C   UNL A   1      46.326  24.295  26.047  1.00  0.00     0.029 A 
ATOM     43  N   UNL A   1      45.967  26.351  26.848  1.00  0.00    -0.354 N 
ATOM     44  C   UNL A   1      42.084  27.544  28.284  1.00  0.00     0.074 A 
ATOM     45  C   UNL A   1      41.119  26.477  28.137  1.00  0.00     0.031 C 
ATOM     46  C   UNL A   1      47.462  24.993  25.888  1.00  0.00     0.029 A 
ATOM     47  C   UNL A   1      47.263  26.349  26.387  1.00  0.00     0.049 A 
ATOM     48  H   UNL A   1      45.542  27.140  27.255  1.00  0.00     0.167 HD
ATOM     49  C   UNL A   1      41.785  28.773  28.767  1.00  0.00     0.034 A 
ATOM     50  C   UNL A   1      48.190  27.329  26.368  1.00  0.00     0.034 A 
ATOM     51  C   UNL A   1      42.752  29.821  28.951  1.00  0.00     0.049 A 
ATOM     52  C   UNL A   1      47.849  28.667  26.968  1.00  0.00     0.074 A 
ATOM     53  C   UNL A   1      42.570  31.066  29.526  1.00  0.00     0.029 A 
ATOM     54  N   UNL A   1      44.077  29.753  28.552  1.00  0.00    -0.354 N 
ATOM     55  N   UNL A   1      46.724  29.066  27.511  1.00  0.00    -0.248 NA
ATOM     56  C   UNL A   1      48.919  29.675  26.993  1.00  0.00     0.031 C 
ATOM     57  C   UNL A   1      43.776  31.769  29.437  1.00  0.00     0.029 A 
ATOM     58  C   UNL A   1      44.722  30.942  28.853  1.00  0.00     0.049 A 
ATOM     59  H   UNL A   1      44.498  28.977  28.119  1.00  0.00     0.167 HD
ATOM     60  C   UNL A   1      46.963  30.355  27.976  1.00  0.00     0.074 A 
ATOM     61  C   UNL A   1      48.347  30.657  27.675  1.00  0.00     0.031 C 
ATOM     62  C   UNL A   1      46.111  31.215  28.587  1.00  0.00     0.034 A 
BRANCH  49  63
ATOM     63  C   UNL A   1      40.358  29.042  29.169  1.00  0.00     0.023 A 
ATOM     64  C   UNL A   1      39.396  29.350  28.184  1.00  0.00     0.012 A 
ATOM     65  C   UNL A   1      39.956  28.930  30.514  1.00  0.00     0.148 A 
ATOM     66  C   UNL A   1      38.065  29.577  28.535  1.00  0.00     0.002 A 
ATOM     67  C   UNL A   1      38.619  29.106  30.849  1.00  0.00     0.091 A 
ATOM     68  F   UNL A   1      40.886  28.658  31.439  1.00  0.00    -0.205 F 
ATOM     69  C   UNL A   1      37.675  29.444  29.864  1.00  0.00     0.022 A 
BRANCH  67  70
ATOM     70  S   UNL A   1      37.999  28.871  32.519  1.00  0.00     0.127 S 
ATOM     71  O   UNL A   1      38.131  27.425  32.682  1.00  0.00    -0.237 OA
ATOM     72  O   UNL A   1      38.942  29.663  33.309  1.00  0.00    -0.237 OA
ATOM     73  O   UNL A   1      36.632  29.375  32.517  1.00  0.00    -0.744 OA
ENDBRANCH  67  70
ENDBRANCH  49  63
BRANCH  50  74
ATOM     74  C   UNL A   1      49.548  27.067  25.813  1.00  0.00     0.023 A 
ATOM     75  C   UNL A   1      50.565  26.570  26.652  1.00  0.00     0.012 A 
ATOM     76  C   UNL A   1      49.835  27.301  24.454  1.00  0.00     0.148 A 
ATOM     77  C   UNL A   1      51.853  26.353  26.159  1.00  0.00     0.002 A 
ATOM     78  C   UNL A   1      51.102  27.024  23.955  1.00  0.00     0.091 A 
ATOM     79  F   UNL A   1      48.858  27.782  23.673  1.00  0.00    -0.205 F 
ATOM     80  C   UNL A   1      52.119  26.571  24.811  1.00  0.00     0.022 A 
BRANCH  78  81
ATOM     81  S   UNL A   1      51.495  27.146  22.208  1.00  0.00     0.127 S 
ATOM     82  O   UNL A   1      50.246  26.711  21.589  1.00  0.00    -0.237 OA
ATOM     83  O   UNL A   1      51.793  28.572  22.065  1.00  0.00    -0.237 OA
ATOM     84  O   UNL A   1      52.641  26.271  22.001  1.00  0.00    -0.744 OA
ENDBRANCH  78  81
ENDBRANCH  50  74
BRANCH  62  85
ATOM     85  C   UNL A   1      46.661  32.552  29.016  1.00  0.00     0.023 A 
ATOM     86  C   UNL A   1      47.295  32.690  30.265  1.00  0.00     0.012 A 
ATOM     87  C   UNL A   1      46.583  33.664  28.154  1.00  0.00     0.148 A 
ATOM     88  C   UNL A   1      47.797  33.926  30.672  1.00  0.00     0.002 A 
ATOM     89  C   UNL A   1      47.136  34.878  28.542  1.00  0.00     0.091 A 
ATOM     90  F   UNL A   1      45.960  33.520  26.975  1.00  0.00    -0.205 F 
ATOM     91  C   UNL A   1      47.727  35.016  29.808  1.00  0.00     0.022 A 
BRANCH  89  92
ATOM     92  S   UNL A   1      47.182  36.303  27.451  1.00  0.00     0.127 S 
ATOM     93  O   UNL A   1      47.701  37.341  28.339  1.00  0.00    -0.237 OA
ATOM     94  O   UNL A   1      48.114  35.868  26.410  1.00  0.00    -0.237 OA
ATOM     95  O   UNL A   1      45.814  36.499  26.990  1.00  0.00    -0.744 OA
ENDBRANCH  89  92
ENDBRANCH  62  85
ENDBRANCH  36  37
ENDBRANCH  28  31
ENDBRANCH  26  27
ENDBRANCH  25  26
ENDBRANCH   1  25
TORSDOF 19
ENDMDL
MODEL 3
REMARK VINA RESULT:     -10.7      3.209      8.182
REMARK SMILES CCN1C(=O)N(CC)[C@H]2NC(=O)N(CCCC(=O)NCCCCNC(=O)c3ccc(-c4c5nc(c(-c6cccc(S(=O)(=O)[O-])c6F)c6ccc([nH]6)c(-c6cccc(S(=O)(=O)[O-])c6F)c6nc(c(-c7cccc(S(=O)(=O)[O-])c7F)c7ccc4[nH]7)C=C6)C=C5)cc3)[C@@H]21
REMARK SMILES IDX 21 1 20 2 19 3 17 4 18 5 16 7 15 8 14 9 13 10 3 11 4 12
REMARK SMILES IDX 90 13 5 14 6 15 9 16 10 17 11 18 12 20 2 21 1 22 7 23 8 24
REMARK SMILES IDX 22 25 23 26 24 27 25 28 26 30 27 31 28 32 89 33 29 34 88 35
REMARK SMILES IDX 30 36 31 37 32 38 82 39 33 40 87 41 81 42 83 43 34 44 86 45
REMARK SMILES IDX 80 46 79 47 35 49 67 50 47 51 66 52 48 53 51 54 65 55 84 56
REMARK SMILES IDX 49 57 50 58 64 60 85 61 52 62 36 63 37 64 45 65 38 66 40 67
REMARK SMILES IDX 46 68 39 69 41 70 42 71 43 72 44 73 68 74 69 75 77 76 70 77
REMARK SMILES IDX 72 78 78 79 71 80 73 81 74 82 75 83 76 84 53 85 54 86 62 87
REMARK SMILES IDX 55 88 57 89 63 90 56 91 58 92 59 93 60 94 61 95
REMARK H PARENT 19 6 10 19 24 29 83 48 51 59
REMARK Flexibility Score: inf
ROOT
ATOM      1  C   UNL A   1      38.849  21.876  25.848  1.00  0.00     0.023 C 
ENDROOT
BRANCH   1   2
ATOM      2  C   UNL A   1      37.457  22.270  25.351  1.00  0.00     0.116 C 
BRANCH   2   3
ATOM      3  N   UNL A   1      36.511  21.173  25.326  1.00  0.00    -0.356 N 
ATOM      4  C   UNL A   1      35.237  21.063  24.867  1.00  0.00     0.220 C 
ATOM      5  O   UNL A   1      34.812  19.914  24.701  1.00  0.00    -0.275 OA
ATOM      6  H   UNL A   1      36.861  20.342  25.720  1.00  0.00     0.163 HD
BRANCH   4   7
ATOM      7  C   UNL A   1      34.331  22.240  24.506  1.00  0.00     0.102 C 
BRANCH   7   8
ATOM      8  C   UNL A   1      34.518  22.911  23.169  1.00  0.00     0.031 C 
BRANCH   8   9
ATOM      9  C   UNL A   1      33.296  23.473  22.470  1.00  0.00     0.124 C 
BRANCH   9  10
ATOM     10  N   UNL A   1      32.739  24.795  22.771  1.00  0.00    -0.300 N 
ATOM     11  N   UNL A   1      31.473  25.348  25.154  1.00  0.00    -0.300 N 
ATOM     12  C   UNL A   1      31.078  26.700  25.520  1.00  0.00     0.323 C 
ATOM     13  C   UNL A   1      32.376  25.515  24.004  1.00  0.00     0.231 C 
ATOM     14  O   UNL A   1      30.718  27.074  26.621  1.00  0.00    -0.248 OA
ATOM     15  N   UNL A   1      31.272  27.510  24.397  1.00  0.00    -0.300 N 
ATOM     16  C   UNL A   1      31.553  26.638  23.333  1.00  0.00     0.228 C 
ATOM     17  N   UNL A   1      32.261  26.964  22.174  1.00  0.00    -0.314 N 
ATOM     18  C   UNL A   1      32.782  25.761  21.709  1.00  0.00     0.320 C 
ATOM     19  H   UNL A   1      32.368  27.856  21.772  1.00  0.00     0.167 HD
ATOM     20  O   UNL A   1      33.168  25.594  20.566  1.00  0.00    -0.249 OA
BRANCH  11  21
ATOM     21  C   UNL A   1      31.561  24.421  26.271  1.00  0.00     0.120 C 
ATOM     22  C   UNL A   1      31.067  23.013  25.943  1.00  0.00     0.027 C 
ENDBRANCH  11  21
BRANCH  15  23
ATOM     23  C   UNL A   1      31.205  28.951  24.327  1.00  0.00     0.120 C 
ATOM     24  C   UNL A   1      29.992  29.470  23.574  1.00  0.00     0.027 C 
ENDBRANCH  15  23
ENDBRANCH   9  10
ENDBRANCH   8   9
ENDBRANCH   7   8
ENDBRANCH   4   7
ENDBRANCH   2   3
ENDBRANCH   1   2
BRANCH   1  25
ATOM     25  C   UNL A   1      39.255  20.473  25.419  1.00  0.00     0.023 C 
BRANCH  25  26
ATOM     26  C   UNL A   1      40.004  19.692  26.495  1.00  0.00     0.116 C 
BRANCH  26  27
ATOM     27  N   UNL A   1      41.313  19.217  26.064  1.00  0.00    -0.352 N 
ATOM     28  C   UNL A   1      42.490  19.926  25.977  1.00  0.00     0.251 C 
ATOM     29  H   UNL A   1      41.362  18.269  25.802  1.00  0.00     0.163 HD
ATOM     30  O   UNL A   1      43.497  19.405  25.507  1.00  0.00    -0.269 OA
BRANCH  28  31
ATOM     31  C   UNL A   1      42.513  21.338  26.417  1.00  0.00     0.039 A 
ATOM     32  C   UNL A   1      42.603  21.619  27.781  1.00  0.00     0.014 A 
ATOM     33  C   UNL A   1      42.529  22.375  25.479  1.00  0.00     0.014 A 
ATOM     34  C   UNL A   1      42.778  22.939  28.200  1.00  0.00     0.010 A 
ATOM     35  C   UNL A   1      42.807  23.673  25.894  1.00  0.00     0.010 A 
ATOM     36  C   UNL A   1      42.921  23.975  27.259  1.00  0.00    -0.014 A 
BRANCH  36  37
ATOM     37  C   UNL A   1      43.190  25.371  27.698  1.00  0.00     0.031 A 
ATOM     38  C   UNL A   1      44.594  25.918  27.681  1.00  0.00     0.074 A 
ATOM     39  C   UNL A   1      42.179  26.132  28.165  1.00  0.00     0.049 A 
ATOM     40  N   UNL A   1      45.013  27.114  28.003  1.00  0.00    -0.248 NA
ATOM     41  C   UNL A   1      45.671  24.997  27.282  1.00  0.00     0.031 C 
ATOM     42  C   UNL A   1      40.791  25.692  28.329  1.00  0.00     0.029 A 
ATOM     43  N   UNL A   1      42.164  27.435  28.600  1.00  0.00    -0.354 N 
ATOM     44  C   UNL A   1      46.397  27.079  27.878  1.00  0.00     0.074 A 
ATOM     45  C   UNL A   1      46.752  25.732  27.493  1.00  0.00     0.031 C 
ATOM     46  C   UNL A   1      40.058  26.710  28.809  1.00  0.00     0.029 A 
ATOM     47  C   UNL A   1      40.925  27.866  29.014  1.00  0.00     0.049 A 
ATOM     48  H   UNL A   1      42.965  28.007  28.615  1.00  0.00     0.167 HD
ATOM     49  C   UNL A   1      47.292  28.082  28.036  1.00  0.00     0.034 A 
ATOM     50  C   UNL A   1      40.528  29.058  29.504  1.00  0.00     0.034 A 
ATOM     51  C   UNL A   1      46.936  29.432  28.380  1.00  0.00     0.049 A 
ATOM     52  C   UNL A   1      41.533  30.174  29.610  1.00  0.00     0.074 A 
ATOM     53  C   UNL A   1      47.756  30.543  28.466  1.00  0.00     0.029 A 
ATOM     54  N   UNL A   1      45.656  29.853  28.708  1.00  0.00    -0.354 N 
ATOM     55  N   UNL A   1      42.811  30.165  29.315  1.00  0.00    -0.248 NA
ATOM     56  C   UNL A   1      41.033  31.475  30.075  1.00  0.00     0.031 C 
ATOM     57  C   UNL A   1      46.980  31.628  28.887  1.00  0.00     0.029 A 
ATOM     58  C   UNL A   1      45.667  31.203  29.013  1.00  0.00     0.049 A 
ATOM     59  H   UNL A   1      44.859  29.277  28.723  1.00  0.00     0.167 HD
ATOM     60  C   UNL A   1      43.257  31.466  29.521  1.00  0.00     0.074 A 
ATOM     61  C   UNL A   1      42.106  32.240  29.939  1.00  0.00     0.031 C 
ATOM     62  C   UNL A   1      44.508  31.973  29.387  1.00  0.00     0.034 A 
BRANCH  49  63
ATOM     63  C   UNL A   1      48.748  27.769  27.801  1.00  0.00     0.023 A 
ATOM     64  C   UNL A   1      49.300  27.920  26.512  1.00  0.00     0.012 A 
ATOM     65  C   UNL A   1      49.583  27.386  28.868  1.00  0.00     0.148 A 
ATOM     66  C   UNL A   1      50.651  27.661  26.281  1.00  0.00     0.002 A 
ATOM     67  C   UNL A   1      50.938  27.179  28.642  1.00  0.00     0.091 A 
ATOM     68  F   UNL A   1      49.037  27.226  30.082  1.00  0.00    -0.205 F 
ATOM     69  C   UNL A   1      51.471  27.301  27.347  1.00  0.00     0.022 A 
BRANCH  67  70
ATOM     70  S   UNL A   1      52.095  26.799  29.962  1.00  0.00     0.127 S 
ATOM     71  O   UNL A   1      52.010  28.003  30.785  1.00  0.00    -0.237 OA
ATOM     72  O   UNL A   1      51.493  25.607  30.561  1.00  0.00    -0.237 OA
ATOM     73  O   UNL A   1      53.382  26.574  29.319  1.00  0.00    -0.744 OA
ENDBRANCH  67  70
ENDBRANCH  49  63
BRANCH  50  74
ATOM     74  C   UNL A   1      39.102  29.279  29.877  1.00  0.00     0.023 A 
ATOM     75  C   UNL A   1      38.663  28.975  31.181  1.00  0.00     0.012 A 
ATOM     76  C   UNL A   1      38.179  29.796  28.947  1.00  0.00     0.148 A 
ATOM     77  C   UNL A   1      37.324  29.141  31.538  1.00  0.00     0.002 A 
ATOM     78  C   UNL A   1      36.861  30.016  29.327  1.00  0.00     0.091 A 
ATOM     79  F   UNL A   1      38.613  30.070  27.709  1.00  0.00    -0.205 F 
ATOM     80  C   UNL A   1      36.426  29.669  30.616  1.00  0.00     0.022 A 
BRANCH  78  81
ATOM     81  S   UNL A   1      35.671  30.817  28.248  1.00  0.00     0.127 S 
ATOM     82  O   UNL A   1      34.621  31.197  29.190  1.00  0.00    -0.237 OA
ATOM     83  O   UNL A   1      36.454  31.933  27.713  1.00  0.00    -0.237 OA
ATOM     84  O   UNL A   1      35.301  29.815  27.258  1.00  0.00    -0.744 OA
ENDBRANCH  78  81
ENDBRANCH  50  74
BRANCH  62  85
ATOM     85  C   UNL A   1      44.694  33.445  29.650  1.00  0.00     0.023 A 
ATOM     86  C   UNL A   1      45.057  33.898  30.933  1.00  0.00     0.012 A 
ATOM     87  C   UNL A   1      44.548  34.379  28.604  1.00  0.00     0.148 A 
ATOM     88  C   UNL A   1      45.221  35.260  31.184  1.00  0.00     0.002 A 
ATOM     89  C   UNL A   1      44.770  35.729  28.848  1.00  0.00     0.091 A 
ATOM     90  F   UNL A   1      44.186  33.934  27.392  1.00  0.00    -0.205 F 
ATOM     91  C   UNL A   1      45.088  36.173  30.142  1.00  0.00     0.022 A 
BRANCH  89  92
ATOM     92  S   UNL A   1      44.721  36.960  27.542  1.00  0.00     0.127 S 
ATOM     93  O   UNL A   1      45.771  36.482  26.644  1.00  0.00    -0.237 OA
ATOM     94  O   UNL A   1      43.360  36.809  27.023  1.00  0.00    -0.237 OA
ATOM     95  O   UNL A   1      44.981  38.239  28.187  1.00  0.00    -0.744 OA
ENDBRANCH  89  92
ENDBRANCH  62  85
ENDBRANCH  36  37
ENDBRANCH  28  31
ENDBRANCH  26  27
ENDBRANCH  25  26
ENDBRANCH   1  25
TORSDOF 19
ENDMDL
