MODEL 1
REMARK VINA RESULT:     -10.0      0.000      0.000
REMARK SMILES C[C@@H](Oc1ccc(/C=C2\C(=O)[NH+]=C(NCCCCNC(=O)c3ccc(-c4c5nc(c(-c6cccc(S(=O)(=O)[O-])c6F)c6ccc([nH]6)c(-c6cccc(S(=O)(=O)[O-])c6F)c6nc(c(-c7cccc(S(=O)(=O)[O-])c7F)c7ccc4[nH]7)C=C6)C=C5)cc3)N(c3ccc4c(c3)OCO4)C2=O)cc1)C(=O)[O-]
REMARK SMILES IDX 16 1 15 2 14 3 8 4 9 5 10 6 95 7 11 8 12 9 85 10 96 11 13 12
REMARK SMILES IDX 7 15 4 16 5 17 98 18 6 19 97 20 3 21 2 22 1 23 99 24 100 25
REMARK SMILES IDX 101 26 86 27 87 28 91 29 88 30 90 31 89 32 92 33 94 34 93 35
REMARK SMILES IDX 17 36 18 37 19 38 20 39 21 41 22 42 23 43 84 44 24 45 83 46
REMARK SMILES IDX 25 47 26 48 27 49 77 50 28 51 82 52 76 53 78 54 29 55 81 56
REMARK SMILES IDX 75 57 74 58 30 60 62 61 42 62 61 63 43 64 46 65 60 66 79 67
REMARK SMILES IDX 44 68 45 69 59 71 80 72 47 73 31 74 32 75 40 76 33 77 35 78
REMARK SMILES IDX 41 79 34 80 36 81 37 82 38 83 39 84 63 85 64 86 72 87 65 88
REMARK SMILES IDX 67 89 73 90 66 91 68 92 69 93 70 94 71 95 48 96 49 97 57 98
REMARK SMILES IDX 50 99 52 100 58 101 51 102 53 103 54 104 55 105 56 106
REMARK H PARENT 12 13 14 14 19 40 78 59 46 70
REMARK Flexibility Score: inf
ROOT
ATOM      1  C   UNL A   1      46.317  27.435  25.412  1.00  0.00     0.039 C 
ENDROOT
BRANCH   1   2
ATOM      2  C   UNL A   1      44.829  27.333  25.088  1.00  0.00     0.197 C 
BRANCH   2   3
ATOM      3  N   UNL A   1      44.264  26.135  25.674  1.00  0.00    -0.277 N 
ATOM      4  C   UNL A   1      39.963  26.352  28.746  1.00  0.00     0.031 C 
ATOM      5  C   UNL A   1      41.262  26.234  28.408  1.00  0.00     0.138 C 
ATOM      6  C   UNL A   1      42.263  27.311  28.381  1.00  0.00     0.321 C 
ATOM      7  C   UNL A   1      41.733  24.898  27.999  1.00  0.00     0.328 C 
ATOM      8  O   UNL A   1      42.301  28.192  29.231  1.00  0.00    -0.250 OA
ATOM      9  N   UNL A   1      43.110  27.261  27.316  1.00  0.00    -0.210 N 
ATOM     10  N   UNL A   1      42.848  24.930  27.167  1.00  0.00    -0.162 N 
ATOM     11  O   UNL A   1      41.139  23.882  28.358  1.00  0.00    -0.249 OA
ATOM     12  C   UNL A   1      43.410  26.132  26.748  1.00  0.00     0.366 C 
ATOM     13  H   UNL A   1      43.503  28.096  26.969  1.00  0.00     0.270 HD
ATOM     14  H   UNL A   1      44.506  25.268  25.276  1.00  0.00     0.260 HD
BRANCH   4  15
ATOM     15  C   UNL A   1      39.185  27.546  29.102  1.00  0.00    -0.024 A 
ATOM     16  C   UNL A   1      37.840  29.949  29.683  1.00  0.00     0.120 A 
ATOM     17  C   UNL A   1      37.986  28.976  30.666  1.00  0.00     0.047 A 
ATOM     18  C   UNL A   1      38.406  29.751  28.428  1.00  0.00     0.047 A 
ATOM     19  C   UNL A   1      38.669  27.788  30.381  1.00  0.00     0.012 A 
ATOM     20  C   UNL A   1      39.060  28.553  28.135  1.00  0.00     0.012 A 
BRANCH  16  21
ATOM     21  O   UNL A   1      37.271  31.137  30.043  1.00  0.00    -0.485 OA
BRANCH  21  22
ATOM     22  C   UNL A   1      36.627  31.836  28.970  1.00  0.00     0.216 C 
ATOM     23  C   UNL A   1      37.164  33.256  28.811  1.00  0.00     0.059 C 
BRANCH  22  24
ATOM     24  C   UNL A   1      35.143  31.945  29.302  1.00  0.00     0.082 C 
ATOM     25  O   UNL A   1      34.671  32.320  30.366  1.00  0.00    -0.546 OA
ATOM     26  O   UNL A   1      34.324  31.491  28.329  1.00  0.00    -0.546 OA
ENDBRANCH  22  24
ENDBRANCH  21  22
ENDBRANCH  16  21
ENDBRANCH   4  15
BRANCH  10  27
ATOM     27  C   UNL A   1      43.296  23.681  26.666  1.00  0.00     0.115 A 
ATOM     28  C   UNL A   1      42.384  22.811  26.029  1.00  0.00     0.048 A 
ATOM     29  C   UNL A   1      44.669  23.405  26.667  1.00  0.00     0.094 A 
ATOM     30  C   UNL A   1      42.852  21.692  25.330  1.00  0.00     0.054 A 
ATOM     31  C   UNL A   1      45.095  22.310  25.956  1.00  0.00     0.169 A 
ATOM     32  C   UNL A   1      44.216  21.488  25.289  1.00  0.00     0.166 A 
ATOM     33  O   UNL A   1      46.393  21.954  25.761  1.00  0.00    -0.453 OA
ATOM     34  O   UNL A   1      44.862  20.529  24.574  1.00  0.00    -0.454 OA
ATOM     35  C   UNL A   1      46.228  20.970  24.718  1.00  0.00     0.468 C 
ENDBRANCH  10  27
ENDBRANCH   2   3
ENDBRANCH   1   2
BRANCH   1  36
ATOM     36  C   UNL A   1      47.155  26.262  24.899  1.00  0.00     0.024 C 
BRANCH  36  37
ATOM     37  C   UNL A   1      48.662  26.492  24.894  1.00  0.00     0.116 C 
BRANCH  37  38
ATOM     38  N   UNL A   1      49.394  25.487  25.651  1.00  0.00    -0.352 N 
ATOM     39  C   UNL A   1      49.396  25.257  27.006  1.00  0.00     0.251 C 
ATOM     40  H   UNL A   1      49.968  24.891  25.119  1.00  0.00     0.163 HD
ATOM     41  O   UNL A   1      50.185  24.451  27.490  1.00  0.00    -0.269 OA
BRANCH  39  42
ATOM     42  C   UNL A   1      48.465  26.004  27.880  1.00  0.00     0.039 A 
ATOM     43  C   UNL A   1      48.844  27.264  28.350  1.00  0.00     0.014 A 
ATOM     44  C   UNL A   1      47.216  25.475  28.216  1.00  0.00     0.014 A 
ATOM     45  C   UNL A   1      47.942  28.022  29.102  1.00  0.00     0.010 A 
ATOM     46  C   UNL A   1      46.291  26.264  28.894  1.00  0.00     0.010 A 
ATOM     47  C   UNL A   1      46.644  27.544  29.348  1.00  0.00    -0.014 A 
BRANCH  47  48
ATOM     48  C   UNL A   1      45.638  28.374  30.061  1.00  0.00     0.031 A 
ATOM     49  C   UNL A   1      45.271  29.738  29.542  1.00  0.00     0.074 A 
ATOM     50  C   UNL A   1      45.118  27.936  31.224  1.00  0.00     0.049 A 
ATOM     51  N   UNL A   1      44.446  30.618  30.048  1.00  0.00    -0.248 NA
ATOM     52  C   UNL A   1      45.939  30.185  28.308  1.00  0.00     0.031 C 
ATOM     53  C   UNL A   1      45.444  26.664  31.872  1.00  0.00     0.029 A 
ATOM     54  N   UNL A   1      44.221  28.522  32.083  1.00  0.00    -0.354 N 
ATOM     55  C   UNL A   1      44.528  31.735  29.225  1.00  0.00     0.074 A 
ATOM     56  C   UNL A   1      45.505  31.433  28.202  1.00  0.00     0.031 C 
ATOM     57  C   UNL A   1      44.743  26.557  33.012  1.00  0.00     0.029 A 
ATOM     58  C   UNL A   1      43.948  27.766  33.199  1.00  0.00     0.049 A 
ATOM     59  H   UNL A   1      43.810  29.402  31.915  1.00  0.00     0.167 HD
ATOM     60  C   UNL A   1      43.838  32.898  29.297  1.00  0.00     0.034 A 
ATOM     61  C   UNL A   1      43.151  28.019  34.256  1.00  0.00     0.034 A 
ATOM     62  C   UNL A   1      42.839  33.180  30.294  1.00  0.00     0.049 A 
ATOM     63  C   UNL A   1      42.378  29.309  34.300  1.00  0.00     0.074 A 
ATOM     64  C   UNL A   1      42.009  34.283  30.390  1.00  0.00     0.029 A 
ATOM     65  N   UNL A   1      42.549  32.366  31.377  1.00  0.00    -0.354 N 
ATOM     66  N   UNL A   1      42.343  30.282  33.421  1.00  0.00    -0.248 NA
ATOM     67  C   UNL A   1      41.512  29.522  35.468  1.00  0.00     0.031 C 
ATOM     68  C   UNL A   1      41.249  34.157  31.557  1.00  0.00     0.029 A 
ATOM     69  C   UNL A   1      41.571  32.953  32.163  1.00  0.00     0.049 A 
ATOM     70  H   UNL A   1      42.974  31.497  31.561  1.00  0.00     0.167 HD
ATOM     71  C   UNL A   1      41.420  31.201  33.907  1.00  0.00     0.074 A 
ATOM     72  C   UNL A   1      40.909  30.661  35.151  1.00  0.00     0.031 C 
ATOM     73  C   UNL A   1      41.035  32.388  33.375  1.00  0.00     0.034 A 
BRANCH  60  74
ATOM     74  C   UNL A   1      44.124  33.949  28.254  1.00  0.00     0.023 A 
ATOM     75  C   UNL A   1      43.484  33.888  26.998  1.00  0.00     0.012 A 
ATOM     76  C   UNL A   1      44.994  35.021  28.533  1.00  0.00     0.148 A 
ATOM     77  C   UNL A   1      43.741  34.850  26.022  1.00  0.00     0.002 A 
ATOM     78  C   UNL A   1      45.205  36.004  27.574  1.00  0.00     0.091 A 
ATOM     79  F   UNL A   1      45.609  35.053  29.724  1.00  0.00    -0.205 F 
ATOM     80  C   UNL A   1      44.593  35.912  26.313  1.00  0.00     0.022 A 
BRANCH  78  81
ATOM     81  S   UNL A   1      46.217  37.454  27.884  1.00  0.00     0.127 S 
ATOM     82  O   UNL A   1      47.543  36.860  28.040  1.00  0.00    -0.237 OA
ATOM     83  O   UNL A   1      46.035  38.226  26.653  1.00  0.00    -0.237 OA
ATOM     84  O   UNL A   1      45.667  38.080  29.078  1.00  0.00    -0.744 OA
ENDBRANCH  78  81
ENDBRANCH  60  74
BRANCH  61  85
ATOM     85  C   UNL A   1      42.983  26.994  35.326  1.00  0.00     0.023 A 
ATOM     86  C   UNL A   1      41.993  26.004  35.179  1.00  0.00     0.012 A 
ATOM     87  C   UNL A   1      43.808  26.978  36.467  1.00  0.00     0.148 A 
ATOM     88  C   UNL A   1      41.803  25.035  36.165  1.00  0.00     0.002 A 
ATOM     89  C   UNL A   1      43.650  25.978  37.419  1.00  0.00     0.091 A 
ATOM     90  F   UNL A   1      44.740  27.933  36.590  1.00  0.00    -0.205 F 
ATOM     91  C   UNL A   1      42.636  25.016  37.280  1.00  0.00     0.022 A 
BRANCH  89  92
ATOM     92  S   UNL A   1      44.754  25.797  38.824  1.00  0.00     0.127 S 
ATOM     93  O   UNL A   1      44.104  26.637  39.826  1.00  0.00    -0.237 OA
ATOM     94  O   UNL A   1      44.678  24.358  39.081  1.00  0.00    -0.237 OA
ATOM     95  O   UNL A   1      46.057  26.259  38.365  1.00  0.00    -0.744 OA
ENDBRANCH  89  92
ENDBRANCH  61  85
BRANCH  73  96
ATOM     96  C   UNL A   1      39.978  33.174  34.106  1.00  0.00     0.023 A 
ATOM     97  C   UNL A   1      40.331  34.001  35.190  1.00  0.00     0.012 A 
ATOM     98  C   UNL A   1      38.638  33.147  33.667  1.00  0.00     0.148 A 
ATOM     99  C   UNL A   1      39.364  34.759  35.850  1.00  0.00     0.002 A 
ATOM    100  C   UNL A   1      37.690  33.947  34.292  1.00  0.00     0.091 A 
ATOM    101  F   UNL A   1      38.317  32.341  32.644  1.00  0.00    -0.205 F 
ATOM    102  C   UNL A   1      38.047  34.742  35.393  1.00  0.00     0.022 A 
BRANCH 100 103
ATOM    103  S   UNL A   1      35.995  34.069  33.710  1.00  0.00     0.127 S 
ATOM    104  O   UNL A   1      36.187  34.474  32.318  1.00  0.00    -0.237 OA
ATOM    105  O   UNL A   1      35.509  32.701  33.886  1.00  0.00    -0.237 OA
ATOM    106  O   UNL A   1      35.347  35.056  34.562  1.00  0.00    -0.744 OA
ENDBRANCH 100 103
ENDBRANCH  73  96
ENDBRANCH  47  48
ENDBRANCH  39  42
ENDBRANCH  37  38
ENDBRANCH  36  37
ENDBRANCH   1  36
TORSDOF 18
ENDMDL
MODEL 2
REMARK VINA RESULT:      -9.3      5.956     11.843
REMARK SMILES C[C@@H](Oc1ccc(/C=C2\C(=O)[NH+]=C(NCCCCNC(=O)c3ccc(-c4c5nc(c(-c6cccc(S(=O)(=O)[O-])c6F)c6ccc([nH]6)c(-c6cccc(S(=O)(=O)[O-])c6F)c6nc(c(-c7cccc(S(=O)(=O)[O-])c7F)c7ccc4[nH]7)C=C6)C=C5)cc3)N(c3ccc4c(c3)OCO4)C2=O)cc1)C(=O)[O-]
REMARK SMILES IDX 16 1 15 2 14 3 8 4 9 5 10 6 95 7 11 8 12 9 85 10 96 11 13 12
REMARK SMILES IDX 7 15 4 16 5 17 98 18 6 19 97 20 3 21 2 22 1 23 99 24 100 25
REMARK SMILES IDX 101 26 86 27 87 28 91 29 88 30 90 31 89 32 92 33 94 34 93 35
REMARK SMILES IDX 17 36 18 37 19 38 20 39 21 41 22 42 23 43 84 44 24 45 83 46
REMARK SMILES IDX 25 47 26 48 27 49 77 50 28 51 82 52 76 53 78 54 29 55 81 56
REMARK SMILES IDX 75 57 74 58 30 60 62 61 42 62 61 63 43 64 46 65 60 66 79 67
REMARK SMILES IDX 44 68 45 69 59 71 80 72 47 73 31 74 32 75 40 76 33 77 35 78
REMARK SMILES IDX 41 79 34 80 36 81 37 82 38 83 39 84 63 85 64 86 72 87 65 88
REMARK SMILES IDX 67 89 73 90 66 91 68 92 69 93 70 94 71 95 48 96 49 97 57 98
REMARK SMILES IDX 50 99 52 100 58 101 51 102 53 103 54 104 55 105 56 106
REMARK H PARENT 12 13 14 14 19 40 78 59 46 70
REMARK Flexibility Score: inf
ROOT
ATOM      1  C   UNL A   1      33.182  34.730  29.518  1.00  0.00     0.039 C 
ENDROOT
BRANCH   1   2
ATOM      2  C   UNL A   1      33.499  34.601  28.031  1.00  0.00     0.197 C 
BRANCH   2   3
ATOM      3  N   UNL A   1      33.500  33.208  27.632  1.00  0.00    -0.277 N 
ATOM      4  C   UNL A   1      36.832  29.731  29.817  1.00  0.00     0.031 C 
ATOM      5  C   UNL A   1      36.310  30.563  28.896  1.00  0.00     0.138 C 
ATOM      6  C   UNL A   1      36.676  31.970  28.677  1.00  0.00     0.321 C 
ATOM      7  C   UNL A   1      35.245  30.025  28.029  1.00  0.00     0.328 C 
ATOM      8  O   UNL A   1      37.833  32.366  28.749  1.00  0.00    -0.250 OA
ATOM      9  N   UNL A   1      35.618  32.791  28.426  1.00  0.00    -0.210 N 
ATOM     10  N   UNL A   1      34.394  31.001  27.521  1.00  0.00    -0.162 N 
ATOM     11  O   UNL A   1      35.142  28.814  27.833  1.00  0.00    -0.249 OA
ATOM     12  C   UNL A   1      34.540  32.343  27.858  1.00  0.00     0.366 C 
ATOM     13  H   UNL A   1      35.672  33.741  28.680  1.00  0.00     0.270 HD
ATOM     14  H   UNL A   1      32.702  32.860  27.171  1.00  0.00     0.260 HD
BRANCH   4  15
ATOM     15  C   UNL A   1      37.823  29.991  30.871  1.00  0.00    -0.024 A 
ATOM     16  C   UNL A   1      39.575  30.609  32.985  1.00  0.00     0.120 A 
ATOM     17  C   UNL A   1      40.032  30.629  31.671  1.00  0.00     0.047 A 
ATOM     18  C   UNL A   1      38.237  30.332  33.245  1.00  0.00     0.047 A 
ATOM     19  C   UNL A   1      39.156  30.337  30.619  1.00  0.00     0.012 A 
ATOM     20  C   UNL A   1      37.371  30.012  32.198  1.00  0.00     0.012 A 
BRANCH  16  21
ATOM     21  O   UNL A   1      40.435  31.015  33.964  1.00  0.00    -0.485 OA
BRANCH  21  22
ATOM     22  C   UNL A   1      40.570  30.095  35.056  1.00  0.00     0.216 C 
ATOM     23  C   UNL A   1      41.373  30.692  36.209  1.00  0.00     0.059 C 
BRANCH  22  24
ATOM     24  C   UNL A   1      41.333  28.875  34.553  1.00  0.00     0.082 C 
ATOM     25  O   UNL A   1      40.893  27.738  34.467  1.00  0.00    -0.546 OA
ATOM     26  O   UNL A   1      42.633  29.114  34.272  1.00  0.00    -0.546 OA
ENDBRANCH  22  24
ENDBRANCH  21  22
ENDBRANCH  16  21
ENDBRANCH   4  15
BRANCH  10  27
ATOM     27  C   UNL A   1      33.295  30.539  26.751  1.00  0.00     0.115 A 
ATOM     28  C   UNL A   1      32.038  31.172  26.870  1.00  0.00     0.048 A 
ATOM     29  C   UNL A   1      33.519  29.569  25.767  1.00  0.00     0.094 A 
ATOM     30  C   UNL A   1      31.018  30.883  25.957  1.00  0.00     0.054 A 
ATOM     31  C   UNL A   1      32.503  29.324  24.877  1.00  0.00     0.169 A 
ATOM     32  C   UNL A   1      31.294  29.976  24.955  1.00  0.00     0.166 A 
ATOM     33  O   UNL A   1      32.580  28.497  23.800  1.00  0.00    -0.453 OA
ATOM     34  O   UNL A   1      30.475  29.652  23.919  1.00  0.00    -0.454 OA
ATOM     35  C   UNL A   1      31.382  28.886  23.098  1.00  0.00     0.468 C 
ENDBRANCH  10  27
ENDBRANCH   2   3
ENDBRANCH   1   2
BRANCH   1  36
ATOM     36  C   UNL A   1      33.380  36.138  30.084  1.00  0.00     0.024 C 
BRANCH  36  37
ATOM     37  C   UNL A   1      33.404  36.230  31.605  1.00  0.00     0.116 C 
BRANCH  37  38
ATOM     38  N   UNL A   1      32.754  35.100  32.254  1.00  0.00    -0.352 N 
ATOM     39  C   UNL A   1      33.323  34.015  32.876  1.00  0.00     0.251 C 
ATOM     40  H   UNL A   1      31.769  35.116  32.245  1.00  0.00     0.163 HD
ATOM     41  O   UNL A   1      32.617  33.082  33.249  1.00  0.00    -0.269 OA
BRANCH  39  42
ATOM     42  C   UNL A   1      34.789  33.962  33.066  1.00  0.00     0.039 A 
ATOM     43  C   UNL A   1      35.590  33.502  32.018  1.00  0.00     0.014 A 
ATOM     44  C   UNL A   1      35.372  34.386  34.263  1.00  0.00     0.014 A 
ATOM     45  C   UNL A   1      36.981  33.530  32.147  1.00  0.00     0.010 A 
ATOM     46  C   UNL A   1      36.757  34.490  34.358  1.00  0.00     0.010 A 
ATOM     47  C   UNL A   1      37.577  34.060  33.304  1.00  0.00    -0.014 A 
BRANCH  47  48
ATOM     48  C   UNL A   1      39.054  34.189  33.421  1.00  0.00     0.031 A 
ATOM     49  C   UNL A   1      39.707  34.261  34.774  1.00  0.00     0.074 A 
ATOM     50  C   UNL A   1      39.799  34.331  32.307  1.00  0.00     0.049 A 
ATOM     51  N   UNL A   1      40.971  34.411  35.073  1.00  0.00    -0.248 NA
ATOM     52  C   UNL A   1      38.822  34.180  35.948  1.00  0.00     0.031 C 
ATOM     53  C   UNL A   1      39.282  34.351  30.938  1.00  0.00     0.029 A 
ATOM     54  N   UNL A   1      41.152  34.508  32.150  1.00  0.00    -0.354 N 
ATOM     55  C   UNL A   1      41.029  34.489  36.459  1.00  0.00     0.074 A 
ATOM     56  C   UNL A   1      39.669  34.397  36.943  1.00  0.00     0.031 C 
ATOM     57  C   UNL A   1      40.303  34.509  30.081  1.00  0.00     0.029 A 
ATOM     58  C   UNL A   1      41.544  34.641  30.838  1.00  0.00     0.049 A 
ATOM     59  H   UNL A   1      41.783  34.537  32.906  1.00  0.00     0.167 HD
ATOM     60  C   UNL A   1      42.116  34.603  37.260  1.00  0.00     0.034 A 
ATOM     61  C   UNL A   1      42.763  34.850  30.304  1.00  0.00     0.034 A 
ATOM     62  C   UNL A   1      43.470  34.654  36.777  1.00  0.00     0.049 A 
ATOM     63  C   UNL A   1      43.956  34.950  31.216  1.00  0.00     0.074 A 
ATOM     64  C   UNL A   1      44.643  34.662  37.509  1.00  0.00     0.029 A 
ATOM     65  N   UNL A   1      43.832  34.730  35.441  1.00  0.00    -0.354 N 
ATOM     66  N   UNL A   1      44.008  34.850  32.522  1.00  0.00    -0.248 NA
ATOM     67  C   UNL A   1      45.263  35.160  30.576  1.00  0.00     0.031 C 
ATOM     68  C   UNL A   1      45.713  34.788  36.618  1.00  0.00     0.029 A 
ATOM     69  C   UNL A   1      45.210  34.811  35.327  1.00  0.00     0.049 A 
ATOM     70  H   UNL A   1      43.203  34.726  34.684  1.00  0.00     0.167 HD
ATOM     71  C   UNL A   1      45.354  34.942  32.858  1.00  0.00     0.074 A 
ATOM     72  C   UNL A   1      46.085  35.091  31.616  1.00  0.00     0.031 C 
ATOM     73  C   UNL A   1      45.932  34.913  34.084  1.00  0.00     0.034 A 
BRANCH  60  74
ATOM     74  C   UNL A   1      41.886  34.655  38.749  1.00  0.00     0.023 A 
ATOM     75  C   UNL A   1      41.773  35.901  39.402  1.00  0.00     0.012 A 
ATOM     76  C   UNL A   1      41.738  33.470  39.496  1.00  0.00     0.148 A 
ATOM     77  C   UNL A   1      41.563  35.966  40.779  1.00  0.00     0.002 A 
ATOM     78  C   UNL A   1      41.479  33.543  40.860  1.00  0.00     0.091 A 
ATOM     79  F   UNL A   1      41.869  32.295  38.865  1.00  0.00    -0.205 F 
ATOM     80  C   UNL A   1      41.407  34.789  41.505  1.00  0.00     0.022 A 
BRANCH  78  81
ATOM     81  S   UNL A   1      41.178  32.086  41.865  1.00  0.00     0.127 S 
ATOM     82  O   UNL A   1      41.064  32.668  43.201  1.00  0.00    -0.237 OA
ATOM     83  O   UNL A   1      39.919  31.584  41.310  1.00  0.00    -0.237 OA
ATOM     84  O   UNL A   1      42.323  31.212  41.657  1.00  0.00    -0.744 OA
ENDBRANCH  78  81
ENDBRANCH  60  74
BRANCH  61  85
ATOM     85  C   UNL A   1      42.930  34.904  28.824  1.00  0.00     0.023 A 
ATOM     86  C   UNL A   1      42.574  36.079  28.134  1.00  0.00     0.012 A 
ATOM     87  C   UNL A   1      43.459  33.817  28.101  1.00  0.00     0.148 A 
ATOM     88  C   UNL A   1      42.709  36.161  26.748  1.00  0.00     0.002 A 
ATOM     89  C   UNL A   1      43.642  33.924  26.728  1.00  0.00     0.091 A 
ATOM     90  F   UNL A   1      43.785  32.706  28.775  1.00  0.00    -0.205 F 
ATOM     91  C   UNL A   1      43.251  35.088  26.046  1.00  0.00     0.022 A 
BRANCH  89  92
ATOM     92  S   UNL A   1      44.446  32.645  25.756  1.00  0.00     0.127 S 
ATOM     93  O   UNL A   1      44.177  33.091  24.392  1.00  0.00    -0.237 OA
ATOM     94  O   UNL A   1      45.839  32.776  26.185  1.00  0.00    -0.237 OA
ATOM     95  O   UNL A   1      43.810  31.394  26.146  1.00  0.00    -0.744 OA
ENDBRANCH  89  92
ENDBRANCH  61  85
BRANCH  73  96
ATOM     96  C   UNL A   1      47.435  34.999  34.154  1.00  0.00     0.023 A 
ATOM     97  C   UNL A   1      48.068  36.249  34.303  1.00  0.00     0.012 A 
ATOM     98  C   UNL A   1      48.218  33.826  34.144  1.00  0.00     0.148 A 
ATOM     99  C   UNL A   1      49.456  36.334  34.403  1.00  0.00     0.002 A 
ATOM    100  C   UNL A   1      49.595  33.914  34.300  1.00  0.00     0.091 A 
ATOM    101  F   UNL A   1      47.600  32.647  33.983  1.00  0.00    -0.205 F 
ATOM    102  C   UNL A   1      50.218  35.167  34.414  1.00  0.00     0.022 A 
BRANCH 100 103
ATOM    103  S   UNL A   1      50.646  32.463  34.430  1.00  0.00     0.127 S 
ATOM    104  O   UNL A   1      51.966  33.066  34.604  1.00  0.00    -0.237 OA
ATOM    105  O   UNL A   1      50.115  31.802  35.621  1.00  0.00    -0.237 OA
ATOM    106  O   UNL A   1      50.460  31.719  33.192  1.00  0.00    -0.744 OA
ENDBRANCH 100 103
ENDBRANCH  73  96
ENDBRANCH  47  48
ENDBRANCH  39  42
ENDBRANCH  37  38
ENDBRANCH  36  37
ENDBRANCH   1  36
TORSDOF 18
ENDMDL
MODEL 3
REMARK VINA RESULT:      -9.3      3.483      8.261
REMARK SMILES C[C@@H](Oc1ccc(/C=C2\C(=O)[NH+]=C(NCCCCNC(=O)c3ccc(-c4c5nc(c(-c6cccc(S(=O)(=O)[O-])c6F)c6ccc([nH]6)c(-c6cccc(S(=O)(=O)[O-])c6F)c6nc(c(-c7cccc(S(=O)(=O)[O-])c7F)c7ccc4[nH]7)C=C6)C=C5)cc3)N(c3ccc4c(c3)OCO4)C2=O)cc1)C(=O)[O-]
REMARK SMILES IDX 16 1 15 2 14 3 8 4 9 5 10 6 95 7 11 8 12 9 85 10 96 11 13 12
REMARK SMILES IDX 7 15 4 16 5 17 98 18 6 19 97 20 3 21 2 22 1 23 99 24 100 25
REMARK SMILES IDX 101 26 86 27 87 28 91 29 88 30 90 31 89 32 92 33 94 34 93 35
REMARK SMILES IDX 17 36 18 37 19 38 20 39 21 41 22 42 23 43 84 44 24 45 83 46
REMARK SMILES IDX 25 47 26 48 27 49 77 50 28 51 82 52 76 53 78 54 29 55 81 56
REMARK SMILES IDX 75 57 74 58 30 60 62 61 42 62 61 63 43 64 46 65 60 66 79 67
REMARK SMILES IDX 44 68 45 69 59 71 80 72 47 73 31 74 32 75 40 76 33 77 35 78
REMARK SMILES IDX 41 79 34 80 36 81 37 82 38 83 39 84 63 85 64 86 72 87 65 88
REMARK SMILES IDX 67 89 73 90 66 91 68 92 69 93 70 94 71 95 48 96 49 97 57 98
REMARK SMILES IDX 50 99 52 100 58 101 51 102 53 103 54 104 55 105 56 106
REMARK H PARENT 12 13 14 14 19 40 78 59 46 70
REMARK Flexibility Score: inf
ROOT
ATOM      1  C   UNL A   1      42.539  23.226  27.951  1.00  0.00     0.039 C 
ENDROOT
BRANCH   1   2
ATOM      2  C   UNL A   1      43.168  22.616  29.200  1.00  0.00     0.197 C 
BRANCH   2   3
ATOM      3  N   UNL A   1      43.834  23.637  29.983  1.00  0.00    -0.277 N 
ATOM      4  C   UNL A   1      47.006  27.203  27.703  1.00  0.00     0.031 C 
ATOM      5  C   UNL A   1      46.639  26.121  28.416  1.00  0.00     0.138 C 
ATOM      6  C   UNL A   1      46.526  24.741  27.922  1.00  0.00     0.321 C 
ATOM      7  C   UNL A   1      46.292  26.334  29.834  1.00  0.00     0.328 C 
ATOM      8  O   UNL A   1      47.324  24.262  27.126  1.00  0.00    -0.250 OA
ATOM      9  N   UNL A   1      45.442  24.064  28.394  1.00  0.00    -0.210 N 
ATOM     10  N   UNL A   1      45.429  25.371  30.347  1.00  0.00    -0.162 N 
ATOM     11  O   UNL A   1      46.723  27.309  30.449  1.00  0.00    -0.249 OA
ATOM     12  C   UNL A   1      44.930  24.343  29.553  1.00  0.00     0.366 C 
ATOM     13  H   UNL A   1      45.040  23.351  27.846  1.00  0.00     0.270 HD
ATOM     14  H   UNL A   1      43.477  23.839  30.878  1.00  0.00     0.260 HD
BRANCH   4  15
ATOM     15  C   UNL A   1      47.317  27.330  26.272  1.00  0.00    -0.024 A 
ATOM     16  C   UNL A   1      47.720  27.495  23.492  1.00  0.00     0.120 A 
ATOM     17  C   UNL A   1      48.731  27.012  24.316  1.00  0.00     0.047 A 
ATOM     18  C   UNL A   1      46.492  27.848  24.042  1.00  0.00     0.047 A 
ATOM     19  C   UNL A   1      48.525  26.915  25.697  1.00  0.00     0.012 A 
ATOM     20  C   UNL A   1      46.297  27.779  25.423  1.00  0.00     0.012 A 
BRANCH  16  21
ATOM     21  O   UNL A   1      47.927  27.459  22.143  1.00  0.00    -0.485 OA
BRANCH  21  22
ATOM     22  C   UNL A   1      49.307  27.425  21.754  1.00  0.00     0.216 C 
ATOM     23  C   UNL A   1      49.836  28.814  21.408  1.00  0.00     0.059 C 
BRANCH  22  24
ATOM     24  C   UNL A   1      49.422  26.567  20.500  1.00  0.00     0.082 C 
ATOM     25  O   UNL A   1      50.264  26.689  19.621  1.00  0.00    -0.546 OA
ATOM     26  O   UNL A   1      48.428  25.665  20.354  1.00  0.00    -0.546 OA
ENDBRANCH  22  24
ENDBRANCH  21  22
ENDBRANCH  16  21
ENDBRANCH   4  15
BRANCH  10  27
ATOM     27  C   UNL A   1      44.986  25.569  31.680  1.00  0.00     0.115 A 
ATOM     28  C   UNL A   1      45.693  24.980  32.751  1.00  0.00     0.048 A 
ATOM     29  C   UNL A   1      43.950  26.481  31.919  1.00  0.00     0.094 A 
ATOM     30  C   UNL A   1      45.409  25.354  34.070  1.00  0.00     0.054 A 
ATOM     31  C   UNL A   1      43.712  26.839  33.223  1.00  0.00     0.169 A 
ATOM     32  C   UNL A   1      44.432  26.308  34.268  1.00  0.00     0.166 A 
ATOM     33  O   UNL A   1      42.822  27.784  33.630  1.00  0.00    -0.453 OA
ATOM     34  O   UNL A   1      44.096  26.877  35.456  1.00  0.00    -0.454 OA
ATOM     35  C   UNL A   1      43.236  27.943  35.003  1.00  0.00     0.468 C 
ENDBRANCH  10  27
ENDBRANCH   2   3
ENDBRANCH   1   2
BRANCH   1  36
ATOM     36  C   UNL A   1      41.153  23.834  28.177  1.00  0.00     0.024 C 
BRANCH  36  37
ATOM     37  C   UNL A   1      40.564  24.573  26.980  1.00  0.00     0.116 C 
BRANCH  37  38
ATOM     38  N   UNL A   1      41.480  24.649  25.852  1.00  0.00    -0.352 N 
ATOM     39  C   UNL A   1      42.280  25.695  25.457  1.00  0.00     0.251 C 
ATOM     40  H   UNL A   1      41.532  23.840  25.293  1.00  0.00     0.163 HD
ATOM     41  O   UNL A   1      42.888  25.632  24.392  1.00  0.00    -0.269 OA
BRANCH  39  42
ATOM     42  C   UNL A   1      42.381  26.903  26.303  1.00  0.00     0.039 A 
ATOM     43  C   UNL A   1      43.214  26.875  27.424  1.00  0.00     0.014 A 
ATOM     44  C   UNL A   1      41.677  28.067  25.980  1.00  0.00     0.014 A 
ATOM     45  C   UNL A   1      43.392  28.035  28.183  1.00  0.00     0.010 A 
ATOM     46  C   UNL A   1      41.920  29.240  26.687  1.00  0.00     0.010 A 
ATOM     47  C   UNL A   1      42.776  29.237  27.799  1.00  0.00    -0.014 A 
BRANCH  47  48
ATOM     48  C   UNL A   1      43.030  30.504  28.535  1.00  0.00     0.031 A 
ATOM     49  C   UNL A   1      44.173  31.398  28.139  1.00  0.00     0.074 A 
ATOM     50  C   UNL A   1      42.284  30.806  29.616  1.00  0.00     0.049 A 
ATOM     51  N   UNL A   1      44.570  32.519  28.684  1.00  0.00    -0.248 NA
ATOM     52  C   UNL A   1      44.996  30.965  26.997  1.00  0.00     0.031 C 
ATOM     53  C   UNL A   1      41.192  29.988  30.147  1.00  0.00     0.029 A 
ATOM     54  N   UNL A   1      42.344  31.874  30.477  1.00  0.00    -0.354 N 
ATOM     55  C   UNL A   1      45.710  32.900  27.987  1.00  0.00     0.074 A 
ATOM     56  C   UNL A   1      45.959  31.876  26.995  1.00  0.00     0.031 C 
ATOM     57  C   UNL A   1      40.674  30.592  31.228  1.00  0.00     0.029 A 
ATOM     58  C   UNL A   1      41.418  31.819  31.492  1.00  0.00     0.049 A 
ATOM     59  H   UNL A   1      42.991  32.610  30.377  1.00  0.00     0.167 HD
ATOM     60  C   UNL A   1      46.469  34.012  28.139  1.00  0.00     0.034 A 
ATOM     61  C   UNL A   1      41.195  32.659  32.522  1.00  0.00     0.034 A 
ATOM     62  C   UNL A   1      46.197  35.047  29.100  1.00  0.00     0.049 A 
ATOM     63  C   UNL A   1      42.039  33.898  32.655  1.00  0.00     0.074 A 
ATOM     64  C   UNL A   1      46.841  36.260  29.262  1.00  0.00     0.029 A 
ATOM     65  N   UNL A   1      45.215  34.983  30.076  1.00  0.00    -0.354 N 
ATOM     66  N   UNL A   1      43.006  34.325  31.880  1.00  0.00    -0.248 NA
ATOM     67  C   UNL A   1      41.738  34.785  33.787  1.00  0.00     0.031 C 
ATOM     68  C   UNL A   1      46.278  36.910  30.364  1.00  0.00     0.029 A 
ATOM     69  C   UNL A   1      45.251  36.123  30.860  1.00  0.00     0.049 A 
ATOM     70  H   UNL A   1      44.582  34.237  30.193  1.00  0.00     0.167 HD
ATOM     71  C   UNL A   1      43.401  35.551  32.404  1.00  0.00     0.074 A 
ATOM     72  C   UNL A   1      42.557  35.803  33.555  1.00  0.00     0.031 C 
ATOM     73  C   UNL A   1      44.378  36.387  31.976  1.00  0.00     0.034 A 
BRANCH  60  74
ATOM     74  C   UNL A   1      47.659  34.177  27.227  1.00  0.00     0.023 A 
ATOM     75  C   UNL A   1      47.523  34.879  26.011  1.00  0.00     0.012 A 
ATOM     76  C   UNL A   1      48.922  33.676  27.595  1.00  0.00     0.148 A 
ATOM     77  C   UNL A   1      48.613  35.037  25.155  1.00  0.00     0.002 A 
ATOM     78  C   UNL A   1      50.015  33.882  26.762  1.00  0.00     0.091 A 
ATOM     79  F   UNL A   1      49.030  32.994  28.745  1.00  0.00    -0.205 F 
ATOM     80  C   UNL A   1      49.860  34.548  25.535  1.00  0.00     0.022 A 
BRANCH  78  81
ATOM     81  S   UNL A   1      51.677  33.365  27.202  1.00  0.00     0.127 S 
ATOM     82  O   UNL A   1      51.504  31.922  27.359  1.00  0.00    -0.237 OA
ATOM     83  O   UNL A   1      52.447  33.762  26.022  1.00  0.00    -0.237 OA
ATOM     84  O   UNL A   1      52.015  34.091  28.418  1.00  0.00    -0.744 OA
ENDBRANCH  78  81
ENDBRANCH  60  74
BRANCH  61  85
ATOM     85  C   UNL A   1      40.074  32.396  33.470  1.00  0.00     0.023 A 
ATOM     86  C   UNL A   1      40.289  31.538  34.566  1.00  0.00     0.012 A 
ATOM     87  C   UNL A   1      38.815  33.004  33.310  1.00  0.00     0.148 A 
ATOM     88  C   UNL A   1      39.260  31.263  35.468  1.00  0.00     0.002 A 
ATOM     89  C   UNL A   1      37.811  32.769  34.242  1.00  0.00     0.091 A 
ATOM     90  F   UNL A   1      38.630  33.812  32.257  1.00  0.00    -0.205 F 
ATOM     91  C   UNL A   1      38.025  31.885  35.311  1.00  0.00     0.022 A 
BRANCH  89  92
ATOM     92  S   UNL A   1      36.230  33.619  34.195  1.00  0.00     0.127 S 
ATOM     93  O   UNL A   1      35.471  32.791  33.262  1.00  0.00    -0.237 OA
ATOM     94  O   UNL A   1      35.800  33.529  35.591  1.00  0.00    -0.237 OA
ATOM     95  O   UNL A   1      36.521  34.972  33.740  1.00  0.00    -0.744 OA
ENDBRANCH  89  92
ENDBRANCH  61  85
BRANCH  73  96
ATOM     96  C   UNL A   1      44.569  37.683  32.722  1.00  0.00     0.023 A 
ATOM     97  C   UNL A   1      45.417  37.736  33.845  1.00  0.00     0.012 A 
ATOM     98  C   UNL A   1      43.959  38.868  32.261  1.00  0.00     0.148 A 
ATOM     99  C   UNL A   1      45.626  38.939  34.520  1.00  0.00     0.002 A 
ATOM    100  C   UNL A   1      44.216  40.072  32.904  1.00  0.00     0.091 A 
ATOM    101  F   UNL A   1      43.140  38.795  31.201  1.00  0.00    -0.205 F 
ATOM    102  C   UNL A   1      45.037  40.108  34.043  1.00  0.00     0.022 A 
BRANCH 100 103
ATOM    103  S   UNL A   1      43.584  41.642  32.301  1.00  0.00     0.127 S 
ATOM    104  O   UNL A   1      44.040  41.632  30.912  1.00  0.00    -0.237 OA
ATOM    105  O   UNL A   1      42.141  41.479  32.471  1.00  0.00    -0.237 OA
ATOM    106  O   UNL A   1      44.181  42.667  33.146  1.00  0.00    -0.744 OA
ENDBRANCH 100 103
ENDBRANCH  73  96
ENDBRANCH  47  48
ENDBRANCH  39  42
ENDBRANCH  37  38
ENDBRANCH  36  37
ENDBRANCH   1  36
TORSDOF 18
ENDMDL
