MODEL 1
REMARK VINA RESULT:     -11.9      0.000      0.000
REMARK SMILES O=C(NCCCCNC(=O)c1cc(OCc2ccc(Br)cc2F)cs1)c1ccc(-c2c3nc(c(-c4cccc(S(=O)(=O)[O-])c4F)c4ccc([nH]4)c(-c4cccc(S(=O)(=O)[O-])c4F)c4nc(c(-c5cccc(S(=O)(=O)[O-])c5F)c5ccc2[nH]5)C=C4)C=C3)cc1
REMARK SMILES IDX 5 1 4 2 3 3 1 4 2 5 26 7 27 8 88 9 28 10 87 11 29 12 30 13
REMARK SMILES IDX 31 14 81 15 32 16 86 17 80 18 82 19 33 20 85 21 79 22 78 23
REMARK SMILES IDX 34 25 66 26 46 27 65 28 47 29 50 30 64 31 83 32 48 33 49 34
REMARK SMILES IDX 63 36 84 37 51 38 35 39 36 40 44 41 37 42 39 43 45 44 38 45
REMARK SMILES IDX 40 46 41 47 42 48 43 49 67 50 68 51 76 52 69 53 71 54 77 55
REMARK SMILES IDX 70 56 72 57 73 58 74 59 75 60 52 61 53 62 61 63 54 64 56 65
REMARK SMILES IDX 62 66 55 67 57 68 58 69 59 70 60 71 6 72 7 73 8 74 9 75
REMARK SMILES IDX 10 77 11 78 12 79 25 80 13 81 24 82 14 83 15 84 16 85 17 86
REMARK SMILES IDX 22 87 18 88 21 89 23 90 19 91 20 92
REMARK H PARENT 3 6 82 24 50 35 8 76
REMARK Flexibility Score: inf
ROOT
ATOM      1  C   UNL A   1      35.622  21.501  24.766  1.00  0.00     0.023 C 
ENDROOT
BRANCH   1   2
ATOM      2  C   UNL A   1      37.085  21.908  24.885  1.00  0.00     0.116 C 
BRANCH   2   3
ATOM      3  N   UNL A   1      37.971  20.807  25.235  1.00  0.00    -0.352 N 
ATOM      4  O   UNL A   1      39.796  19.799  26.103  1.00  0.00    -0.269 OA
ATOM      5  C   UNL A   1      39.146  20.828  25.954  1.00  0.00     0.251 C 
ATOM      6  H   UNL A   1      37.691  19.921  24.911  1.00  0.00     0.163 HD
BRANCH   5   7
ATOM      7  C   UNL A   1      39.644  22.101  26.509  1.00  0.00     0.039 A 
ATOM      8  C   UNL A   1      39.134  23.321  26.062  1.00  0.00     0.014 A 
ATOM      9  C   UNL A   1      40.663  22.068  27.467  1.00  0.00     0.014 A 
ATOM     10  C   UNL A   1      39.763  24.502  26.436  1.00  0.00     0.010 A 
ATOM     11  C   UNL A   1      41.231  23.263  27.911  1.00  0.00     0.010 A 
ATOM     12  C   UNL A   1      40.821  24.487  27.360  1.00  0.00    -0.014 A 
BRANCH  12  13
ATOM     13  C   UNL A   1      41.455  25.768  27.755  1.00  0.00     0.031 A 
ATOM     14  C   UNL A   1      42.855  26.110  27.325  1.00  0.00     0.074 A 
ATOM     15  C   UNL A   1      40.737  26.638  28.491  1.00  0.00     0.049 A 
ATOM     16  N   UNL A   1      43.522  27.220  27.512  1.00  0.00    -0.248 NA
ATOM     17  C   UNL A   1      43.611  25.076  26.601  1.00  0.00     0.031 C 
ATOM     18  C   UNL A   1      39.388  26.388  29.006  1.00  0.00     0.029 A 
ATOM     19  N   UNL A   1      41.028  27.906  28.924  1.00  0.00    -0.354 N 
ATOM     20  C   UNL A   1      44.786  27.004  26.975  1.00  0.00     0.074 A 
ATOM     21  C   UNL A   1      44.796  25.653  26.456  1.00  0.00     0.031 C 
ATOM     22  C   UNL A   1      38.951  27.482  29.644  1.00  0.00     0.029 A 
ATOM     23  C   UNL A   1      40.000  28.494  29.623  1.00  0.00     0.049 A 
ATOM     24  H   UNL A   1      41.888  28.351  28.751  1.00  0.00     0.167 HD
ATOM     25  C   UNL A   1      45.834  27.859  26.906  1.00  0.00     0.034 A 
ATOM     26  C   UNL A   1      39.910  29.716  30.179  1.00  0.00     0.034 A 
ATOM     27  C   UNL A   1      45.797  29.217  27.380  1.00  0.00     0.049 A 
ATOM     28  C   UNL A   1      41.065  30.664  30.032  1.00  0.00     0.074 A 
ATOM     29  C   UNL A   1      46.779  30.189  27.293  1.00  0.00     0.029 A 
ATOM     30  N   UNL A   1      44.719  29.796  28.034  1.00  0.00    -0.354 N 
ATOM     31  N   UNL A   1      42.199  30.487  29.398  1.00  0.00    -0.248 NA
ATOM     32  C   UNL A   1      40.918  31.989  30.647  1.00  0.00     0.031 C 
ATOM     33  C   UNL A   1      46.298  31.352  27.906  1.00  0.00     0.029 A 
ATOM     34  C   UNL A   1      45.012  31.110  28.362  1.00  0.00     0.049 A 
ATOM     35  H   UNL A   1      43.871  29.340  28.237  1.00  0.00     0.167 HD
ATOM     36  C   UNL A   1      42.889  31.688  29.509  1.00  0.00     0.074 A 
ATOM     37  C   UNL A   1      42.033  32.591  30.255  1.00  0.00     0.031 C 
ATOM     38  C   UNL A   1      44.125  32.009  29.054  1.00  0.00     0.034 A 
BRANCH  25  39
ATOM     39  C   UNL A   1      47.104  27.365  26.258  1.00  0.00     0.023 A 
ATOM     40  C   UNL A   1      47.341  27.634  24.895  1.00  0.00     0.012 A 
ATOM     41  C   UNL A   1      48.085  26.686  27.007  1.00  0.00     0.148 A 
ATOM     42  C   UNL A   1      48.518  27.207  24.279  1.00  0.00     0.002 A 
ATOM     43  C   UNL A   1      49.272  26.296  26.396  1.00  0.00     0.091 A 
ATOM     44  F   UNL A   1      47.833  26.416  28.296  1.00  0.00    -0.205 F 
ATOM     45  C   UNL A   1      49.487  26.547  25.032  1.00  0.00     0.022 A 
BRANCH  43  46
ATOM     46  S   UNL A   1      50.606  25.507  27.307  1.00  0.00     0.127 S 
ATOM     47  O   UNL A   1      50.830  26.462  28.390  1.00  0.00    -0.237 OA
ATOM     48  O   UNL A   1      49.993  24.244  27.726  1.00  0.00    -0.237 OA
ATOM     49  O   UNL A   1      51.699  25.358  26.357  1.00  0.00    -0.744 OA
ENDBRANCH  43  46
ENDBRANCH  25  39
BRANCH  26  50
ATOM     50  C   UNL A   1      38.642  30.130  30.843  1.00  0.00     0.023 A 
ATOM     51  C   UNL A   1      38.472  29.877  32.218  1.00  0.00     0.012 A 
ATOM     52  C   UNL A   1      37.642  30.831  30.143  1.00  0.00     0.148 A 
ATOM     53  C   UNL A   1      37.318  30.300  32.880  1.00  0.00     0.002 A 
ATOM     54  C   UNL A   1      36.523  31.300  30.821  1.00  0.00     0.091 A 
ATOM     55  F   UNL A   1      37.818  31.049  28.832  1.00  0.00    -0.205 F 
ATOM     56  C   UNL A   1      36.351  31.022  32.186  1.00  0.00     0.022 A 
BRANCH  54  57
ATOM     57  S   UNL A   1      35.305  32.362  30.037  1.00  0.00     0.127 S 
ATOM     58  O   UNL A   1      34.359  32.588  31.126  1.00  0.00    -0.237 OA
ATOM     59  O   UNL A   1      36.109  33.528  29.667  1.00  0.00    -0.237 OA
ATOM     60  O   UNL A   1      34.799  31.602  28.901  1.00  0.00    -0.744 OA
ENDBRANCH  54  57
ENDBRANCH  26  50
BRANCH  38  61
ATOM     61  C   UNL A   1      44.617  33.405  29.322  1.00  0.00     0.023 A 
ATOM     62  C   UNL A   1      45.249  33.699  30.546  1.00  0.00     0.012 A 
ATOM     63  C   UNL A   1      44.510  34.407  28.338  1.00  0.00     0.148 A 
ATOM     64  C   UNL A   1      45.738  34.980  30.799  1.00  0.00     0.002 A 
ATOM     65  C   UNL A   1      45.041  35.668  28.581  1.00  0.00     0.091 A 
ATOM     66  F   UNL A   1      43.883  34.114  27.189  1.00  0.00    -0.205 F 
ATOM     67  C   UNL A   1      45.646  35.960  29.813  1.00  0.00     0.022 A 
BRANCH  65  68
ATOM     68  S   UNL A   1      45.043  36.953  27.326  1.00  0.00     0.127 S 
ATOM     69  O   UNL A   1      45.875  36.355  26.285  1.00  0.00    -0.237 OA
ATOM     70  O   UNL A   1      43.623  37.064  26.985  1.00  0.00    -0.237 OA
ATOM     71  O   UNL A   1      45.593  38.136  27.975  1.00  0.00    -0.744 OA
ENDBRANCH  65  68
ENDBRANCH  38  61
ENDBRANCH  12  13
ENDBRANCH   5   7
ENDBRANCH   2   3
ENDBRANCH   1   2
BRANCH   1  72
ATOM     72  C   UNL A   1      34.887  21.304  26.087  1.00  0.00     0.023 C 
BRANCH  72  73
ATOM     73  C   UNL A   1      33.382  21.086  25.968  1.00  0.00     0.116 C 
BRANCH  73  74
ATOM     74  N   UNL A   1      32.607  22.019  26.771  1.00  0.00    -0.351 N 
ATOM     75  C   UNL A   1      32.150  23.275  26.426  1.00  0.00     0.261 C 
ATOM     76  H   UNL A   1      32.380  21.715  27.679  1.00  0.00     0.163 HD
ATOM     77  O   UNL A   1      31.618  23.964  27.290  1.00  0.00    -0.268 OA
BRANCH  75  78
ATOM     78  C   UNL A   1      32.332  23.697  25.053  1.00  0.00     0.096 A 
ATOM     79  C   UNL A   1      33.440  24.293  24.480  1.00  0.00     0.072 A 
ATOM     80  S   UNL A   1      31.063  23.508  23.927  1.00  0.00    -0.135 S 
ATOM     81  C   UNL A   1      33.153  24.807  23.186  1.00  0.00     0.131 A 
ATOM     82  C   UNL A   1      31.911  24.409  22.743  1.00  0.00     0.112 A 
BRANCH  81  83
ATOM     83  O   UNL A   1      33.909  25.617  22.401  1.00  0.00    -0.488 OA
BRANCH  83  84
ATOM     84  C   UNL A   1      33.268  26.823  21.959  1.00  0.00     0.268 C 
BRANCH  84  85
ATOM     85  C   UNL A   1      32.952  27.804  23.068  1.00  0.00     0.025 A 
ATOM     86  C   UNL A   1      33.932  28.245  23.967  1.00  0.00     0.011 A 
ATOM     87  C   UNL A   1      31.638  28.258  23.241  1.00  0.00     0.130 A 
ATOM     88  C   UNL A   1      33.602  29.128  24.997  1.00  0.00     0.016 A 
ATOM     89  C   UNL A   1      31.295  29.135  24.267  1.00  0.00     0.055 A 
ATOM     90  F   UNL A   1      30.681  27.853  22.394  1.00  0.00    -0.207 F 
ATOM     91  C   UNL A   1      32.285  29.560  25.147  1.00  0.00     0.020 A 
ATOM     92  Br  UNL A   1      31.857  30.721  26.570  1.00  0.00    -0.051 Br
ENDBRANCH  84  85
ENDBRANCH  83  84
ENDBRANCH  81  83
ENDBRANCH  75  78
ENDBRANCH  73  74
ENDBRANCH  72  73
ENDBRANCH   1  72
TORSDOF 17
ENDMDL
MODEL 2
REMARK VINA RESULT:     -11.8      2.098      2.519
REMARK SMILES O=C(NCCCCNC(=O)c1cc(OCc2ccc(Br)cc2F)cs1)c1ccc(-c2c3nc(c(-c4cccc(S(=O)(=O)[O-])c4F)c4ccc([nH]4)c(-c4cccc(S(=O)(=O)[O-])c4F)c4nc(c(-c5cccc(S(=O)(=O)[O-])c5F)c5ccc2[nH]5)C=C4)C=C3)cc1
REMARK SMILES IDX 5 1 4 2 3 3 1 4 2 5 26 7 27 8 88 9 28 10 87 11 29 12 30 13
REMARK SMILES IDX 31 14 81 15 32 16 86 17 80 18 82 19 33 20 85 21 79 22 78 23
REMARK SMILES IDX 34 25 66 26 46 27 65 28 47 29 50 30 64 31 83 32 48 33 49 34
REMARK SMILES IDX 63 36 84 37 51 38 35 39 36 40 44 41 37 42 39 43 45 44 38 45
REMARK SMILES IDX 40 46 41 47 42 48 43 49 67 50 68 51 76 52 69 53 71 54 77 55
REMARK SMILES IDX 70 56 72 57 73 58 74 59 75 60 52 61 53 62 61 63 54 64 56 65
REMARK SMILES IDX 62 66 55 67 57 68 58 69 59 70 60 71 6 72 7 73 8 74 9 75
REMARK SMILES IDX 10 77 11 78 12 79 25 80 13 81 24 82 14 83 15 84 16 85 17 86
REMARK SMILES IDX 22 87 18 88 21 89 23 90 19 91 20 92
REMARK H PARENT 3 6 82 24 50 35 8 76
REMARK Flexibility Score: inf
ROOT
ATOM      1  C   UNL A   1      36.726  22.222  24.311  1.00  0.00     0.023 C 
ENDROOT
BRANCH   1   2
ATOM      2  C   UNL A   1      37.245  22.001  25.726  1.00  0.00     0.116 C 
BRANCH   2   3
ATOM      3  N   UNL A   1      38.350  21.056  25.802  1.00  0.00    -0.352 N 
ATOM      4  O   UNL A   1      40.458  20.346  26.193  1.00  0.00    -0.269 OA
ATOM      5  C   UNL A   1      39.634  21.252  26.258  1.00  0.00     0.251 C 
ATOM      6  H   UNL A   1      38.151  20.147  25.481  1.00  0.00     0.163 HD
BRANCH   5   7
ATOM      7  C   UNL A   1      40.033  22.571  26.787  1.00  0.00     0.039 A 
ATOM      8  C   UNL A   1      39.589  23.746  26.178  1.00  0.00     0.014 A 
ATOM      9  C   UNL A   1      40.893  22.627  27.888  1.00  0.00     0.014 A 
ATOM     10  C   UNL A   1      40.144  24.962  26.555  1.00  0.00     0.010 A 
ATOM     11  C   UNL A   1      41.377  23.861  28.324  1.00  0.00     0.010 A 
ATOM     12  C   UNL A   1      41.048  25.034  27.628  1.00  0.00    -0.014 A 
BRANCH  12  13
ATOM     13  C   UNL A   1      41.605  26.352  28.018  1.00  0.00     0.031 A 
ATOM     14  C   UNL A   1      43.005  26.749  27.640  1.00  0.00     0.074 A 
ATOM     15  C   UNL A   1      40.816  27.203  28.701  1.00  0.00     0.049 A 
ATOM     16  N   UNL A   1      43.611  27.893  27.829  1.00  0.00    -0.248 NA
ATOM     17  C   UNL A   1      43.839  25.736  26.974  1.00  0.00     0.031 C 
ATOM     18  C   UNL A   1      39.458  26.902  29.164  1.00  0.00     0.029 A 
ATOM     19  N   UNL A   1      41.029  28.493  29.115  1.00  0.00    -0.354 N 
ATOM     20  C   UNL A   1      44.906  27.725  27.352  1.00  0.00     0.074 A 
ATOM     21  C   UNL A   1      45.001  26.364  26.867  1.00  0.00     0.031 C 
ATOM     22  C   UNL A   1      38.944  27.988  29.756  1.00  0.00     0.029 A 
ATOM     23  C   UNL A   1      39.946  29.048  29.755  1.00  0.00     0.049 A 
ATOM     24  H   UNL A   1      41.875  28.974  28.969  1.00  0.00     0.167 HD
ATOM     25  C   UNL A   1      45.917  28.626  27.307  1.00  0.00     0.034 A 
ATOM     26  C   UNL A   1      39.775  30.276  30.277  1.00  0.00     0.034 A 
ATOM     27  C   UNL A   1      45.796  29.991  27.746  1.00  0.00     0.049 A 
ATOM     28  C   UNL A   1      40.891  31.274  30.157  1.00  0.00     0.074 A 
ATOM     29  C   UNL A   1      46.735  31.005  27.677  1.00  0.00     0.029 A 
ATOM     30  N   UNL A   1      44.666  30.534  28.339  1.00  0.00    -0.354 N 
ATOM     31  N   UNL A   1      42.059  31.136  29.576  1.00  0.00    -0.248 NA
ATOM     32  C   UNL A   1      40.657  32.604  30.733  1.00  0.00     0.031 C 
ATOM     33  C   UNL A   1      46.176  32.158  28.241  1.00  0.00     0.029 A 
ATOM     34  C   UNL A   1      44.883  31.866  28.647  1.00  0.00     0.049 A 
ATOM     35  H   UNL A   1      43.831  30.043  28.516  1.00  0.00     0.167 HD
ATOM     36  C   UNL A   1      42.688  32.369  29.688  1.00  0.00     0.074 A 
ATOM     37  C   UNL A   1      41.759  33.248  30.374  1.00  0.00     0.031 C 
ATOM     38  C   UNL A   1      43.926  32.738  29.279  1.00  0.00     0.034 A 
BRANCH  25  39
ATOM     39  C   UNL A   1      47.234  28.178  26.727  1.00  0.00     0.023 A 
ATOM     40  C   UNL A   1      48.311  27.883  27.588  1.00  0.00     0.012 A 
ATOM     41  C   UNL A   1      47.393  27.997  25.339  1.00  0.00     0.148 A 
ATOM     42  C   UNL A   1      49.533  27.445  27.076  1.00  0.00     0.002 A 
ATOM     43  C   UNL A   1      48.602  27.524  24.838  1.00  0.00     0.091 A 
ATOM     44  F   UNL A   1      46.369  28.306  24.531  1.00  0.00    -0.205 F 
ATOM     45  C   UNL A   1      49.675  27.257  25.704  1.00  0.00     0.022 A 
BRANCH  43  46
ATOM     46  S   UNL A   1      48.850  27.182  23.091  1.00  0.00     0.127 S 
ATOM     47  O   UNL A   1      48.211  28.341  22.470  1.00  0.00    -0.237 OA
ATOM     48  O   UNL A   1      50.309  27.160  22.981  1.00  0.00    -0.237 OA
ATOM     49  O   UNL A   1      48.209  25.898  22.845  1.00  0.00    -0.744 OA
ENDBRANCH  43  46
ENDBRANCH  25  39
BRANCH  26  50
ATOM     50  C   UNL A   1      38.462  30.645  30.876  1.00  0.00     0.023 A 
ATOM     51  C   UNL A   1      38.243  30.416  32.248  1.00  0.00     0.012 A 
ATOM     52  C   UNL A   1      37.462  31.281  30.117  1.00  0.00     0.148 A 
ATOM     53  C   UNL A   1      37.044  30.799  32.850  1.00  0.00     0.002 A 
ATOM     54  C   UNL A   1      36.294  31.712  30.734  1.00  0.00     0.091 A 
ATOM     55  F   UNL A   1      37.684  31.476  28.809  1.00  0.00    -0.205 F 
ATOM     56  C   UNL A   1      36.076  31.458  32.097  1.00  0.00     0.022 A 
BRANCH  54  57
ATOM     57  S   UNL A   1      35.063  32.696  29.872  1.00  0.00     0.127 S 
ATOM     58  O   UNL A   1      34.142  33.038  30.953  1.00  0.00    -0.237 OA
ATOM     59  O   UNL A   1      35.863  33.813  29.368  1.00  0.00    -0.237 OA
ATOM     60  O   UNL A   1      34.529  31.828  28.831  1.00  0.00    -0.744 OA
ENDBRANCH  54  57
ENDBRANCH  26  50
BRANCH  38  61
ATOM     61  C   UNL A   1      44.341  34.161  29.534  1.00  0.00     0.023 A 
ATOM     62  C   UNL A   1      45.062  34.479  30.701  1.00  0.00     0.012 A 
ATOM     63  C   UNL A   1      44.073  35.169  28.588  1.00  0.00     0.148 A 
ATOM     64  C   UNL A   1      45.482  35.787  30.939  1.00  0.00     0.002 A 
ATOM     65  C   UNL A   1      44.534  36.461  28.810  1.00  0.00     0.091 A 
ATOM     66  F   UNL A   1      43.364  34.852  27.494  1.00  0.00    -0.205 F 
ATOM     67  C   UNL A   1      45.230  36.775  29.989  1.00  0.00     0.022 A 
BRANCH  65  68
ATOM     68  S   UNL A   1      44.329  37.765  27.592  1.00  0.00     0.127 S 
ATOM     69  O   UNL A   1      44.349  38.963  28.428  1.00  0.00    -0.237 OA
ATOM     70  O   UNL A   1      45.509  37.593  26.742  1.00  0.00    -0.237 OA
ATOM     71  O   UNL A   1      43.066  37.482  26.922  1.00  0.00    -0.744 OA
ENDBRANCH  65  68
ENDBRANCH  38  61
ENDBRANCH  12  13
ENDBRANCH   5   7
ENDBRANCH   2   3
ENDBRANCH   1   2
BRANCH   1  72
ATOM     72  C   UNL A   1      36.115  23.593  24.042  1.00  0.00     0.023 C 
BRANCH  72  73
ATOM     73  C   UNL A   1      34.600  23.672  24.200  1.00  0.00     0.116 C 
BRANCH  73  74
ATOM     74  N   UNL A   1      33.904  22.563  23.567  1.00  0.00    -0.351 N 
ATOM     75  C   UNL A   1      32.559  22.257  23.609  1.00  0.00     0.261 C 
ATOM     76  H   UNL A   1      34.466  21.951  23.041  1.00  0.00     0.163 HD
ATOM     77  O   UNL A   1      32.181  21.202  23.112  1.00  0.00    -0.268 OA
BRANCH  75  78
ATOM     78  C   UNL A   1      31.678  23.213  24.246  1.00  0.00     0.096 A 
ATOM     79  C   UNL A   1      31.133  24.365  23.712  1.00  0.00     0.072 A 
ATOM     80  S   UNL A   1      31.221  22.996  25.877  1.00  0.00    -0.135 S 
ATOM     81  C   UNL A   1      30.541  25.184  24.713  1.00  0.00     0.131 A 
ATOM     82  C   UNL A   1      30.479  24.539  25.928  1.00  0.00     0.112 A 
BRANCH  81  83
ATOM     83  O   UNL A   1      30.087  26.459  24.615  1.00  0.00    -0.488 OA
BRANCH  83  84
ATOM     84  C   UNL A   1      28.885  26.630  23.850  1.00  0.00     0.268 C 
BRANCH  84  85
ATOM     85  C   UNL A   1      28.745  27.991  23.200  1.00  0.00     0.025 A 
ATOM     86  C   UNL A   1      29.827  28.626  22.576  1.00  0.00     0.011 A 
ATOM     87  C   UNL A   1      27.519  28.666  23.257  1.00  0.00     0.130 A 
ATOM     88  C   UNL A   1      29.673  29.895  22.012  1.00  0.00     0.016 A 
ATOM     89  C   UNL A   1      27.355  29.932  22.703  1.00  0.00     0.055 A 
ATOM     90  F   UNL A   1      26.468  28.079  23.847  1.00  0.00    -0.207 F 
ATOM     91  C   UNL A   1      28.441  30.544  22.087  1.00  0.00     0.020 A 
ATOM     92  Br  UNL A   1      28.270  32.273  21.353  1.00  0.00    -0.051 Br
ENDBRANCH  84  85
ENDBRANCH  83  84
ENDBRANCH  81  83
ENDBRANCH  75  78
ENDBRANCH  73  74
ENDBRANCH  72  73
ENDBRANCH   1  72
TORSDOF 17
ENDMDL
MODEL 3
REMARK VINA RESULT:     -11.5      4.763      9.637
REMARK SMILES O=C(NCCCCNC(=O)c1cc(OCc2ccc(Br)cc2F)cs1)c1ccc(-c2c3nc(c(-c4cccc(S(=O)(=O)[O-])c4F)c4ccc([nH]4)c(-c4cccc(S(=O)(=O)[O-])c4F)c4nc(c(-c5cccc(S(=O)(=O)[O-])c5F)c5ccc2[nH]5)C=C4)C=C3)cc1
REMARK SMILES IDX 5 1 4 2 3 3 1 4 2 5 26 7 27 8 88 9 28 10 87 11 29 12 30 13
REMARK SMILES IDX 31 14 81 15 32 16 86 17 80 18 82 19 33 20 85 21 79 22 78 23
REMARK SMILES IDX 34 25 66 26 46 27 65 28 47 29 50 30 64 31 83 32 48 33 49 34
REMARK SMILES IDX 63 36 84 37 51 38 35 39 36 40 44 41 37 42 39 43 45 44 38 45
REMARK SMILES IDX 40 46 41 47 42 48 43 49 67 50 68 51 76 52 69 53 71 54 77 55
REMARK SMILES IDX 70 56 72 57 73 58 74 59 75 60 52 61 53 62 61 63 54 64 56 65
REMARK SMILES IDX 62 66 55 67 57 68 58 69 59 70 60 71 6 72 7 73 8 74 9 75
REMARK SMILES IDX 10 77 11 78 12 79 25 80 13 81 24 82 14 83 15 84 16 85 17 86
REMARK SMILES IDX 22 87 18 88 21 89 23 90 19 91 20 92
REMARK H PARENT 3 6 82 24 50 35 8 76
REMARK Flexibility Score: inf
ROOT
ATOM      1  C   UNL A   1      33.618  28.626  25.682  1.00  0.00     0.023 C 
ENDROOT
BRANCH   1   2
ATOM      2  C   UNL A   1      33.495  28.865  27.182  1.00  0.00     0.116 C 
BRANCH   2   3
ATOM      3  N   UNL A   1      33.503  30.273  27.552  1.00  0.00    -0.352 N 
ATOM      4  O   UNL A   1      34.296  32.181  28.463  1.00  0.00    -0.269 OA
ATOM      5  C   UNL A   1      34.489  31.005  28.175  1.00  0.00     0.251 C 
ATOM      6  H   UNL A   1      32.687  30.773  27.324  1.00  0.00     0.163 HD
BRANCH   5   7
ATOM      7  C   UNL A   1      35.765  30.359  28.537  1.00  0.00     0.039 A 
ATOM      8  C   UNL A   1      35.886  29.636  29.725  1.00  0.00     0.014 A 
ATOM      9  C   UNL A   1      36.865  30.512  27.687  1.00  0.00     0.014 A 
ATOM     10  C   UNL A   1      37.143  29.223  30.148  1.00  0.00     0.010 A 
ATOM     11  C   UNL A   1      38.111  30.013  28.073  1.00  0.00     0.010 A 
ATOM     12  C   UNL A   1      38.270  29.411  29.330  1.00  0.00    -0.014 A 
BRANCH  12  13
ATOM     13  C   UNL A   1      39.593  28.937  29.803  1.00  0.00     0.031 A 
ATOM     14  C   UNL A   1      40.226  29.502  31.045  1.00  0.00     0.074 A 
ATOM     15  C   UNL A   1      40.211  27.963  29.107  1.00  0.00     0.049 A 
ATOM     16  N   UNL A   1      41.333  29.139  31.639  1.00  0.00    -0.248 NA
ATOM     17  C   UNL A   1      39.537  30.625  31.703  1.00  0.00     0.031 C 
ATOM     18  C   UNL A   1      39.713  27.378  27.860  1.00  0.00     0.029 A 
ATOM     19  N   UNL A   1      41.379  27.286  29.348  1.00  0.00    -0.354 N 
ATOM     20  C   UNL A   1      41.500  30.013  32.708  1.00  0.00     0.074 A 
ATOM     21  C   UNL A   1      40.381  30.930  32.679  1.00  0.00     0.031 C 
ATOM     22  C   UNL A   1      40.542  26.400  27.470  1.00  0.00     0.029 A 
ATOM     23  C   UNL A   1      41.652  26.317  28.412  1.00  0.00     0.049 A 
ATOM     24  H   UNL A   1      41.963  27.476  30.117  1.00  0.00     0.167 HD
ATOM     25  C   UNL A   1      42.487  30.037  33.636  1.00  0.00     0.034 A 
ATOM     26  C   UNL A   1      42.679  25.451  28.325  1.00  0.00     0.034 A 
ATOM     27  C   UNL A   1      43.568  29.090  33.684  1.00  0.00     0.049 A 
ATOM     28  C   UNL A   1      43.724  25.461  29.404  1.00  0.00     0.074 A 
ATOM     29  C   UNL A   1      44.579  28.981  34.624  1.00  0.00     0.029 A 
ATOM     30  N   UNL A   1      43.783  28.087  32.750  1.00  0.00    -0.354 N 
ATOM     31  N   UNL A   1      43.788  26.205  30.482  1.00  0.00    -0.248 NA
ATOM     32  C   UNL A   1      44.821  24.493  29.272  1.00  0.00     0.031 C 
ATOM     33  C   UNL A   1      45.411  27.920  34.250  1.00  0.00     0.029 A 
ATOM     34  C   UNL A   1      44.911  27.358  33.085  1.00  0.00     0.049 A 
ATOM     35  H   UNL A   1      43.216  27.919  31.963  1.00  0.00     0.167 HD
ATOM     36  C   UNL A   1      44.913  25.775  31.175  1.00  0.00     0.074 A 
ATOM     37  C   UNL A   1      45.487  24.690  30.402  1.00  0.00     0.031 C 
ATOM     38  C   UNL A   1      45.434  26.246  32.334  1.00  0.00     0.034 A 
BRANCH  25  39
ATOM     39  C   UNL A   1      42.423  31.101  34.703  1.00  0.00     0.023 A 
ATOM     40  C   UNL A   1      41.820  30.809  35.943  1.00  0.00     0.012 A 
ATOM     41  C   UNL A   1      43.005  32.368  34.501  1.00  0.00     0.148 A 
ATOM     42  C   UNL A   1      41.769  31.770  36.954  1.00  0.00     0.002 A 
ATOM     43  C   UNL A   1      42.984  33.308  35.526  1.00  0.00     0.091 A 
ATOM     44  F   UNL A   1      43.552  32.639  33.308  1.00  0.00    -0.205 F 
ATOM     45  C   UNL A   1      42.359  33.014  36.749  1.00  0.00     0.022 A 
BRANCH  43  46
ATOM     46  S   UNL A   1      43.784  34.911  35.376  1.00  0.00     0.127 S 
ATOM     47  O   UNL A   1      42.688  35.742  34.883  1.00  0.00    -0.237 OA
ATOM     48  O   UNL A   1      44.187  35.190  36.755  1.00  0.00    -0.237 OA
ATOM     49  O   UNL A   1      44.894  34.714  34.454  1.00  0.00    -0.744 OA
ENDBRANCH  43  46
ENDBRANCH  25  39
BRANCH  26  50
ATOM     50  C   UNL A   1      42.707  24.452  27.222  1.00  0.00     0.023 A 
ATOM     51  C   UNL A   1      43.411  24.751  26.040  1.00  0.00     0.012 A 
ATOM     52  C   UNL A   1      42.106  23.186  27.363  1.00  0.00     0.148 A 
ATOM     53  C   UNL A   1      43.500  23.814  25.010  1.00  0.00     0.002 A 
ATOM     54  C   UNL A   1      42.247  22.237  26.358  1.00  0.00     0.091 A 
ATOM     55  F   UNL A   1      41.428  22.926  28.490  1.00  0.00    -0.205 F 
ATOM     56  C   UNL A   1      42.931  22.555  25.173  1.00  0.00     0.022 A 
BRANCH  54  57
ATOM     57  S   UNL A   1      41.673  20.546  26.550  1.00  0.00     0.127 S 
ATOM     58  O   UNL A   1      42.238  19.902  25.368  1.00  0.00    -0.237 OA
ATOM     59  O   UNL A   1      42.289  20.157  27.819  1.00  0.00    -0.237 OA
ATOM     60  O   UNL A   1      40.219  20.632  26.595  1.00  0.00    -0.744 OA
ENDBRANCH  54  57
ENDBRANCH  26  50
BRANCH  38  61
ATOM     61  C   UNL A   1      46.674  25.573  32.856  1.00  0.00     0.023 A 
ATOM     62  C   UNL A   1      47.942  26.046  32.467  1.00  0.00     0.012 A 
ATOM     63  C   UNL A   1      46.582  24.513  33.780  1.00  0.00     0.148 A 
ATOM     64  C   UNL A   1      49.102  25.453  32.965  1.00  0.00     0.002 A 
ATOM     65  C   UNL A   1      47.742  23.958  34.306  1.00  0.00     0.091 A 
ATOM     66  F   UNL A   1      45.366  24.061  34.119  1.00  0.00    -0.205 F 
ATOM     67  C   UNL A   1      49.003  24.419  33.893  1.00  0.00     0.022 A 
BRANCH  65  68
ATOM     68  S   UNL A   1      47.695  22.687  35.574  1.00  0.00     0.127 S 
ATOM     69  O   UNL A   1      49.116  22.473  35.838  1.00  0.00    -0.237 OA
ATOM     70  O   UNL A   1      46.965  23.348  36.658  1.00  0.00    -0.237 OA
ATOM     71  O   UNL A   1      46.986  21.563  34.978  1.00  0.00    -0.744 OA
ENDBRANCH  65  68
ENDBRANCH  38  61
ENDBRANCH  12  13
ENDBRANCH   5   7
ENDBRANCH   2   3
ENDBRANCH   1   2
BRANCH   1  72
ATOM     72  C   UNL A   1      32.808  29.567  24.799  1.00  0.00     0.023 C 
BRANCH  72  73
ATOM     73  C   UNL A   1      31.294  29.458  24.949  1.00  0.00     0.116 C 
BRANCH  73  74
ATOM     74  N   UNL A   1      30.583  29.640  23.693  1.00  0.00    -0.351 N 
ATOM     75  C   UNL A   1      30.298  28.699  22.724  1.00  0.00     0.261 C 
ATOM     76  H   UNL A   1      30.266  30.553  23.510  1.00  0.00     0.163 HD
ATOM     77  O   UNL A   1      29.797  29.076  21.670  1.00  0.00    -0.268 OA
BRANCH  75  78
ATOM     78  C   UNL A   1      30.615  27.318  23.021  1.00  0.00     0.096 A 
ATOM     79  C   UNL A   1      31.744  26.603  22.671  1.00  0.00     0.072 A 
ATOM     80  S   UNL A   1      29.499  26.354  23.882  1.00  0.00    -0.135 S 
ATOM     81  C   UNL A   1      31.581  25.210  22.902  1.00  0.00     0.131 A 
ATOM     82  C   UNL A   1      30.425  24.941  23.600  1.00  0.00     0.112 A 
BRANCH  81  83
ATOM     83  O   UNL A   1      32.374  24.180  22.511  1.00  0.00    -0.488 OA
BRANCH  83  84
ATOM     84  C   UNL A   1      32.657  23.200  23.521  1.00  0.00     0.268 C 
BRANCH  84  85
ATOM     85  C   UNL A   1      34.021  23.339  24.163  1.00  0.00     0.025 A 
ATOM     86  C   UNL A   1      35.196  23.374  23.400  1.00  0.00     0.011 A 
ATOM     87  C   UNL A   1      34.131  23.388  25.558  1.00  0.00     0.130 A 
ATOM     88  C   UNL A   1      36.442  23.473  24.025  1.00  0.00     0.016 A 
ATOM     89  C   UNL A   1      35.366  23.482  26.192  1.00  0.00     0.055 A 
ATOM     90  F   UNL A   1      33.021  23.357  26.311  1.00  0.00    -0.207 F 
ATOM     91  C   UNL A   1      36.520  23.517  25.416  1.00  0.00     0.020 A 
ATOM     92  Br  UNL A   1      38.216  23.610  26.237  1.00  0.00    -0.051 Br
ENDBRANCH  84  85
ENDBRANCH  83  84
ENDBRANCH  81  83
ENDBRANCH  75  78
ENDBRANCH  73  74
ENDBRANCH  72  73
ENDBRANCH   1  72
TORSDOF 17
ENDMDL
