MODEL 1
REMARK VINA RESULT:     -12.5      0.000      0.000
REMARK SMILES Cc1cc(OC(F)(F)F)cc2c1O[C@@H](C(F)(F)F)C(C(=O)NCCCCNC(=O)c1ccc(-c3c4nc(c(-c5cccc(S(=O)(=O)[O-])c5F)c5ccc([nH]5)c(-c5cccc(S(=O)(=O)[O-])c5F)c5nc(c(-c6cccc(S(=O)(=O)[O-])c6F)c6ccc3[nH]6)C=C5)C=C4)cc1)=C2
REMARK SMILES IDX 25 1 24 2 23 3 22 4 20 5 21 6 19 8 1 9 2 10 3 11 12 12 4 13
REMARK SMILES IDX 11 14 13 15 10 16 93 17 14 18 5 19 6 20 7 21 8 22 9 23 15 24
REMARK SMILES IDX 16 25 17 26 18 27 26 28 27 29 28 30 29 32 30 33 31 34 92 35
REMARK SMILES IDX 32 36 91 37 33 38 34 39 35 40 85 41 36 42 90 43 84 44 86 45
REMARK SMILES IDX 37 46 89 47 83 48 82 49 38 51 70 52 50 53 69 54 51 55 54 56
REMARK SMILES IDX 68 57 87 58 52 59 53 60 67 62 88 63 55 64 39 65 40 66 48 67
REMARK SMILES IDX 41 68 43 69 49 70 42 71 44 72 45 73 46 74 47 75 71 76 72 77
REMARK SMILES IDX 80 78 73 79 75 80 81 81 74 82 76 83 77 84 78 85 79 86 56 87
REMARK SMILES IDX 57 88 65 89 58 90 60 91 66 92 59 93 61 94 62 95 63 96 64 97
REMARK H PARENT 22 7 27 31 86 50 54 61
REMARK Flexibility Score: inf
ROOT
ATOM      1  C   UNL A   1      35.324  21.566  25.395  1.00  0.00     0.023 C 
ENDROOT
BRANCH   1   2
ATOM      2  C   UNL A   1      34.154  22.348  25.996  1.00  0.00     0.023 C 
BRANCH   2   3
ATOM      3  C   UNL A   1      32.798  22.034  25.367  1.00  0.00     0.116 C 
BRANCH   3   4
ATOM      4  N   UNL A   1      31.708  22.324  26.278  1.00  0.00    -0.352 N 
ATOM      5  C   UNL A   1      30.942  23.395  26.582  1.00  0.00     0.251 C 
ATOM      6  O   UNL A   1      30.037  23.181  27.396  1.00  0.00    -0.270 OA
ATOM      7  H   UNL A   1      31.464  21.536  26.815  1.00  0.00     0.163 HD
BRANCH   5   8
ATOM      8  C   UNL A   1      31.112  24.770  26.025  1.00  0.00     0.067 C 
ATOM      9  C   UNL A   1      30.925  29.312  23.593  1.00  0.00     0.048 C 
ATOM     10  C   UNL A   1      31.824  28.663  24.609  1.00  0.00    -0.005 A 
ATOM     11  C   UNL A   1      32.957  29.356  25.069  1.00  0.00     0.054 A 
ATOM     12  C   UNL A   1      31.539  27.400  25.139  1.00  0.00     0.131 A 
ATOM     13  C   UNL A   1      33.799  28.792  26.031  1.00  0.00     0.130 A 
ATOM     14  C   UNL A   1      32.373  26.826  26.099  1.00  0.00     0.021 A 
ATOM     15  O   UNL A   1      30.399  26.767  24.719  1.00  0.00    -0.475 OA
ATOM     16  C   UNL A   1      33.501  27.524  26.539  1.00  0.00     0.058 A 
ATOM     17  C   UNL A   1      32.048  25.514  26.641  1.00  0.00     0.025 C 
ATOM     18  C   UNL A   1      30.415  25.311  24.807  1.00  0.00     0.314 C 
BRANCH  13  19
ATOM     19  O   UNL A   1      34.926  29.356  26.555  1.00  0.00    -0.406 OA
BRANCH  19  20
ATOM     20  C   UNL A   1      34.776  30.241  27.650  1.00  0.00     0.573 C 
ATOM     21  F   UNL A   1      33.472  30.461  27.926  1.00  0.00    -0.132 F 
ATOM     22  F   UNL A   1      35.396  29.767  28.752  1.00  0.00    -0.132 F 
ATOM     23  F   UNL A   1      35.341  31.428  27.332  1.00  0.00    -0.132 F 
ENDBRANCH  19  20
ENDBRANCH  13  19
BRANCH  18  24
ATOM     24  C   UNL A   1      30.914  24.714  23.480  1.00  0.00     0.429 C 
ATOM     25  F   UNL A   1      30.814  25.578  22.444  1.00  0.00    -0.167 F 
ATOM     26  F   UNL A   1      32.204  24.318  23.533  1.00  0.00    -0.167 F 
ATOM     27  F   UNL A   1      30.177  23.621  23.155  1.00  0.00    -0.167 F 
ENDBRANCH  18  24
ENDBRANCH   5   8
ENDBRANCH   3   4
ENDBRANCH   2   3
ENDBRANCH   1   2
BRANCH   1  28
ATOM     28  C   UNL A   1      36.706  22.080  25.777  1.00  0.00     0.116 C 
BRANCH  28  29
ATOM     29  N   UNL A   1      37.740  21.056  25.716  1.00  0.00    -0.352 N 
ATOM     30  C   UNL A   1      39.069  21.182  26.064  1.00  0.00     0.251 C 
ATOM     31  H   UNL A   1      37.458  20.172  25.389  1.00  0.00     0.163 HD
ATOM     32  O   UNL A   1      39.854  20.268  25.906  1.00  0.00    -0.269 OA
BRANCH  30  33
ATOM     33  C   UNL A   1      39.510  22.486  26.597  1.00  0.00     0.039 A 
ATOM     34  C   UNL A   1      40.488  22.505  27.592  1.00  0.00     0.014 A 
ATOM     35  C   UNL A   1      39.034  23.668  26.023  1.00  0.00     0.014 A 
ATOM     36  C   UNL A   1      41.044  23.725  27.973  1.00  0.00     0.010 A 
ATOM     37  C   UNL A   1      39.624  24.876  26.370  1.00  0.00     0.010 A 
ATOM     38  C   UNL A   1      40.635  24.912  27.343  1.00  0.00    -0.014 A 
BRANCH  38  39
ATOM     39  C   UNL A   1      41.251  26.210  27.694  1.00  0.00     0.031 A 
ATOM     40  C   UNL A   1      42.667  26.492  27.291  1.00  0.00     0.074 A 
ATOM     41  C   UNL A   1      40.559  27.099  28.433  1.00  0.00     0.049 A 
ATOM     42  N   UNL A   1      43.396  27.545  27.539  1.00  0.00    -0.248 NA
ATOM     43  C   UNL A   1      43.361  25.440  26.528  1.00  0.00     0.031 C 
ATOM     44  C   UNL A   1      39.199  26.903  28.938  1.00  0.00     0.029 A 
ATOM     45  N   UNL A   1      40.915  28.337  28.902  1.00  0.00    -0.354 N 
ATOM     46  C   UNL A   1      44.640  27.278  26.986  1.00  0.00     0.074 A 
ATOM     47  C   UNL A   1      44.580  25.950  26.416  1.00  0.00     0.031 C 
ATOM     48  C   UNL A   1      38.832  27.989  29.639  1.00  0.00     0.029 A 
ATOM     49  C   UNL A   1      39.932  28.950  29.641  1.00  0.00     0.049 A 
ATOM     50  H   UNL A   1      41.792  28.748  28.726  1.00  0.00     0.167 HD
ATOM     51  C   UNL A   1      45.726  28.082  26.922  1.00  0.00     0.034 A 
ATOM     52  C   UNL A   1      39.916  30.156  30.241  1.00  0.00     0.034 A 
ATOM     53  C   UNL A   1      45.765  29.421  27.434  1.00  0.00     0.049 A 
ATOM     54  C   UNL A   1      41.118  31.050  30.119  1.00  0.00     0.074 A 
ATOM     55  C   UNL A   1      46.793  30.342  27.354  1.00  0.00     0.029 A 
ATOM     56  N   UNL A   1      44.727  30.033  28.117  1.00  0.00    -0.354 N 
ATOM     57  N   UNL A   1      42.244  30.830  29.485  1.00  0.00    -0.248 NA
ATOM     58  C   UNL A   1      41.041  32.367  30.768  1.00  0.00     0.031 C 
ATOM     59  C   UNL A   1      46.370  31.520  27.981  1.00  0.00     0.029 A 
ATOM     60  C   UNL A   1      45.084  31.324  28.459  1.00  0.00     0.049 A 
ATOM     61  H   UNL A   1      43.862  29.611  28.328  1.00  0.00     0.167 HD
ATOM     62  C   UNL A   1      43.001  31.985  29.638  1.00  0.00     0.074 A 
ATOM     63  C   UNL A   1      42.201  32.909  30.416  1.00  0.00     0.031 C 
ATOM     64  C   UNL A   1      44.252  32.246  29.188  1.00  0.00     0.034 A 
BRANCH  51  65
ATOM     65  C   UNL A   1      46.926  27.555  26.192  1.00  0.00     0.023 A 
ATOM     66  C   UNL A   1      47.844  26.744  26.892  1.00  0.00     0.012 A 
ATOM     67  C   UNL A   1      47.140  27.835  24.830  1.00  0.00     0.148 A 
ATOM     68  C   UNL A   1      48.970  26.235  26.250  1.00  0.00     0.002 A 
ATOM     69  C   UNL A   1      48.253  27.301  24.191  1.00  0.00     0.091 A 
ATOM     70  F   UNL A   1      46.271  28.633  24.195  1.00  0.00    -0.205 F 
ATOM     71  C   UNL A   1      49.171  26.507  24.900  1.00  0.00     0.022 A 
BRANCH  69  72
ATOM     72  S   UNL A   1      48.582  27.561  22.445  1.00  0.00     0.127 S 
ATOM     73  O   UNL A   1      49.851  28.287  22.488  1.00  0.00    -0.237 OA
ATOM     74  O   UNL A   1      48.681  26.191  21.940  1.00  0.00    -0.237 OA
ATOM     75  O   UNL A   1      47.446  28.316  21.932  1.00  0.00    -0.744 OA
ENDBRANCH  69  72
ENDBRANCH  51  65
BRANCH  52  76
ATOM     76  C   UNL A   1      38.675  30.616  30.919  1.00  0.00     0.023 A 
ATOM     77  C   UNL A   1      38.420  30.180  32.234  1.00  0.00     0.012 A 
ATOM     78  C   UNL A   1      37.797  31.533  30.312  1.00  0.00     0.148 A 
ATOM     79  C   UNL A   1      37.305  30.644  32.932  1.00  0.00     0.002 A 
ATOM     80  C   UNL A   1      36.705  32.016  31.025  1.00  0.00     0.091 A 
ATOM     81  F   UNL A   1      38.070  31.938  29.064  1.00  0.00    -0.205 F 
ATOM     82  C   UNL A   1      36.453  31.566  32.331  1.00  0.00     0.022 A 
BRANCH  80  83
ATOM     83  S   UNL A   1      35.598  33.275  30.378  1.00  0.00     0.127 S 
ATOM     84  O   UNL A   1      34.365  32.515  30.177  1.00  0.00    -0.237 OA
ATOM     85  O   UNL A   1      35.561  34.231  31.484  1.00  0.00    -0.237 OA
ATOM     86  O   UNL A   1      36.227  33.770  29.161  1.00  0.00    -0.744 OA
ENDBRANCH  80  83
ENDBRANCH  52  76
BRANCH  64  87
ATOM     87  C   UNL A   1      44.853  33.585  29.514  1.00  0.00     0.023 A 
ATOM     88  C   UNL A   1      45.584  33.731  30.708  1.00  0.00     0.012 A 
ATOM     89  C   UNL A   1      44.812  34.640  28.584  1.00  0.00     0.148 A 
ATOM     90  C   UNL A   1      46.271  34.915  30.972  1.00  0.00     0.002 A 
ATOM     91  C   UNL A   1      45.523  35.807  28.841  1.00  0.00     0.091 A 
ATOM     92  F   UNL A   1      44.097  34.476  27.461  1.00  0.00    -0.205 F 
ATOM     93  C   UNL A   1      46.251  35.946  30.035  1.00  0.00     0.022 A 
BRANCH  91  94
ATOM     94  S   UNL A   1      45.622  37.158  27.662  1.00  0.00     0.127 S 
ATOM     95  O   UNL A   1      45.999  36.457  26.437  1.00  0.00    -0.237 OA
ATOM     96  O   UNL A   1      44.255  37.679  27.672  1.00  0.00    -0.237 OA
ATOM     97  O   UNL A   1      46.624  38.078  28.185  1.00  0.00    -0.744 OA
ENDBRANCH  91  94
ENDBRANCH  64  87
ENDBRANCH  38  39
ENDBRANCH  30  33
ENDBRANCH  28  29
ENDBRANCH   1  28
TORSDOF 17
ENDMDL
MODEL 2
REMARK VINA RESULT:     -12.4      5.246      8.167
REMARK SMILES Cc1cc(OC(F)(F)F)cc2c1O[C@@H](C(F)(F)F)C(C(=O)NCCCCNC(=O)c1ccc(-c3c4nc(c(-c5cccc(S(=O)(=O)[O-])c5F)c5ccc([nH]5)c(-c5cccc(S(=O)(=O)[O-])c5F)c5nc(c(-c6cccc(S(=O)(=O)[O-])c6F)c6ccc3[nH]6)C=C5)C=C4)cc1)=C2
REMARK SMILES IDX 25 1 24 2 23 3 22 4 20 5 21 6 19 8 1 9 2 10 3 11 12 12 4 13
REMARK SMILES IDX 11 14 13 15 10 16 93 17 14 18 5 19 6 20 7 21 8 22 9 23 15 24
REMARK SMILES IDX 16 25 17 26 18 27 26 28 27 29 28 30 29 32 30 33 31 34 92 35
REMARK SMILES IDX 32 36 91 37 33 38 34 39 35 40 85 41 36 42 90 43 84 44 86 45
REMARK SMILES IDX 37 46 89 47 83 48 82 49 38 51 70 52 50 53 69 54 51 55 54 56
REMARK SMILES IDX 68 57 87 58 52 59 53 60 67 62 88 63 55 64 39 65 40 66 48 67
REMARK SMILES IDX 41 68 43 69 49 70 42 71 44 72 45 73 46 74 47 75 71 76 72 77
REMARK SMILES IDX 80 78 73 79 75 80 81 81 74 82 76 83 77 84 78 85 79 86 56 87
REMARK SMILES IDX 57 88 65 89 58 90 60 91 66 92 59 93 61 94 62 95 63 96 64 97
REMARK H PARENT 22 7 27 31 86 50 54 61
REMARK Flexibility Score: inf
ROOT
ATOM      1  C   UNL A   1      31.977  28.192  25.493  1.00  0.00     0.023 C 
ENDROOT
BRANCH   1   2
ATOM      2  C   UNL A   1      32.477  26.787  25.836  1.00  0.00     0.023 C 
BRANCH   2   3
ATOM      3  C   UNL A   1      31.370  25.789  26.168  1.00  0.00     0.116 C 
BRANCH   3   4
ATOM      4  N   UNL A   1      30.821  25.186  24.968  1.00  0.00    -0.352 N 
ATOM      5  C   UNL A   1      31.078  24.096  24.212  1.00  0.00     0.251 C 
ATOM      6  O   UNL A   1      30.288  23.901  23.283  1.00  0.00    -0.270 OA
ATOM      7  H   UNL A   1      30.065  25.706  24.613  1.00  0.00     0.163 HD
BRANCH   5   8
ATOM      8  C   UNL A   1      32.215  23.149  24.414  1.00  0.00     0.067 C 
ATOM      9  C   UNL A   1      36.637  20.658  25.325  1.00  0.00     0.048 C 
ATOM     10  C   UNL A   1      35.245  20.276  24.904  1.00  0.00    -0.005 A 
ATOM     11  C   UNL A   1      34.955  18.929  24.624  1.00  0.00     0.054 A 
ATOM     12  C   UNL A   1      34.218  21.223  24.821  1.00  0.00     0.131 A 
ATOM     13  C   UNL A   1      33.665  18.536  24.255  1.00  0.00     0.130 A 
ATOM     14  C   UNL A   1      32.927  20.842  24.452  1.00  0.00     0.021 A 
ATOM     15  O   UNL A   1      34.509  22.520  25.153  1.00  0.00    -0.475 OA
ATOM     16  C   UNL A   1      32.658  19.501  24.168  1.00  0.00     0.058 A 
ATOM     17  C   UNL A   1      31.875  21.847  24.383  1.00  0.00     0.025 C 
ATOM     18  C   UNL A   1      33.663  23.536  24.536  1.00  0.00     0.314 C 
BRANCH  13  19
ATOM     19  O   UNL A   1      33.257  17.269  23.955  1.00  0.00    -0.406 OA
BRANCH  19  20
ATOM     20  C   UNL A   1      33.471  16.258  24.924  1.00  0.00     0.573 C 
ATOM     21  F   UNL A   1      32.621  15.224  24.748  1.00  0.00    -0.132 F 
ATOM     22  F   UNL A   1      34.743  15.808  24.889  1.00  0.00    -0.132 F 
ATOM     23  F   UNL A   1      33.246  16.778  26.152  1.00  0.00    -0.132 F 
ENDBRANCH  19  20
ENDBRANCH  13  19
BRANCH  18  24
ATOM     24  C   UNL A   1      34.299  24.012  23.218  1.00  0.00     0.429 C 
ATOM     25  F   UNL A   1      34.131  25.337  23.002  1.00  0.00    -0.167 F 
ATOM     26  F   UNL A   1      35.626  23.771  23.156  1.00  0.00    -0.167 F 
ATOM     27  F   UNL A   1      33.730  23.366  22.167  1.00  0.00    -0.167 F 
ENDBRANCH  18  24
ENDBRANCH   5   8
ENDBRANCH   3   4
ENDBRANCH   2   3
ENDBRANCH   1   2
BRANCH   1  28
ATOM     28  C   UNL A   1      33.042  29.281  25.522  1.00  0.00     0.116 C 
BRANCH  28  29
ATOM     29  N   UNL A   1      32.539  30.570  25.977  1.00  0.00    -0.352 N 
ATOM     30  C   UNL A   1      33.117  31.419  26.897  1.00  0.00     0.251 C 
ATOM     31  H   UNL A   1      31.690  30.870  25.582  1.00  0.00     0.163 HD
ATOM     32  O   UNL A   1      32.565  32.444  27.246  1.00  0.00    -0.269 OA
BRANCH  30  33
ATOM     33  C   UNL A   1      34.413  31.013  27.475  1.00  0.00     0.039 A 
ATOM     34  C   UNL A   1      35.405  31.981  27.638  1.00  0.00     0.014 A 
ATOM     35  C   UNL A   1      34.584  29.711  27.952  1.00  0.00     0.014 A 
ATOM     36  C   UNL A   1      36.560  31.656  28.345  1.00  0.00     0.010 A 
ATOM     37  C   UNL A   1      35.714  29.405  28.699  1.00  0.00     0.010 A 
ATOM     38  C   UNL A   1      36.707  30.375  28.904  1.00  0.00    -0.014 A 
BRANCH  38  39
ATOM     39  C   UNL A   1      37.900  30.026  29.705  1.00  0.00     0.031 A 
ATOM     40  C   UNL A   1      38.905  29.060  29.153  1.00  0.00     0.074 A 
ATOM     41  C   UNL A   1      38.039  30.524  30.948  1.00  0.00     0.049 A 
ATOM     42  N   UNL A   1      39.989  28.595  29.712  1.00  0.00    -0.248 NA
ATOM     43  C   UNL A   1      38.643  28.528  27.804  1.00  0.00     0.031 C 
ATOM     44  C   UNL A   1      37.091  31.420  31.612  1.00  0.00     0.029 A 
ATOM     45  N   UNL A   1      39.025  30.331  31.881  1.00  0.00    -0.354 N 
ATOM     46  C   UNL A   1      40.527  27.700  28.799  1.00  0.00     0.074 A 
ATOM     47  C   UNL A   1      39.636  27.661  27.661  1.00  0.00     0.031 C 
ATOM     48  C   UNL A   1      37.547  31.707  32.843  1.00  0.00     0.029 A 
ATOM     49  C   UNL A   1      38.812  31.008  33.057  1.00  0.00     0.049 A 
ATOM     50  H   UNL A   1      39.812  29.760  31.723  1.00  0.00     0.167 HD
ATOM     51  C   UNL A   1      41.683  27.003  28.882  1.00  0.00     0.034 A 
ATOM     52  C   UNL A   1      39.559  31.068  34.177  1.00  0.00     0.034 A 
ATOM     53  C   UNL A   1      42.596  27.089  29.985  1.00  0.00     0.049 A 
ATOM     54  C   UNL A   1      40.861  30.319  34.229  1.00  0.00     0.074 A 
ATOM     55  C   UNL A   1      43.828  26.478  30.130  1.00  0.00     0.029 A 
ATOM     56  N   UNL A   1      42.379  27.838  31.130  1.00  0.00    -0.354 N 
ATOM     57  N   UNL A   1      41.417  29.575  33.305  1.00  0.00    -0.248 NA
ATOM     58  C   UNL A   1      41.653  30.439  35.462  1.00  0.00     0.031 C 
ATOM     59  C   UNL A   1      44.363  26.869  31.363  1.00  0.00     0.029 A 
ATOM     60  C   UNL A   1      43.457  27.714  31.986  1.00  0.00     0.049 A 
ATOM     61  H   UNL A   1      41.576  28.379  31.308  1.00  0.00     0.167 HD
ATOM     62  C   UNL A   1      42.632  29.154  33.832  1.00  0.00     0.074 A 
ATOM     63  C   UNL A   1      42.738  29.737  35.155  1.00  0.00     0.031 C 
ATOM     64  C   UNL A   1      43.565  28.345  33.276  1.00  0.00     0.034 A 
BRANCH  51  65
ATOM     65  C   UNL A   1      42.059  26.157  27.701  1.00  0.00     0.023 A 
ATOM     66  C   UNL A   1      42.750  26.759  26.629  1.00  0.00     0.012 A 
ATOM     67  C   UNL A   1      41.757  24.785  27.653  1.00  0.00     0.148 A 
ATOM     68  C   UNL A   1      43.118  26.009  25.515  1.00  0.00     0.002 A 
ATOM     69  C   UNL A   1      42.150  24.038  26.548  1.00  0.00     0.091 A 
ATOM     70  F   UNL A   1      41.072  24.243  28.669  1.00  0.00    -0.205 F 
ATOM     71  C   UNL A   1      42.825  24.649  25.477  1.00  0.00     0.022 A 
BRANCH  69  72
ATOM     72  S   UNL A   1      41.853  22.272  26.420  1.00  0.00     0.127 S 
ATOM     73  O   UNL A   1      40.413  22.231  26.176  1.00  0.00    -0.237 OA
ATOM     74  O   UNL A   1      42.677  21.901  25.268  1.00  0.00    -0.237 OA
ATOM     75  O   UNL A   1      42.291  21.700  27.687  1.00  0.00    -0.744 OA
ENDBRANCH  69  72
ENDBRANCH  51  65
BRANCH  52  76
ATOM     76  C   UNL A   1      39.130  31.954  35.291  1.00  0.00     0.023 A 
ATOM     77  C   UNL A   1      38.210  31.459  36.236  1.00  0.00     0.012 A 
ATOM     78  C   UNL A   1      39.680  33.238  35.468  1.00  0.00     0.148 A 
ATOM     79  C   UNL A   1      37.837  32.231  37.335  1.00  0.00     0.002 A 
ATOM     80  C   UNL A   1      39.328  33.990  36.584  1.00  0.00     0.091 A 
ATOM     81  F   UNL A   1      40.560  33.679  34.559  1.00  0.00    -0.205 F 
ATOM     82  C   UNL A   1      38.401  33.492  37.514  1.00  0.00     0.022 A 
BRANCH  80  83
ATOM     83  S   UNL A   1      40.064  35.586  36.956  1.00  0.00     0.127 S 
ATOM     84  O   UNL A   1      39.652  36.383  35.802  1.00  0.00    -0.237 OA
ATOM     85  O   UNL A   1      39.401  35.930  38.213  1.00  0.00    -0.237 OA
ATOM     86  O   UNL A   1      41.497  35.347  37.065  1.00  0.00    -0.744 OA
ENDBRANCH  80  83
ENDBRANCH  52  76
BRANCH  64  87
ATOM     87  C   UNL A   1      44.795  28.030  34.081  1.00  0.00     0.023 A 
ATOM     88  C   UNL A   1      45.893  28.909  34.020  1.00  0.00     0.012 A 
ATOM     89  C   UNL A   1      44.807  26.956  34.990  1.00  0.00     0.148 A 
ATOM     90  C   UNL A   1      46.991  28.722  34.858  1.00  0.00     0.002 A 
ATOM     91  C   UNL A   1      45.893  26.794  35.843  1.00  0.00     0.091 A 
ATOM     92  F   UNL A   1      43.752  26.129  35.017  1.00  0.00    -0.205 F 
ATOM     93  C   UNL A   1      46.985  27.675  35.777  1.00  0.00     0.022 A 
BRANCH  91  94
ATOM     94  S   UNL A   1      45.944  25.523  37.112  1.00  0.00     0.127 S 
ATOM     95  O   UNL A   1      46.012  24.304  36.309  1.00  0.00    -0.237 OA
ATOM     96  O   UNL A   1      47.177  25.852  37.830  1.00  0.00    -0.237 OA
ATOM     97  O   UNL A   1      44.727  25.686  37.896  1.00  0.00    -0.744 OA
ENDBRANCH  91  94
ENDBRANCH  64  87
ENDBRANCH  38  39
ENDBRANCH  30  33
ENDBRANCH  28  29
ENDBRANCH   1  28
TORSDOF 17
ENDMDL
MODEL 3
REMARK VINA RESULT:     -12.3      5.075     10.296
REMARK SMILES Cc1cc(OC(F)(F)F)cc2c1O[C@@H](C(F)(F)F)C(C(=O)NCCCCNC(=O)c1ccc(-c3c4nc(c(-c5cccc(S(=O)(=O)[O-])c5F)c5ccc([nH]5)c(-c5cccc(S(=O)(=O)[O-])c5F)c5nc(c(-c6cccc(S(=O)(=O)[O-])c6F)c6ccc3[nH]6)C=C5)C=C4)cc1)=C2
REMARK SMILES IDX 25 1 24 2 23 3 22 4 20 5 21 6 19 8 1 9 2 10 3 11 12 12 4 13
REMARK SMILES IDX 11 14 13 15 10 16 93 17 14 18 5 19 6 20 7 21 8 22 9 23 15 24
REMARK SMILES IDX 16 25 17 26 18 27 26 28 27 29 28 30 29 32 30 33 31 34 92 35
REMARK SMILES IDX 32 36 91 37 33 38 34 39 35 40 85 41 36 42 90 43 84 44 86 45
REMARK SMILES IDX 37 46 89 47 83 48 82 49 38 51 70 52 50 53 69 54 51 55 54 56
REMARK SMILES IDX 68 57 87 58 52 59 53 60 67 62 88 63 55 64 39 65 40 66 48 67
REMARK SMILES IDX 41 68 43 69 49 70 42 71 44 72 45 73 46 74 47 75 71 76 72 77
REMARK SMILES IDX 80 78 73 79 75 80 81 81 74 82 76 83 77 84 78 85 79 86 56 87
REMARK SMILES IDX 57 88 65 89 58 90 60 91 66 92 59 93 61 94 62 95 63 96 64 97
REMARK H PARENT 22 7 27 31 86 50 54 61
REMARK Flexibility Score: inf
ROOT
ATOM      1  C   UNL A   1      31.677  29.278  25.299  1.00  0.00     0.023 C 
ENDROOT
BRANCH   1   2
ATOM      2  C   UNL A   1      31.897  28.696  23.901  1.00  0.00     0.023 C 
BRANCH   2   3
ATOM      3  C   UNL A   1      31.274  27.318  23.689  1.00  0.00     0.116 C 
BRANCH   3   4
ATOM      4  N   UNL A   1      30.544  26.878  24.862  1.00  0.00    -0.352 N 
ATOM      5  C   UNL A   1      30.641  25.871  25.757  1.00  0.00     0.251 C 
ATOM      6  O   UNL A   1      29.828  25.911  26.686  1.00  0.00    -0.270 OA
ATOM      7  H   UNL A   1      29.779  27.467  25.056  1.00  0.00     0.163 HD
BRANCH   5   8
ATOM      8  C   UNL A   1      31.626  24.749  25.697  1.00  0.00     0.067 C 
ATOM      9  C   UNL A   1      35.496  21.374  26.149  1.00  0.00     0.048 C 
ATOM     10  C   UNL A   1      34.242  21.480  25.327  1.00  0.00    -0.005 A 
ATOM     11  C   UNL A   1      33.953  20.483  24.378  1.00  0.00     0.054 A 
ATOM     12  C   UNL A   1      33.332  22.527  25.510  1.00  0.00     0.131 A 
ATOM     13  C   UNL A   1      32.783  20.539  23.615  1.00  0.00     0.130 A 
ATOM     14  C   UNL A   1      32.161  22.593  24.754  1.00  0.00     0.021 A 
ATOM     15  O   UNL A   1      33.605  23.456  26.479  1.00  0.00    -0.475 OA
ATOM     16  C   UNL A   1      31.894  21.600  23.808  1.00  0.00     0.058 A 
ATOM     17  C   UNL A   1      31.227  23.689  24.971  1.00  0.00     0.025 C 
ATOM     18  C   UNL A   1      33.013  24.774  26.277  1.00  0.00     0.314 C 
BRANCH  13  19
ATOM     19  O   UNL A   1      32.390  19.642  22.664  1.00  0.00    -0.406 OA
BRANCH  19  20
ATOM     20  C   UNL A   1      32.412  18.267  23.002  1.00  0.00     0.573 C 
ATOM     21  F   UNL A   1      31.893  18.057  24.232  1.00  0.00    -0.132 F 
ATOM     22  F   UNL A   1      31.736  17.529  22.096  1.00  0.00    -0.132 F 
ATOM     23  F   UNL A   1      33.695  17.841  23.013  1.00  0.00    -0.132 F 
ENDBRANCH  19  20
ENDBRANCH  13  19
BRANCH  18  24
ATOM     24  C   UNL A   1      33.998  25.676  25.513  1.00  0.00     0.429 C 
ATOM     25  F   UNL A   1      35.280  25.256  25.612  1.00  0.00    -0.167 F 
ATOM     26  F   UNL A   1      33.717  25.764  24.195  1.00  0.00    -0.167 F 
ATOM     27  F   UNL A   1      33.956  26.938  26.013  1.00  0.00    -0.167 F 
ENDBRANCH  18  24
ENDBRANCH   5   8
ENDBRANCH   3   4
ENDBRANCH   2   3
ENDBRANCH   1   2
BRANCH   1  28
ATOM     28  C   UNL A   1      32.875  30.014  25.887  1.00  0.00     0.116 C 
BRANCH  28  29
ATOM     29  N   UNL A   1      32.547  31.341  26.391  1.00  0.00    -0.352 N 
ATOM     30  C   UNL A   1      33.277  32.107  27.275  1.00  0.00     0.251 C 
ATOM     31  H   UNL A   1      31.709  31.737  26.060  1.00  0.00     0.163 HD
ATOM     32  O   UNL A   1      32.865  33.179  27.673  1.00  0.00    -0.269 OA
BRANCH  30  33
ATOM     33  C   UNL A   1      34.559  31.555  27.754  1.00  0.00     0.039 A 
ATOM     34  C   UNL A   1      35.636  32.424  27.932  1.00  0.00     0.014 A 
ATOM     35  C   UNL A   1      34.640  30.211  28.128  1.00  0.00     0.014 A 
ATOM     36  C   UNL A   1      36.791  31.954  28.553  1.00  0.00     0.010 A 
ATOM     37  C   UNL A   1      35.774  29.759  28.790  1.00  0.00     0.010 A 
ATOM     38  C   UNL A   1      36.854  30.627  29.011  1.00  0.00    -0.014 A 
BRANCH  38  39
ATOM     39  C   UNL A   1      38.050  30.123  29.721  1.00  0.00     0.031 A 
ATOM     40  C   UNL A   1      38.336  30.593  31.115  1.00  0.00     0.074 A 
ATOM     41  C   UNL A   1      38.908  29.303  29.085  1.00  0.00     0.049 A 
ATOM     42  N   UNL A   1      39.348  30.304  31.887  1.00  0.00    -0.248 NA
ATOM     43  C   UNL A   1      37.368  31.530  31.712  1.00  0.00     0.031 C 
ATOM     44  C   UNL A   1      38.765  28.834  27.706  1.00  0.00     0.029 A 
ATOM     45  N   UNL A   1      40.079  28.733  29.512  1.00  0.00    -0.354 N 
ATOM     46  C   UNL A   1      39.156  31.038  33.048  1.00  0.00     0.074 A 
ATOM     47  C   UNL A   1      37.946  31.811  32.872  1.00  0.00     0.031 C 
ATOM     48  C   UNL A   1      39.805  28.039  27.403  1.00  0.00     0.029 A 
ATOM     49  C   UNL A   1      40.690  27.952  28.561  1.00  0.00     0.049 A 
ATOM     50  H   UNL A   1      40.448  28.871  30.415  1.00  0.00     0.167 HD
ATOM     51  C   UNL A   1      39.897  31.038  34.179  1.00  0.00     0.034 A 
ATOM     52  C   UNL A   1      41.831  27.236  28.623  1.00  0.00     0.034 A 
ATOM     53  C   UNL A   1      41.062  30.225  34.376  1.00  0.00     0.049 A 
ATOM     54  C   UNL A   1      42.615  27.216  29.905  1.00  0.00     0.074 A 
ATOM     55  C   UNL A   1      41.840  30.099  35.513  1.00  0.00     0.029 A 
ATOM     56  N   UNL A   1      41.613  29.394  33.415  1.00  0.00    -0.354 N 
ATOM     57  N   UNL A   1      42.350  27.820  31.038  1.00  0.00    -0.248 NA
ATOM     58  C   UNL A   1      43.836  26.398  29.930  1.00  0.00     0.031 C 
ATOM     59  C   UNL A   1      42.859  29.179  35.240  1.00  0.00     0.029 A 
ATOM     60  C   UNL A   1      42.719  28.744  33.932  1.00  0.00     0.049 A 
ATOM     61  H   UNL A   1      41.270  29.283  32.499  1.00  0.00     0.167 HD
ATOM     62  C   UNL A   1      43.356  27.440  31.918  1.00  0.00     0.074 A 
ATOM     63  C   UNL A   1      44.231  26.543  31.190  1.00  0.00     0.031 C 
ATOM     64  C   UNL A   1      43.546  27.814  33.206  1.00  0.00     0.034 A 
BRANCH  51  65
ATOM     65  C   UNL A   1      39.408  31.883  35.319  1.00  0.00     0.023 A 
ATOM     66  C   UNL A   1      38.472  31.331  36.219  1.00  0.00     0.012 A 
ATOM     67  C   UNL A   1      39.876  33.194  35.517  1.00  0.00     0.148 A 
ATOM     68  C   UNL A   1      37.994  32.081  37.290  1.00  0.00     0.002 A 
ATOM     69  C   UNL A   1      39.413  33.927  36.604  1.00  0.00     0.091 A 
ATOM     70  F   UNL A   1      40.741  33.706  34.631  1.00  0.00    -0.205 F 
ATOM     71  C   UNL A   1      38.468  33.374  37.487  1.00  0.00     0.022 A 
BRANCH  69  72
ATOM     72  S   UNL A   1      39.990  35.588  36.966  1.00  0.00     0.127 S 
ATOM     73  O   UNL A   1      39.502  36.330  35.806  1.00  0.00    -0.237 OA
ATOM     74  O   UNL A   1      39.297  35.891  38.219  1.00  0.00    -0.237 OA
ATOM     75  O   UNL A   1      41.439  35.490  37.084  1.00  0.00    -0.744 OA
ENDBRANCH  69  72
ENDBRANCH  51  65
BRANCH  52  76
ATOM     76  C   UNL A   1      42.230  26.401  27.459  1.00  0.00     0.023 A 
ATOM     77  C   UNL A   1      43.006  26.986  26.439  1.00  0.00     0.012 A 
ATOM     78  C   UNL A   1      41.920  25.030  27.391  1.00  0.00     0.148 A 
ATOM     79  C   UNL A   1      43.461  26.221  25.366  1.00  0.00     0.002 A 
ATOM     80  C   UNL A   1      42.404  24.266  26.336  1.00  0.00     0.091 A 
ATOM     81  F   UNL A   1      41.188  24.498  28.380  1.00  0.00    -0.205 F 
ATOM     82  C   UNL A   1      43.167  24.861  25.318  1.00  0.00     0.022 A 
BRANCH  80  83
ATOM     83  S   UNL A   1      42.161  22.489  26.226  1.00  0.00     0.127 S 
ATOM     84  O   UNL A   1      40.703  22.388  26.189  1.00  0.00    -0.237 OA
ATOM     85  O   UNL A   1      42.833  22.176  24.965  1.00  0.00    -0.237 OA
ATOM     86  O   UNL A   1      42.792  21.927  27.411  1.00  0.00    -0.744 OA
ENDBRANCH  80  83
ENDBRANCH  52  76
BRANCH  64  87
ATOM     87  C   UNL A   1      44.740  27.264  33.932  1.00  0.00     0.023 A 
ATOM     88  C   UNL A   1      45.934  28.009  33.943  1.00  0.00     0.012 A 
ATOM     89  C   UNL A   1      44.637  26.094  34.709  1.00  0.00     0.148 A 
ATOM     90  C   UNL A   1      47.014  27.596  34.722  1.00  0.00     0.002 A 
ATOM     91  C   UNL A   1      45.708  25.706  35.505  1.00  0.00     0.091 A 
ATOM     92  F   UNL A   1      43.491  25.399  34.668  1.00  0.00    -0.205 F 
ATOM     93  C   UNL A   1      46.897  26.454  35.512  1.00  0.00     0.022 A 
BRANCH  91  94
ATOM     94  S   UNL A   1      45.625  24.295  36.615  1.00  0.00     0.127 S 
ATOM     95  O   UNL A   1      47.003  24.213  37.095  1.00  0.00    -0.237 OA
ATOM     96  O   UNL A   1      44.655  24.743  37.614  1.00  0.00    -0.237 OA
ATOM     97  O   UNL A   1      45.181  23.169  35.803  1.00  0.00    -0.744 OA
ENDBRANCH  91  94
ENDBRANCH  64  87
ENDBRANCH  38  39
ENDBRANCH  30  33
ENDBRANCH  28  29
ENDBRANCH   1  28
TORSDOF 17
ENDMDL
