MODEL 1
REMARK VINA RESULT:      -9.5      0.000      0.000
REMARK SMILES O=C(CCCC[C@H](O)c1ccc(Cl)s1)NCCCCNC(=O)c1ccc(-c2c3nc(c(-c4cccc(S(=O)(=O)[O-])c4F)c4ccc([nH]4)c(-c4cccc(S(=O)(=O)[O-])c4F)c4nc(c(-c5cccc(S(=O)(=O)[O-])c5F)c5ccc2[nH]5)C=C4)C=C3)cc1
REMARK SMILES IDX 16 1 15 2 1 3 2 4 3 6 4 7 5 8 6 9 7 10 9 11 10 12 14 13
REMARK SMILES IDX 11 14 12 15 13 16 8 17 17 19 18 20 19 21 20 22 21 23 22 25
REMARK SMILES IDX 23 26 24 27 85 28 25 29 84 30 26 31 27 32 28 33 78 34 29 35
REMARK SMILES IDX 83 36 77 37 79 38 30 39 82 40 76 41 75 42 31 44 63 45 43 46
REMARK SMILES IDX 62 47 44 48 47 49 61 50 80 51 45 52 46 53 60 55 81 56 48 57
REMARK SMILES IDX 32 58 33 59 41 60 34 61 36 62 42 63 35 64 37 65 38 66 39 67
REMARK SMILES IDX 40 68 64 69 65 70 73 71 66 72 68 73 74 74 67 75 69 76 70 77
REMARK SMILES IDX 71 78 72 79 49 80 50 81 58 82 51 83 53 84 59 85 52 86 54 87
REMARK SMILES IDX 55 88 56 89 57 90
REMARK H PARENT 15 5 8 18 20 24 79 43 47 54
REMARK Flexibility Score: inf
ROOT
ATOM      1  C   UNL A   1      33.069  35.894  28.881  1.00  0.00     0.116 C 
ENDROOT
BRANCH   1   2
ATOM      2  N   UNL A   1      33.722  36.209  30.129  1.00  0.00    -0.356 N 
ATOM      3  O   UNL A   1      31.850  36.524  31.421  1.00  0.00    -0.275 OA
ATOM      4  C   UNL A   1      33.065  36.536  31.283  1.00  0.00     0.219 C 
ATOM      5  H   UNL A   1      34.706  36.186  30.151  1.00  0.00     0.163 HD
BRANCH   4   6
ATOM      6  C   UNL A   1      34.018  36.937  32.388  1.00  0.00     0.100 C 
BRANCH   6   7
ATOM      7  C   UNL A   1      34.693  35.733  33.032  1.00  0.00     0.010 C 
BRANCH   7   8
ATOM      8  C   UNL A   1      33.933  34.399  33.034  1.00  0.00     0.004 C 
BRANCH   8   9
ATOM      9  C   UNL A   1      34.716  33.148  32.610  1.00  0.00     0.037 C 
BRANCH   9  10
ATOM     10  C   UNL A   1      35.990  32.755  33.392  1.00  0.00     0.154 C 
BRANCH  10  11
ATOM     11  C   UNL A   1      37.299  33.288  32.860  1.00  0.00     0.035 A 
ATOM     12  C   UNL A   1      37.620  33.533  31.532  1.00  0.00     0.020 A 
ATOM     13  S   UNL A   1      38.633  33.669  33.878  1.00  0.00    -0.126 S 
ATOM     14  C   UNL A   1      38.889  34.155  31.371  1.00  0.00     0.033 A 
ATOM     15  C   UNL A   1      39.553  34.212  32.566  1.00  0.00     0.093 A 
ATOM     16  Cl  UNL A   1      41.158  34.772  32.805  1.00  0.00    -0.072 Cl
ENDBRANCH  10  11
BRANCH  10  17
ATOM     17  O   UNL A   1      35.886  33.159  34.756  1.00  0.00    -0.388 OA
ATOM     18  H   UNL A   1      35.070  32.800  35.139  1.00  0.00     0.211 HD
ENDBRANCH  10  17
ENDBRANCH   9  10
ENDBRANCH   8   9
ENDBRANCH   7   8
ENDBRANCH   6   7
ENDBRANCH   4   6
ENDBRANCH   1   2
BRANCH   1  19
ATOM     19  C   UNL A   1      33.127  34.387  28.640  1.00  0.00     0.023 C 
BRANCH  19  20
ATOM     20  C   UNL A   1      34.441  33.722  29.075  1.00  0.00     0.023 C 
BRANCH  20  21
ATOM     21  C   UNL A   1      35.061  32.786  28.040  1.00  0.00     0.116 C 
BRANCH  21  22
ATOM     22  N   UNL A   1      34.318  31.543  27.931  1.00  0.00    -0.352 N 
ATOM     23  C   UNL A   1      34.781  30.253  27.899  1.00  0.00     0.251 C 
ATOM     24  H   UNL A   1      33.339  31.641  27.873  1.00  0.00     0.163 HD
ATOM     25  O   UNL A   1      34.033  29.346  27.545  1.00  0.00    -0.269 OA
BRANCH  23  26
ATOM     26  C   UNL A   1      36.179  29.957  28.282  1.00  0.00     0.039 A 
ATOM     27  C   UNL A   1      36.447  29.548  29.590  1.00  0.00     0.014 A 
ATOM     28  C   UNL A   1      37.222  30.106  27.365  1.00  0.00     0.014 A 
ATOM     29  C   UNL A   1      37.758  29.242  29.965  1.00  0.00     0.010 A 
ATOM     30  C   UNL A   1      38.515  29.729  27.718  1.00  0.00     0.010 A 
ATOM     31  C   UNL A   1      38.799  29.302  29.024  1.00  0.00    -0.014 A 
BRANCH  31  32
ATOM     32  C   UNL A   1      40.185  28.908  29.388  1.00  0.00     0.031 A 
ATOM     33  C   UNL A   1      40.838  27.719  28.736  1.00  0.00     0.074 A 
ATOM     34  C   UNL A   1      40.831  29.578  30.363  1.00  0.00     0.049 A 
ATOM     35  N   UNL A   1      42.015  27.199  28.963  1.00  0.00    -0.248 NA
ATOM     36  C   UNL A   1      40.055  27.004  27.714  1.00  0.00     0.031 C 
ATOM     37  C   UNL A   1      40.280  30.702  31.123  1.00  0.00     0.029 A 
ATOM     38  N   UNL A   1      42.081  29.395  30.901  1.00  0.00    -0.354 N 
ATOM     39  C   UNL A   1      42.105  26.083  28.139  1.00  0.00     0.074 A 
ATOM     40  C   UNL A   1      40.846  25.979  27.434  1.00  0.00     0.031 C 
ATOM     41  C   UNL A   1      41.186  31.109  32.026  1.00  0.00     0.029 A 
ATOM     42  C   UNL A   1      42.366  30.256  31.936  1.00  0.00     0.049 A 
ATOM     43  H   UNL A   1      42.712  28.714  30.576  1.00  0.00     0.167 HD
ATOM     44  C   UNL A   1      43.149  25.237  27.962  1.00  0.00     0.034 A 
ATOM     45  C   UNL A   1      43.450  30.339  32.733  1.00  0.00     0.034 A 
ATOM     46  C   UNL A   1      44.410  25.360  28.643  1.00  0.00     0.049 A 
ATOM     47  C   UNL A   1      44.604  29.404  32.501  1.00  0.00     0.074 A 
ATOM     48  C   UNL A   1      45.554  24.601  28.476  1.00  0.00     0.029 A 
ATOM     49  N   UNL A   1      44.690  26.292  29.630  1.00  0.00    -0.354 N 
ATOM     50  N   UNL A   1      44.726  28.449  31.611  1.00  0.00    -0.248 NA
ATOM     51  C   UNL A   1      45.785  29.580  33.358  1.00  0.00     0.031 C 
ATOM     52  C   UNL A   1      46.516  25.053  29.386  1.00  0.00     0.029 A 
ATOM     53  C   UNL A   1      45.984  26.119  30.092  1.00  0.00     0.049 A 
ATOM     54  H   UNL A   1      44.061  26.976  29.956  1.00  0.00     0.167 HD
ATOM     55  C   UNL A   1      46.007  27.936  31.776  1.00  0.00     0.074 A 
ATOM     56  C   UNL A   1      46.630  28.700  32.838  1.00  0.00     0.031 C 
ATOM     57  C   UNL A   1      46.611  26.915  31.116  1.00  0.00     0.034 A 
BRANCH  44  58
ATOM     58  C   UNL A   1      42.986  24.125  26.956  1.00  0.00     0.023 A 
ATOM     59  C   UNL A   1      43.554  24.256  25.672  1.00  0.00     0.012 A 
ATOM     60  C   UNL A   1      42.323  22.930  27.298  1.00  0.00     0.148 A 
ATOM     61  C   UNL A   1      43.431  23.236  24.732  1.00  0.00     0.002 A 
ATOM     62  C   UNL A   1      42.247  21.897  26.371  1.00  0.00     0.091 A 
ATOM     63  F   UNL A   1      41.773  22.829  28.516  1.00  0.00    -0.205 F 
ATOM     64  C   UNL A   1      42.787  22.052  25.084  1.00  0.00     0.022 A 
BRANCH  62  65
ATOM     65  S   UNL A   1      41.512  20.303  26.753  1.00  0.00     0.127 S 
ATOM     66  O   UNL A   1      40.125  20.676  27.026  1.00  0.00    -0.237 OA
ATOM     67  O   UNL A   1      41.711  19.567  25.504  1.00  0.00    -0.237 OA
ATOM     68  O   UNL A   1      42.254  19.780  27.891  1.00  0.00    -0.744 OA
ENDBRANCH  62  65
ENDBRANCH  44  58
BRANCH  45  69
ATOM     69  C   UNL A   1      43.508  31.380  33.797  1.00  0.00     0.023 A 
ATOM     70  C   UNL A   1      44.116  32.622  33.526  1.00  0.00     0.012 A 
ATOM     71  C   UNL A   1      42.941  31.156  35.067  1.00  0.00     0.148 A 
ATOM     72  C   UNL A   1      44.190  33.608  34.511  1.00  0.00     0.002 A 
ATOM     73  C   UNL A   1      42.966  32.164  36.024  1.00  0.00     0.091 A 
ATOM     74  F   UNL A   1      42.376  29.965  35.308  1.00  0.00    -0.205 F 
ATOM     75  C   UNL A   1      43.606  33.383  35.755  1.00  0.00     0.022 A 
BRANCH  73  76
ATOM     76  S   UNL A   1      42.121  32.012  37.601  1.00  0.00     0.127 S 
ATOM     77  O   UNL A   1      40.752  31.725  37.181  1.00  0.00    -0.237 OA
ATOM     78  O   UNL A   1      42.827  30.886  38.214  1.00  0.00    -0.237 OA
ATOM     79  O   UNL A   1      42.320  33.284  38.282  1.00  0.00    -0.744 OA
ENDBRANCH  73  76
ENDBRANCH  45  69
BRANCH  57  80
ATOM     80  C   UNL A   1      48.033  26.587  31.486  1.00  0.00     0.023 A 
ATOM     81  C   UNL A   1      49.100  27.252  30.849  1.00  0.00     0.012 A 
ATOM     82  C   UNL A   1      48.310  25.668  32.518  1.00  0.00     0.148 A 
ATOM     83  C   UNL A   1      50.420  26.981  31.209  1.00  0.00     0.002 A 
ATOM     84  C   UNL A   1      49.625  25.443  32.908  1.00  0.00     0.091 A 
ATOM     85  F   UNL A   1      47.282  25.034  33.101  1.00  0.00    -0.205 F 
ATOM     86  C   UNL A   1      50.682  26.088  32.244  1.00  0.00     0.022 A 
BRANCH  84  87
ATOM     87  S   UNL A   1      50.052  24.385  34.295  1.00  0.00     0.127 S 
ATOM     88  O   UNL A   1      51.466  24.116  34.039  1.00  0.00    -0.237 OA
ATOM     89  O   UNL A   1      49.795  25.260  35.441  1.00  0.00    -0.237 OA
ATOM     90  O   UNL A   1      49.171  23.229  34.206  1.00  0.00    -0.744 OA
ENDBRANCH  84  87
ENDBRANCH  57  80
ENDBRANCH  31  32
ENDBRANCH  23  26
ENDBRANCH  21  22
ENDBRANCH  20  21
ENDBRANCH  19  20
ENDBRANCH   1  19
TORSDOF 20
ENDMDL
MODEL 2
REMARK VINA RESULT:      -9.4      1.015      7.768
REMARK SMILES O=C(CCCC[C@H](O)c1ccc(Cl)s1)NCCCCNC(=O)c1ccc(-c2c3nc(c(-c4cccc(S(=O)(=O)[O-])c4F)c4ccc([nH]4)c(-c4cccc(S(=O)(=O)[O-])c4F)c4nc(c(-c5cccc(S(=O)(=O)[O-])c5F)c5ccc2[nH]5)C=C4)C=C3)cc1
REMARK SMILES IDX 16 1 15 2 1 3 2 4 3 6 4 7 5 8 6 9 7 10 9 11 10 12 14 13
REMARK SMILES IDX 11 14 12 15 13 16 8 17 17 19 18 20 19 21 20 22 21 23 22 25
REMARK SMILES IDX 23 26 24 27 85 28 25 29 84 30 26 31 27 32 28 33 78 34 29 35
REMARK SMILES IDX 83 36 77 37 79 38 30 39 82 40 76 41 75 42 31 44 63 45 43 46
REMARK SMILES IDX 62 47 44 48 47 49 61 50 80 51 45 52 46 53 60 55 81 56 48 57
REMARK SMILES IDX 32 58 33 59 41 60 34 61 36 62 42 63 35 64 37 65 38 66 39 67
REMARK SMILES IDX 40 68 64 69 65 70 73 71 66 72 68 73 74 74 67 75 69 76 70 77
REMARK SMILES IDX 71 78 72 79 49 80 50 81 58 82 51 83 53 84 59 85 52 86 54 87
REMARK SMILES IDX 55 88 56 89 57 90
REMARK H PARENT 15 5 8 18 20 24 79 43 47 54
REMARK Flexibility Score: inf
ROOT
ATOM      1  C   UNL A   1      32.855  35.911  29.138  1.00  0.00     0.116 C 
ENDROOT
BRANCH   1   2
ATOM      2  N   UNL A   1      33.617  36.297  30.301  1.00  0.00    -0.356 N 
ATOM      3  O   UNL A   1      31.872  36.621  31.758  1.00  0.00    -0.275 OA
ATOM      4  C   UNL A   1      33.067  36.658  31.500  1.00  0.00     0.219 C 
ATOM      5  H   UNL A   1      34.598  36.299  30.226  1.00  0.00     0.163 HD
BRANCH   4   6
ATOM      6  C   UNL A   1      34.111  37.131  32.487  1.00  0.00     0.100 C 
BRANCH   6   7
ATOM      7  C   UNL A   1      34.347  36.122  33.605  1.00  0.00     0.010 C 
BRANCH   7   8
ATOM      8  C   UNL A   1      34.445  34.638  33.224  1.00  0.00     0.004 C 
BRANCH   8   9
ATOM      9  C   UNL A   1      35.744  34.173  32.552  1.00  0.00     0.037 C 
BRANCH   9  10
ATOM     10  C   UNL A   1      36.664  33.179  33.296  1.00  0.00     0.154 C 
BRANCH  10  11
ATOM     11  C   UNL A   1      37.489  33.742  34.429  1.00  0.00     0.035 A 
ATOM     12  C   UNL A   1      37.293  33.530  35.786  1.00  0.00     0.020 A 
ATOM     13  S   UNL A   1      38.838  34.780  34.174  1.00  0.00    -0.126 S 
ATOM     14  C   UNL A   1      38.319  34.096  36.593  1.00  0.00     0.033 A 
ATOM     15  C   UNL A   1      39.167  34.854  35.832  1.00  0.00     0.093 A 
ATOM     16  Cl  UNL A   1      40.468  35.809  36.415  1.00  0.00    -0.072 Cl
ENDBRANCH  10  11
BRANCH  10  17
ATOM     17  O   UNL A   1      35.907  32.088  33.818  1.00  0.00    -0.388 OA
ATOM     18  H   UNL A   1      35.009  32.390  34.031  1.00  0.00     0.211 HD
ENDBRANCH  10  17
ENDBRANCH   9  10
ENDBRANCH   8   9
ENDBRANCH   7   8
ENDBRANCH   6   7
ENDBRANCH   4   6
ENDBRANCH   1   2
BRANCH   1  19
ATOM     19  C   UNL A   1      33.332  34.547  28.644  1.00  0.00     0.023 C 
BRANCH  19  20
ATOM     20  C   UNL A   1      34.812  34.248  28.928  1.00  0.00     0.023 C 
BRANCH  20  21
ATOM     21  C   UNL A   1      35.100  32.826  29.404  1.00  0.00     0.116 C 
BRANCH  21  22
ATOM     22  N   UNL A   1      34.344  31.846  28.645  1.00  0.00    -0.352 N 
ATOM     23  C   UNL A   1      34.766  30.666  28.085  1.00  0.00     0.251 C 
ATOM     24  H   UNL A   1      33.391  32.057  28.515  1.00  0.00     0.163 HD
ATOM     25  O   UNL A   1      34.055  30.095  27.263  1.00  0.00    -0.269 OA
BRANCH  23  26
ATOM     26  C   UNL A   1      36.074  30.091  28.464  1.00  0.00     0.039 A 
ATOM     27  C   UNL A   1      37.155  30.243  27.592  1.00  0.00     0.014 A 
ATOM     28  C   UNL A   1      36.230  29.384  29.659  1.00  0.00     0.014 A 
ATOM     29  C   UNL A   1      38.405  29.727  27.943  1.00  0.00     0.010 A 
ATOM     30  C   UNL A   1      37.492  28.937  30.041  1.00  0.00     0.010 A 
ATOM     31  C   UNL A   1      38.591  29.095  29.184  1.00  0.00    -0.014 A 
BRANCH  31  32
ATOM     32  C   UNL A   1      39.931  28.606  29.602  1.00  0.00     0.031 A 
ATOM     33  C   UNL A   1      40.700  29.318  30.683  1.00  0.00     0.074 A 
ATOM     34  C   UNL A   1      40.489  27.564  28.956  1.00  0.00     0.049 A 
ATOM     35  N   UNL A   1      41.898  29.068  31.141  1.00  0.00    -0.248 NA
ATOM     36  C   UNL A   1      40.049  30.480  31.311  1.00  0.00     0.031 C 
ATOM     37  C   UNL A   1      39.878  26.836  27.842  1.00  0.00     0.029 A 
ATOM     38  N   UNL A   1      41.707  26.953  29.122  1.00  0.00    -0.354 N 
ATOM     39  C   UNL A   1      42.159  30.052  32.088  1.00  0.00     0.074 A 
ATOM     40  C   UNL A   1      41.007  30.928  32.110  1.00  0.00     0.031 C 
ATOM     41  C   UNL A   1      40.721  25.877  27.428  1.00  0.00     0.029 A 
ATOM     42  C   UNL A   1      41.945  25.943  28.219  1.00  0.00     0.049 A 
ATOM     43  H   UNL A   1      42.349  27.212  29.823  1.00  0.00     0.167 HD
ATOM     44  C   UNL A   1      43.243  30.200  32.886  1.00  0.00     0.034 A 
ATOM     45  C   UNL A   1      43.033  25.168  28.037  1.00  0.00     0.034 A 
ATOM     46  C   UNL A   1      44.374  29.310  32.883  1.00  0.00     0.049 A 
ATOM     47  C   UNL A   1      44.214  25.336  28.951  1.00  0.00     0.074 A 
ATOM     48  C   UNL A   1      45.485  29.330  33.706  1.00  0.00     0.029 A 
ATOM     49  N   UNL A   1      44.547  28.252  32.005  1.00  0.00    -0.354 N 
ATOM     50  N   UNL A   1      44.377  26.179  29.942  1.00  0.00    -0.248 NA
ATOM     51  C   UNL A   1      45.348  24.423  28.749  1.00  0.00     0.031 C 
ATOM     52  C   UNL A   1      46.346  28.303  33.305  1.00  0.00     0.029 A 
ATOM     53  C   UNL A   1      45.751  27.618  32.257  1.00  0.00     0.049 A 
ATOM     54  H   UNL A   1      43.906  27.989  31.304  1.00  0.00     0.167 HD
ATOM     55  C   UNL A   1      45.612  25.875  30.503  1.00  0.00     0.074 A 
ATOM     56  C   UNL A   1      46.146  24.755  29.754  1.00  0.00     0.031 C 
ATOM     57  C   UNL A   1      46.253  26.476  31.536  1.00  0.00     0.034 A 
BRANCH  44  58
ATOM     58  C   UNL A   1      43.239  31.345  33.867  1.00  0.00     0.023 A 
ATOM     59  C   UNL A   1      43.722  32.609  33.468  1.00  0.00     0.012 A 
ATOM     60  C   UNL A   1      42.708  31.189  35.163  1.00  0.00     0.148 A 
ATOM     61  C   UNL A   1      43.714  33.686  34.352  1.00  0.00     0.002 A 
ATOM     62  C   UNL A   1      42.657  32.280  36.023  1.00  0.00     0.091 A 
ATOM     63  F   UNL A   1      42.270  29.977  35.533  1.00  0.00    -0.205 F 
ATOM     64  C   UNL A   1      43.172  33.525  35.624  1.00  0.00     0.022 A 
BRANCH  62  65
ATOM     65  S   UNL A   1      41.905  32.199  37.651  1.00  0.00     0.127 S 
ATOM     66  O   UNL A   1      42.702  31.155  38.292  1.00  0.00    -0.237 OA
ATOM     67  O   UNL A   1      42.141  33.549  38.165  1.00  0.00    -0.237 OA
ATOM     68  O   UNL A   1      40.504  31.868  37.431  1.00  0.00    -0.744 OA
ENDBRANCH  62  65
ENDBRANCH  44  58
BRANCH  45  69
ATOM     69  C   UNL A   1      43.032  24.130  26.968  1.00  0.00     0.023 A 
ATOM     70  C   UNL A   1      43.714  24.373  25.759  1.00  0.00     0.012 A 
ATOM     71  C   UNL A   1      42.382  22.894  27.154  1.00  0.00     0.148 A 
ATOM     72  C   UNL A   1      43.718  23.418  24.741  1.00  0.00     0.002 A 
ATOM     73  C   UNL A   1      42.441  21.925  26.159  1.00  0.00     0.091 A 
ATOM     74  F   UNL A   1      41.733  22.686  28.307  1.00  0.00    -0.205 F 
ATOM     75  C   UNL A   1      43.092  22.191  24.945  1.00  0.00     0.022 A 
BRANCH  73  76
ATOM     76  S   UNL A   1      41.782  20.270  26.391  1.00  0.00     0.127 S 
ATOM     77  O   UNL A   1      40.345  20.503  26.286  1.00  0.00    -0.237 OA
ATOM     78  O   UNL A   1      42.374  19.550  25.263  1.00  0.00    -0.237 OA
ATOM     79  O   UNL A   1      42.259  19.833  27.696  1.00  0.00    -0.744 OA
ENDBRANCH  73  76
ENDBRANCH  45  69
BRANCH  57  80
ATOM     80  C   UNL A   1      47.585  25.913  31.956  1.00  0.00     0.023 A 
ATOM     81  C   UNL A   1      48.762  26.318  31.297  1.00  0.00     0.012 A 
ATOM     82  C   UNL A   1      47.676  25.034  33.054  1.00  0.00     0.148 A 
ATOM     83  C   UNL A   1      50.005  25.830  31.701  1.00  0.00     0.002 A 
ATOM     84  C   UNL A   1      48.921  24.593  33.485  1.00  0.00     0.091 A 
ATOM     85  F   UNL A   1      46.543  24.647  33.658  1.00  0.00    -0.205 F 
ATOM     86  C   UNL A   1      50.086  24.979  32.800  1.00  0.00     0.022 A 
BRANCH  84  87
ATOM     87  S   UNL A   1      49.131  23.575  34.950  1.00  0.00     0.127 S 
ATOM     88  O   UNL A   1      49.041  22.228  34.390  1.00  0.00    -0.237 OA
ATOM     89  O   UNL A   1      50.468  23.960  35.404  1.00  0.00    -0.237 OA
ATOM     90  O   UNL A   1      48.053  23.947  35.856  1.00  0.00    -0.744 OA
ENDBRANCH  84  87
ENDBRANCH  57  80
ENDBRANCH  31  32
ENDBRANCH  23  26
ENDBRANCH  21  22
ENDBRANCH  20  21
ENDBRANCH  19  20
ENDBRANCH   1  19
TORSDOF 20
ENDMDL
MODEL 3
REMARK VINA RESULT:      -9.4      6.128     11.165
REMARK SMILES O=C(CCCC[C@H](O)c1ccc(Cl)s1)NCCCCNC(=O)c1ccc(-c2c3nc(c(-c4cccc(S(=O)(=O)[O-])c4F)c4ccc([nH]4)c(-c4cccc(S(=O)(=O)[O-])c4F)c4nc(c(-c5cccc(S(=O)(=O)[O-])c5F)c5ccc2[nH]5)C=C4)C=C3)cc1
REMARK SMILES IDX 16 1 15 2 1 3 2 4 3 6 4 7 5 8 6 9 7 10 9 11 10 12 14 13
REMARK SMILES IDX 11 14 12 15 13 16 8 17 17 19 18 20 19 21 20 22 21 23 22 25
REMARK SMILES IDX 23 26 24 27 85 28 25 29 84 30 26 31 27 32 28 33 78 34 29 35
REMARK SMILES IDX 83 36 77 37 79 38 30 39 82 40 76 41 75 42 31 44 63 45 43 46
REMARK SMILES IDX 62 47 44 48 47 49 61 50 80 51 45 52 46 53 60 55 81 56 48 57
REMARK SMILES IDX 32 58 33 59 41 60 34 61 36 62 42 63 35 64 37 65 38 66 39 67
REMARK SMILES IDX 40 68 64 69 65 70 73 71 66 72 68 73 74 74 67 75 69 76 70 77
REMARK SMILES IDX 71 78 72 79 49 80 50 81 58 82 51 83 53 84 59 85 52 86 54 87
REMARK SMILES IDX 55 88 56 89 57 90
REMARK H PARENT 15 5 8 18 20 24 79 43 47 54
REMARK Flexibility Score: inf
ROOT
ATOM      1  C   UNL A   1      36.304  21.513  25.780  1.00  0.00     0.116 C 
ENDROOT
BRANCH   1   2
ATOM      2  N   UNL A   1      35.127  22.261  25.408  1.00  0.00    -0.356 N 
ATOM      3  O   UNL A   1      34.344  22.733  27.514  1.00  0.00    -0.275 OA
ATOM      4  C   UNL A   1      34.225  22.774  26.298  1.00  0.00     0.219 C 
ATOM      5  H   UNL A   1      34.965  22.412  24.449  1.00  0.00     0.163 HD
BRANCH   4   6
ATOM      6  C   UNL A   1      33.033  23.398  25.606  1.00  0.00     0.100 C 
BRANCH   6   7
ATOM      7  C   UNL A   1      32.836  24.857  25.998  1.00  0.00     0.010 C 
BRANCH   7   8
ATOM      8  C   UNL A   1      33.658  25.918  25.252  1.00  0.00     0.004 C 
BRANCH   8   9
ATOM      9  C   UNL A   1      33.750  27.310  25.894  1.00  0.00     0.037 C 
BRANCH   9  10
ATOM     10  C   UNL A   1      33.770  28.559  24.985  1.00  0.00     0.154 C 
BRANCH  10  11
ATOM     11  C   UNL A   1      32.538  28.803  24.147  1.00  0.00     0.035 A 
ATOM     12  C   UNL A   1      32.431  28.680  22.769  1.00  0.00     0.020 A 
ATOM     13  S   UNL A   1      31.035  29.301  24.822  1.00  0.00    -0.126 S 
ATOM     14  C   UNL A   1      31.102  28.855  22.294  1.00  0.00     0.033 A 
ATOM     15  C   UNL A   1      30.278  29.263  23.309  1.00  0.00     0.093 A 
ATOM     16  Cl  UNL A   1      28.626  29.705  23.154  1.00  0.00    -0.072 Cl
ENDBRANCH  10  11
BRANCH  10  17
ATOM     17  O   UNL A   1      34.005  29.737  25.755  1.00  0.00    -0.388 OA
ATOM     18  H   UNL A   1      33.990  29.515  26.699  1.00  0.00     0.211 HD
ENDBRANCH  10  17
ENDBRANCH   9  10
ENDBRANCH   8   9
ENDBRANCH   7   8
ENDBRANCH   6   7
ENDBRANCH   4   6
ENDBRANCH   1   2
BRANCH   1  19
ATOM     19  C   UNL A   1      36.760  20.658  24.600  1.00  0.00     0.023 C 
BRANCH  19  20
ATOM     20  C   UNL A   1      37.867  19.647  24.936  1.00  0.00     0.023 C 
BRANCH  20  21
ATOM     21  C   UNL A   1      38.964  20.177  25.856  1.00  0.00     0.116 C 
BRANCH  21  22
ATOM     22  N   UNL A   1      40.039  19.214  26.017  1.00  0.00    -0.352 N 
ATOM     23  C   UNL A   1      41.387  19.429  26.145  1.00  0.00     0.251 C 
ATOM     24  H   UNL A   1      39.759  18.270  26.037  1.00  0.00     0.163 HD
ATOM     25  O   UNL A   1      42.168  18.491  26.011  1.00  0.00    -0.269 OA
BRANCH  23  26
ATOM     26  C   UNL A   1      41.897  20.786  26.435  1.00  0.00     0.039 A 
ATOM     27  C   UNL A   1      42.160  21.650  25.370  1.00  0.00     0.014 A 
ATOM     28  C   UNL A   1      42.140  21.197  27.749  1.00  0.00     0.014 A 
ATOM     29  C   UNL A   1      42.621  22.944  25.625  1.00  0.00     0.010 A 
ATOM     30  C   UNL A   1      42.527  22.510  28.005  1.00  0.00     0.010 A 
ATOM     31  C   UNL A   1      42.780  23.395  26.946  1.00  0.00    -0.014 A 
BRANCH  31  32
ATOM     32  C   UNL A   1      43.198  24.792  27.235  1.00  0.00     0.031 A 
ATOM     33  C   UNL A   1      42.246  25.753  27.894  1.00  0.00     0.074 A 
ATOM     34  C   UNL A   1      44.412  25.218  26.834  1.00  0.00     0.049 A 
ATOM     35  N   UNL A   1      42.417  27.018  28.175  1.00  0.00    -0.248 NA
ATOM     36  C   UNL A   1      40.918  25.233  28.260  1.00  0.00     0.031 C 
ATOM     37  C   UNL A   1      45.399  24.404  26.119  1.00  0.00     0.029 A 
ATOM     38  N   UNL A   1      45.014  26.446  26.945  1.00  0.00    -0.354 N 
ATOM     39  C   UNL A   1      41.215  27.454  28.723  1.00  0.00     0.074 A 
ATOM     40  C   UNL A   1      40.310  26.326  28.698  1.00  0.00     0.031 C 
ATOM     41  C   UNL A   1      46.481  25.154  25.858  1.00  0.00     0.029 A 
ATOM     42  C   UNL A   1      46.254  26.508  26.354  1.00  0.00     0.049 A 
ATOM     43  H   UNL A   1      44.598  27.210  27.406  1.00  0.00     0.167 HD
ATOM     44  C   UNL A   1      40.901  28.672  29.227  1.00  0.00     0.034 A 
ATOM     45  C   UNL A   1      47.107  27.542  26.211  1.00  0.00     0.034 A 
ATOM     46  C   UNL A   1      41.814  29.783  29.277  1.00  0.00     0.049 A 
ATOM     47  C   UNL A   1      46.745  28.877  26.799  1.00  0.00     0.074 A 
ATOM     48  C   UNL A   1      41.616  31.032  29.837  1.00  0.00     0.029 A 
ATOM     49  N   UNL A   1      43.090  29.786  28.735  1.00  0.00    -0.354 N 
ATOM     50  N   UNL A   1      45.660  29.226  27.447  1.00  0.00    -0.248 NA
ATOM     51  C   UNL A   1      47.739  29.953  26.669  1.00  0.00     0.031 C 
ATOM     52  C   UNL A   1      42.762  31.802  29.605  1.00  0.00     0.029 A 
ATOM     53  C   UNL A   1      43.687  31.018  28.936  1.00  0.00     0.049 A 
ATOM     54  H   UNL A   1      43.510  29.022  28.276  1.00  0.00     0.167 HD
ATOM     55  C   UNL A   1      45.855  30.547  27.834  1.00  0.00     0.074 A 
ATOM     56  C   UNL A   1      47.172  30.929  27.365  1.00  0.00     0.031 C 
ATOM     57  C   UNL A   1      45.016  31.374  28.506  1.00  0.00     0.034 A 
BRANCH  44  58
ATOM     58  C   UNL A   1      39.522  28.854  29.807  1.00  0.00     0.023 A 
ATOM     59  C   UNL A   1      39.253  28.414  31.120  1.00  0.00     0.012 A 
ATOM     60  C   UNL A   1      38.509  29.511  29.079  1.00  0.00     0.148 A 
ATOM     61  C   UNL A   1      37.990  28.586  31.684  1.00  0.00     0.002 A 
ATOM     62  C   UNL A   1      37.267  29.723  29.667  1.00  0.00     0.091 A 
ATOM     63  F   UNL A   1      38.776  29.907  27.827  1.00  0.00    -0.205 F 
ATOM     64  C   UNL A   1      37.001  29.249  30.962  1.00  0.00     0.022 A 
BRANCH  62  65
ATOM     65  S   UNL A   1      35.954  30.640  28.854  1.00  0.00     0.127 S 
ATOM     66  O   UNL A   1      36.703  31.414  27.866  1.00  0.00    -0.237 OA
ATOM     67  O   UNL A   1      35.133  29.566  28.293  1.00  0.00    -0.237 OA
ATOM     68  O   UNL A   1      35.303  31.421  29.897  1.00  0.00    -0.744 OA
ENDBRANCH  62  65
ENDBRANCH  44  58
BRANCH  45  69
ATOM     69  C   UNL A   1      48.410  27.338  25.516  1.00  0.00     0.023 A 
ATOM     70  C   UNL A   1      49.549  26.976  26.262  1.00  0.00     0.012 A 
ATOM     71  C   UNL A   1      48.518  27.474  24.118  1.00  0.00     0.148 A 
ATOM     72  C   UNL A   1      50.781  26.789  25.634  1.00  0.00     0.002 A 
ATOM     73  C   UNL A   1      49.735  27.228  23.492  1.00  0.00     0.091 A 
ATOM     74  F   UNL A   1      47.425  27.826  23.429  1.00  0.00    -0.205 F 
ATOM     75  C   UNL A   1      50.871  26.904  24.248  1.00  0.00     0.022 A 
BRANCH  73  76
ATOM     76  S   UNL A   1      49.909  27.218  21.705  1.00  0.00     0.127 S 
ATOM     77  O   UNL A   1      48.939  26.199  21.314  1.00  0.00    -0.237 OA
ATOM     78  O   UNL A   1      49.537  28.590  21.358  1.00  0.00    -0.237 OA
ATOM     79  O   UNL A   1      51.306  26.893  21.445  1.00  0.00    -0.744 OA
ENDBRANCH  73  76
ENDBRANCH  45  69
BRANCH  57  80
ATOM     80  C   UNL A   1      45.504  32.764  28.819  1.00  0.00     0.023 A 
ATOM     81  C   UNL A   1      46.242  33.005  29.995  1.00  0.00     0.012 A 
ATOM     82  C   UNL A   1      45.292  33.819  27.909  1.00  0.00     0.148 A 
ATOM     83  C   UNL A   1      46.729  34.281  30.277  1.00  0.00     0.002 A 
ATOM     84  C   UNL A   1      45.826  35.074  28.170  1.00  0.00     0.091 A 
ATOM     85  F   UNL A   1      44.574  33.573  26.804  1.00  0.00    -0.205 F 
ATOM     86  C   UNL A   1      46.532  35.311  29.361  1.00  0.00     0.022 A 
BRANCH  84  87
ATOM     87  S   UNL A   1      45.708  36.435  27.003  1.00  0.00     0.127 S 
ATOM     88  O   UNL A   1      46.479  37.475  27.681  1.00  0.00    -0.237 OA
ATOM     89  O   UNL A   1      46.350  35.877  25.812  1.00  0.00    -0.237 OA
ATOM     90  O   UNL A   1      44.286  36.712  26.851  1.00  0.00    -0.744 OA
ENDBRANCH  84  87
ENDBRANCH  57  80
ENDBRANCH  31  32
ENDBRANCH  23  26
ENDBRANCH  21  22
ENDBRANCH  20  21
ENDBRANCH  19  20
ENDBRANCH   1  19
TORSDOF 20
ENDMDL
