MODEL 1
REMARK VINA RESULT:     -11.7      0.000      0.000
REMARK SMILES C=C1c2ccccc2C(=O)N1[C@](C)(CC)C(=O)NCCCCNC(=O)c1ccc(-c2c3nc(c(-c4cccc(S(=O)(=O)[O-])c4F)c4ccc([nH]4)c(-c4cccc(S(=O)(=O)[O-])c4F)c4nc(c(-c5cccc(S(=O)(=O)[O-])c5F)c5ccc2[nH]5)C=C4)C=C3)cc1
REMARK SMILES IDX 21 1 20 2 19 3 18 4 16 5 17 6 12 8 13 9 11 10 1 11 2 12 3 13
REMARK SMILES IDX 4 14 8 15 9 16 5 17 7 18 10 19 6 20 14 21 15 22 22 23 23 24
REMARK SMILES IDX 24 25 25 27 26 28 27 29 88 30 28 31 87 32 29 33 30 34 31 35
REMARK SMILES IDX 81 36 32 37 86 38 80 39 82 40 33 41 85 42 79 43 78 44 34 46
REMARK SMILES IDX 66 47 46 48 65 49 47 50 50 51 64 52 83 53 48 54 49 55 63 57
REMARK SMILES IDX 84 58 51 59 35 60 36 61 44 62 37 63 39 64 45 65 38 66 40 67
REMARK SMILES IDX 41 68 42 69 43 70 67 71 68 72 76 73 69 74 71 75 77 76 70 77
REMARK SMILES IDX 72 78 73 79 74 80 75 81 52 82 53 83 61 84 54 85 56 86 62 87
REMARK SMILES IDX 55 88 57 89 58 90 59 91 60 92
REMARK H PARENT 18 7 23 26 82 45 50 56
REMARK Flexibility Score: inf
ROOT
ATOM      1  C   UNL A   1      31.570  29.170  26.118  1.00  0.00     0.023 C 
ENDROOT
BRANCH   1   2
ATOM      2  C   UNL A   1      31.721  28.184  27.276  1.00  0.00     0.023 C 
BRANCH   2   3
ATOM      3  C   UNL A   1      31.599  26.721  26.861  1.00  0.00     0.116 C 
BRANCH   3   4
ATOM      4  N   UNL A   1      32.751  26.301  26.087  1.00  0.00    -0.354 N 
ATOM      5  C   UNL A   1      32.825  25.791  24.821  1.00  0.00     0.246 C 
ATOM      6  O   UNL A   1      33.956  25.533  24.396  1.00  0.00    -0.272 OA
ATOM      7  H   UNL A   1      33.616  26.400  26.546  1.00  0.00     0.163 HD
BRANCH   5   8
ATOM      8  C   UNL A   1      31.541  25.474  23.992  1.00  0.00     0.123 C 
ATOM      9  C   UNL A   1      31.935  24.695  22.718  1.00  0.00     0.046 C 
BRANCH   8  10
ATOM     10  N   UNL A   1      30.808  26.710  23.559  1.00  0.00    -0.293 N 
ATOM     11  C   UNL A   1      32.547  28.031  22.376  1.00  0.00     0.038 C 
ATOM     12  C   UNL A   1      31.326  27.819  22.877  1.00  0.00     0.046 C 
ATOM     13  C   UNL A   1      30.229  28.773  22.699  1.00  0.00     0.010 A 
ATOM     14  C   UNL A   1      30.178  30.073  22.220  1.00  0.00     0.011 A 
ATOM     15  C   UNL A   1      29.064  28.148  23.126  1.00  0.00     0.049 A 
ATOM     16  C   UNL A   1      29.415  26.823  23.650  1.00  0.00     0.259 C 
ATOM     17  C   UNL A   1      28.933  30.712  22.151  1.00  0.00     0.001 A 
ATOM     18  C   UNL A   1      27.818  28.749  23.055  1.00  0.00     0.014 A 
ATOM     19  O   UNL A   1      28.586  26.035  24.060  1.00  0.00    -0.269 OA
ATOM     20  C   UNL A   1      27.760  30.050  22.553  1.00  0.00     0.001 A 
ENDBRANCH   8  10
BRANCH   8  21
ATOM     21  C   UNL A   1      30.655  24.529  24.885  1.00  0.00     0.035 C 
ATOM     22  C   UNL A   1      31.183  23.106  25.078  1.00  0.00     0.007 C 
ENDBRANCH   8  21
ENDBRANCH   5   8
ENDBRANCH   3   4
ENDBRANCH   2   3
ENDBRANCH   1   2
BRANCH   1  23
ATOM     23  C   UNL A   1      32.782  30.065  25.879  1.00  0.00     0.116 C 
BRANCH  23  24
ATOM     24  N   UNL A   1      32.559  31.437  26.315  1.00  0.00    -0.352 N 
ATOM     25  C   UNL A   1      33.253  32.161  27.253  1.00  0.00     0.251 C 
ATOM     26  H   UNL A   1      31.813  31.908  25.878  1.00  0.00     0.163 HD
ATOM     27  O   UNL A   1      32.836  33.254  27.625  1.00  0.00    -0.269 OA
BRANCH  25  28
ATOM     28  C   UNL A   1      34.492  31.598  27.826  1.00  0.00     0.039 A 
ATOM     29  C   UNL A   1      35.598  32.433  28.005  1.00  0.00     0.014 A 
ATOM     30  C   UNL A   1      34.545  30.258  28.221  1.00  0.00     0.014 A 
ATOM     31  C   UNL A   1      36.737  31.936  28.641  1.00  0.00     0.010 A 
ATOM     32  C   UNL A   1      35.647  29.791  28.928  1.00  0.00     0.010 A 
ATOM     33  C   UNL A   1      36.758  30.622  29.140  1.00  0.00    -0.014 A 
BRANCH  33  34
ATOM     34  C   UNL A   1      37.928  30.105  29.895  1.00  0.00     0.031 A 
ATOM     35  C   UNL A   1      38.192  30.575  31.299  1.00  0.00     0.074 A 
ATOM     36  C   UNL A   1      38.798  29.273  29.288  1.00  0.00     0.049 A 
ATOM     37  N   UNL A   1      39.183  30.272  32.097  1.00  0.00    -0.248 NA
ATOM     38  C   UNL A   1      37.232  31.532  31.875  1.00  0.00     0.031 C 
ATOM     39  C   UNL A   1      38.697  28.805  27.904  1.00  0.00     0.029 A 
ATOM     40  N   UNL A   1      39.953  28.693  29.749  1.00  0.00    -0.354 N 
ATOM     41  C   UNL A   1      38.986  31.023  33.250  1.00  0.00     0.074 A 
ATOM     42  C   UNL A   1      37.803  31.825  33.035  1.00  0.00     0.031 C 
ATOM     43  C   UNL A   1      39.739  28.003  27.632  1.00  0.00     0.029 A 
ATOM     44  C   UNL A   1      40.602  27.929  28.806  1.00  0.00     0.049 A 
ATOM     45  H   UNL A   1      40.286  28.811  30.668  1.00  0.00     0.167 HD
ATOM     46  C   UNL A   1      39.708  31.025  34.395  1.00  0.00     0.034 A 
ATOM     47  C   UNL A   1      41.766  27.255  28.874  1.00  0.00     0.034 A 
ATOM     48  C   UNL A   1      40.866  30.202  34.618  1.00  0.00     0.049 A 
ATOM     49  C   UNL A   1      42.538  27.255  30.167  1.00  0.00     0.074 A 
ATOM     50  C   UNL A   1      41.615  30.067  35.774  1.00  0.00     0.029 A 
ATOM     51  N   UNL A   1      41.455  29.387  33.664  1.00  0.00    -0.354 N 
ATOM     52  N   UNL A   1      42.248  27.848  31.301  1.00  0.00    -0.248 NA
ATOM     53  C   UNL A   1      43.777  26.466  30.202  1.00  0.00     0.031 C 
ATOM     54  C   UNL A   1      42.678  29.200  35.507  1.00  0.00     0.029 A 
ATOM     55  C   UNL A   1      42.567  28.760  34.198  1.00  0.00     0.049 A 
ATOM     56  H   UNL A   1      41.129  29.272  32.742  1.00  0.00     0.167 HD
ATOM     57  C   UNL A   1      43.248  27.475  32.192  1.00  0.00     0.074 A 
ATOM     58  C   UNL A   1      44.137  26.586  31.472  1.00  0.00     0.031 C 
ATOM     59  C   UNL A   1      43.420  27.843  33.485  1.00  0.00     0.034 A 
BRANCH  46  60
ATOM     60  C   UNL A   1      39.242  31.920  35.515  1.00  0.00     0.023 A 
ATOM     61  C   UNL A   1      38.337  31.425  36.476  1.00  0.00     0.012 A 
ATOM     62  C   UNL A   1      39.741  33.230  35.648  1.00  0.00     0.148 A 
ATOM     63  C   UNL A   1      37.905  32.231  37.529  1.00  0.00     0.002 A 
ATOM     64  C   UNL A   1      39.345  34.012  36.727  1.00  0.00     0.091 A 
ATOM     65  F   UNL A   1      40.585  33.691  34.715  1.00  0.00    -0.205 F 
ATOM     66  C   UNL A   1      38.417  33.519  37.660  1.00  0.00     0.022 A 
BRANCH  64  67
ATOM     67  S   UNL A   1      40.007  35.653  37.033  1.00  0.00     0.127 S 
ATOM     68  O   UNL A   1      39.324  36.019  38.274  1.00  0.00    -0.237 OA
ATOM     69  O   UNL A   1      41.437  35.383  37.180  1.00  0.00    -0.237 OA
ATOM     70  O   UNL A   1      39.653  36.453  35.869  1.00  0.00    -0.744 OA
ENDBRANCH  64  67
ENDBRANCH  46  60
BRANCH  47  71
ATOM     71  C   UNL A   1      42.252  26.480  27.697  1.00  0.00     0.023 A 
ATOM     72  C   UNL A   1      43.064  27.112  26.736  1.00  0.00     0.012 A 
ATOM     73  C   UNL A   1      41.929  25.119  27.535  1.00  0.00     0.148 A 
ATOM     74  C   UNL A   1      43.515  26.413  25.615  1.00  0.00     0.002 A 
ATOM     75  C   UNL A   1      42.429  24.414  26.448  1.00  0.00     0.091 A 
ATOM     76  F   UNL A   1      41.148  24.538  28.458  1.00  0.00    -0.205 F 
ATOM     77  C   UNL A   1      43.206  25.063  25.476  1.00  0.00     0.022 A 
BRANCH  75  78
ATOM     78  S   UNL A   1      42.192  22.644  26.254  1.00  0.00     0.127 S 
ATOM     79  O   UNL A   1      40.737  22.544  26.182  1.00  0.00    -0.237 OA
ATOM     80  O   UNL A   1      42.893  22.384  24.996  1.00  0.00    -0.237 OA
ATOM     81  O   UNL A   1      42.809  22.033  27.424  1.00  0.00    -0.744 OA
ENDBRANCH  75  78
ENDBRANCH  47  71
BRANCH  59  82
ATOM     82  C   UNL A   1      44.591  27.255  34.231  1.00  0.00     0.023 A 
ATOM     83  C   UNL A   1      45.846  27.896  34.195  1.00  0.00     0.012 A 
ATOM     84  C   UNL A   1      44.427  26.102  35.024  1.00  0.00     0.148 A 
ATOM     85  C   UNL A   1      46.926  27.379  34.908  1.00  0.00     0.002 A 
ATOM     86  C   UNL A   1      45.494  25.624  35.774  1.00  0.00     0.091 A 
ATOM     87  F   UNL A   1      43.230  25.497  35.031  1.00  0.00    -0.205 F 
ATOM     88  C   UNL A   1      46.748  26.251  35.706  1.00  0.00     0.022 A 
BRANCH  86  89
ATOM     89  S   UNL A   1      45.331  24.239  36.907  1.00  0.00     0.127 S 
ATOM     90  O   UNL A   1      44.296  24.722  37.820  1.00  0.00    -0.237 OA
ATOM     91  O   UNL A   1      44.903  23.160  36.016  1.00  0.00    -0.237 OA
ATOM     92  O   UNL A   1      46.646  24.047  37.502  1.00  0.00    -0.744 OA
ENDBRANCH  86  89
ENDBRANCH  59  82
ENDBRANCH  33  34
ENDBRANCH  25  28
ENDBRANCH  23  24
ENDBRANCH   1  23
TORSDOF 16
ENDMDL
MODEL 2
REMARK VINA RESULT:     -11.7      1.420      3.137
REMARK SMILES C=C1c2ccccc2C(=O)N1[C@](C)(CC)C(=O)NCCCCNC(=O)c1ccc(-c2c3nc(c(-c4cccc(S(=O)(=O)[O-])c4F)c4ccc([nH]4)c(-c4cccc(S(=O)(=O)[O-])c4F)c4nc(c(-c5cccc(S(=O)(=O)[O-])c5F)c5ccc2[nH]5)C=C4)C=C3)cc1
REMARK SMILES IDX 21 1 20 2 19 3 18 4 16 5 17 6 12 8 13 9 11 10 1 11 2 12 3 13
REMARK SMILES IDX 4 14 8 15 9 16 5 17 7 18 10 19 6 20 14 21 15 22 22 23 23 24
REMARK SMILES IDX 24 25 25 27 26 28 27 29 88 30 28 31 87 32 29 33 30 34 31 35
REMARK SMILES IDX 81 36 32 37 86 38 80 39 82 40 33 41 85 42 79 43 78 44 34 46
REMARK SMILES IDX 66 47 46 48 65 49 47 50 50 51 64 52 83 53 48 54 49 55 63 57
REMARK SMILES IDX 84 58 51 59 35 60 36 61 44 62 37 63 39 64 45 65 38 66 40 67
REMARK SMILES IDX 41 68 42 69 43 70 67 71 68 72 76 73 69 74 71 75 77 76 70 77
REMARK SMILES IDX 72 78 73 79 74 80 75 81 52 82 53 83 61 84 54 85 56 86 62 87
REMARK SMILES IDX 55 88 57 89 58 90 59 91 60 92
REMARK H PARENT 18 7 23 26 82 45 50 56
REMARK Flexibility Score: inf
ROOT
ATOM      1  C   UNL A   1      32.111  29.764  25.405  1.00  0.00     0.023 C 
ENDROOT
BRANCH   1   2
ATOM      2  C   UNL A   1      33.344  28.932  25.049  1.00  0.00     0.023 C 
BRANCH   2   3
ATOM      3  C   UNL A   1      33.332  27.527  25.641  1.00  0.00     0.116 C 
BRANCH   3   4
ATOM      4  N   UNL A   1      31.976  27.077  25.891  1.00  0.00    -0.354 N 
ATOM      5  C   UNL A   1      31.234  26.117  25.260  1.00  0.00     0.246 C 
ATOM      6  O   UNL A   1      30.096  25.923  25.700  1.00  0.00    -0.272 OA
ATOM      7  H   UNL A   1      31.518  27.535  26.632  1.00  0.00     0.163 HD
BRANCH   5   8
ATOM      8  C   UNL A   1      31.771  25.367  24.001  1.00  0.00     0.123 C 
ATOM      9  C   UNL A   1      30.688  24.392  23.488  1.00  0.00     0.046 C 
BRANCH   8  10
ATOM     10  N   UNL A   1      33.006  24.564  24.284  1.00  0.00    -0.293 N 
ATOM     11  C   UNL A   1      32.559  23.580  26.521  1.00  0.00     0.038 C 
ATOM     12  C   UNL A   1      33.303  23.825  25.437  1.00  0.00     0.046 C 
ATOM     13  C   UNL A   1      34.631  23.235  25.247  1.00  0.00     0.010 A 
ATOM     14  C   UNL A   1      35.478  22.529  26.088  1.00  0.00     0.011 A 
ATOM     15  C   UNL A   1      35.018  23.498  23.939  1.00  0.00     0.049 A 
ATOM     16  C   UNL A   1      33.978  24.319  23.306  1.00  0.00     0.259 C 
ATOM     17  C   UNL A   1      36.697  22.069  25.575  1.00  0.00     0.001 A 
ATOM     18  C   UNL A   1      36.209  23.042  23.400  1.00  0.00     0.014 A 
ATOM     19  O   UNL A   1      34.032  24.669  22.144  1.00  0.00    -0.269 OA
ATOM     20  C   UNL A   1      37.054  22.312  24.237  1.00  0.00     0.001 A 
ENDBRANCH   8  10
BRANCH   8  21
ATOM     21  C   UNL A   1      32.003  26.461  22.895  1.00  0.00     0.035 C 
ATOM     22  C   UNL A   1      30.764  27.251  22.468  1.00  0.00     0.007 C 
ENDBRANCH   8  21
ENDBRANCH   5   8
ENDBRANCH   3   4
ENDBRANCH   2   3
ENDBRANCH   1   2
BRANCH   1  23
ATOM     23  C   UNL A   1      32.115  30.339  26.817  1.00  0.00     0.116 C 
BRANCH  23  24
ATOM     24  N   UNL A   1      32.154  31.795  26.829  1.00  0.00    -0.352 N 
ATOM     25  C   UNL A   1      33.095  32.623  27.390  1.00  0.00     0.251 C 
ATOM     26  H   UNL A   1      31.406  32.245  26.373  1.00  0.00     0.163 HD
ATOM     27  O   UNL A   1      32.898  33.832  27.455  1.00  0.00    -0.269 OA
BRANCH  25  28
ATOM     28  C   UNL A   1      34.336  32.037  27.935  1.00  0.00     0.039 A 
ATOM     29  C   UNL A   1      35.437  32.867  28.159  1.00  0.00     0.014 A 
ATOM     30  C   UNL A   1      34.395  30.678  28.260  1.00  0.00     0.014 A 
ATOM     31  C   UNL A   1      36.578  32.343  28.771  1.00  0.00     0.010 A 
ATOM     32  C   UNL A   1      35.498  30.181  28.944  1.00  0.00     0.010 A 
ATOM     33  C   UNL A   1      36.605  31.005  29.201  1.00  0.00    -0.014 A 
BRANCH  33  34
ATOM     34  C   UNL A   1      37.776  30.455  29.930  1.00  0.00     0.031 A 
ATOM     35  C   UNL A   1      38.088  30.924  31.325  1.00  0.00     0.074 A 
ATOM     36  C   UNL A   1      38.605  29.594  29.307  1.00  0.00     0.049 A 
ATOM     37  N   UNL A   1      39.089  30.594  32.100  1.00  0.00    -0.248 NA
ATOM     38  C   UNL A   1      37.173  31.913  31.919  1.00  0.00     0.031 C 
ATOM     39  C   UNL A   1      38.456  29.122  27.929  1.00  0.00     0.029 A 
ATOM     40  N   UNL A   1      39.752  28.980  29.744  1.00  0.00    -0.354 N 
ATOM     41  C   UNL A   1      38.943  31.357  33.254  1.00  0.00     0.074 A 
ATOM     42  C   UNL A   1      37.781  32.194  33.063  1.00  0.00     0.031 C 
ATOM     43  C   UNL A   1      39.465  28.287  27.636  1.00  0.00     0.029 A 
ATOM     44  C   UNL A   1      40.354  28.192  28.790  1.00  0.00     0.049 A 
ATOM     45  H   UNL A   1      40.110  29.093  30.654  1.00  0.00     0.167 HD
ATOM     46  C   UNL A   1      39.692  31.341  34.381  1.00  0.00     0.034 A 
ATOM     47  C   UNL A   1      41.498  27.482  28.834  1.00  0.00     0.034 A 
ATOM     48  C   UNL A   1      40.829  30.483  34.581  1.00  0.00     0.049 A 
ATOM     49  C   UNL A   1      42.300  27.465  30.107  1.00  0.00     0.074 A 
ATOM     50  C   UNL A   1      41.601  30.331  35.720  1.00  0.00     0.029 A 
ATOM     51  N   UNL A   1      41.369  29.646  33.617  1.00  0.00    -0.354 N 
ATOM     52  N   UNL A   1      42.056  28.072  31.245  1.00  0.00    -0.248 NA
ATOM     53  C   UNL A   1      43.514  26.637  30.117  1.00  0.00     0.031 C 
ATOM     54  C   UNL A   1      42.630  29.429  35.431  1.00  0.00     0.029 A 
ATOM     55  C   UNL A   1      42.474  28.987  34.128  1.00  0.00     0.049 A 
ATOM     56  H   UNL A   1      41.018  29.536  32.704  1.00  0.00     0.167 HD
ATOM     57  C   UNL A   1      43.065  27.671  32.114  1.00  0.00     0.074 A 
ATOM     58  C   UNL A   1      43.909  26.752  31.377  1.00  0.00     0.031 C 
ATOM     59  C   UNL A   1      43.280  28.040  33.400  1.00  0.00     0.034 A 
BRANCH  46  60
ATOM     60  C   UNL A   1      39.282  32.256  35.507  1.00  0.00     0.023 A 
ATOM     61  C   UNL A   1      38.422  31.779  36.518  1.00  0.00     0.012 A 
ATOM     62  C   UNL A   1      39.789  33.567  35.594  1.00  0.00     0.148 A 
ATOM     63  C   UNL A   1      38.043  32.603  37.577  1.00  0.00     0.002 A 
ATOM     64  C   UNL A   1      39.445  34.367  36.678  1.00  0.00     0.091 A 
ATOM     65  F   UNL A   1      40.588  34.010  34.615  1.00  0.00    -0.205 F 
ATOM     66  C   UNL A   1      38.562  33.892  37.662  1.00  0.00     0.022 A 
BRANCH  64  67
ATOM     67  S   UNL A   1      40.123  36.011  36.925  1.00  0.00     0.127 S 
ATOM     68  O   UNL A   1      41.548  35.720  37.090  1.00  0.00    -0.237 OA
ATOM     69  O   UNL A   1      39.778  36.676  35.669  1.00  0.00    -0.237 OA
ATOM     70  O   UNL A   1      39.457  36.549  38.104  1.00  0.00    -0.744 OA
ENDBRANCH  64  67
ENDBRANCH  46  60
BRANCH  47  71
ATOM     71  C   UNL A   1      41.930  26.687  27.650  1.00  0.00     0.023 A 
ATOM     72  C   UNL A   1      42.653  27.315  26.616  1.00  0.00     0.012 A 
ATOM     73  C   UNL A   1      41.647  25.311  27.551  1.00  0.00     0.148 A 
ATOM     74  C   UNL A   1      43.051  26.596  25.488  1.00  0.00     0.002 A 
ATOM     75  C   UNL A   1      42.097  24.589  26.453  1.00  0.00     0.091 A 
ATOM     76  F   UNL A   1      40.952  24.734  28.542  1.00  0.00    -0.205 F 
ATOM     77  C   UNL A   1      42.783  25.233  25.412  1.00  0.00     0.022 A 
BRANCH  75  78
ATOM     78  S   UNL A   1      41.912  22.806  26.329  1.00  0.00     0.127 S 
ATOM     79  O   UNL A   1      42.586  22.524  25.064  1.00  0.00    -0.237 OA
ATOM     80  O   UNL A   1      42.623  22.348  27.523  1.00  0.00    -0.237 OA
ATOM     81  O   UNL A   1      40.478  22.556  26.349  1.00  0.00    -0.744 OA
ENDBRANCH  75  78
ENDBRANCH  47  71
BRANCH  59  82
ATOM     82  C   UNL A   1      44.450  27.419  34.120  1.00  0.00     0.023 A 
ATOM     83  C   UNL A   1      45.711  28.048  34.092  1.00  0.00     0.012 A 
ATOM     84  C   UNL A   1      44.279  26.247  34.884  1.00  0.00     0.148 A 
ATOM     85  C   UNL A   1      46.792  27.499  34.783  1.00  0.00     0.002 A 
ATOM     86  C   UNL A   1      45.346  25.738  35.613  1.00  0.00     0.091 A 
ATOM     87  F   UNL A   1      43.075  25.656  34.884  1.00  0.00    -0.205 F 
ATOM     88  C   UNL A   1      46.606  26.353  35.552  1.00  0.00     0.022 A 
BRANCH  86  89
ATOM     89  S   UNL A   1      45.176  24.325  36.709  1.00  0.00     0.127 S 
ATOM     90  O   UNL A   1      44.227  24.830  37.701  1.00  0.00    -0.237 OA
ATOM     91  O   UNL A   1      44.635  23.302  35.813  1.00  0.00    -0.237 OA
ATOM     92  O   UNL A   1      46.512  24.041  37.214  1.00  0.00    -0.744 OA
ENDBRANCH  86  89
ENDBRANCH  59  82
ENDBRANCH  33  34
ENDBRANCH  25  28
ENDBRANCH  23  24
ENDBRANCH   1  23
TORSDOF 16
ENDMDL
MODEL 3
REMARK VINA RESULT:     -11.6      5.499     10.495
REMARK SMILES C=C1c2ccccc2C(=O)N1[C@](C)(CC)C(=O)NCCCCNC(=O)c1ccc(-c2c3nc(c(-c4cccc(S(=O)(=O)[O-])c4F)c4ccc([nH]4)c(-c4cccc(S(=O)(=O)[O-])c4F)c4nc(c(-c5cccc(S(=O)(=O)[O-])c5F)c5ccc2[nH]5)C=C4)C=C3)cc1
REMARK SMILES IDX 21 1 20 2 19 3 18 4 16 5 17 6 12 8 13 9 11 10 1 11 2 12 3 13
REMARK SMILES IDX 4 14 8 15 9 16 5 17 7 18 10 19 6 20 14 21 15 22 22 23 23 24
REMARK SMILES IDX 24 25 25 27 26 28 27 29 88 30 28 31 87 32 29 33 30 34 31 35
REMARK SMILES IDX 81 36 32 37 86 38 80 39 82 40 33 41 85 42 79 43 78 44 34 46
REMARK SMILES IDX 66 47 46 48 65 49 47 50 50 51 64 52 83 53 48 54 49 55 63 57
REMARK SMILES IDX 84 58 51 59 35 60 36 61 44 62 37 63 39 64 45 65 38 66 40 67
REMARK SMILES IDX 41 68 42 69 43 70 67 71 68 72 76 73 69 74 71 75 77 76 70 77
REMARK SMILES IDX 72 78 73 79 74 80 75 81 52 82 53 83 61 84 54 85 56 86 62 87
REMARK SMILES IDX 55 88 57 89 58 90 59 91 60 92
REMARK H PARENT 18 7 23 26 82 45 50 56
REMARK Flexibility Score: inf
ROOT
ATOM      1  C   UNL A   1      36.314  21.647  24.137  1.00  0.00     0.023 C 
ENDROOT
BRANCH   1   2
ATOM      2  C   UNL A   1      36.027  22.999  23.485  1.00  0.00     0.023 C 
BRANCH   2   3
ATOM      3  C   UNL A   1      35.507  24.054  24.456  1.00  0.00     0.116 C 
BRANCH   3   4
ATOM      4  N   UNL A   1      34.347  24.736  23.914  1.00  0.00    -0.354 N 
ATOM      5  C   UNL A   1      33.029  24.653  24.270  1.00  0.00     0.246 C 
ATOM      6  O   UNL A   1      32.244  25.372  23.643  1.00  0.00    -0.272 OA
ATOM      7  H   UNL A   1      34.539  25.356  23.175  1.00  0.00     0.163 HD
BRANCH   5   8
ATOM      8  C   UNL A   1      32.537  23.643  25.352  1.00  0.00     0.123 C 
ATOM      9  C   UNL A   1      33.368  23.831  26.641  1.00  0.00     0.046 C 
BRANCH   8  10
ATOM     10  N   UNL A   1      32.685  22.213  24.923  1.00  0.00    -0.293 N 
ATOM     11  C   UNL A   1      33.613  21.094  26.938  1.00  0.00     0.038 C 
ATOM     12  C   UNL A   1      33.202  21.143  25.667  1.00  0.00     0.046 C 
ATOM     13  C   UNL A   1      33.156  19.954  24.812  1.00  0.00     0.010 A 
ATOM     14  C   UNL A   1      33.644  18.665  24.962  1.00  0.00     0.011 A 
ATOM     15  C   UNL A   1      32.470  20.303  23.654  1.00  0.00     0.049 A 
ATOM     16  C   UNL A   1      32.139  21.731  23.726  1.00  0.00     0.259 C 
ATOM     17  C   UNL A   1      33.398  17.735  23.944  1.00  0.00     0.001 A 
ATOM     18  C   UNL A   1      32.199  19.401  22.639  1.00  0.00     0.014 A 
ATOM     19  O   UNL A   1      31.504  22.304  22.864  1.00  0.00    -0.269 OA
ATOM     20  C   UNL A   1      32.670  18.097  22.797  1.00  0.00     0.001 A 
ENDBRANCH   8  10
BRANCH   8  21
ATOM     21  C   UNL A   1      31.046  24.024  25.676  1.00  0.00     0.035 C 
ATOM     22  C   UNL A   1      30.363  23.185  26.758  1.00  0.00     0.007 C 
ENDBRANCH   8  21
ENDBRANCH   5   8
ENDBRANCH   3   4
ENDBRANCH   2   3
ENDBRANCH   1   2
BRANCH   1  23
ATOM     23  C   UNL A   1      36.954  21.726  25.520  1.00  0.00     0.116 C 
BRANCH  23  24
ATOM     24  N   UNL A   1      37.989  20.722  25.716  1.00  0.00    -0.352 N 
ATOM     25  C   UNL A   1      39.291  20.899  26.119  1.00  0.00     0.251 C 
ATOM     26  H   UNL A   1      37.721  19.791  25.538  1.00  0.00     0.163 HD
ATOM     27  O   UNL A   1      40.085  19.966  26.077  1.00  0.00    -0.269 OA
BRANCH  25  28
ATOM     28  C   UNL A   1      39.726  22.234  26.578  1.00  0.00     0.039 A 
ATOM     29  C   UNL A   1      40.718  22.324  27.558  1.00  0.00     0.014 A 
ATOM     30  C   UNL A   1      39.183  23.390  26.011  1.00  0.00     0.014 A 
ATOM     31  C   UNL A   1      41.209  23.578  27.923  1.00  0.00     0.010 A 
ATOM     32  C   UNL A   1      39.733  24.630  26.316  1.00  0.00     0.010 A 
ATOM     33  C   UNL A   1      40.747  24.739  27.280  1.00  0.00    -0.014 A 
BRANCH  33  34
ATOM     34  C   UNL A   1      41.321  26.073  27.595  1.00  0.00     0.031 A 
ATOM     35  C   UNL A   1      42.730  26.407  27.186  1.00  0.00     0.074 A 
ATOM     36  C   UNL A   1      40.602  26.954  28.319  1.00  0.00     0.049 A 
ATOM     37  N   UNL A   1      43.416  27.497  27.411  1.00  0.00    -0.248 NA
ATOM     38  C   UNL A   1      43.476  25.372  26.452  1.00  0.00     0.031 C 
ATOM     39  C   UNL A   1      39.254  26.719  28.842  1.00  0.00     0.029 A 
ATOM     40  N   UNL A   1      40.913  28.215  28.761  1.00  0.00    -0.354 N 
ATOM     41  C   UNL A   1      44.680  27.268  26.879  1.00  0.00     0.074 A 
ATOM     42  C   UNL A   1      44.679  25.921  26.354  1.00  0.00     0.031 C 
ATOM     43  C   UNL A   1      38.852  27.803  29.525  1.00  0.00     0.029 A 
ATOM     44  C   UNL A   1      39.923  28.794  29.522  1.00  0.00     0.049 A 
ATOM     45  H   UNL A   1      41.765  28.664  28.554  1.00  0.00     0.167 HD
ATOM     46  C   UNL A   1      45.737  28.111  26.809  1.00  0.00     0.034 A 
ATOM     47  C   UNL A   1      39.885  29.982  30.155  1.00  0.00     0.034 A 
ATOM     48  C   UNL A   1      45.723  29.462  27.303  1.00  0.00     0.049 A 
ATOM     49  C   UNL A   1      41.066  30.909  30.041  1.00  0.00     0.074 A 
ATOM     50  C   UNL A   1      46.713  30.423  27.201  1.00  0.00     0.029 A 
ATOM     51  N   UNL A   1      44.677  30.038  28.006  1.00  0.00    -0.354 N 
ATOM     52  N   UNL A   1      42.194  30.734  29.396  1.00  0.00    -0.248 NA
ATOM     53  C   UNL A   1      40.954  32.212  30.712  1.00  0.00     0.031 C 
ATOM     54  C   UNL A   1      46.280  31.569  27.877  1.00  0.00     0.029 A 
ATOM     55  C   UNL A   1      45.003  31.336  28.361  1.00  0.00     0.049 A 
ATOM     56  H   UNL A   1      43.828  29.590  28.222  1.00  0.00     0.167 HD
ATOM     57  C   UNL A   1      42.910  31.915  29.553  1.00  0.00     0.074 A 
ATOM     58  C   UNL A   1      42.077  32.806  30.335  1.00  0.00     0.031 C 
ATOM     59  C   UNL A   1      44.149  32.229  29.101  1.00  0.00     0.034 A 
BRANCH  46  60
ATOM     60  C   UNL A   1      46.989  27.610  26.136  1.00  0.00     0.023 A 
ATOM     61  C   UNL A   1      47.915  26.837  26.867  1.00  0.00     0.012 A 
ATOM     62  C   UNL A   1      47.222  27.856  24.769  1.00  0.00     0.148 A 
ATOM     63  C   UNL A   1      49.072  26.350  26.259  1.00  0.00     0.002 A 
ATOM     64  C   UNL A   1      48.353  27.327  24.158  1.00  0.00     0.091 A 
ATOM     65  F   UNL A   1      46.342  28.609  24.096  1.00  0.00    -0.205 F 
ATOM     66  C   UNL A   1      49.285  26.586  24.904  1.00  0.00     0.022 A 
BRANCH  64  67
ATOM     67  S   UNL A   1      48.680  27.502  22.401  1.00  0.00     0.127 S 
ATOM     68  O   UNL A   1      47.547  28.323  21.972  1.00  0.00    -0.237 OA
ATOM     69  O   UNL A   1      49.969  28.192  22.396  1.00  0.00    -0.237 OA
ATOM     70  O   UNL A   1      48.709  26.150  21.860  1.00  0.00    -0.744 OA
ENDBRANCH  64  67
ENDBRANCH  46  60
BRANCH  47  71
ATOM     71  C   UNL A   1      38.668  30.386  30.914  1.00  0.00     0.023 A 
ATOM     72  C   UNL A   1      38.556  30.053  32.278  1.00  0.00     0.012 A 
ATOM     73  C   UNL A   1      37.632  31.114  30.298  1.00  0.00     0.148 A 
ATOM     74  C   UNL A   1      37.418  30.403  33.005  1.00  0.00     0.002 A 
ATOM     75  C   UNL A   1      36.528  31.510  31.042  1.00  0.00     0.091 A 
ATOM     76  F   UNL A   1      37.755  31.415  28.997  1.00  0.00    -0.205 F 
ATOM     77  C   UNL A   1      36.410  31.140  32.390  1.00  0.00     0.022 A 
BRANCH  75  78
ATOM     78  S   UNL A   1      35.243  32.571  30.371  1.00  0.00     0.127 S 
ATOM     79  O   UNL A   1      34.769  31.784  29.235  1.00  0.00    -0.237 OA
ATOM     80  O   UNL A   1      34.310  32.659  31.495  1.00  0.00    -0.237 OA
ATOM     81  O   UNL A   1      35.901  33.826  30.036  1.00  0.00    -0.744 OA
ENDBRANCH  75  78
ENDBRANCH  47  71
BRANCH  59  82
ATOM     82  C   UNL A   1      44.673  33.611  29.398  1.00  0.00     0.023 A 
ATOM     83  C   UNL A   1      45.301  33.879  30.631  1.00  0.00     0.012 A 
ATOM     84  C   UNL A   1      44.604  34.626  28.423  1.00  0.00     0.148 A 
ATOM     85  C   UNL A   1      45.819  35.145  30.902  1.00  0.00     0.002 A 
ATOM     86  C   UNL A   1      45.170  35.869  28.680  1.00  0.00     0.091 A 
ATOM     87  F   UNL A   1      43.987  34.357  27.263  1.00  0.00    -0.205 F 
ATOM     88  C   UNL A   1      45.765  36.135  29.924  1.00  0.00     0.022 A 
BRANCH  86  89
ATOM     89  S   UNL A   1      45.237  37.171  27.445  1.00  0.00     0.127 S 
ATOM     90  O   UNL A   1      45.987  38.211  28.148  1.00  0.00    -0.237 OA
ATOM     91  O   UNL A   1      45.967  36.524  26.354  1.00  0.00    -0.237 OA
ATOM     92  O   UNL A   1      43.854  37.504  27.133  1.00  0.00    -0.744 OA
ENDBRANCH  86  89
ENDBRANCH  59  82
ENDBRANCH  33  34
ENDBRANCH  25  28
ENDBRANCH  23  24
ENDBRANCH   1  23
TORSDOF 16
ENDMDL
