MODEL 1
REMARK VINA RESULT:     -11.5      0.000      0.000
REMARK SMILES C[NH2+][C@]1(C(=O)NCCCCNC(=O)c2ccc(-c3c4nc(c(-c5cccc(S(=O)(=O)[O-])c5F)c5ccc([nH]5)c(-c5cccc(S(=O)(=O)[O-])c5F)c5nc(c(-c6cccc(S(=O)(=O)[O-])c6F)c6ccc3[nH]6)C=C5)C=C4)cc2)CCC[C@@H]1CC[N@H+]1CCC[C@H]([NH+](C)C)C1
REMARK SMILES IDX 8 1 7 2 6 3 4 4 5 5 3 7 77 8 80 9 78 10 79 11 2 12 1 13
REMARK SMILES IDX 81 16 82 17 83 18 84 19 91 20 85 22 87 23 86 24 88 25 89 26
REMARK SMILES IDX 90 27 9 29 10 30 11 31 12 32 13 34 14 35 15 36 76 37 16 38
REMARK SMILES IDX 75 39 17 40 18 41 19 42 69 43 20 44 74 45 68 46 70 47 21 48
REMARK SMILES IDX 73 49 67 50 66 51 22 53 54 54 34 55 53 56 35 57 38 58 52 59
REMARK SMILES IDX 71 60 36 61 37 62 51 64 72 65 39 66 23 67 24 68 32 69 25 70
REMARK SMILES IDX 27 71 33 72 26 73 28 74 29 75 30 76 31 77 55 78 56 79 64 80
REMARK SMILES IDX 57 81 59 82 65 83 58 84 60 85 61 86 62 87 63 88 40 89 41 90
REMARK SMILES IDX 49 91 42 92 44 93 50 94 43 95 45 96 46 97 47 98 48 99
REMARK H PARENT 6 6 2 14 2 15 83 21 88 28 11 33 70 52 38 63
REMARK Flexibility Score: inf
ROOT
ATOM      1  C   UNL A   1      36.825  21.135  24.605  1.00  0.00     0.023 C 
ENDROOT
BRANCH   1   2
ATOM      2  C   UNL A   1      35.911  21.607  25.739  1.00  0.00     0.116 C 
BRANCH   2   3
ATOM      3  N   UNL A   1      35.732  23.048  25.689  1.00  0.00    -0.351 N 
ATOM      4  C   UNL A   1      34.638  23.864  25.659  1.00  0.00     0.281 C 
ATOM      5  O   UNL A   1      34.912  25.061  25.502  1.00  0.00    -0.268 OA
ATOM      6  H   UNL A   1      36.583  23.542  25.673  1.00  0.00     0.163 HD
BRANCH   4   7
ATOM      7  C   UNL A   1      33.161  23.356  25.893  1.00  0.00     0.178 C 
ATOM      8  C   UNL A   1      32.280  24.468  26.512  1.00  0.00     0.079 C 
ATOM      9  C   UNL A   1      32.425  23.050  24.550  1.00  0.00     0.066 C 
ATOM     10  C   UNL A   1      30.849  24.167  26.086  1.00  0.00     0.008 C 
ATOM     11  C   UNL A   1      30.933  23.282  24.845  1.00  0.00     0.011 C 
BRANCH   7  12
ATOM     12  N   UNL A   1      33.090  22.284  26.933  1.00  0.00    -0.336 N 
ATOM     13  C   UNL A   1      33.376  22.609  28.319  1.00  0.00     0.331 C 
ATOM     14  H   UNL A   1      32.144  21.908  26.905  1.00  0.00     0.346 HD
ATOM     15  H   UNL A   1      33.848  21.652  26.676  1.00  0.00     0.346 HD
ENDBRANCH   7  12
BRANCH   9  16
ATOM     16  C   UNL A   1      32.698  21.663  23.937  1.00  0.00     0.072 C 
BRANCH  16  17
ATOM     17  C   UNL A   1      32.228  20.447  24.748  1.00  0.00     0.262 C 
BRANCH  17  18
ATOM     18  N   UNL A   1      32.663  19.118  24.292  1.00  0.00    -0.330 N 
ATOM     19  C   UNL A   1      32.324  18.778  22.905  1.00  0.00     0.262 C 
ATOM     20  C   UNL A   1      34.128  18.993  24.452  1.00  0.00     0.327 C 
ATOM     21  H   UNL A   1      32.145  18.464  24.878  1.00  0.00     0.348 HD
ATOM     22  C   UNL A   1      32.649  17.313  22.621  1.00  0.00     0.068 C 
ATOM     23  C   UNL A   1      34.658  17.549  24.229  1.00  0.00     0.239 C 
ATOM     24  C   UNL A   1      34.109  16.972  22.904  1.00  0.00     0.077 C 
BRANCH  23  25
ATOM     25  N   UNL A   1      34.547  16.621  25.382  1.00  0.00    -0.333 N 
ATOM     26  C   UNL A   1      33.371  15.756  25.273  1.00  0.00     0.332 C 
ATOM     27  C   UNL A   1      35.734  15.812  25.639  1.00  0.00     0.332 C 
ATOM     28  H   UNL A   1      34.447  17.241  26.186  1.00  0.00     0.348 HD
ENDBRANCH  23  25
ENDBRANCH  17  18
ENDBRANCH  16  17
ENDBRANCH   9  16
ENDBRANCH   4   7
ENDBRANCH   2   3
ENDBRANCH   1   2
BRANCH   1  29
ATOM     29  C   UNL A   1      37.780  20.003  24.993  1.00  0.00     0.023 C 
BRANCH  29  30
ATOM     30  C   UNL A   1      39.009  20.438  25.784  1.00  0.00     0.116 C 
BRANCH  30  31
ATOM     31  N   UNL A   1      40.004  19.384  25.916  1.00  0.00    -0.352 N 
ATOM     32  C   UNL A   1      41.351  19.495  26.170  1.00  0.00     0.251 C 
ATOM     33  H   UNL A   1      39.666  18.465  25.810  1.00  0.00     0.163 HD
ATOM     34  O   UNL A   1      42.068  18.503  26.128  1.00  0.00    -0.269 OA
BRANCH  32  35
ATOM     35  C   UNL A   1      41.930  20.825  26.459  1.00  0.00     0.039 A 
ATOM     36  C   UNL A   1      42.200  21.688  25.392  1.00  0.00     0.014 A 
ATOM     37  C   UNL A   1      42.183  21.227  27.772  1.00  0.00     0.014 A 
ATOM     38  C   UNL A   1      42.662  22.980  25.650  1.00  0.00     0.010 A 
ATOM     39  C   UNL A   1      42.577  22.536  28.030  1.00  0.00     0.010 A 
ATOM     40  C   UNL A   1      42.822  23.425  26.973  1.00  0.00    -0.014 A 
BRANCH  40  41
ATOM     41  C   UNL A   1      43.226  24.824  27.272  1.00  0.00     0.031 A 
ATOM     42  C   UNL A   1      42.253  25.774  27.912  1.00  0.00     0.074 A 
ATOM     43  C   UNL A   1      44.438  25.262  26.878  1.00  0.00     0.049 A 
ATOM     44  N   UNL A   1      42.404  27.043  28.193  1.00  0.00    -0.248 NA
ATOM     45  C   UNL A   1      40.925  25.240  28.255  1.00  0.00     0.031 C 
ATOM     46  C   UNL A   1      45.438  24.463  26.168  1.00  0.00     0.029 A 
ATOM     47  N   UNL A   1      45.023  26.500  26.990  1.00  0.00    -0.354 N 
ATOM     48  C   UNL A   1      41.184  27.466  28.706  1.00  0.00     0.074 A 
ATOM     49  C   UNL A   1      40.292  26.329  28.670  1.00  0.00     0.031 C 
ATOM     50  C   UNL A   1      46.510  25.228  25.907  1.00  0.00     0.029 A 
ATOM     51  C   UNL A   1      46.266  26.577  26.406  1.00  0.00     0.049 A 
ATOM     52  H   UNL A   1      44.593  27.259  27.446  1.00  0.00     0.167 HD
ATOM     53  C   UNL A   1      40.845  28.685  29.189  1.00  0.00     0.034 A 
ATOM     54  C   UNL A   1      47.112  27.619  26.281  1.00  0.00     0.034 A 
ATOM     55  C   UNL A   1      41.749  29.800  29.271  1.00  0.00     0.049 A 
ATOM     56  C   UNL A   1      46.733  28.946  26.881  1.00  0.00     0.074 A 
ATOM     57  C   UNL A   1      41.534  31.042  29.841  1.00  0.00     0.029 A 
ATOM     58  N   UNL A   1      43.038  29.811  28.763  1.00  0.00    -0.354 N 
ATOM     59  N   UNL A   1      45.639  29.278  27.521  1.00  0.00    -0.248 NA
ATOM     60  C   UNL A   1      47.721  30.029  26.778  1.00  0.00     0.031 C 
ATOM     61  C   UNL A   1      42.686  31.813  29.657  1.00  0.00     0.029 A 
ATOM     62  C   UNL A   1      43.628  31.042  28.997  1.00  0.00     0.049 A 
ATOM     63  H   UNL A   1      43.472  29.055  28.303  1.00  0.00     0.167 HD
ATOM     64  C   UNL A   1      45.818  30.596  27.926  1.00  0.00     0.074 A 
ATOM     65  C   UNL A   1      47.137  30.994  27.478  1.00  0.00     0.031 C 
ATOM     66  C   UNL A   1      44.962  31.408  28.593  1.00  0.00     0.034 A 
BRANCH  53  67
ATOM     67  C   UNL A   1      39.448  28.863  29.726  1.00  0.00     0.023 A 
ATOM     68  C   UNL A   1      39.166  28.508  31.060  1.00  0.00     0.012 A 
ATOM     69  C   UNL A   1      38.435  29.439  28.935  1.00  0.00     0.148 A 
ATOM     70  C   UNL A   1      37.890  28.691  31.591  1.00  0.00     0.002 A 
ATOM     71  C   UNL A   1      37.176  29.660  29.484  1.00  0.00     0.091 A 
ATOM     72  F   UNL A   1      38.715  29.751  27.661  1.00  0.00    -0.205 F 
ATOM     73  C   UNL A   1      36.900  29.277  30.807  1.00  0.00     0.022 A 
BRANCH  71  74
ATOM     74  S   UNL A   1      35.856  30.482  28.584  1.00  0.00     0.127 S 
ATOM     75  O   UNL A   1      35.166  29.346  27.972  1.00  0.00    -0.237 OA
ATOM     76  O   UNL A   1      35.113  31.138  29.660  1.00  0.00    -0.237 OA
ATOM     77  O   UNL A   1      36.510  31.392  27.656  1.00  0.00    -0.744 OA
ENDBRANCH  71  74
ENDBRANCH  53  67
BRANCH  54  78
ATOM     78  C   UNL A   1      48.433  27.426  25.618  1.00  0.00     0.023 A 
ATOM     79  C   UNL A   1      49.546  27.051  26.393  1.00  0.00     0.012 A 
ATOM     80  C   UNL A   1      48.583  27.576  24.225  1.00  0.00     0.148 A 
ATOM     81  C   UNL A   1      50.794  26.858  25.799  1.00  0.00     0.002 A 
ATOM     82  C   UNL A   1      49.817  27.328  23.633  1.00  0.00     0.091 A 
ATOM     83  F   UNL A   1      47.513  27.944  23.506  1.00  0.00    -0.205 F 
ATOM     84  C   UNL A   1      50.927  26.987  24.420  1.00  0.00     0.022 A 
BRANCH  82  85
ATOM     85  S   UNL A   1      50.049  27.340  21.852  1.00  0.00     0.127 S 
ATOM     86  O   UNL A   1      51.432  26.890  21.727  1.00  0.00    -0.237 OA
ATOM     87  O   UNL A   1      49.043  26.373  21.411  1.00  0.00    -0.237 OA
ATOM     88  O   UNL A   1      49.786  28.710  21.431  1.00  0.00    -0.744 OA
ENDBRANCH  82  85
ENDBRANCH  54  78
BRANCH  66  89
ATOM     89  C   UNL A   1      45.428  32.804  28.916  1.00  0.00     0.023 A 
ATOM     90  C   UNL A   1      46.034  33.068  30.160  1.00  0.00     0.012 A 
ATOM     91  C   UNL A   1      45.340  33.832  27.956  1.00  0.00     0.148 A 
ATOM     92  C   UNL A   1      46.519  34.343  30.455  1.00  0.00     0.002 A 
ATOM     93  C   UNL A   1      45.868  35.085  28.239  1.00  0.00     0.091 A 
ATOM     94  F   UNL A   1      44.742  33.565  26.786  1.00  0.00    -0.205 F 
ATOM     95  C   UNL A   1      46.447  35.346  29.492  1.00  0.00     0.022 A 
BRANCH  93  96
ATOM     96  S   UNL A   1      45.906  36.409  27.024  1.00  0.00     0.127 S 
ATOM     97  O   UNL A   1      44.520  36.874  27.046  1.00  0.00    -0.237 OA
ATOM     98  O   UNL A   1      46.872  37.340  27.609  1.00  0.00    -0.237 OA
ATOM     99  O   UNL A   1      46.340  35.794  25.777  1.00  0.00    -0.744 OA
ENDBRANCH  93  96
ENDBRANCH  66  89
ENDBRANCH  40  41
ENDBRANCH  32  35
ENDBRANCH  30  31
ENDBRANCH  29  30
ENDBRANCH   1  29
TORSDOF 19
ENDMDL
MODEL 2
REMARK VINA RESULT:     -11.3      1.799      3.943
REMARK SMILES C[NH2+][C@]1(C(=O)NCCCCNC(=O)c2ccc(-c3c4nc(c(-c5cccc(S(=O)(=O)[O-])c5F)c5ccc([nH]5)c(-c5cccc(S(=O)(=O)[O-])c5F)c5nc(c(-c6cccc(S(=O)(=O)[O-])c6F)c6ccc3[nH]6)C=C5)C=C4)cc2)CCC[C@@H]1CC[N@H+]1CCC[C@H]([NH+](C)C)C1
REMARK SMILES IDX 8 1 7 2 6 3 4 4 5 5 3 7 77 8 80 9 78 10 79 11 2 12 1 13
REMARK SMILES IDX 81 16 82 17 83 18 84 19 91 20 85 22 87 23 86 24 88 25 89 26
REMARK SMILES IDX 90 27 9 29 10 30 11 31 12 32 13 34 14 35 15 36 76 37 16 38
REMARK SMILES IDX 75 39 17 40 18 41 19 42 69 43 20 44 74 45 68 46 70 47 21 48
REMARK SMILES IDX 73 49 67 50 66 51 22 53 54 54 34 55 53 56 35 57 38 58 52 59
REMARK SMILES IDX 71 60 36 61 37 62 51 64 72 65 39 66 23 67 24 68 32 69 25 70
REMARK SMILES IDX 27 71 33 72 26 73 28 74 29 75 30 76 31 77 55 78 56 79 64 80
REMARK SMILES IDX 57 81 59 82 65 83 58 84 60 85 61 86 62 87 63 88 40 89 41 90
REMARK SMILES IDX 49 91 42 92 44 93 50 94 43 95 45 96 46 97 47 98 48 99
REMARK H PARENT 6 6 2 14 2 15 83 21 88 28 11 33 70 52 38 63
REMARK Flexibility Score: inf
ROOT
ATOM      1  C   UNL A   1      36.712  21.014  24.862  1.00  0.00     0.023 C 
ENDROOT
BRANCH   1   2
ATOM      2  C   UNL A   1      35.292  20.480  25.061  1.00  0.00     0.116 C 
BRANCH   2   3
ATOM      3  N   UNL A   1      34.683  21.067  26.242  1.00  0.00    -0.351 N 
ATOM      4  C   UNL A   1      33.864  22.140  26.449  1.00  0.00     0.281 C 
ATOM      5  O   UNL A   1      33.651  22.382  27.644  1.00  0.00    -0.268 OA
ATOM      6  H   UNL A   1      34.909  20.588  27.072  1.00  0.00     0.163 HD
BRANCH   4   7
ATOM      7  C   UNL A   1      33.172  22.950  25.284  1.00  0.00     0.178 C 
ATOM      8  C   UNL A   1      33.201  22.153  23.957  1.00  0.00     0.079 C 
ATOM      9  C   UNL A   1      31.641  23.141  25.529  1.00  0.00     0.066 C 
ATOM     10  C   UNL A   1      32.008  22.635  23.143  1.00  0.00     0.008 C 
ATOM     11  C   UNL A   1      31.018  23.250  24.128  1.00  0.00     0.011 C 
BRANCH   7  12
ATOM     12  N   UNL A   1      33.933  24.186  24.925  1.00  0.00    -0.336 N 
ATOM     13  C   UNL A   1      35.176  24.073  24.184  1.00  0.00     0.331 C 
ATOM     14  H   UNL A   1      33.307  24.767  24.368  1.00  0.00     0.346 HD
ATOM     15  H   UNL A   1      34.227  24.556  25.829  1.00  0.00     0.346 HD
ENDBRANCH   7  12
BRANCH   9  16
ATOM     16  C   UNL A   1      31.252  24.319  26.444  1.00  0.00     0.072 C 
BRANCH  16  17
ATOM     17  C   UNL A   1      30.149  25.255  25.930  1.00  0.00     0.262 C 
BRANCH  17  18
ATOM     18  N   UNL A   1      30.517  26.653  25.660  1.00  0.00    -0.330 N 
ATOM     19  C   UNL A   1      31.538  27.226  26.546  1.00  0.00     0.262 C 
ATOM     20  C   UNL A   1      30.993  26.781  24.265  1.00  0.00     0.327 C 
ATOM     21  H   UNL A   1      29.662  27.181  25.834  1.00  0.00     0.348 HD
ATOM     22  C   UNL A   1      31.682  28.725  26.293  1.00  0.00     0.068 C 
ATOM     23  C   UNL A   1      31.177  28.254  23.803  1.00  0.00     0.239 C 
ATOM     24  C   UNL A   1      32.011  29.043  24.838  1.00  0.00     0.077 C 
BRANCH  23  25
ATOM     25  N   UNL A   1      29.953  28.960  23.350  1.00  0.00    -0.333 N 
ATOM     26  C   UNL A   1      30.183  29.708  22.112  1.00  0.00     0.332 C 
ATOM     27  C   UNL A   1      28.771  28.116  23.206  1.00  0.00     0.332 C 
ATOM     28  H   UNL A   1      29.748  29.607  24.112  1.00  0.00     0.348 HD
ENDBRANCH  23  25
ENDBRANCH  17  18
ENDBRANCH  16  17
ENDBRANCH   9  16
ENDBRANCH   4   7
ENDBRANCH   2   3
ENDBRANCH   1   2
BRANCH   1  29
ATOM     29  C   UNL A   1      37.809  19.953  24.976  1.00  0.00     0.023 C 
BRANCH  29  30
ATOM     30  C   UNL A   1      39.043  20.381  25.764  1.00  0.00     0.116 C 
BRANCH  30  31
ATOM     31  N   UNL A   1      40.035  19.323  25.889  1.00  0.00    -0.352 N 
ATOM     32  C   UNL A   1      41.382  19.428  26.145  1.00  0.00     0.251 C 
ATOM     33  H   UNL A   1      39.694  18.406  25.774  1.00  0.00     0.163 HD
ATOM     34  O   UNL A   1      42.096  18.434  26.096  1.00  0.00    -0.269 OA
BRANCH  32  35
ATOM     35  C   UNL A   1      41.964  20.754  26.446  1.00  0.00     0.039 A 
ATOM     36  C   UNL A   1      42.233  21.626  25.388  1.00  0.00     0.014 A 
ATOM     37  C   UNL A   1      42.220  21.143  27.763  1.00  0.00     0.014 A 
ATOM     38  C   UNL A   1      42.699  22.915  25.658  1.00  0.00     0.010 A 
ATOM     39  C   UNL A   1      42.618  22.448  28.033  1.00  0.00     0.010 A 
ATOM     40  C   UNL A   1      42.862  23.347  26.984  1.00  0.00    -0.014 A 
BRANCH  40  41
ATOM     41  C   UNL A   1      43.269  24.742  27.297  1.00  0.00     0.031 A 
ATOM     42  C   UNL A   1      42.279  25.707  27.887  1.00  0.00     0.074 A 
ATOM     43  C   UNL A   1      44.504  25.163  26.958  1.00  0.00     0.049 A 
ATOM     44  N   UNL A   1      42.433  26.975  28.170  1.00  0.00    -0.248 NA
ATOM     45  C   UNL A   1      40.930  25.191  28.169  1.00  0.00     0.031 C 
ATOM     46  C   UNL A   1      45.526  24.348  26.299  1.00  0.00     0.029 A 
ATOM     47  N   UNL A   1      45.098  26.394  27.093  1.00  0.00    -0.354 N 
ATOM     48  C   UNL A   1      41.196  27.416  28.622  1.00  0.00     0.074 A 
ATOM     49  C   UNL A   1      40.293  26.290  28.550  1.00  0.00     0.031 C 
ATOM     50  C   UNL A   1      46.618  25.098  26.085  1.00  0.00     0.029 A 
ATOM     51  C   UNL A   1      46.368  26.453  26.568  1.00  0.00     0.049 A 
ATOM     52  H   UNL A   1      44.657  27.160  27.525  1.00  0.00     0.167 HD
ATOM     53  C   UNL A   1      40.850  28.642  29.084  1.00  0.00     0.034 A 
ATOM     54  C   UNL A   1      47.233  27.484  26.478  1.00  0.00     0.034 A 
ATOM     55  C   UNL A   1      41.764  29.745  29.204  1.00  0.00     0.049 A 
ATOM     56  C   UNL A   1      46.843  28.817  27.054  1.00  0.00     0.074 A 
ATOM     57  C   UNL A   1      41.538  30.992  29.758  1.00  0.00     0.029 A 
ATOM     58  N   UNL A   1      43.075  29.738  28.757  1.00  0.00    -0.354 N 
ATOM     59  N   UNL A   1      45.724  29.167  27.641  1.00  0.00    -0.248 NA
ATOM     60  C   UNL A   1      47.848  29.888  26.994  1.00  0.00     0.031 C 
ATOM     61  C   UNL A   1      42.708  31.748  29.626  1.00  0.00     0.029 A 
ATOM     62  C   UNL A   1      43.670  30.963  29.013  1.00  0.00     0.049 A 
ATOM     63  H   UNL A   1      43.521  28.975  28.322  1.00  0.00     0.167 HD
ATOM     64  C   UNL A   1      45.901  30.484  28.049  1.00  0.00     0.074 A 
ATOM     65  C   UNL A   1      47.245  30.863  27.661  1.00  0.00     0.031 C 
ATOM     66  C   UNL A   1      45.026  31.310  28.672  1.00  0.00     0.034 A 
BRANCH  53  67
ATOM     67  C   UNL A   1      39.432  28.840  29.554  1.00  0.00     0.023 A 
ATOM     68  C   UNL A   1      39.086  28.505  30.879  1.00  0.00     0.012 A 
ATOM     69  C   UNL A   1      38.462  29.414  28.710  1.00  0.00     0.148 A 
ATOM     70  C   UNL A   1      37.789  28.707  31.348  1.00  0.00     0.002 A 
ATOM     71  C   UNL A   1      37.182  29.654  29.199  1.00  0.00     0.091 A 
ATOM     72  F   UNL A   1      38.803  29.706  27.447  1.00  0.00    -0.205 F 
ATOM     73  C   UNL A   1      36.842  29.291  30.512  1.00  0.00     0.022 A 
BRANCH  71  74
ATOM     74  S   UNL A   1      35.912  30.475  28.229  1.00  0.00     0.127 S 
ATOM     75  O   UNL A   1      35.539  29.425  27.282  1.00  0.00    -0.237 OA
ATOM     76  O   UNL A   1      34.897  30.772  29.240  1.00  0.00    -0.237 OA
ATOM     77  O   UNL A   1      36.548  31.647  27.645  1.00  0.00    -0.744 OA
ENDBRANCH  71  74
ENDBRANCH  53  67
BRANCH  54  78
ATOM     78  C   UNL A   1      48.581  27.271  25.879  1.00  0.00     0.023 A 
ATOM     79  C   UNL A   1      49.632  26.804  26.691  1.00  0.00     0.012 A 
ATOM     80  C   UNL A   1      48.817  27.492  24.507  1.00  0.00     0.148 A 
ATOM     81  C   UNL A   1      50.903  26.591  26.156  1.00  0.00     0.002 A 
ATOM     82  C   UNL A   1      50.071  27.225  23.971  1.00  0.00     0.091 A 
ATOM     83  F   UNL A   1      47.806  27.947  23.754  1.00  0.00    -0.205 F 
ATOM     84  C   UNL A   1      51.120  26.791  24.796  1.00  0.00     0.022 A 
BRANCH  82  85
ATOM     85  S   UNL A   1      50.406  27.328  22.209  1.00  0.00     0.127 S 
ATOM     86  O   UNL A   1      49.377  26.452  21.657  1.00  0.00    -0.237 OA
ATOM     87  O   UNL A   1      50.208  28.753  21.947  1.00  0.00    -0.237 OA
ATOM     88  O   UNL A   1      51.781  26.874  22.043  1.00  0.00    -0.744 OA
ENDBRANCH  82  85
ENDBRANCH  54  78
BRANCH  66  89
ATOM     89  C   UNL A   1      45.494  32.701  29.010  1.00  0.00     0.023 A 
ATOM     90  C   UNL A   1      46.202  32.928  30.207  1.00  0.00     0.012 A 
ATOM     91  C   UNL A   1      45.304  33.764  28.106  1.00  0.00     0.148 A 
ATOM     92  C   UNL A   1      46.688  34.200  30.512  1.00  0.00     0.002 A 
ATOM     93  C   UNL A   1      45.832  35.016  28.393  1.00  0.00     0.091 A 
ATOM     94  F   UNL A   1      44.610  33.532  26.982  1.00  0.00    -0.205 F 
ATOM     95  C   UNL A   1      46.514  35.239  29.601  1.00  0.00     0.022 A 
BRANCH  93  96
ATOM     96  S   UNL A   1      45.740  36.388  27.236  1.00  0.00     0.127 S 
ATOM     97  O   UNL A   1      46.441  35.844  26.073  1.00  0.00    -0.237 OA
ATOM     98  O   UNL A   1      44.297  36.549  27.058  1.00  0.00    -0.237 OA
ATOM     99  O   UNL A   1      46.397  37.510  27.893  1.00  0.00    -0.744 OA
ENDBRANCH  93  96
ENDBRANCH  66  89
ENDBRANCH  40  41
ENDBRANCH  32  35
ENDBRANCH  30  31
ENDBRANCH  29  30
ENDBRANCH   1  29
TORSDOF 19
ENDMDL
MODEL 3
REMARK VINA RESULT:     -11.2      5.716      9.086
REMARK SMILES C[NH2+][C@]1(C(=O)NCCCCNC(=O)c2ccc(-c3c4nc(c(-c5cccc(S(=O)(=O)[O-])c5F)c5ccc([nH]5)c(-c5cccc(S(=O)(=O)[O-])c5F)c5nc(c(-c6cccc(S(=O)(=O)[O-])c6F)c6ccc3[nH]6)C=C5)C=C4)cc2)CCC[C@@H]1CC[N@H+]1CCC[C@H]([NH+](C)C)C1
REMARK SMILES IDX 8 1 7 2 6 3 4 4 5 5 3 7 77 8 80 9 78 10 79 11 2 12 1 13
REMARK SMILES IDX 81 16 82 17 83 18 84 19 91 20 85 22 87 23 86 24 88 25 89 26
REMARK SMILES IDX 90 27 9 29 10 30 11 31 12 32 13 34 14 35 15 36 76 37 16 38
REMARK SMILES IDX 75 39 17 40 18 41 19 42 69 43 20 44 74 45 68 46 70 47 21 48
REMARK SMILES IDX 73 49 67 50 66 51 22 53 54 54 34 55 53 56 35 57 38 58 52 59
REMARK SMILES IDX 71 60 36 61 37 62 51 64 72 65 39 66 23 67 24 68 32 69 25 70
REMARK SMILES IDX 27 71 33 72 26 73 28 74 29 75 30 76 31 77 55 78 56 79 64 80
REMARK SMILES IDX 57 81 59 82 65 83 58 84 60 85 61 86 62 87 63 88 40 89 41 90
REMARK SMILES IDX 49 91 42 92 44 93 50 94 43 95 45 96 46 97 47 98 48 99
REMARK H PARENT 6 6 2 14 2 15 83 21 88 28 11 33 70 52 38 63
REMARK Flexibility Score: inf
ROOT
ATOM      1  C   UNL A   1      31.971  28.782  27.551  1.00  0.00     0.023 C 
ENDROOT
BRANCH   1   2
ATOM      2  C   UNL A   1      32.265  27.594  26.631  1.00  0.00     0.116 C 
BRANCH   2   3
ATOM      3  N   UNL A   1      31.277  26.546  26.816  1.00  0.00    -0.351 N 
ATOM      4  C   UNL A   1      30.369  25.946  25.990  1.00  0.00     0.281 C 
ATOM      5  O   UNL A   1      29.615  25.154  26.568  1.00  0.00    -0.268 OA
ATOM      6  H   UNL A   1      31.257  26.190  27.734  1.00  0.00     0.163 HD
BRANCH   4   7
ATOM      7  C   UNL A   1      30.333  26.163  24.426  1.00  0.00     0.178 C 
ATOM      8  C   UNL A   1      30.392  27.668  24.069  1.00  0.00     0.079 C 
ATOM      9  C   UNL A   1      31.610  25.599  23.725  1.00  0.00     0.066 C 
ATOM     10  C   UNL A   1      31.014  27.754  22.682  1.00  0.00     0.008 C 
ATOM     11  C   UNL A   1      31.791  26.459  22.462  1.00  0.00     0.011 C 
BRANCH   7  12
ATOM     12  N   UNL A   1      29.026  25.748  23.828  1.00  0.00    -0.336 N 
ATOM     13  C   UNL A   1      27.886  26.644  23.906  1.00  0.00     0.331 C 
ATOM     14  H   UNL A   1      29.197  25.571  22.839  1.00  0.00     0.346 HD
ATOM     15  H   UNL A   1      28.744  24.952  24.400  1.00  0.00     0.346 HD
ENDBRANCH   7  12
BRANCH   9  16
ATOM     16  C   UNL A   1      31.594  24.090  23.416  1.00  0.00     0.072 C 
BRANCH  16  17
ATOM     17  C   UNL A   1      32.951  23.371  23.424  1.00  0.00     0.262 C 
BRANCH  17  18
ATOM     18  N   UNL A   1      33.507  22.988  24.731  1.00  0.00    -0.330 N 
ATOM     19  C   UNL A   1      32.550  22.941  25.843  1.00  0.00     0.262 C 
ATOM     20  C   UNL A   1      34.157  21.663  24.626  1.00  0.00     0.327 C 
ATOM     21  H   UNL A   1      34.167  23.733  24.957  1.00  0.00     0.348 HD
ATOM     22  C   UNL A   1      33.281  22.731  27.167  1.00  0.00     0.068 C 
ATOM     23  C   UNL A   1      34.985  21.274  25.882  1.00  0.00     0.239 C 
ATOM     24  C   UNL A   1      34.146  21.474  27.165  1.00  0.00     0.077 C 
BRANCH  23  25
ATOM     25  N   UNL A   1      36.357  21.835  25.966  1.00  0.00    -0.333 N 
ATOM     26  C   UNL A   1      37.264  21.198  25.010  1.00  0.00     0.332 C 
ATOM     27  C   UNL A   1      36.440  23.286  25.837  1.00  0.00     0.332 C 
ATOM     28  H   UNL A   1      36.652  21.618  26.919  1.00  0.00     0.348 HD
ENDBRANCH  23  25
ENDBRANCH  17  18
ENDBRANCH  16  17
ENDBRANCH   9  16
ENDBRANCH   4   7
ENDBRANCH   2   3
ENDBRANCH   1   2
BRANCH   1  29
ATOM     29  C   UNL A   1      31.920  30.136  26.838  1.00  0.00     0.023 C 
BRANCH  29  30
ATOM     30  C   UNL A   1      33.225  30.925  26.855  1.00  0.00     0.116 C 
BRANCH  30  31
ATOM     31  N   UNL A   1      33.029  32.345  27.106  1.00  0.00    -0.352 N 
ATOM     32  C   UNL A   1      33.728  33.177  27.950  1.00  0.00     0.251 C 
ATOM     33  H   UNL A   1      32.297  32.768  26.602  1.00  0.00     0.163 HD
ATOM     34  O   UNL A   1      33.349  34.327  28.131  1.00  0.00    -0.269 OA
BRANCH  32  35
ATOM     35  C   UNL A   1      34.918  32.660  28.660  1.00  0.00     0.039 A 
ATOM     36  C   UNL A   1      34.733  31.917  29.829  1.00  0.00     0.014 A 
ATOM     37  C   UNL A   1      36.204  32.886  28.164  1.00  0.00     0.014 A 
ATOM     38  C   UNL A   1      35.838  31.345  30.465  1.00  0.00     0.010 A 
ATOM     39  C   UNL A   1      37.294  32.259  28.760  1.00  0.00     0.010 A 
ATOM     40  C   UNL A   1      37.123  31.484  29.916  1.00  0.00    -0.014 A 
BRANCH  40  41
ATOM     41  C   UNL A   1      38.299  30.809  30.525  1.00  0.00     0.031 A 
ATOM     42  C   UNL A   1      38.786  31.216  31.888  1.00  0.00     0.074 A 
ATOM     43  C   UNL A   1      38.985  29.899  29.806  1.00  0.00     0.049 A 
ATOM     44  N   UNL A   1      39.827  30.786  32.553  1.00  0.00    -0.248 NA
ATOM     45  C   UNL A   1      38.023  32.265  32.584  1.00  0.00     0.031 C 
ATOM     46  C   UNL A   1      38.666  29.484  28.439  1.00  0.00     0.029 A 
ATOM     47  N   UNL A   1      40.114  29.180  30.116  1.00  0.00    -0.354 N 
ATOM     48  C   UNL A   1      39.867  31.535  33.722  1.00  0.00     0.074 A 
ATOM     49  C   UNL A   1      38.764  32.468  33.664  1.00  0.00     0.031 C 
ATOM     50  C   UNL A   1      39.577  28.588  28.027  1.00  0.00     0.029 A 
ATOM     51  C   UNL A   1      40.558  28.382  29.088  1.00  0.00     0.049 A 
ATOM     52  H   UNL A   1      40.562  29.232  30.990  1.00  0.00     0.167 HD
ATOM     53  C   UNL A   1      40.727  31.436  34.763  1.00  0.00     0.034 A 
ATOM     54  C   UNL A   1      41.637  27.578  29.005  1.00  0.00     0.034 A 
ATOM     55  C   UNL A   1      41.791  30.472  34.841  1.00  0.00     0.049 A 
ATOM     56  C   UNL A   1      42.541  27.442  30.200  1.00  0.00     0.074 A 
ATOM     57  C   UNL A   1      42.648  30.221  35.897  1.00  0.00     0.029 A 
ATOM     58  N   UNL A   1      42.148  29.605  33.821  1.00  0.00    -0.354 N 
ATOM     59  N   UNL A   1      42.459  28.033  31.367  1.00  0.00    -0.248 NA
ATOM     60  C   UNL A   1      43.663  26.500  30.082  1.00  0.00     0.031 C 
ATOM     61  C   UNL A   1      43.540  29.216  35.506  1.00  0.00     0.029 A 
ATOM     62  C   UNL A   1      43.220  28.823  34.218  1.00  0.00     0.049 A 
ATOM     63  H   UNL A   1      41.705  29.551  32.943  1.00  0.00     0.167 HD
ATOM     64  C   UNL A   1      43.495  27.511  32.133  1.00  0.00     0.074 A 
ATOM     65  C   UNL A   1      44.178  26.540  31.304  1.00  0.00     0.031 C 
ATOM     66  C   UNL A   1      43.858  27.821  33.402  1.00  0.00     0.034 A 
BRANCH  53  67
ATOM     67  C   UNL A   1      40.518  32.358  35.937  1.00  0.00     0.023 A 
ATOM     68  C   UNL A   1      41.339  33.493  36.084  1.00  0.00     0.012 A 
ATOM     69  C   UNL A   1      39.472  32.138  36.854  1.00  0.00     0.148 A 
ATOM     70  C   UNL A   1      41.147  34.379  37.143  1.00  0.00     0.002 A 
ATOM     71  C   UNL A   1      39.257  33.049  37.883  1.00  0.00     0.091 A 
ATOM     72  F   UNL A   1      38.714  31.042  36.712  1.00  0.00    -0.205 F 
ATOM     73  C   UNL A   1      40.100  34.163  38.035  1.00  0.00     0.022 A 
BRANCH  71  74
ATOM     74  S   UNL A   1      37.887  32.905  39.036  1.00  0.00     0.127 S 
ATOM     75  O   UNL A   1      36.737  32.946  38.133  1.00  0.00    -0.237 OA
ATOM     76  O   UNL A   1      38.136  31.598  39.646  1.00  0.00    -0.237 OA
ATOM     77  O   UNL A   1      38.009  34.033  39.947  1.00  0.00    -0.744 OA
ENDBRANCH  71  74
ENDBRANCH  53  67
BRANCH  54  78
ATOM     78  C   UNL A   1      41.879  26.785  27.766  1.00  0.00     0.023 A 
ATOM     79  C   UNL A   1      42.456  27.412  26.646  1.00  0.00     0.012 A 
ATOM     80  C   UNL A   1      41.575  25.411  27.705  1.00  0.00     0.148 A 
ATOM     81  C   UNL A   1      42.699  26.694  25.475  1.00  0.00     0.002 A 
ATOM     82  C   UNL A   1      41.870  24.689  26.553  1.00  0.00     0.091 A 
ATOM     83  F   UNL A   1      41.015  24.835  28.778  1.00  0.00    -0.205 F 
ATOM     84  C   UNL A   1      42.416  25.332  25.432  1.00  0.00     0.022 A 
BRANCH  82  85
ATOM     85  S   UNL A   1      41.662  22.908  26.455  1.00  0.00     0.127 S 
ATOM     86  O   UNL A   1      42.292  22.464  27.694  1.00  0.00    -0.237 OA
ATOM     87  O   UNL A   1      40.205  22.775  26.421  1.00  0.00    -0.237 OA
ATOM     88  O   UNL A   1      42.328  22.503  25.223  1.00  0.00    -0.744 OA
ENDBRANCH  82  85
ENDBRANCH  54  78
BRANCH  66  89
ATOM     89  C   UNL A   1      45.028  27.082  33.996  1.00  0.00     0.023 A 
ATOM     90  C   UNL A   1      46.321  27.636  33.911  1.00  0.00     0.012 A 
ATOM     91  C   UNL A   1      44.835  25.882  34.709  1.00  0.00     0.148 A 
ATOM     92  C   UNL A   1      47.408  26.992  34.501  1.00  0.00     0.002 A 
ATOM     93  C   UNL A   1      45.914  25.270  35.334  1.00  0.00     0.091 A 
ATOM     94  F   UNL A   1      43.601  25.361  34.761  1.00  0.00    -0.205 F 
ATOM     95  C   UNL A   1      47.203  25.817  35.221  1.00  0.00     0.022 A 
BRANCH  93  96
ATOM     96  S   UNL A   1      45.728  23.809  36.363  1.00  0.00     0.127 S 
ATOM     97  O   UNL A   1      44.717  24.248  37.323  1.00  0.00    -0.237 OA
ATOM     98  O   UNL A   1      45.264  22.809  35.402  1.00  0.00    -0.237 OA
ATOM     99  O   UNL A   1      47.047  23.543  36.921  1.00  0.00    -0.744 OA
ENDBRANCH  93  96
ENDBRANCH  66  89
ENDBRANCH  40  41
ENDBRANCH  32  35
ENDBRANCH  30  31
ENDBRANCH  29  30
ENDBRANCH   1  29
TORSDOF 19
ENDMDL
