MODEL 1
REMARK VINA RESULT:     -11.7      0.000      0.000
REMARK SMILES CCCC[C@@H](C(=O)NCCCCNC(=O)c1ccc(-c2c3nc(c(-c4cccc(S(=O)(=O)[O-])c4F)c4ccc([nH]4)c(-c4cccc(S(=O)(=O)[O-])c4F)c4nc(c(-c5cccc(S(=O)(=O)[O-])c5F)c5ccc2[nH]5)C=C4)C=C3)cc1)[C@]1(O)COc2cc(O)ccc21
REMARK SMILES IDX 10 1 9 2 8 3 6 4 7 5 5 7 4 8 3 9 2 10 1 11 79 12 81 13 89 14
REMARK SMILES IDX 82 15 83 16 88 17 84 18 87 19 85 20 80 21 86 23 11 25 12 26
REMARK SMILES IDX 13 27 14 28 15 30 16 31 17 32 78 33 18 34 77 35 19 36 20 37
REMARK SMILES IDX 21 38 71 39 22 40 76 41 70 42 72 43 23 44 75 45 69 46 68 47
REMARK SMILES IDX 24 49 56 50 36 51 55 52 37 53 40 54 54 55 73 56 38 57 39 58
REMARK SMILES IDX 53 60 74 61 41 62 25 63 26 64 34 65 27 66 29 67 35 68 28 69
REMARK SMILES IDX 30 70 31 71 32 72 33 73 57 74 58 75 66 76 59 77 61 78 67 79
REMARK SMILES IDX 60 80 62 81 63 82 64 83 65 84 42 85 43 86 51 87 44 88 46 89
REMARK SMILES IDX 52 90 45 91 47 92 48 93 49 94 50 95
REMARK H PARENT 8 6 80 22 86 24 13 29 72 48 40 59
REMARK Flexibility Score: inf
ROOT
ATOM      1  C   UNL A   1      31.493  28.995  23.148  1.00  0.00     0.023 C 
ENDROOT
BRANCH   1   2
ATOM      2  C   UNL A   1      30.975  27.591  22.816  1.00  0.00     0.116 C 
BRANCH   2   3
ATOM      3  N   UNL A   1      31.900  26.940  21.908  1.00  0.00    -0.356 N 
ATOM      4  C   UNL A   1      32.965  26.162  22.274  1.00  0.00     0.226 C 
ATOM      5  O   UNL A   1      34.028  26.319  21.679  1.00  0.00    -0.275 OA
ATOM      6  H   UNL A   1      31.748  27.069  20.944  1.00  0.00     0.163 HD
BRANCH   4   7
ATOM      7  C   UNL A   1      32.783  25.110  23.367  1.00  0.00     0.118 C 
BRANCH   7   8
ATOM      8  C   UNL A   1      33.636  25.430  24.626  1.00  0.00     0.017 C 
BRANCH   8   9
ATOM      9  C   UNL A   1      33.021  25.210  26.010  1.00  0.00     0.001 C 
BRANCH   9  10
ATOM     10  C   UNL A   1      31.542  25.569  26.150  1.00  0.00    -0.003 C 
ATOM     11  C   UNL A   1      30.654  24.335  26.174  1.00  0.00     0.004 C 
ENDBRANCH   9  10
ENDBRANCH   8   9
ENDBRANCH   7   8
BRANCH   7  12
ATOM     12  C   UNL A   1      33.134  23.685  22.811  1.00  0.00     0.139 C 
ATOM     13  C   UNL A   1      32.147  22.542  23.180  1.00  0.00     0.270 C 
ATOM     14  C   UNL A   1      34.386  23.029  23.317  1.00  0.00     0.030 A 
ATOM     15  O   UNL A   1      32.692  21.747  24.251  1.00  0.00    -0.490 OA
ATOM     16  C   UNL A   1      34.040  21.972  24.155  1.00  0.00     0.129 A 
ATOM     17  C   UNL A   1      35.723  23.326  23.095  1.00  0.00     0.014 A 
ATOM     18  C   UNL A   1      34.974  21.226  24.841  1.00  0.00     0.093 A 
ATOM     19  C   UNL A   1      36.694  22.555  23.752  1.00  0.00     0.047 A 
ATOM     20  C   UNL A   1      36.311  21.529  24.629  1.00  0.00     0.119 A 
BRANCH  12  21
ATOM     21  O   UNL A   1      33.184  23.804  21.374  1.00  0.00    -0.381 OA
ATOM     22  H   UNL A   1      33.208  22.919  20.977  1.00  0.00     0.212 HD
ENDBRANCH  12  21
BRANCH  20  23
ATOM     23  O   UNL A   1      37.240  20.788  25.300  1.00  0.00    -0.508 OA
ATOM     24  H   UNL A   1      38.137  21.058  25.307  1.00  0.00     0.293 HD
ENDBRANCH  20  23
ENDBRANCH   7  12
ENDBRANCH   4   7
ENDBRANCH   2   3
ENDBRANCH   1   2
BRANCH   1  25
ATOM     25  C   UNL A   1      32.880  29.035  23.780  1.00  0.00     0.023 C 
BRANCH  25  26
ATOM     26  C   UNL A   1      32.876  29.086  25.296  1.00  0.00     0.116 C 
BRANCH  26  27
ATOM     27  N   UNL A   1      32.228  30.276  25.832  1.00  0.00    -0.352 N 
ATOM     28  C   UNL A   1      32.710  31.120  26.807  1.00  0.00     0.251 C 
ATOM     29  H   UNL A   1      31.348  30.502  25.453  1.00  0.00     0.163 HD
ATOM     30  O   UNL A   1      32.032  32.041  27.237  1.00  0.00    -0.269 OA
BRANCH  28  31
ATOM     31  C   UNL A   1      34.056  30.848  27.349  1.00  0.00     0.039 A 
ATOM     32  C   UNL A   1      34.904  31.922  27.626  1.00  0.00     0.014 A 
ATOM     33  C   UNL A   1      34.414  29.543  27.694  1.00  0.00     0.014 A 
ATOM     34  C   UNL A   1      36.092  31.689  28.319  1.00  0.00     0.010 A 
ATOM     35  C   UNL A   1      35.552  29.328  28.457  1.00  0.00     0.010 A 
ATOM     36  C   UNL A   1      36.405  30.397  28.772  1.00  0.00    -0.014 A 
BRANCH  36  37
ATOM     37  C   UNL A   1      37.623  30.131  29.576  1.00  0.00     0.031 A 
ATOM     38  C   UNL A   1      38.695  29.232  29.023  1.00  0.00     0.074 A 
ATOM     39  C   UNL A   1      37.715  30.606  30.833  1.00  0.00     0.049 A 
ATOM     40  N   UNL A   1      39.791  28.809  29.594  1.00  0.00    -0.248 NA
ATOM     41  C   UNL A   1      38.487  28.707  27.662  1.00  0.00     0.031 C 
ATOM     42  C   UNL A   1      36.695  31.410  31.513  1.00  0.00     0.029 A 
ATOM     43  N   UNL A   1      38.703  30.460  31.773  1.00  0.00    -0.354 N 
ATOM     44  C   UNL A   1      40.379  27.939  28.684  1.00  0.00     0.074 A 
ATOM     45  C   UNL A   1      39.497  27.860  27.540  1.00  0.00     0.031 C 
ATOM     46  C   UNL A   1      37.118  31.695  32.756  1.00  0.00     0.029 A 
ATOM     47  C   UNL A   1      38.424  31.079  32.969  1.00  0.00     0.049 A 
ATOM     48  H   UNL A   1      39.535  29.960  31.607  1.00  0.00     0.167 HD
ATOM     49  C   UNL A   1      41.565  27.295  28.773  1.00  0.00     0.034 A 
ATOM     50  C   UNL A   1      39.145  31.147  34.105  1.00  0.00     0.034 A 
ATOM     51  C   UNL A   1      42.471  27.436  29.878  1.00  0.00     0.049 A 
ATOM     52  C   UNL A   1      40.499  30.488  34.148  1.00  0.00     0.074 A 
ATOM     53  C   UNL A   1      43.742  26.909  30.024  1.00  0.00     0.029 A 
ATOM     54  N   UNL A   1      42.205  28.167  31.026  1.00  0.00    -0.354 N 
ATOM     55  N   UNL A   1      41.112  29.804  33.212  1.00  0.00    -0.248 NA
ATOM     56  C   UNL A   1      41.275  30.643  35.386  1.00  0.00     0.031 C 
ATOM     57  C   UNL A   1      44.244  27.322  31.262  1.00  0.00     0.029 A 
ATOM     58  C   UNL A   1      43.288  28.109  31.884  1.00  0.00     0.049 A 
ATOM     59  H   UNL A   1      41.369  28.654  31.204  1.00  0.00     0.167 HD
ATOM     60  C   UNL A   1      42.358  29.477  33.734  1.00  0.00     0.074 A 
ATOM     61  C   UNL A   1      42.419  30.056  35.060  1.00  0.00     0.031 C 
ATOM     62  C   UNL A   1      43.354  28.748  33.174  1.00  0.00     0.034 A 
BRANCH  49  63
ATOM     63  C   UNL A   1      41.981  26.444  27.603  1.00  0.00     0.023 A 
ATOM     64  C   UNL A   1      42.681  27.041  26.533  1.00  0.00     0.012 A 
ATOM     65  C   UNL A   1      41.716  25.063  27.570  1.00  0.00     0.148 A 
ATOM     66  C   UNL A   1      43.076  26.284  25.432  1.00  0.00     0.002 A 
ATOM     67  C   UNL A   1      42.149  24.306  26.487  1.00  0.00     0.091 A 
ATOM     68  F   UNL A   1      41.026  24.518  28.582  1.00  0.00    -0.205 F 
ATOM     69  C   UNL A   1      42.820  24.916  25.413  1.00  0.00     0.022 A 
BRANCH  67  70
ATOM     70  S   UNL A   1      41.929  22.525  26.406  1.00  0.00     0.127 S 
ATOM     71  O   UNL A   1      42.601  22.202  25.148  1.00  0.00    -0.237 OA
ATOM     72  O   UNL A   1      42.630  22.069  27.605  1.00  0.00    -0.237 OA
ATOM     73  O   UNL A   1      40.490  22.302  26.425  1.00  0.00    -0.744 OA
ENDBRANCH  67  70
ENDBRANCH  49  63
BRANCH  50  74
ATOM     74  C   UNL A   1      38.649  31.953  35.257  1.00  0.00     0.023 A 
ATOM     75  C   UNL A   1      38.638  33.358  35.155  1.00  0.00     0.012 A 
ATOM     76  C   UNL A   1      38.160  31.347  36.429  1.00  0.00     0.148 A 
ATOM     77  C   UNL A   1      38.175  34.146  36.208  1.00  0.00     0.002 A 
ATOM     78  C   UNL A   1      37.654  32.137  37.457  1.00  0.00     0.091 A 
ATOM     79  F   UNL A   1      38.192  30.009  36.515  1.00  0.00    -0.205 F 
ATOM     80  C   UNL A   1      37.674  33.536  37.355  1.00  0.00     0.022 A 
BRANCH  78  81
ATOM     81  S   UNL A   1      36.876  31.430  38.914  1.00  0.00     0.127 S 
ATOM     82  O   UNL A   1      35.666  32.240  39.030  1.00  0.00    -0.237 OA
ATOM     83  O   UNL A   1      36.652  30.044  38.500  1.00  0.00    -0.237 OA
ATOM     84  O   UNL A   1      37.852  31.582  39.985  1.00  0.00    -0.744 OA
ENDBRANCH  78  81
ENDBRANCH  50  74
BRANCH  62  85
ATOM     85  C   UNL A   1      44.613  28.554  33.975  1.00  0.00     0.023 A 
ATOM     86  C   UNL A   1      45.655  29.495  33.868  1.00  0.00     0.012 A 
ATOM     87  C   UNL A   1      44.726  27.496  34.897  1.00  0.00     0.148 A 
ATOM     88  C   UNL A   1      46.803  29.372  34.649  1.00  0.00     0.002 A 
ATOM     89  C   UNL A   1      45.854  27.404  35.705  1.00  0.00     0.091 A 
ATOM     90  F   UNL A   1      43.731  26.600  34.969  1.00  0.00    -0.205 F 
ATOM     91  C   UNL A   1      46.896  28.336  35.575  1.00  0.00     0.022 A 
BRANCH  89  92
ATOM     92  S   UNL A   1      46.012  26.157  36.987  1.00  0.00     0.127 S 
ATOM     93  O   UNL A   1      44.819  26.405  37.794  1.00  0.00    -0.237 OA
ATOM     94  O   UNL A   1      45.983  24.912  36.221  1.00  0.00    -0.237 OA
ATOM     95  O   UNL A   1      47.284  26.426  37.646  1.00  0.00    -0.744 OA
ENDBRANCH  89  92
ENDBRANCH  62  85
ENDBRANCH  36  37
ENDBRANCH  28  31
ENDBRANCH  26  27
ENDBRANCH  25  26
ENDBRANCH   1  25
TORSDOF 20
ENDMDL
MODEL 2
REMARK VINA RESULT:     -11.7      1.693      7.730
REMARK SMILES CCCC[C@@H](C(=O)NCCCCNC(=O)c1ccc(-c2c3nc(c(-c4cccc(S(=O)(=O)[O-])c4F)c4ccc([nH]4)c(-c4cccc(S(=O)(=O)[O-])c4F)c4nc(c(-c5cccc(S(=O)(=O)[O-])c5F)c5ccc2[nH]5)C=C4)C=C3)cc1)[C@]1(O)COc2cc(O)ccc21
REMARK SMILES IDX 10 1 9 2 8 3 6 4 7 5 5 7 4 8 3 9 2 10 1 11 79 12 81 13 89 14
REMARK SMILES IDX 82 15 83 16 88 17 84 18 87 19 85 20 80 21 86 23 11 25 12 26
REMARK SMILES IDX 13 27 14 28 15 30 16 31 17 32 78 33 18 34 77 35 19 36 20 37
REMARK SMILES IDX 21 38 71 39 22 40 76 41 70 42 72 43 23 44 75 45 69 46 68 47
REMARK SMILES IDX 24 49 56 50 36 51 55 52 37 53 40 54 54 55 73 56 38 57 39 58
REMARK SMILES IDX 53 60 74 61 41 62 25 63 26 64 34 65 27 66 29 67 35 68 28 69
REMARK SMILES IDX 30 70 31 71 32 72 33 73 57 74 58 75 66 76 59 77 61 78 67 79
REMARK SMILES IDX 60 80 62 81 63 82 64 83 65 84 42 85 43 86 51 87 44 88 46 89
REMARK SMILES IDX 52 90 45 91 47 92 48 93 49 94 50 95
REMARK H PARENT 8 6 80 22 86 24 13 29 72 48 40 59
REMARK Flexibility Score: inf
ROOT
ATOM      1  C   UNL A   1      31.718  28.853  23.554  1.00  0.00     0.023 C 
ENDROOT
BRANCH   1   2
ATOM      2  C   UNL A   1      31.149  27.429  23.509  1.00  0.00     0.116 C 
BRANCH   2   3
ATOM      3  N   UNL A   1      31.767  26.699  22.419  1.00  0.00    -0.356 N 
ATOM      4  C   UNL A   1      32.889  25.921  22.514  1.00  0.00     0.226 C 
ATOM      5  O   UNL A   1      33.734  26.013  21.627  1.00  0.00    -0.275 OA
ATOM      6  H   UNL A   1      31.342  26.769  21.534  1.00  0.00     0.163 HD
BRANCH   4   7
ATOM      7  C   UNL A   1      33.028  24.947  23.683  1.00  0.00     0.118 C 
BRANCH   7   8
ATOM      8  C   UNL A   1      33.872  25.548  24.841  1.00  0.00     0.017 C 
BRANCH   8   9
ATOM      9  C   UNL A   1      33.316  25.494  26.265  1.00  0.00     0.001 C 
BRANCH   9  10
ATOM     10  C   UNL A   1      31.806  25.295  26.387  1.00  0.00    -0.003 C 
ATOM     11  C   UNL A   1      31.451  23.891  26.850  1.00  0.00     0.004 C 
ENDBRANCH   9  10
ENDBRANCH   8   9
ENDBRANCH   7   8
BRANCH   7  12
ATOM     12  C   UNL A   1      33.653  23.595  23.189  1.00  0.00     0.139 C 
ATOM     13  C   UNL A   1      32.906  22.873  22.032  1.00  0.00     0.270 C 
ATOM     14  C   UNL A   1      33.672  22.443  24.152  1.00  0.00     0.030 A 
ATOM     15  O   UNL A   1      32.123  21.782  22.555  1.00  0.00    -0.490 OA
ATOM     16  C   UNL A   1      32.747  21.487  23.738  1.00  0.00     0.129 A 
ATOM     17  C   UNL A   1      34.409  22.236  25.310  1.00  0.00     0.014 A 
ATOM     18  C   UNL A   1      32.473  20.348  24.466  1.00  0.00     0.093 A 
ATOM     19  C   UNL A   1      34.176  21.065  26.046  1.00  0.00     0.047 A 
ATOM     20  C   UNL A   1      33.201  20.146  25.629  1.00  0.00     0.119 A 
BRANCH  12  21
ATOM     21  O   UNL A   1      34.995  23.895  22.752  1.00  0.00    -0.381 OA
ATOM     22  H   UNL A   1      35.418  24.491  23.391  1.00  0.00     0.212 HD
ENDBRANCH  12  21
BRANCH  20  23
ATOM     23  O   UNL A   1      32.939  19.017  26.348  1.00  0.00    -0.508 OA
ATOM     24  H   UNL A   1      33.095  18.174  25.969  1.00  0.00     0.293 HD
ENDBRANCH  20  23
ENDBRANCH   7  12
ENDBRANCH   4   7
ENDBRANCH   2   3
ENDBRANCH   1   2
BRANCH   1  25
ATOM     25  C   UNL A   1      33.043  28.990  24.294  1.00  0.00     0.023 C 
BRANCH  25  26
ATOM     26  C   UNL A   1      32.907  29.149  25.797  1.00  0.00     0.116 C 
BRANCH  26  27
ATOM     27  N   UNL A   1      32.548  30.501  26.205  1.00  0.00    -0.352 N 
ATOM     28  C   UNL A   1      33.259  31.338  27.035  1.00  0.00     0.251 C 
ATOM     29  H   UNL A   1      31.703  30.855  25.846  1.00  0.00     0.163 HD
ATOM     30  O   UNL A   1      32.810  32.423  27.375  1.00  0.00    -0.269 OA
BRANCH  28  31
ATOM     31  C   UNL A   1      34.563  30.863  27.539  1.00  0.00     0.039 A 
ATOM     32  C   UNL A   1      35.599  31.783  27.710  1.00  0.00     0.014 A 
ATOM     33  C   UNL A   1      34.705  29.537  27.953  1.00  0.00     0.014 A 
ATOM     34  C   UNL A   1      36.762  31.383  28.367  1.00  0.00     0.010 A 
ATOM     35  C   UNL A   1      35.826  29.167  28.681  1.00  0.00     0.010 A 
ATOM     36  C   UNL A   1      36.867  30.084  28.891  1.00  0.00    -0.014 A 
BRANCH  36  37
ATOM     37  C   UNL A   1      38.060  29.652  29.660  1.00  0.00     0.031 A 
ATOM     38  C   UNL A   1      38.300  30.212  31.035  1.00  0.00     0.074 A 
ATOM     39  C   UNL A   1      38.973  28.845  29.085  1.00  0.00     0.049 A 
ATOM     40  N   UNL A   1      39.317  30.027  31.834  1.00  0.00    -0.248 NA
ATOM     41  C   UNL A   1      37.280  31.133  31.566  1.00  0.00     0.031 C 
ATOM     42  C   UNL A   1      38.898  28.315  27.720  1.00  0.00     0.029 A 
ATOM     43  N   UNL A   1      40.159  28.352  29.567  1.00  0.00    -0.354 N 
ATOM     44  C   UNL A   1      39.082  30.839  32.937  1.00  0.00     0.074 A 
ATOM     45  C   UNL A   1      37.848  31.550  32.687  1.00  0.00     0.031 C 
ATOM     46  C   UNL A   1      39.983  27.561  27.482  1.00  0.00     0.029 A 
ATOM     47  C   UNL A   1      40.841  27.570  28.663  1.00  0.00     0.049 A 
ATOM     48  H   UNL A   1      40.490  28.538  30.475  1.00  0.00     0.167 HD
ATOM     49  C   UNL A   1      39.806  30.952  34.075  1.00  0.00     0.034 A 
ATOM     50  C   UNL A   1      42.020  26.930  28.779  1.00  0.00     0.034 A 
ATOM     51  C   UNL A   1      40.990  30.188  34.349  1.00  0.00     0.049 A 
ATOM     52  C   UNL A   1      42.765  27.009  30.085  1.00  0.00     0.074 A 
ATOM     53  C   UNL A   1      41.742  30.151  35.509  1.00  0.00     0.029 A 
ATOM     54  N   UNL A   1      41.590  29.316  33.453  1.00  0.00    -0.354 N 
ATOM     55  N   UNL A   1      42.441  27.653  31.181  1.00  0.00    -0.248 NA
ATOM     56  C   UNL A   1      44.016  26.242  30.186  1.00  0.00     0.031 C 
ATOM     57  C   UNL A   1      42.799  29.256  35.313  1.00  0.00     0.029 A 
ATOM     58  C   UNL A   1      42.701  28.732  34.034  1.00  0.00     0.049 A 
ATOM     59  H   UNL A   1      41.272  29.140  32.538  1.00  0.00     0.167 HD
ATOM     60  C   UNL A   1      43.427  27.342  32.111  1.00  0.00     0.074 A 
ATOM     61  C   UNL A   1      44.348  26.436  31.455  1.00  0.00     0.031 C 
ATOM     62  C   UNL A   1      43.568  27.782  33.385  1.00  0.00     0.034 A 
BRANCH  49  63
ATOM     63  C   UNL A   1      39.284  31.882  35.138  1.00  0.00     0.023 A 
ATOM     64  C   UNL A   1      38.233  31.450  35.974  1.00  0.00     0.012 A 
ATOM     65  C   UNL A   1      39.846  33.156  35.336  1.00  0.00     0.148 A 
ATOM     66  C   UNL A   1      37.723  32.287  36.964  1.00  0.00     0.002 A 
ATOM     67  C   UNL A   1      39.359  33.970  36.353  1.00  0.00     0.091 A 
ATOM     68  F   UNL A   1      40.825  33.561  34.515  1.00  0.00    -0.205 F 
ATOM     69  C   UNL A   1      38.292  33.542  37.161  1.00  0.00     0.022 A 
BRANCH  67  70
ATOM     70  S   UNL A   1      40.074  35.575  36.730  1.00  0.00     0.127 S 
ATOM     71  O   UNL A   1      39.497  35.854  38.044  1.00  0.00    -0.237 OA
ATOM     72  O   UNL A   1      41.507  35.282  36.744  1.00  0.00    -0.237 OA
ATOM     73  O   UNL A   1      39.649  36.461  35.656  1.00  0.00    -0.744 OA
ENDBRANCH  67  70
ENDBRANCH  49  63
BRANCH  50  74
ATOM     74  C   UNL A   1      42.518  26.076  27.663  1.00  0.00     0.023 A 
ATOM     75  C   UNL A   1      43.470  26.604  26.770  1.00  0.00     0.012 A 
ATOM     76  C   UNL A   1      42.088  24.746  27.500  1.00  0.00     0.148 A 
ATOM     77  C   UNL A   1      43.965  25.834  25.717  1.00  0.00     0.002 A 
ATOM     78  C   UNL A   1      42.621  23.967  26.477  1.00  0.00     0.091 A 
ATOM     79  F   UNL A   1      41.169  24.265  28.350  1.00  0.00    -0.205 F 
ATOM     80  C   UNL A   1      43.548  24.513  25.576  1.00  0.00     0.022 A 
BRANCH  78  81
ATOM     81  S   UNL A   1      42.234  22.222  26.301  1.00  0.00     0.127 S 
ATOM     82  O   UNL A   1      40.797  22.257  26.047  1.00  0.00    -0.237 OA
ATOM     83  O   UNL A   1      43.054  21.842  25.149  1.00  0.00    -0.237 OA
ATOM     84  O   UNL A   1      42.646  21.606  27.555  1.00  0.00    -0.744 OA
ENDBRANCH  78  81
ENDBRANCH  50  74
BRANCH  62  85
ATOM     85  C   UNL A   1      44.743  27.270  34.174  1.00  0.00     0.023 A 
ATOM     86  C   UNL A   1      45.927  28.031  34.228  1.00  0.00     0.012 A 
ATOM     87  C   UNL A   1      44.643  26.087  34.931  1.00  0.00     0.148 A 
ATOM     88  C   UNL A   1      47.004  27.608  35.005  1.00  0.00     0.002 A 
ATOM     89  C   UNL A   1      45.704  25.695  35.738  1.00  0.00     0.091 A 
ATOM     90  F   UNL A   1      43.514  25.367  34.848  1.00  0.00    -0.205 F 
ATOM     91  C   UNL A   1      46.888  26.449  35.770  1.00  0.00     0.022 A 
BRANCH  89  92
ATOM     92  S   UNL A   1      45.603  24.268  36.824  1.00  0.00     0.127 S 
ATOM     93  O   UNL A   1      46.965  24.194  37.348  1.00  0.00    -0.237 OA
ATOM     94  O   UNL A   1      44.595  24.686  37.799  1.00  0.00    -0.237 OA
ATOM     95  O   UNL A   1      45.193  23.154  35.978  1.00  0.00    -0.744 OA
ENDBRANCH  89  92
ENDBRANCH  62  85
ENDBRANCH  36  37
ENDBRANCH  28  31
ENDBRANCH  26  27
ENDBRANCH  25  26
ENDBRANCH   1  25
TORSDOF 20
ENDMDL
MODEL 3
REMARK VINA RESULT:     -11.6      1.294      7.765
REMARK SMILES CCCC[C@@H](C(=O)NCCCCNC(=O)c1ccc(-c2c3nc(c(-c4cccc(S(=O)(=O)[O-])c4F)c4ccc([nH]4)c(-c4cccc(S(=O)(=O)[O-])c4F)c4nc(c(-c5cccc(S(=O)(=O)[O-])c5F)c5ccc2[nH]5)C=C4)C=C3)cc1)[C@]1(O)COc2cc(O)ccc21
REMARK SMILES IDX 10 1 9 2 8 3 6 4 7 5 5 7 4 8 3 9 2 10 1 11 79 12 81 13 89 14
REMARK SMILES IDX 82 15 83 16 88 17 84 18 87 19 85 20 80 21 86 23 11 25 12 26
REMARK SMILES IDX 13 27 14 28 15 30 16 31 17 32 78 33 18 34 77 35 19 36 20 37
REMARK SMILES IDX 21 38 71 39 22 40 76 41 70 42 72 43 23 44 75 45 69 46 68 47
REMARK SMILES IDX 24 49 56 50 36 51 55 52 37 53 40 54 54 55 73 56 38 57 39 58
REMARK SMILES IDX 53 60 74 61 41 62 25 63 26 64 34 65 27 66 29 67 35 68 28 69
REMARK SMILES IDX 30 70 31 71 32 72 33 73 57 74 58 75 66 76 59 77 61 78 67 79
REMARK SMILES IDX 60 80 62 81 63 82 64 83 65 84 42 85 43 86 51 87 44 88 46 89
REMARK SMILES IDX 52 90 45 91 47 92 48 93 49 94 50 95
REMARK H PARENT 8 6 80 22 86 24 13 29 72 48 40 59
REMARK Flexibility Score: inf
ROOT
ATOM      1  C   UNL A   1      33.323  29.009  23.447  1.00  0.00     0.023 C 
ENDROOT
BRANCH   1   2
ATOM      2  C   UNL A   1      34.046  27.659  23.353  1.00  0.00     0.116 C 
BRANCH   2   3
ATOM      3  N   UNL A   1      33.190  26.701  22.680  1.00  0.00    -0.356 N 
ATOM      4  C   UNL A   1      33.498  25.390  22.434  1.00  0.00     0.226 C 
ATOM      5  O   UNL A   1      33.223  24.928  21.330  1.00  0.00    -0.275 OA
ATOM      6  H   UNL A   1      32.312  27.022  22.373  1.00  0.00     0.163 HD
BRANCH   4   7
ATOM      7  C   UNL A   1      34.125  24.548  23.544  1.00  0.00     0.118 C 
BRANCH   7   8
ATOM      8  C   UNL A   1      34.869  23.307  22.978  1.00  0.00     0.017 C 
BRANCH   8   9
ATOM      9  C   UNL A   1      36.345  23.107  23.331  1.00  0.00     0.001 C 
BRANCH   9  10
ATOM     10  C   UNL A   1      36.701  23.222  24.812  1.00  0.00    -0.003 C 
ATOM     11  C   UNL A   1      36.991  21.866  25.437  1.00  0.00     0.004 C 
ENDBRANCH   9  10
ENDBRANCH   8   9
ENDBRANCH   7   8
BRANCH   7  12
ATOM     12  C   UNL A   1      33.027  24.108  24.576  1.00  0.00     0.139 C 
ATOM     13  C   UNL A   1      33.222  24.601  26.038  1.00  0.00     0.270 C 
ATOM     14  C   UNL A   1      32.905  22.644  24.882  1.00  0.00     0.030 A 
ATOM     15  O   UNL A   1      33.750  23.535  26.851  1.00  0.00    -0.490 OA
ATOM     16  C   UNL A   1      33.375  22.407  26.172  1.00  0.00     0.129 A 
ATOM     17  C   UNL A   1      32.445  21.587  24.109  1.00  0.00     0.014 A 
ATOM     18  C   UNL A   1      33.469  21.142  26.711  1.00  0.00     0.093 A 
ATOM     19  C   UNL A   1      32.495  20.295  24.652  1.00  0.00     0.047 A 
ATOM     20  C   UNL A   1      33.021  20.083  25.935  1.00  0.00     0.119 A 
BRANCH  12  21
ATOM     21  O   UNL A   1      31.770  24.617  24.084  1.00  0.00    -0.381 OA
ATOM     22  H   UNL A   1      31.403  25.248  24.723  1.00  0.00     0.212 HD
ENDBRANCH  12  21
BRANCH  20  23
ATOM     23  O   UNL A   1      33.105  18.830  26.468  1.00  0.00    -0.508 OA
ATOM     24  H   UNL A   1      32.599  18.132  26.103  1.00  0.00     0.293 HD
ENDBRANCH  20  23
ENDBRANCH   7  12
ENDBRANCH   4   7
ENDBRANCH   2   3
ENDBRANCH   1   2
BRANCH   1  25
ATOM     25  C   UNL A   1      32.369  29.144  24.627  1.00  0.00     0.023 C 
BRANCH  25  26
ATOM     26  C   UNL A   1      33.044  29.485  25.942  1.00  0.00     0.116 C 
BRANCH  26  27
ATOM     27  N   UNL A   1      32.696  30.809  26.443  1.00  0.00    -0.352 N 
ATOM     28  C   UNL A   1      33.426  31.592  27.308  1.00  0.00     0.251 C 
ATOM     29  H   UNL A   1      31.842  31.184  26.128  1.00  0.00     0.163 HD
ATOM     30  O   UNL A   1      32.985  32.652  27.727  1.00  0.00    -0.269 OA
BRANCH  28  31
ATOM     31  C   UNL A   1      34.741  31.087  27.750  1.00  0.00     0.039 A 
ATOM     32  C   UNL A   1      35.799  31.988  27.893  1.00  0.00     0.014 A 
ATOM     33  C   UNL A   1      34.879  29.752  28.136  1.00  0.00     0.014 A 
ATOM     34  C   UNL A   1      36.981  31.558  28.495  1.00  0.00     0.010 A 
ATOM     35  C   UNL A   1      36.022  29.352  28.811  1.00  0.00     0.010 A 
ATOM     36  C   UNL A   1      37.086  30.249  28.993  1.00  0.00    -0.014 A 
BRANCH  36  37
ATOM     37  C   UNL A   1      38.302  29.785  29.704  1.00  0.00     0.031 A 
ATOM     38  C   UNL A   1      38.617  30.330  31.070  1.00  0.00     0.074 A 
ATOM     39  C   UNL A   1      39.169  28.962  29.084  1.00  0.00     0.049 A 
ATOM     40  N   UNL A   1      39.665  30.117  31.821  1.00  0.00    -0.248 NA
ATOM     41  C   UNL A   1      37.644  31.271  31.652  1.00  0.00     0.031 C 
ATOM     42  C   UNL A   1      39.020  28.442  27.721  1.00  0.00     0.029 A 
ATOM     43  N   UNL A   1      40.364  28.438  29.508  1.00  0.00    -0.354 N 
ATOM     44  C   UNL A   1      39.498  30.927  32.938  1.00  0.00     0.074 A 
ATOM     45  C   UNL A   1      38.271  31.667  32.748  1.00  0.00     0.031 C 
ATOM     46  C   UNL A   1      40.076  27.665  27.429  1.00  0.00     0.029 A 
ATOM     47  C   UNL A   1      40.986  27.647  28.570  1.00  0.00     0.049 A 
ATOM     48  H   UNL A   1      40.740  28.611  30.402  1.00  0.00     0.167 HD
ATOM     49  C   UNL A   1      40.275  31.016  34.042  1.00  0.00     0.034 A 
ATOM     50  C   UNL A   1      42.155  26.980  28.629  1.00  0.00     0.034 A 
ATOM     51  C   UNL A   1      41.453  30.223  34.258  1.00  0.00     0.049 A 
ATOM     52  C   UNL A   1      42.959  27.032  29.901  1.00  0.00     0.074 A 
ATOM     53  C   UNL A   1      42.256  30.161  35.383  1.00  0.00     0.029 A 
ATOM     54  N   UNL A   1      41.992  29.344  33.331  1.00  0.00    -0.354 N 
ATOM     55  N   UNL A   1      42.700  27.677  31.013  1.00  0.00    -0.248 NA
ATOM     56  C   UNL A   1      44.195  26.238  29.940  1.00  0.00     0.031 C 
ATOM     57  C   UNL A   1      43.282  29.244  35.134  1.00  0.00     0.029 A 
ATOM     58  C   UNL A   1      43.114  28.731  33.857  1.00  0.00     0.049 A 
ATOM     59  H   UNL A   1      41.628  29.181  32.431  1.00  0.00     0.167 HD
ATOM     60  C   UNL A   1      43.720  27.338  31.896  1.00  0.00     0.074 A 
ATOM     61  C   UNL A   1      44.589  26.415  31.194  1.00  0.00     0.031 C 
ATOM     62  C   UNL A   1      43.928  27.766  33.164  1.00  0.00     0.034 A 
BRANCH  49  63
ATOM     63  C   UNL A   1      39.824  31.950  35.133  1.00  0.00     0.023 A 
ATOM     64  C   UNL A   1      40.207  33.307  35.079  1.00  0.00     0.012 A 
ATOM     65  C   UNL A   1      39.002  31.505  36.185  1.00  0.00     0.148 A 
ATOM     66  C   UNL A   1      39.811  34.197  36.075  1.00  0.00     0.002 A 
ATOM     67  C   UNL A   1      38.577  32.408  37.153  1.00  0.00     0.091 A 
ATOM     68  F   UNL A   1      38.671  30.207  36.236  1.00  0.00    -0.205 F 
ATOM     69  C   UNL A   1      38.989  33.751  37.106  1.00  0.00     0.022 A 
BRANCH  67  70
ATOM     70  S   UNL A   1      37.459  31.944  38.481  1.00  0.00     0.127 S 
ATOM     71  O   UNL A   1      38.286  32.186  39.661  1.00  0.00    -0.237 OA
ATOM     72  O   UNL A   1      36.357  32.890  38.305  1.00  0.00    -0.237 OA
ATOM     73  O   UNL A   1      37.106  30.553  38.234  1.00  0.00    -0.744 OA
ENDBRANCH  67  70
ENDBRANCH  49  63
BRANCH  50  74
ATOM     74  C   UNL A   1      42.582  26.121  27.487  1.00  0.00     0.023 A 
ATOM     75  C   UNL A   1      43.441  26.661  26.510  1.00  0.00     0.012 A 
ATOM     76  C   UNL A   1      42.177  24.778  27.378  1.00  0.00     0.148 A 
ATOM     77  C   UNL A   1      43.867  25.888  25.430  1.00  0.00     0.002 A 
ATOM     78  C   UNL A   1      42.645  23.998  26.325  1.00  0.00     0.091 A 
ATOM     79  F   UNL A   1      41.346  24.286  28.309  1.00  0.00    -0.205 F 
ATOM     80  C   UNL A   1      43.478  24.554  25.343  1.00  0.00     0.022 A 
BRANCH  78  81
ATOM     81  S   UNL A   1      42.294  22.240  26.205  1.00  0.00     0.127 S 
ATOM     82  O   UNL A   1      40.846  22.235  26.015  1.00  0.00    -0.237 OA
ATOM     83  O   UNL A   1      43.071  21.853  25.027  1.00  0.00    -0.237 OA
ATOM     84  O   UNL A   1      42.776  21.664  27.454  1.00  0.00    -0.744 OA
ENDBRANCH  78  81
ENDBRANCH  50  74
BRANCH  62  85
ATOM     85  C   UNL A   1      45.126  27.222  33.897  1.00  0.00     0.023 A 
ATOM     86  C   UNL A   1      46.347  27.922  33.845  1.00  0.00     0.012 A 
ATOM     87  C   UNL A   1      45.017  26.074  34.704  1.00  0.00     0.148 A 
ATOM     88  C   UNL A   1      47.451  27.472  34.568  1.00  0.00     0.002 A 
ATOM     89  C   UNL A   1      46.108  25.656  35.457  1.00  0.00     0.091 A 
ATOM     90  F   UNL A   1      43.851  25.411  34.722  1.00  0.00    -0.205 F 
ATOM     91  C   UNL A   1      47.328  26.349  35.383  1.00  0.00     0.022 A 
BRANCH  89  92
ATOM     92  S   UNL A   1      46.008  24.276  36.602  1.00  0.00     0.127 S 
ATOM     93  O   UNL A   1      47.246  24.430  37.364  1.00  0.00    -0.237 OA
ATOM     94  O   UNL A   1      44.789  24.578  37.352  1.00  0.00    -0.237 OA
ATOM     95  O   UNL A   1      45.922  23.080  35.775  1.00  0.00    -0.744 OA
ENDBRANCH  89  92
ENDBRANCH  62  85
ENDBRANCH  36  37
ENDBRANCH  28  31
ENDBRANCH  26  27
ENDBRANCH  25  26
ENDBRANCH   1  25
TORSDOF 20
ENDMDL
