MODEL 1
REMARK VINA RESULT:     -13.0      0.000      0.000
REMARK SMILES CC1(C)CCCC[C@@H]1NC(=O)NC1(C(=O)NCCCCNC(=O)c2ccc(-c3c4nc(c(-c5cccc(S(=O)(=O)[O-])c5F)c5ccc([nH]5)c(-c5cccc(S(=O)(=O)[O-])c5F)c5nc(c(-c6cccc(S(=O)(=O)[O-])c6F)c6ccc3[nH]6)C=C5)C=C4)cc2)CCCCC1
REMARK SMILES IDX 19 1 18 2 17 3 16 4 14 5 15 6 13 8 87 9 91 10 88 11 90 12
REMARK SMILES IDX 89 13 12 14 9 15 10 16 11 18 8 20 1 21 2 22 3 23 4 24 5 25
REMARK SMILES IDX 7 26 6 27 20 28 21 29 22 30 23 32 24 33 25 34 86 35 26 36
REMARK SMILES IDX 85 37 27 38 28 39 29 40 79 41 30 42 84 43 78 44 80 45 31 46
REMARK SMILES IDX 83 47 77 48 76 49 32 51 64 52 44 53 63 54 45 55 48 56 62 57
REMARK SMILES IDX 81 58 46 59 47 60 61 62 82 63 49 64 33 65 34 66 42 67 35 68
REMARK SMILES IDX 37 69 43 70 36 71 38 72 39 73 40 74 41 75 65 76 66 77 74 78
REMARK SMILES IDX 67 79 69 80 75 81 68 82 70 83 71 84 72 85 73 86 50 87 51 88
REMARK SMILES IDX 59 89 52 90 54 91 60 92 53 93 55 94 56 95 57 96 58 97
REMARK H PARENT 16 7 9 17 12 19 21 31 80 50 48 61
REMARK Flexibility Score: inf
ROOT
ATOM      1  C   UNL A   1      36.613  21.647  24.396  1.00  0.00     0.023 C 
ENDROOT
BRANCH   1   2
ATOM      2  C   UNL A   1      36.588  22.873  23.474  1.00  0.00     0.023 C 
BRANCH   2   3
ATOM      3  C   UNL A   1      35.210  23.346  22.975  1.00  0.00     0.116 C 
BRANCH   3   4
ATOM      4  N   UNL A   1      34.530  24.287  23.848  1.00  0.00    -0.354 N 
ATOM      5  C   UNL A   1      33.162  24.199  23.937  1.00  0.00     0.245 C 
ATOM      6  O   UNL A   1      32.530  24.535  22.933  1.00  0.00    -0.272 OA
ATOM      7  H   UNL A   1      35.032  24.964  24.358  1.00  0.00     0.163 HD
BRANCH   5   8
ATOM      8  C   UNL A   1      32.527  23.366  25.110  1.00  0.00     0.120 C 
ATOM      9  C   UNL A   1      33.380  23.446  26.407  1.00  0.00     0.039 C 
ATOM     10  C   UNL A   1      32.564  21.945  24.443  1.00  0.00     0.039 C 
ATOM     11  C   UNL A   1      33.349  22.179  27.264  1.00  0.00     0.003 C 
ATOM     12  C   UNL A   1      32.599  20.754  25.378  1.00  0.00     0.003 C 
ATOM     13  C   UNL A   1      33.667  20.945  26.436  1.00  0.00     0.000 C 
BRANCH   8  14
ATOM     14  N   UNL A   1      31.076  23.574  25.485  1.00  0.00    -0.324 N 
ATOM     15  N   UNL A   1      30.421  25.572  26.558  1.00  0.00    -0.335 N 
ATOM     16  C   UNL A   1      30.455  24.216  26.504  1.00  0.00     0.315 C 
ATOM     17  H   UNL A   1      30.010  25.973  27.358  1.00  0.00     0.165 HD
ATOM     18  O   UNL A   1      29.726  23.569  27.258  1.00  0.00    -0.249 OA
ATOM     19  H   UNL A   1      30.449  23.153  24.854  1.00  0.00     0.166 HD
BRANCH  15  20
ATOM     20  C   UNL A   1      30.931  26.498  25.553  1.00  0.00     0.089 C 
ATOM     21  C   UNL A   1      33.269  27.479  25.770  1.00  0.00     0.013 C 
ATOM     22  C   UNL A   1      31.750  27.754  26.018  1.00  0.00    -0.015 C 
ATOM     23  C   UNL A   1      31.612  28.059  27.516  1.00  0.00     0.013 C 
ATOM     24  C   UNL A   1      31.373  29.018  25.211  1.00  0.00     0.008 C 
ATOM     25  C   UNL A   1      31.193  28.735  23.726  1.00  0.00     0.001 C 
ATOM     26  C   UNL A   1      29.885  26.679  24.427  1.00  0.00     0.025 C 
ATOM     27  C   UNL A   1      29.951  27.900  23.527  1.00  0.00     0.002 C 
ENDBRANCH  15  20
ENDBRANCH   8  14
ENDBRANCH   5   8
ENDBRANCH   3   4
ENDBRANCH   2   3
ENDBRANCH   1   2
BRANCH   1  28
ATOM     28  C   UNL A   1      37.285  21.849  25.742  1.00  0.00     0.116 C 
BRANCH  28  29
ATOM     29  N   UNL A   1      38.379  20.919  25.962  1.00  0.00    -0.352 N 
ATOM     30  C   UNL A   1      39.647  21.149  26.413  1.00  0.00     0.251 C 
ATOM     31  H   UNL A   1      38.175  19.978  25.754  1.00  0.00     0.163 HD
ATOM     32  O   UNL A   1      40.457  20.222  26.438  1.00  0.00    -0.269 OA
BRANCH  30  33
ATOM     33  C   UNL A   1      40.053  22.505  26.820  1.00  0.00     0.039 A 
ATOM     34  C   UNL A   1      40.994  22.627  27.844  1.00  0.00     0.014 A 
ATOM     35  C   UNL A   1      39.530  23.641  26.196  1.00  0.00     0.014 A 
ATOM     36  C   UNL A   1      41.446  23.891  28.214  1.00  0.00     0.010 A 
ATOM     37  C   UNL A   1      40.042  24.894  26.511  1.00  0.00     0.010 A 
ATOM     38  C   UNL A   1      40.995  25.032  27.531  1.00  0.00    -0.014 A 
BRANCH  38  39
ATOM     39  C   UNL A   1      41.514  26.376  27.879  1.00  0.00     0.031 A 
ATOM     40  C   UNL A   1      42.928  26.752  27.531  1.00  0.00     0.074 A 
ATOM     41  C   UNL A   1      40.727  27.234  28.555  1.00  0.00     0.049 A 
ATOM     42  N   UNL A   1      43.562  27.871  27.763  1.00  0.00    -0.248 NA
ATOM     43  C   UNL A   1      43.741  25.730  26.854  1.00  0.00     0.031 C 
ATOM     44  C   UNL A   1      39.360  26.955  29.001  1.00  0.00     0.029 A 
ATOM     45  N   UNL A   1      40.967  28.509  28.999  1.00  0.00    -0.354 N 
ATOM     46  C   UNL A   1      44.854  27.678  27.289  1.00  0.00     0.074 A 
ATOM     47  C   UNL A   1      44.926  26.320  26.798  1.00  0.00     0.031 C 
ATOM     48  C   UNL A   1      38.875  28.036  29.633  1.00  0.00     0.029 A 
ATOM     49  C   UNL A   1      39.906  29.067  29.671  1.00  0.00     0.049 A 
ATOM     50  H   UNL A   1      41.819  28.980  28.850  1.00  0.00     0.167 HD
ATOM     51  C   UNL A   1      45.878  28.563  27.234  1.00  0.00     0.034 A 
ATOM     52  C   UNL A   1      39.781  30.276  30.253  1.00  0.00     0.034 A 
ATOM     53  C   UNL A   1      45.791  29.919  27.707  1.00  0.00     0.049 A 
ATOM     54  C   UNL A   1      40.934  31.239  30.183  1.00  0.00     0.074 A 
ATOM     55  C   UNL A   1      46.747  30.916  27.643  1.00  0.00     0.029 A 
ATOM     56  N   UNL A   1      44.687  30.464  28.345  1.00  0.00    -0.354 N 
ATOM     57  N   UNL A   1      42.101  31.089  29.605  1.00  0.00    -0.248 NA
ATOM     58  C   UNL A   1      40.740  32.549  30.818  1.00  0.00     0.031 C 
ATOM     59  C   UNL A   1      46.233  32.054  28.274  1.00  0.00     0.029 A 
ATOM     60  C   UNL A   1      44.941  31.779  28.694  1.00  0.00     0.049 A 
ATOM     61  H   UNL A   1      43.845  29.985  28.523  1.00  0.00     0.167 HD
ATOM     62  C   UNL A   1      42.766  32.298  29.769  1.00  0.00     0.074 A 
ATOM     63  C   UNL A   1      41.862  33.175  30.488  1.00  0.00     0.031 C 
ATOM     64  C   UNL A   1      44.013  32.651  29.370  1.00  0.00     0.034 A 
BRANCH  51  65
ATOM     65  C   UNL A   1      47.168  28.092  26.609  1.00  0.00     0.023 A 
ATOM     66  C   UNL A   1      48.254  27.733  27.435  1.00  0.00     0.012 A 
ATOM     67  C   UNL A   1      47.303  27.985  25.212  1.00  0.00     0.148 A 
ATOM     68  C   UNL A   1      49.467  27.328  26.882  1.00  0.00     0.002 A 
ATOM     69  C   UNL A   1      48.499  27.530  24.669  1.00  0.00     0.091 A 
ATOM     70  F   UNL A   1      46.269  28.349  24.439  1.00  0.00    -0.205 F 
ATOM     71  C   UNL A   1      49.586  27.218  25.500  1.00  0.00     0.022 A 
BRANCH  69  72
ATOM     72  S   UNL A   1      48.726  27.276  22.905  1.00  0.00     0.127 S 
ATOM     73  O   UNL A   1      48.257  25.899  22.744  1.00  0.00    -0.237 OA
ATOM     74  O   UNL A   1      47.842  28.291  22.332  1.00  0.00    -0.237 OA
ATOM     75  O   UNL A   1      50.143  27.490  22.647  1.00  0.00    -0.744 OA
ENDBRANCH  69  72
ENDBRANCH  51  65
BRANCH  52  76
ATOM     76  C   UNL A   1      38.490  30.668  30.885  1.00  0.00     0.023 A 
ATOM     77  C   UNL A   1      38.264  30.354  32.240  1.00  0.00     0.012 A 
ATOM     78  C   UNL A   1      37.502  31.370  30.169  1.00  0.00     0.148 A 
ATOM     79  C   UNL A   1      37.065  30.705  32.862  1.00  0.00     0.002 A 
ATOM     80  C   UNL A   1      36.331  31.763  30.808  1.00  0.00     0.091 A 
ATOM     81  F   UNL A   1      37.735  31.654  28.879  1.00  0.00    -0.205 F 
ATOM     82  C   UNL A   1      36.104  31.416  32.149  1.00  0.00     0.022 A 
BRANCH  80  83
ATOM     83  S   UNL A   1      35.089  32.786  30.011  1.00  0.00     0.127 S 
ATOM     84  O   UNL A   1      34.593  31.894  28.965  1.00  0.00    -0.237 OA
ATOM     85  O   UNL A   1      34.153  33.030  31.109  1.00  0.00    -0.237 OA
ATOM     86  O   UNL A   1      35.794  33.973  29.544  1.00  0.00    -0.744 OA
ENDBRANCH  80  83
ENDBRANCH  52  76
BRANCH  64  87
ATOM     87  C   UNL A   1      44.466  34.059  29.660  1.00  0.00     0.023 A 
ATOM     88  C   UNL A   1      45.094  34.361  30.885  1.00  0.00     0.012 A 
ATOM     89  C   UNL A   1      44.330  35.068  28.686  1.00  0.00     0.148 A 
ATOM     90  C   UNL A   1      45.545  35.654  31.150  1.00  0.00     0.002 A 
ATOM     91  C   UNL A   1      44.831  36.340  28.936  1.00  0.00     0.091 A 
ATOM     92  F   UNL A   1      43.714  34.765  27.534  1.00  0.00    -0.205 F 
ATOM     93  C   UNL A   1      45.425  36.638  30.172  1.00  0.00     0.022 A 
BRANCH  91  94
ATOM     94  S   UNL A   1      44.813  37.642  27.699  1.00  0.00     0.127 S 
ATOM     95  O   UNL A   1      45.309  38.785  28.465  1.00  0.00    -0.237 OA
ATOM     96  O   UNL A   1      45.746  37.128  26.697  1.00  0.00    -0.237 OA
ATOM     97  O   UNL A   1      43.434  37.750  27.246  1.00  0.00    -0.744 OA
ENDBRANCH  91  94
ENDBRANCH  64  87
ENDBRANCH  38  39
ENDBRANCH  30  33
ENDBRANCH  28  29
ENDBRANCH   1  28
TORSDOF 16
ENDMDL
MODEL 2
REMARK VINA RESULT:     -12.8      4.975     10.183
REMARK SMILES CC1(C)CCCC[C@@H]1NC(=O)NC1(C(=O)NCCCCNC(=O)c2ccc(-c3c4nc(c(-c5cccc(S(=O)(=O)[O-])c5F)c5ccc([nH]5)c(-c5cccc(S(=O)(=O)[O-])c5F)c5nc(c(-c6cccc(S(=O)(=O)[O-])c6F)c6ccc3[nH]6)C=C5)C=C4)cc2)CCCCC1
REMARK SMILES IDX 19 1 18 2 17 3 16 4 14 5 15 6 13 8 87 9 91 10 88 11 90 12
REMARK SMILES IDX 89 13 12 14 9 15 10 16 11 18 8 20 1 21 2 22 3 23 4 24 5 25
REMARK SMILES IDX 7 26 6 27 20 28 21 29 22 30 23 32 24 33 25 34 86 35 26 36
REMARK SMILES IDX 85 37 27 38 28 39 29 40 79 41 30 42 84 43 78 44 80 45 31 46
REMARK SMILES IDX 83 47 77 48 76 49 32 51 64 52 44 53 63 54 45 55 48 56 62 57
REMARK SMILES IDX 81 58 46 59 47 60 61 62 82 63 49 64 33 65 34 66 42 67 35 68
REMARK SMILES IDX 37 69 43 70 36 71 38 72 39 73 40 74 41 75 65 76 66 77 74 78
REMARK SMILES IDX 67 79 69 80 75 81 68 82 70 83 71 84 72 85 73 86 50 87 51 88
REMARK SMILES IDX 59 89 52 90 54 91 60 92 53 93 55 94 56 95 57 96 58 97
REMARK H PARENT 16 7 9 17 12 19 21 31 80 50 48 61
REMARK Flexibility Score: inf
ROOT
ATOM      1  C   UNL A   1      31.636  29.200  26.329  1.00  0.00     0.023 C 
ENDROOT
BRANCH   1   2
ATOM      2  C   UNL A   1      31.936  27.975  27.201  1.00  0.00     0.023 C 
BRANCH   2   3
ATOM      3  C   UNL A   1      31.235  26.656  26.823  1.00  0.00     0.116 C 
BRANCH   3   4
ATOM      4  N   UNL A   1      32.067  25.698  26.115  1.00  0.00    -0.354 N 
ATOM      5  C   UNL A   1      31.541  25.103  24.995  1.00  0.00     0.245 C 
ATOM      6  O   UNL A   1      30.623  24.302  25.185  1.00  0.00    -0.272 OA
ATOM      7  H   UNL A   1      32.975  25.483  26.429  1.00  0.00     0.163 HD
BRANCH   5   8
ATOM      8  C   UNL A   1      31.860  25.720  23.584  1.00  0.00     0.120 C 
ATOM      9  C   UNL A   1      33.141  26.601  23.612  1.00  0.00     0.039 C 
ATOM     10  C   UNL A   1      30.548  26.559  23.386  1.00  0.00     0.039 C 
ATOM     11  C   UNL A   1      33.111  27.791  22.650  1.00  0.00     0.003 C 
ATOM     12  C   UNL A   1      30.638  27.759  22.467  1.00  0.00     0.003 C 
ATOM     13  C   UNL A   1      31.841  28.608  22.824  1.00  0.00     0.000 C 
BRANCH   8  14
ATOM     14  N   UNL A   1      31.929  24.825  22.366  1.00  0.00    -0.324 N 
ATOM     15  N   UNL A   1      33.731  23.321  22.120  1.00  0.00    -0.335 N 
ATOM     16  C   UNL A   1      32.949  24.318  21.633  1.00  0.00     0.315 C 
ATOM     17  H   UNL A   1      34.494  23.045  21.562  1.00  0.00     0.165 HD
ATOM     18  O   UNL A   1      33.021  24.604  20.436  1.00  0.00    -0.249 OA
ATOM     19  H   UNL A   1      31.042  24.553  22.035  1.00  0.00     0.166 HD
BRANCH  15  20
ATOM     20  C   UNL A   1      33.561  22.618  23.386  1.00  0.00     0.089 C 
ATOM     21  C   UNL A   1      34.789  23.399  25.473  1.00  0.00     0.013 C 
ATOM     22  C   UNL A   1      34.814  22.369  24.297  1.00  0.00    -0.015 C 
ATOM     23  C   UNL A   1      36.152  22.582  23.574  1.00  0.00     0.013 C 
ATOM     24  C   UNL A   1      34.800  20.955  24.922  1.00  0.00     0.008 C 
ATOM     25  C   UNL A   1      33.417  20.540  25.403  1.00  0.00     0.001 C 
ATOM     26  C   UNL A   1      32.538  21.469  23.214  1.00  0.00     0.025 C 
ATOM     27  C   UNL A   1      32.521  20.321  24.208  1.00  0.00     0.002 C 
ENDBRANCH  15  20
ENDBRANCH   8  14
ENDBRANCH   5   8
ENDBRANCH   3   4
ENDBRANCH   2   3
ENDBRANCH   1   2
BRANCH   1  28
ATOM     28  C   UNL A   1      32.827  30.080  25.997  1.00  0.00     0.116 C 
BRANCH  28  29
ATOM     29  N   UNL A   1      32.642  31.453  26.434  1.00  0.00    -0.352 N 
ATOM     30  C   UNL A   1      33.372  32.199  27.315  1.00  0.00     0.251 C 
ATOM     31  H   UNL A   1      31.871  31.918  26.034  1.00  0.00     0.163 HD
ATOM     32  O   UNL A   1      32.984  33.327  27.620  1.00  0.00    -0.269 OA
BRANCH  30  33
ATOM     33  C   UNL A   1      34.587  31.637  27.930  1.00  0.00     0.039 A 
ATOM     34  C   UNL A   1      35.692  32.476  28.084  1.00  0.00     0.014 A 
ATOM     35  C   UNL A   1      34.637  30.309  28.365  1.00  0.00     0.014 A 
ATOM     36  C   UNL A   1      36.836  31.996  28.715  1.00  0.00     0.010 A 
ATOM     37  C   UNL A   1      35.749  29.858  29.066  1.00  0.00     0.010 A 
ATOM     38  C   UNL A   1      36.863  30.693  29.237  1.00  0.00    -0.014 A 
BRANCH  38  39
ATOM     39  C   UNL A   1      38.056  30.194  29.961  1.00  0.00     0.031 A 
ATOM     40  C   UNL A   1      38.329  30.648  31.368  1.00  0.00     0.074 A 
ATOM     41  C   UNL A   1      38.917  29.373  29.330  1.00  0.00     0.049 A 
ATOM     42  N   UNL A   1      39.323  30.332  32.156  1.00  0.00    -0.248 NA
ATOM     43  C   UNL A   1      37.375  31.600  31.957  1.00  0.00     0.031 C 
ATOM     44  C   UNL A   1      38.787  28.914  27.946  1.00  0.00     0.029 A 
ATOM     45  N   UNL A   1      40.080  28.790  29.765  1.00  0.00    -0.354 N 
ATOM     46  C   UNL A   1      39.130  31.066  33.320  1.00  0.00     0.074 A 
ATOM     47  C   UNL A   1      37.950  31.877  33.117  1.00  0.00     0.031 C 
ATOM     48  C   UNL A   1      39.816  28.103  27.653  1.00  0.00     0.029 A 
ATOM     49  C   UNL A   1      40.696  28.013  28.813  1.00  0.00     0.049 A 
ATOM     50  H   UNL A   1      40.438  28.915  30.674  1.00  0.00     0.167 HD
ATOM     51  C   UNL A   1      39.848  31.040  34.468  1.00  0.00     0.034 A 
ATOM     52  C   UNL A   1      41.843  27.309  28.871  1.00  0.00     0.034 A 
ATOM     53  C   UNL A   1      41.009  30.215  34.668  1.00  0.00     0.049 A 
ATOM     54  C   UNL A   1      42.626  27.301  30.155  1.00  0.00     0.074 A 
ATOM     55  C   UNL A   1      41.774  30.065  35.810  1.00  0.00     0.029 A 
ATOM     56  N   UNL A   1      41.582  29.408  33.695  1.00  0.00    -0.354 N 
ATOM     57  N   UNL A   1      42.351  27.890  31.294  1.00  0.00    -0.248 NA
ATOM     58  C   UNL A   1      43.860  26.504  30.171  1.00  0.00     0.031 C 
ATOM     59  C   UNL A   1      42.830  29.195  35.518  1.00  0.00     0.029 A 
ATOM     60  C   UNL A   1      42.699  28.770  34.205  1.00  0.00     0.049 A 
ATOM     61  H   UNL A   1      41.243  29.305  32.776  1.00  0.00     0.167 HD
ATOM     62  C   UNL A   1      43.354  27.502  32.175  1.00  0.00     0.074 A 
ATOM     63  C   UNL A   1      44.234  26.615  31.440  1.00  0.00     0.031 C 
ATOM     64  C   UNL A   1      43.538  27.854  33.472  1.00  0.00     0.034 A 
BRANCH  51  65
ATOM     65  C   UNL A   1      39.371  31.911  35.604  1.00  0.00     0.023 A 
ATOM     66  C   UNL A   1      38.456  31.392  36.545  1.00  0.00     0.012 A 
ATOM     67  C   UNL A   1      39.838  33.231  35.755  1.00  0.00     0.148 A 
ATOM     68  C   UNL A   1      37.974  32.186  37.583  1.00  0.00     0.002 A 
ATOM     69  C   UNL A   1      39.391  34.000  36.824  1.00  0.00     0.091 A 
ATOM     70  F   UNL A   1      40.691  33.717  34.841  1.00  0.00    -0.205 F 
ATOM     71  C   UNL A   1      38.448  33.486  37.727  1.00  0.00     0.022 A 
BRANCH  69  72
ATOM     72  S   UNL A   1      40.004  35.658  37.144  1.00  0.00     0.127 S 
ATOM     73  O   UNL A   1      39.289  36.003  38.373  1.00  0.00    -0.237 OA
ATOM     74  O   UNL A   1      41.438  35.428  37.318  1.00  0.00    -0.237 OA
ATOM     75  O   UNL A   1      39.654  36.449  35.973  1.00  0.00    -0.744 OA
ENDBRANCH  69  72
ENDBRANCH  51  65
BRANCH  52  76
ATOM     76  C   UNL A   1      42.278  26.496  27.701  1.00  0.00     0.023 A 
ATOM     77  C   UNL A   1      43.089  27.090  26.714  1.00  0.00     0.012 A 
ATOM     78  C   UNL A   1      41.921  25.140  27.572  1.00  0.00     0.148 A 
ATOM     79  C   UNL A   1      43.512  26.357  25.604  1.00  0.00     0.002 A 
ATOM     80  C   UNL A   1      42.389  24.401  26.492  1.00  0.00     0.091 A 
ATOM     81  F   UNL A   1      41.144  24.596  28.520  1.00  0.00    -0.205 F 
ATOM     82  C   UNL A   1      43.170  25.012  25.498  1.00  0.00     0.022 A 
BRANCH  80  83
ATOM     83  S   UNL A   1      42.104  22.635  26.330  1.00  0.00     0.127 S 
ATOM     84  O   UNL A   1      42.645  22.365  25.000  1.00  0.00    -0.237 OA
ATOM     85  O   UNL A   1      42.897  22.102  27.439  1.00  0.00    -0.237 OA
ATOM     86  O   UNL A   1      40.665  22.451  26.474  1.00  0.00    -0.744 OA
ENDBRANCH  80  83
ENDBRANCH  52  76
BRANCH  64  87
ATOM     87  C   UNL A   1      44.710  27.248  34.200  1.00  0.00     0.023 A 
ATOM     88  C   UNL A   1      45.962  27.894  34.185  1.00  0.00     0.012 A 
ATOM     89  C   UNL A   1      44.548  26.070  34.957  1.00  0.00     0.148 A 
ATOM     90  C   UNL A   1      47.044  27.357  34.881  1.00  0.00     0.002 A 
ATOM     91  C   UNL A   1      45.617  25.572  35.693  1.00  0.00     0.091 A 
ATOM     92  F   UNL A   1      43.354  25.462  34.945  1.00  0.00    -0.205 F 
ATOM     93  C   UNL A   1      46.868  26.206  35.644  1.00  0.00     0.022 A 
BRANCH  91  94
ATOM     94  S   UNL A   1      45.457  24.154  36.783  1.00  0.00     0.127 S 
ATOM     95  O   UNL A   1      46.778  24.112  37.410  1.00  0.00    -0.237 OA
ATOM     96  O   UNL A   1      44.373  24.569  37.673  1.00  0.00    -0.237 OA
ATOM     97  O   UNL A   1      45.139  23.020  35.927  1.00  0.00    -0.744 OA
ENDBRANCH  91  94
ENDBRANCH  64  87
ENDBRANCH  38  39
ENDBRANCH  30  33
ENDBRANCH  28  29
ENDBRANCH   1  28
TORSDOF 16
ENDMDL
MODEL 3
REMARK VINA RESULT:     -12.8      0.731      7.464
REMARK SMILES CC1(C)CCCC[C@@H]1NC(=O)NC1(C(=O)NCCCCNC(=O)c2ccc(-c3c4nc(c(-c5cccc(S(=O)(=O)[O-])c5F)c5ccc([nH]5)c(-c5cccc(S(=O)(=O)[O-])c5F)c5nc(c(-c6cccc(S(=O)(=O)[O-])c6F)c6ccc3[nH]6)C=C5)C=C4)cc2)CCCCC1
REMARK SMILES IDX 19 1 18 2 17 3 16 4 14 5 15 6 13 8 87 9 91 10 88 11 90 12
REMARK SMILES IDX 89 13 12 14 9 15 10 16 11 18 8 20 1 21 2 22 3 23 4 24 5 25
REMARK SMILES IDX 7 26 6 27 20 28 21 29 22 30 23 32 24 33 25 34 86 35 26 36
REMARK SMILES IDX 85 37 27 38 28 39 29 40 79 41 30 42 84 43 78 44 80 45 31 46
REMARK SMILES IDX 83 47 77 48 76 49 32 51 64 52 44 53 63 54 45 55 48 56 62 57
REMARK SMILES IDX 81 58 46 59 47 60 61 62 82 63 49 64 33 65 34 66 42 67 35 68
REMARK SMILES IDX 37 69 43 70 36 71 38 72 39 73 40 74 41 75 65 76 66 77 74 78
REMARK SMILES IDX 67 79 69 80 75 81 68 82 70 83 71 84 72 85 73 86 50 87 51 88
REMARK SMILES IDX 59 89 52 90 54 91 60 92 53 93 55 94 56 95 57 96 58 97
REMARK H PARENT 16 7 9 17 12 19 21 31 80 50 48 61
REMARK Flexibility Score: inf
ROOT
ATOM      1  C   UNL A   1      36.171  21.652  24.354  1.00  0.00     0.023 C 
ENDROOT
BRANCH   1   2
ATOM      2  C   UNL A   1      36.295  22.929  23.512  1.00  0.00     0.023 C 
BRANCH   2   3
ATOM      3  C   UNL A   1      35.009  23.461  22.852  1.00  0.00     0.116 C 
BRANCH   3   4
ATOM      4  N   UNL A   1      34.218  24.355  23.680  1.00  0.00    -0.354 N 
ATOM      5  C   UNL A   1      32.861  24.146  23.727  1.00  0.00     0.245 C 
ATOM      6  O   UNL A   1      32.236  24.402  22.695  1.00  0.00    -0.272 OA
ATOM      7  H   UNL A   1      34.640  25.085  24.190  1.00  0.00     0.163 HD
BRANCH   5   8
ATOM      8  C   UNL A   1      32.263  23.284  24.899  1.00  0.00     0.120 C 
ATOM      9  C   UNL A   1      33.210  23.243  26.131  1.00  0.00     0.039 C 
ATOM     10  C   UNL A   1      32.168  21.903  24.156  1.00  0.00     0.039 C 
ATOM     11  C   UNL A   1      33.164  21.933  26.920  1.00  0.00     0.003 C 
ATOM     12  C   UNL A   1      32.200  20.661  25.022  1.00  0.00     0.003 C 
ATOM     13  C   UNL A   1      33.349  20.732  26.006  1.00  0.00     0.000 C 
BRANCH   8  14
ATOM     14  N   UNL A   1      30.857  23.550  25.391  1.00  0.00    -0.324 N 
ATOM     15  N   UNL A   1      30.377  25.565  26.522  1.00  0.00    -0.335 N 
ATOM     16  C   UNL A   1      30.349  24.210  26.460  1.00  0.00     0.315 C 
ATOM     17  H   UNL A   1      30.049  25.976  27.354  1.00  0.00     0.165 HD
ATOM     18  O   UNL A   1      29.656  23.588  27.267  1.00  0.00    -0.249 OA
ATOM     19  H   UNL A   1      30.164  23.160  24.811  1.00  0.00     0.166 HD
BRANCH  15  20
ATOM     20  C   UNL A   1      30.843  26.477  25.484  1.00  0.00     0.089 C 
ATOM     21  C   UNL A   1      33.187  27.463  25.588  1.00  0.00     0.013 C 
ATOM     22  C   UNL A   1      31.678  27.740  25.895  1.00  0.00    -0.015 C 
ATOM     23  C   UNL A   1      31.603  28.067  27.393  1.00  0.00     0.013 C 
ATOM     24  C   UNL A   1      31.266  28.992  25.086  1.00  0.00     0.008 C 
ATOM     25  C   UNL A   1      31.025  28.686  23.614  1.00  0.00     0.001 C 
ATOM     26  C   UNL A   1      29.750  26.640  24.400  1.00  0.00     0.025 C 
ATOM     27  C   UNL A   1      29.777  27.847  23.480  1.00  0.00     0.002 C 
ENDBRANCH  15  20
ENDBRANCH   8  14
ENDBRANCH   5   8
ENDBRANCH   3   4
ENDBRANCH   2   3
ENDBRANCH   1   2
BRANCH   1  28
ATOM     28  C   UNL A   1      36.873  21.680  25.699  1.00  0.00     0.116 C 
BRANCH  28  29
ATOM     29  N   UNL A   1      37.918  20.677  25.800  1.00  0.00    -0.352 N 
ATOM     30  C   UNL A   1      39.234  20.811  26.142  1.00  0.00     0.251 C 
ATOM     31  H   UNL A   1      37.636  19.756  25.590  1.00  0.00     0.163 HD
ATOM     32  O   UNL A   1      39.980  19.834  26.075  1.00  0.00    -0.269 OA
BRANCH  30  33
ATOM     33  C   UNL A   1      39.762  22.127  26.541  1.00  0.00     0.039 A 
ATOM     34  C   UNL A   1      40.794  22.161  27.481  1.00  0.00     0.014 A 
ATOM     35  C   UNL A   1      39.264  23.311  25.991  1.00  0.00     0.014 A 
ATOM     36  C   UNL A   1      41.359  23.382  27.837  1.00  0.00     0.010 A 
ATOM     37  C   UNL A   1      39.883  24.520  26.287  1.00  0.00     0.010 A 
ATOM     38  C   UNL A   1      40.927  24.569  27.222  1.00  0.00    -0.014 A 
BRANCH  38  39
ATOM     39  C   UNL A   1      41.563  25.866  27.552  1.00  0.00     0.031 A 
ATOM     40  C   UNL A   1      40.801  26.903  28.330  1.00  0.00     0.074 A 
ATOM     41  C   UNL A   1      42.806  26.126  27.105  1.00  0.00     0.049 A 
ATOM     42  N   UNL A   1      41.182  28.096  28.703  1.00  0.00    -0.248 NA
ATOM     43  C   UNL A   1      39.423  26.563  28.720  1.00  0.00     0.031 C 
ATOM     44  C   UNL A   1      43.618  25.221  26.289  1.00  0.00     0.029 A 
ATOM     45  N   UNL A   1      43.599  27.234  27.260  1.00  0.00    -0.354 N 
ATOM     46  C   UNL A   1      40.086  28.660  29.344  1.00  0.00     0.074 A 
ATOM     47  C   UNL A   1      39.010  27.696  29.268  1.00  0.00     0.031 C 
ATOM     48  C   UNL A   1      44.802  25.800  26.036  1.00  0.00     0.029 A 
ATOM     49  C   UNL A   1      44.821  27.128  26.638  1.00  0.00     0.049 A 
ATOM     50  H   UNL A   1      43.321  28.029  27.770  1.00  0.00     0.167 HD
ATOM     51  C   UNL A   1      39.992  29.857  29.970  1.00  0.00     0.034 A 
ATOM     52  C   UNL A   1      45.839  28.007  26.561  1.00  0.00     0.034 A 
ATOM     53  C   UNL A   1      41.073  30.802  30.057  1.00  0.00     0.049 A 
ATOM     54  C   UNL A   1      45.709  29.332  27.261  1.00  0.00     0.074 A 
ATOM     55  C   UNL A   1      41.106  32.015  30.720  1.00  0.00     0.029 A 
ATOM     56  N   UNL A   1      42.311  30.644  29.450  1.00  0.00    -0.354 N 
ATOM     57  N   UNL A   1      44.716  29.791  27.983  1.00  0.00    -0.248 NA
ATOM     58  C   UNL A   1      46.854  30.246  27.161  1.00  0.00     0.031 C 
ATOM     59  C   UNL A   1      42.351  32.607  30.483  1.00  0.00     0.029 A 
ATOM     60  C   UNL A   1      43.110  31.744  29.708  1.00  0.00     0.049 A 
ATOM     61  H   UNL A   1      42.581  29.864  28.913  1.00  0.00     0.167 HD
ATOM     62  C   UNL A   1      45.131  31.029  28.459  1.00  0.00     0.074 A 
ATOM     63  C   UNL A   1      46.474  31.240  27.954  1.00  0.00     0.031 C 
ATOM     64  C   UNL A   1      44.461  31.917  29.235  1.00  0.00     0.034 A 
BRANCH  51  65
ATOM     65  C   UNL A   1      38.680  30.190  30.636  1.00  0.00     0.023 A 
ATOM     66  C   UNL A   1      38.410  29.698  31.931  1.00  0.00     0.012 A 
ATOM     67  C   UNL A   1      37.724  31.002  29.996  1.00  0.00     0.148 A 
ATOM     68  C   UNL A   1      37.192  29.963  32.554  1.00  0.00     0.002 A 
ATOM     69  C   UNL A   1      36.533  31.304  30.646  1.00  0.00     0.091 A 
ATOM     70  F   UNL A   1      37.985  31.445  28.758  1.00  0.00    -0.205 F 
ATOM     71  C   UNL A   1      36.258  30.773  31.916  1.00  0.00     0.022 A 
BRANCH  69  72
ATOM     72  S   UNL A   1      35.299  32.405  29.943  1.00  0.00     0.127 S 
ATOM     73  O   UNL A   1      34.795  31.606  28.826  1.00  0.00    -0.237 OA
ATOM     74  O   UNL A   1      34.359  32.562  31.052  1.00  0.00    -0.237 OA
ATOM     75  O   UNL A   1      36.010  33.621  29.573  1.00  0.00    -0.744 OA
ENDBRANCH  69  72
ENDBRANCH  51  65
BRANCH  52  76
ATOM     76  C   UNL A   1      47.097  27.629  25.858  1.00  0.00     0.023 A 
ATOM     77  C   UNL A   1      48.135  27.016  26.587  1.00  0.00     0.012 A 
ATOM     78  C   UNL A   1      47.262  27.843  24.476  1.00  0.00     0.148 A 
ATOM     79  C   UNL A   1      49.327  26.652  25.960  1.00  0.00     0.002 A 
ATOM     80  C   UNL A   1      48.431  27.430  23.847  1.00  0.00     0.091 A 
ATOM     81  F   UNL A   1      46.264  28.432  23.802  1.00  0.00    -0.205 F 
ATOM     82  C   UNL A   1      49.471  26.850  24.590  1.00  0.00     0.022 A 
BRANCH  80  83
ATOM     83  S   UNL A   1      48.660  27.531  22.069  1.00  0.00     0.127 S 
ATOM     84  O   UNL A   1      49.883  28.325  21.970  1.00  0.00    -0.237 OA
ATOM     85  O   UNL A   1      48.810  26.121  21.706  1.00  0.00    -0.237 OA
ATOM     86  O   UNL A   1      47.456  28.164  21.549  1.00  0.00    -0.744 OA
ENDBRANCH  80  83
ENDBRANCH  52  76
BRANCH  64  87
ATOM     87  C   UNL A   1      45.180  33.182  29.628  1.00  0.00     0.023 A 
ATOM     88  C   UNL A   1      46.029  33.191  30.753  1.00  0.00     0.012 A 
ATOM     89  C   UNL A   1      45.066  34.343  28.838  1.00  0.00     0.148 A 
ATOM     90  C   UNL A   1      46.723  34.348  31.107  1.00  0.00     0.002 A 
ATOM     91  C   UNL A   1      45.803  35.474  29.166  1.00  0.00     0.091 A 
ATOM     92  F   UNL A   1      44.241  34.319  27.783  1.00  0.00    -0.205 F 
ATOM     93  C   UNL A   1      46.620  35.483  30.307  1.00  0.00     0.022 A 
BRANCH  91  94
ATOM     94  S   UNL A   1      45.814  36.948  28.139  1.00  0.00     0.127 S 
ATOM     95  O   UNL A   1      46.727  37.819  28.879  1.00  0.00    -0.237 OA
ATOM     96  O   UNL A   1      46.346  36.440  26.875  1.00  0.00    -0.237 OA
ATOM     97  O   UNL A   1      44.433  37.406  28.076  1.00  0.00    -0.744 OA
ENDBRANCH  91  94
ENDBRANCH  64  87
ENDBRANCH  38  39
ENDBRANCH  30  33
ENDBRANCH  28  29
ENDBRANCH   1  28
TORSDOF 16
ENDMDL
