MODEL 1
REMARK VINA RESULT:     -12.2      0.000      0.000
REMARK SMILES CC(C)(C)OC(=O)N1CCN(C(=O)c2ccc3c(c2)OCO3)[C@H](C(=O)NCCCCNC(=O)c2ccc(-c3c4nc(c(-c5cccc(S(=O)(=O)[O-])c5F)c5ccc([nH]5)c(-c5cccc(S(=O)(=O)[O-])c5F)c5nc(c(-c6cccc(S(=O)(=O)[O-])c6F)c6ccc3[nH]6)C=C5)C=C4)cc2)C1
REMARK SMILES IDX 28 1 27 2 26 3 24 4 25 5 23 7 8 8 9 9 97 10 10 11 11 12 6 13
REMARK SMILES IDX 7 14 5 15 2 16 1 17 3 18 4 19 12 20 13 21 14 22 15 23 19 24
REMARK SMILES IDX 16 25 18 26 17 27 20 28 22 29 21 30 29 31 30 32 31 33 32 34
REMARK SMILES IDX 33 36 34 37 35 38 96 39 36 40 95 41 37 42 38 43 39 44 89 45
REMARK SMILES IDX 40 46 94 47 88 48 90 49 41 50 93 51 87 52 86 53 42 55 74 56
REMARK SMILES IDX 54 57 73 58 55 59 58 60 72 61 91 62 56 63 57 64 71 66 92 67
REMARK SMILES IDX 59 68 43 69 44 70 52 71 45 72 47 73 53 74 46 75 48 76 49 77
REMARK SMILES IDX 50 78 51 79 75 80 76 81 84 82 77 83 79 84 85 85 78 86 80 87
REMARK SMILES IDX 81 88 82 89 83 90 60 91 61 92 69 93 62 94 64 95 70 96 63 97
REMARK SMILES IDX 65 98 66 99 67 100 68 101
REMARK H PARENT 26 6 31 35 90 54 58 65
REMARK Flexibility Score: inf
ROOT
ATOM      1  C   UNL A   1      33.671  29.382  25.340  1.00  0.00     0.023 C 
ENDROOT
BRANCH   1   2
ATOM      2  C   UNL A   1      33.604  27.869  25.113  1.00  0.00     0.116 C 
BRANCH   2   3
ATOM      3  N   UNL A   1      33.015  27.218  26.270  1.00  0.00    -0.354 N 
ATOM      4  C   UNL A   1      31.936  26.376  26.256  1.00  0.00     0.244 C 
ATOM      5  O   UNL A   1      31.105  26.468  27.158  1.00  0.00    -0.273 OA
ATOM      6  H   UNL A   1      33.429  27.399  27.144  1.00  0.00     0.163 HD
BRANCH   4   7
ATOM      7  C   UNL A   1      31.804  25.376  25.097  1.00  0.00     0.194 C 
ATOM      8  N   UNL A   1      33.440  24.077  23.706  1.00  0.00    -0.304 N 
ATOM      9  C   UNL A   1      32.770  24.464  22.473  1.00  0.00     0.144 C 
ATOM     10  C   UNL A   1      33.279  25.009  24.816  1.00  0.00     0.158 C 
ATOM     11  C   UNL A   1      31.303  24.819  22.730  1.00  0.00     0.142 C 
ATOM     12  N   UNL A   1      31.104  25.772  23.835  1.00  0.00    -0.323 N 
BRANCH   8  13
ATOM     13  C   UNL A   1      34.368  23.058  23.714  1.00  0.00     0.410 C 
ATOM     14  O   UNL A   1      35.579  23.245  23.762  1.00  0.00    -0.224 OA
BRANCH  13  15
ATOM     15  O   UNL A   1      33.776  21.842  23.632  1.00  0.00    -0.444 OA
BRANCH  15  16
ATOM     16  C   UNL A   1      33.808  20.883  24.721  1.00  0.00     0.106 C 
ATOM     17  C   UNL A   1      32.808  19.794  24.304  1.00  0.00     0.056 C 
ATOM     18  C   UNL A   1      33.313  21.560  26.001  1.00  0.00     0.056 C 
ATOM     19  C   UNL A   1      35.179  20.227  24.916  1.00  0.00     0.056 C 
ENDBRANCH  15  16
ENDBRANCH  13  15
ENDBRANCH   8  13
BRANCH  12  20
ATOM     20  C   UNL A   1      29.849  26.405  23.820  1.00  0.00     0.254 C 
ATOM     21  O   UNL A   1      28.819  25.861  24.215  1.00  0.00    -0.269 OA
BRANCH  20  22
ATOM     22  C   UNL A   1      29.709  27.757  23.243  1.00  0.00     0.044 A 
ATOM     23  C   UNL A   1      30.803  28.361  22.590  1.00  0.00     0.018 A 
ATOM     24  C   UNL A   1      28.462  28.393  23.288  1.00  0.00     0.064 A 
ATOM     25  C   UNL A   1      30.691  29.655  22.072  1.00  0.00     0.051 A 
ATOM     26  C   UNL A   1      28.382  29.661  22.753  1.00  0.00     0.166 A 
ATOM     27  C   UNL A   1      29.468  30.280  22.176  1.00  0.00     0.165 A 
ATOM     28  O   UNL A   1      27.272  30.446  22.734  1.00  0.00    -0.454 OA
ATOM     29  O   UNL A   1      29.181  31.535  21.743  1.00  0.00    -0.454 OA
ATOM     30  C   UNL A   1      27.788  31.640  22.102  1.00  0.00     0.468 C 
ENDBRANCH  20  22
ENDBRANCH  12  20
ENDBRANCH   4   7
ENDBRANCH   2   3
ENDBRANCH   1   2
BRANCH   1  31
ATOM     31  C   UNL A   1      32.306  30.058  25.504  1.00  0.00     0.023 C 
BRANCH  31  32
ATOM     32  C   UNL A   1      32.036  30.637  26.888  1.00  0.00     0.116 C 
BRANCH  32  33
ATOM     33  N   UNL A   1      32.138  32.088  26.914  1.00  0.00    -0.352 N 
ATOM     34  C   UNL A   1      33.120  32.870  27.469  1.00  0.00     0.251 C 
ATOM     35  H   UNL A   1      31.405  32.575  26.471  1.00  0.00     0.163 HD
ATOM     36  O   UNL A   1      32.972  34.087  27.531  1.00  0.00    -0.269 OA
BRANCH  34  37
ATOM     37  C   UNL A   1      34.338  32.236  28.016  1.00  0.00     0.039 A 
ATOM     38  C   UNL A   1      35.522  32.976  28.058  1.00  0.00     0.014 A 
ATOM     39  C   UNL A   1      34.306  30.927  28.504  1.00  0.00     0.014 A 
ATOM     40  C   UNL A   1      36.661  32.422  28.647  1.00  0.00     0.010 A 
ATOM     41  C   UNL A   1      35.420  30.404  29.151  1.00  0.00     0.010 A 
ATOM     42  C   UNL A   1      36.610  31.145  29.229  1.00  0.00    -0.014 A 
BRANCH  42  43
ATOM     43  C   UNL A   1      37.783  30.576  29.941  1.00  0.00     0.031 A 
ATOM     44  C   UNL A   1      38.119  31.029  31.336  1.00  0.00     0.074 A 
ATOM     45  C   UNL A   1      38.598  29.718  29.296  1.00  0.00     0.049 A 
ATOM     46  N   UNL A   1      39.130  30.687  32.092  1.00  0.00    -0.248 NA
ATOM     47  C   UNL A   1      37.217  32.015  31.953  1.00  0.00     0.031 C 
ATOM     48  C   UNL A   1      38.429  29.267  27.913  1.00  0.00     0.029 A 
ATOM     49  N   UNL A   1      39.749  29.095  29.709  1.00  0.00    -0.354 N 
ATOM     50  C   UNL A   1      39.007  31.438  33.254  1.00  0.00     0.074 A 
ATOM     51  C   UNL A   1      37.841  32.279  33.092  1.00  0.00     0.031 C 
ATOM     52  C   UNL A   1      39.436  28.439  27.593  1.00  0.00     0.029 A 
ATOM     53  C   UNL A   1      40.337  28.320  28.735  1.00  0.00     0.049 A 
ATOM     54  H   UNL A   1      40.120  29.192  30.615  1.00  0.00     0.167 HD
ATOM     55  C   UNL A   1      39.777  31.410  34.368  1.00  0.00     0.034 A 
ATOM     56  C   UNL A   1      41.475  27.599  28.757  1.00  0.00     0.034 A 
ATOM     57  C   UNL A   1      40.906  30.537  34.545  1.00  0.00     0.049 A 
ATOM     58  C   UNL A   1      42.284  27.548  30.025  1.00  0.00     0.074 A 
ATOM     59  C   UNL A   1      41.692  30.365  35.672  1.00  0.00     0.029 A 
ATOM     60  N   UNL A   1      41.416  29.695  33.570  1.00  0.00    -0.354 N 
ATOM     61  N   UNL A   1      42.057  28.138  31.173  1.00  0.00    -0.248 NA
ATOM     62  C   UNL A   1      43.487  26.702  30.013  1.00  0.00     0.031 C 
ATOM     63  C   UNL A   1      42.690  29.433  35.371  1.00  0.00     0.029 A 
ATOM     64  C   UNL A   1      42.512  29.007  34.065  1.00  0.00     0.049 A 
ATOM     65  H   UNL A   1      41.054  29.600  32.660  1.00  0.00     0.167 HD
ATOM     66  C   UNL A   1      43.064  27.708  32.029  1.00  0.00     0.074 A 
ATOM     67  C   UNL A   1      43.890  26.790  31.273  1.00  0.00     0.031 C 
ATOM     68  C   UNL A   1      43.293  28.054  33.319  1.00  0.00     0.034 A 
BRANCH  55  69
ATOM     69  C   UNL A   1      39.387  32.309  35.512  1.00  0.00     0.023 A 
ATOM     70  C   UNL A   1      38.591  31.796  36.557  1.00  0.00     0.012 A 
ATOM     71  C   UNL A   1      39.856  33.635  35.588  1.00  0.00     0.148 A 
ATOM     72  C   UNL A   1      38.240  32.598  37.643  1.00  0.00     0.002 A 
ATOM     73  C   UNL A   1      39.537  34.414  36.694  1.00  0.00     0.091 A 
ATOM     74  F   UNL A   1      40.593  34.112  34.575  1.00  0.00    -0.205 F 
ATOM     75  C   UNL A   1      38.722  33.901  37.716  1.00  0.00     0.022 A 
BRANCH  73  76
ATOM     76  S   UNL A   1      40.173  36.079  36.921  1.00  0.00     0.127 S 
ATOM     77  O   UNL A   1      39.424  36.522  38.096  1.00  0.00    -0.237 OA
ATOM     78  O   UNL A   1      41.596  35.835  37.162  1.00  0.00    -0.237 OA
ATOM     79  O   UNL A   1      39.880  36.792  35.686  1.00  0.00    -0.744 OA
ENDBRANCH  73  76
ENDBRANCH  55  69
BRANCH  56  80
ATOM     80  C   UNL A   1      41.880  26.810  27.559  1.00  0.00     0.023 A 
ATOM     81  C   UNL A   1      42.521  27.461  26.487  1.00  0.00     0.012 A 
ATOM     82  C   UNL A   1      41.663  25.420  27.488  1.00  0.00     0.148 A 
ATOM     83  C   UNL A   1      42.908  26.750  25.351  1.00  0.00     0.002 A 
ATOM     84  C   UNL A   1      42.101  24.709  26.377  1.00  0.00     0.091 A 
ATOM     85  F   UNL A   1      41.041  24.820  28.512  1.00  0.00    -0.205 F 
ATOM     86  C   UNL A   1      42.707  25.373  25.300  1.00  0.00     0.022 A 
BRANCH  84  87
ATOM     87  S   UNL A   1      42.006  22.916  26.286  1.00  0.00     0.127 S 
ATOM     88  O   UNL A   1      42.608  22.651  24.982  1.00  0.00    -0.237 OA
ATOM     89  O   UNL A   1      42.818  22.511  27.435  1.00  0.00    -0.237 OA
ATOM     90  O   UNL A   1      40.592  22.594  26.411  1.00  0.00    -0.744 OA
ENDBRANCH  84  87
ENDBRANCH  56  80
BRANCH  68  91
ATOM     91  C   UNL A   1      44.465  27.414  34.018  1.00  0.00     0.023 A 
ATOM     92  C   UNL A   1      45.733  28.022  33.955  1.00  0.00     0.012 A 
ATOM     93  C   UNL A   1      44.291  26.255  34.799  1.00  0.00     0.148 A 
ATOM     94  C   UNL A   1      46.819  27.467  34.632  1.00  0.00     0.002 A 
ATOM     95  C   UNL A   1      45.365  25.735  35.510  1.00  0.00     0.091 A 
ATOM     96  F   UNL A   1      43.078  25.681  34.831  1.00  0.00    -0.205 F 
ATOM     97  C   UNL A   1      46.632  26.333  35.420  1.00  0.00     0.022 A 
BRANCH  95  98
ATOM     98  S   UNL A   1      45.195  24.336  36.624  1.00  0.00     0.127 S 
ATOM     99  O   UNL A   1      44.157  24.808  37.540  1.00  0.00    -0.237 OA
ATOM    100  O   UNL A   1      44.771  23.267  35.720  1.00  0.00    -0.237 OA
ATOM    101  O   UNL A   1      46.510  24.137  37.219  1.00  0.00    -0.744 OA
ENDBRANCH  95  98
ENDBRANCH  68  91
ENDBRANCH  42  43
ENDBRANCH  34  37
ENDBRANCH  32  33
ENDBRANCH  31  32
ENDBRANCH   1  31
TORSDOF 19
ENDMDL
MODEL 2
REMARK VINA RESULT:     -12.2      2.330      8.617
REMARK SMILES CC(C)(C)OC(=O)N1CCN(C(=O)c2ccc3c(c2)OCO3)[C@H](C(=O)NCCCCNC(=O)c2ccc(-c3c4nc(c(-c5cccc(S(=O)(=O)[O-])c5F)c5ccc([nH]5)c(-c5cccc(S(=O)(=O)[O-])c5F)c5nc(c(-c6cccc(S(=O)(=O)[O-])c6F)c6ccc3[nH]6)C=C5)C=C4)cc2)C1
REMARK SMILES IDX 28 1 27 2 26 3 24 4 25 5 23 7 8 8 9 9 97 10 10 11 11 12 6 13
REMARK SMILES IDX 7 14 5 15 2 16 1 17 3 18 4 19 12 20 13 21 14 22 15 23 19 24
REMARK SMILES IDX 16 25 18 26 17 27 20 28 22 29 21 30 29 31 30 32 31 33 32 34
REMARK SMILES IDX 33 36 34 37 35 38 96 39 36 40 95 41 37 42 38 43 39 44 89 45
REMARK SMILES IDX 40 46 94 47 88 48 90 49 41 50 93 51 87 52 86 53 42 55 74 56
REMARK SMILES IDX 54 57 73 58 55 59 58 60 72 61 91 62 56 63 57 64 71 66 92 67
REMARK SMILES IDX 59 68 43 69 44 70 52 71 45 72 47 73 53 74 46 75 48 76 49 77
REMARK SMILES IDX 50 78 51 79 75 80 76 81 84 82 77 83 79 84 85 85 78 86 80 87
REMARK SMILES IDX 81 88 82 89 83 90 60 91 61 92 69 93 62 94 64 95 70 96 63 97
REMARK SMILES IDX 65 98 66 99 67 100 68 101
REMARK H PARENT 26 6 31 35 90 54 58 65
REMARK Flexibility Score: inf
ROOT
ATOM      1  C   UNL A   1      33.634  31.239  27.851  1.00  0.00     0.023 C 
ENDROOT
BRANCH   1   2
ATOM      2  C   UNL A   1      33.612  30.107  26.820  1.00  0.00     0.116 C 
BRANCH   2   3
ATOM      3  N   UNL A   1      33.014  28.918  27.399  1.00  0.00    -0.354 N 
ATOM      4  C   UNL A   1      32.057  28.133  26.814  1.00  0.00     0.244 C 
ATOM      5  O   UNL A   1      31.147  27.694  27.515  1.00  0.00    -0.273 OA
ATOM      6  H   UNL A   1      33.325  28.651  28.294  1.00  0.00     0.163 HD
BRANCH   4   7
ATOM      7  C   UNL A   1      32.153  27.864  25.305  1.00  0.00     0.194 C 
ATOM      8  N   UNL A   1      30.717  28.435  23.327  1.00  0.00    -0.304 N 
ATOM      9  C   UNL A   1      30.787  27.070  22.825  1.00  0.00     0.144 C 
ATOM     10  C   UNL A   1      30.887  28.572  24.769  1.00  0.00     0.158 C 
ATOM     11  C   UNL A   1      32.041  26.357  23.336  1.00  0.00     0.142 C 
ATOM     12  N   UNL A   1      32.237  26.462  24.792  1.00  0.00    -0.323 N 
BRANCH   8  13
ATOM     13  C   UNL A   1      30.252  29.457  22.528  1.00  0.00     0.410 C 
ATOM     14  O   UNL A   1      30.568  29.594  21.351  1.00  0.00    -0.224 OA
BRANCH  13  15
ATOM     15  O   UNL A   1      29.439  30.297  23.214  1.00  0.00    -0.444 OA
BRANCH  15  16
ATOM     16  C   UNL A   1      28.013  30.380  22.962  1.00  0.00     0.106 C 
ATOM     17  C   UNL A   1      27.905  30.962  21.544  1.00  0.00     0.056 C 
ATOM     18  C   UNL A   1      27.383  31.356  23.958  1.00  0.00     0.056 C 
ATOM     19  C   UNL A   1      27.310  29.018  22.977  1.00  0.00     0.056 C 
ENDBRANCH  15  16
ENDBRANCH  13  15
ENDBRANCH   8  13
BRANCH  12  20
ATOM     20  C   UNL A   1      33.121  25.504  25.317  1.00  0.00     0.254 C 
ATOM     21  O   UNL A   1      34.230  25.792  25.767  1.00  0.00    -0.269 OA
BRANCH  20  22
ATOM     22  C   UNL A   1      32.772  24.070  25.274  1.00  0.00     0.044 A 
ATOM     23  C   UNL A   1      31.435  23.666  25.465  1.00  0.00     0.018 A 
ATOM     24  C   UNL A   1      33.767  23.134  24.969  1.00  0.00     0.064 A 
ATOM     25  C   UNL A   1      31.100  22.308  25.463  1.00  0.00     0.051 A 
ATOM     26  C   UNL A   1      33.399  21.805  24.958  1.00  0.00     0.166 A 
ATOM     27  C   UNL A   1      32.107  21.403  25.213  1.00  0.00     0.165 A 
ATOM     28  O   UNL A   1      34.227  20.753  24.718  1.00  0.00    -0.454 OA
ATOM     29  O   UNL A   1      31.968  20.052  25.185  1.00  0.00    -0.454 OA
ATOM     30  C   UNL A   1      33.316  19.642  24.875  1.00  0.00     0.468 C 
ENDBRANCH  20  22
ENDBRANCH  12  20
ENDBRANCH   4   7
ENDBRANCH   2   3
ENDBRANCH   1   2
BRANCH   1  31
ATOM     31  C   UNL A   1      32.544  32.298  27.650  1.00  0.00     0.023 C 
BRANCH  31  32
ATOM     32  C   UNL A   1      33.047  33.657  27.174  1.00  0.00     0.116 C 
BRANCH  32  33
ATOM     33  N   UNL A   1      32.653  34.738  28.065  1.00  0.00    -0.352 N 
ATOM     34  C   UNL A   1      33.119  35.029  29.323  1.00  0.00     0.251 C 
ATOM     35  H   UNL A   1      31.958  35.344  27.717  1.00  0.00     0.163 HD
ATOM     36  O   UNL A   1      32.566  35.892  29.997  1.00  0.00    -0.269 OA
BRANCH  34  37
ATOM     37  C   UNL A   1      34.269  34.277  29.868  1.00  0.00     0.039 A 
ATOM     38  C   UNL A   1      35.546  34.543  29.369  1.00  0.00     0.014 A 
ATOM     39  C   UNL A   1      34.089  33.332  30.881  1.00  0.00     0.014 A 
ATOM     40  C   UNL A   1      36.653  33.902  29.930  1.00  0.00     0.010 A 
ATOM     41  C   UNL A   1      35.198  32.747  31.485  1.00  0.00     0.010 A 
ATOM     42  C   UNL A   1      36.492  33.025  31.015  1.00  0.00    -0.014 A 
BRANCH  42  43
ATOM     43  C   UNL A   1      37.664  32.406  31.685  1.00  0.00     0.031 A 
ATOM     44  C   UNL A   1      38.410  31.278  31.026  1.00  0.00     0.074 A 
ATOM     45  C   UNL A   1      38.000  32.800  32.930  1.00  0.00     0.049 A 
ATOM     46  N   UNL A   1      39.419  30.580  31.480  1.00  0.00    -0.248 NA
ATOM     47  C   UNL A   1      37.946  30.861  29.692  1.00  0.00     0.031 C 
ATOM     48  C   UNL A   1      37.302  33.824  33.711  1.00  0.00     0.029 A 
ATOM     49  N   UNL A   1      38.995  32.365  33.769  1.00  0.00    -0.354 N 
ATOM     50  C   UNL A   1      39.687  29.623  30.510  1.00  0.00     0.074 A 
ATOM     51  C   UNL A   1      38.715  29.807  29.455  1.00  0.00     0.031 C 
ATOM     52  C   UNL A   1      37.892  33.940  34.911  1.00  0.00     0.029 A 
ATOM     53  C   UNL A   1      38.990  32.982  34.998  1.00  0.00     0.049 A 
ATOM     54  H   UNL A   1      39.651  31.676  33.515  1.00  0.00     0.167 HD
ATOM     55  C   UNL A   1      40.672  28.694  30.485  1.00  0.00     0.034 A 
ATOM     56  C   UNL A   1      39.777  32.796  36.076  1.00  0.00     0.034 A 
ATOM     57  C   UNL A   1      41.667  28.546  31.512  1.00  0.00     0.049 A 
ATOM     58  C   UNL A   1      40.893  31.790  36.001  1.00  0.00     0.074 A 
ATOM     59  C   UNL A   1      42.761  27.699  31.535  1.00  0.00     0.029 A 
ATOM     60  N   UNL A   1      41.687  29.255  32.703  1.00  0.00    -0.354 N 
ATOM     61  N   UNL A   1      41.235  31.009  35.005  1.00  0.00    -0.248 NA
ATOM     62  C   UNL A   1      41.758  31.666  37.184  1.00  0.00     0.031 C 
ATOM     63  C   UNL A   1      43.432  27.882  32.748  1.00  0.00     0.029 A 
ATOM     64  C   UNL A   1      42.769  28.859  33.472  1.00  0.00     0.049 A 
ATOM     65  H   UNL A   1      41.028  29.938  32.965  1.00  0.00     0.167 HD
ATOM     66  C   UNL A   1      42.372  30.328  35.427  1.00  0.00     0.074 A 
ATOM     67  C   UNL A   1      42.673  30.806  36.760  1.00  0.00     0.031 C 
ATOM     68  C   UNL A   1      43.090  29.383  34.774  1.00  0.00     0.034 A 
BRANCH  55  69
ATOM     69  C   UNL A   1      40.761  27.800  29.275  1.00  0.00     0.023 A 
ATOM     70  C   UNL A   1      39.947  26.651  29.201  1.00  0.00     0.012 A 
ATOM     71  C   UNL A   1      41.596  28.127  28.189  1.00  0.00     0.148 A 
ATOM     72  C   UNL A   1      39.987  25.823  28.080  1.00  0.00     0.002 A 
ATOM     73  C   UNL A   1      41.598  27.320  27.057  1.00  0.00     0.091 A 
ATOM     74  F   UNL A   1      42.379  29.211  28.287  1.00  0.00    -0.205 F 
ATOM     75  C   UNL A   1      40.804  26.163  27.005  1.00  0.00     0.022 A 
BRANCH  73  76
ATOM     76  S   UNL A   1      42.556  27.714  25.589  1.00  0.00     0.127 S 
ATOM     77  O   UNL A   1      43.911  27.787  26.134  1.00  0.00    -0.237 OA
ATOM     78  O   UNL A   1      42.304  26.552  24.736  1.00  0.00    -0.237 OA
ATOM     79  O   UNL A   1      42.017  28.968  25.083  1.00  0.00    -0.744 OA
ENDBRANCH  73  76
ENDBRANCH  55  69
BRANCH  56  80
ATOM     80  C   UNL A   1      39.580  33.631  37.295  1.00  0.00     0.023 A 
ATOM     81  C   UNL A   1      40.159  34.914  37.355  1.00  0.00     0.012 A 
ATOM     82  C   UNL A   1      38.803  33.177  38.379  1.00  0.00     0.148 A 
ATOM     83  C   UNL A   1      39.996  35.717  38.483  1.00  0.00     0.002 A 
ATOM     84  C   UNL A   1      38.599  34.005  39.477  1.00  0.00     0.091 A 
ATOM     85  F   UNL A   1      38.271  31.950  38.309  1.00  0.00    -0.205 F 
ATOM     86  C   UNL A   1      39.209  35.267  39.540  1.00  0.00     0.022 A 
BRANCH  84  87
ATOM     87  S   UNL A   1      37.491  33.561  40.821  1.00  0.00     0.127 S 
ATOM     88  O   UNL A   1      38.259  32.529  41.512  1.00  0.00    -0.237 OA
ATOM     89  O   UNL A   1      37.369  34.829  41.543  1.00  0.00    -0.237 OA
ATOM     90  O   UNL A   1      36.261  33.118  40.181  1.00  0.00    -0.744 OA
ENDBRANCH  84  87
ENDBRANCH  56  80
BRANCH  68  91
ATOM     91  C   UNL A   1      44.301  28.818  35.473  1.00  0.00     0.023 A 
ATOM     92  C   UNL A   1      45.573  29.367  35.223  1.00  0.00     0.012 A 
ATOM     93  C   UNL A   1      44.164  27.795  36.432  1.00  0.00     0.148 A 
ATOM     94  C   UNL A   1      46.697  28.886  35.894  1.00  0.00     0.002 A 
ATOM     95  C   UNL A   1      45.280  27.354  37.132  1.00  0.00     0.091 A 
ATOM     96  F   UNL A   1      42.947  27.273  36.642  1.00  0.00    -0.205 F 
ATOM     97  C   UNL A   1      46.549  27.890  36.856  1.00  0.00     0.022 A 
BRANCH  95  98
ATOM     98  S   UNL A   1      45.170  26.144  38.455  1.00  0.00     0.127 S 
ATOM     99  O   UNL A   1      46.558  26.072  38.910  1.00  0.00    -0.237 OA
ATOM    100  O   UNL A   1      44.253  26.790  39.394  1.00  0.00    -0.237 OA
ATOM    101  O   UNL A   1      44.649  24.929  37.843  1.00  0.00    -0.744 OA
ENDBRANCH  95  98
ENDBRANCH  68  91
ENDBRANCH  42  43
ENDBRANCH  34  37
ENDBRANCH  32  33
ENDBRANCH  31  32
ENDBRANCH   1  31
TORSDOF 19
ENDMDL
MODEL 3
REMARK VINA RESULT:     -12.0      2.302      5.182
REMARK SMILES CC(C)(C)OC(=O)N1CCN(C(=O)c2ccc3c(c2)OCO3)[C@H](C(=O)NCCCCNC(=O)c2ccc(-c3c4nc(c(-c5cccc(S(=O)(=O)[O-])c5F)c5ccc([nH]5)c(-c5cccc(S(=O)(=O)[O-])c5F)c5nc(c(-c6cccc(S(=O)(=O)[O-])c6F)c6ccc3[nH]6)C=C5)C=C4)cc2)C1
REMARK SMILES IDX 28 1 27 2 26 3 24 4 25 5 23 7 8 8 9 9 97 10 10 11 11 12 6 13
REMARK SMILES IDX 7 14 5 15 2 16 1 17 3 18 4 19 12 20 13 21 14 22 15 23 19 24
REMARK SMILES IDX 16 25 18 26 17 27 20 28 22 29 21 30 29 31 30 32 31 33 32 34
REMARK SMILES IDX 33 36 34 37 35 38 96 39 36 40 95 41 37 42 38 43 39 44 89 45
REMARK SMILES IDX 40 46 94 47 88 48 90 49 41 50 93 51 87 52 86 53 42 55 74 56
REMARK SMILES IDX 54 57 73 58 55 59 58 60 72 61 91 62 56 63 57 64 71 66 92 67
REMARK SMILES IDX 59 68 43 69 44 70 52 71 45 72 47 73 53 74 46 75 48 76 49 77
REMARK SMILES IDX 50 78 51 79 75 80 76 81 84 82 77 83 79 84 85 85 78 86 80 87
REMARK SMILES IDX 81 88 82 89 83 90 60 91 61 92 69 93 62 94 64 95 70 96 63 97
REMARK SMILES IDX 65 98 66 99 67 100 68 101
REMARK H PARENT 26 6 31 35 90 54 58 65
REMARK Flexibility Score: inf
ROOT
ATOM      1  C   UNL A   1      32.112  28.147  27.551  1.00  0.00     0.023 C 
ENDROOT
BRANCH   1   2
ATOM      2  C   UNL A   1      31.057  27.317  26.816  1.00  0.00     0.116 C 
BRANCH   2   3
ATOM      3  N   UNL A   1      31.337  25.901  26.976  1.00  0.00    -0.354 N 
ATOM      4  C   UNL A   1      31.591  25.012  25.966  1.00  0.00     0.244 C 
ATOM      5  O   UNL A   1      31.107  23.885  26.039  1.00  0.00    -0.273 OA
ATOM      6  H   UNL A   1      31.345  25.548  27.895  1.00  0.00     0.163 HD
BRANCH   4   7
ATOM      7  C   UNL A   1      32.446  25.480  24.779  1.00  0.00     0.194 C 
ATOM      8  N   UNL A   1      32.021  26.931  22.775  1.00  0.00    -0.304 N 
ATOM      9  C   UNL A   1      32.636  25.958  21.883  1.00  0.00     0.144 C 
ATOM     10  C   UNL A   1      31.455  26.375  23.999  1.00  0.00     0.158 C 
ATOM     11  C   UNL A   1      33.631  25.070  22.636  1.00  0.00     0.142 C 
ATOM     12  N   UNL A   1      33.088  24.479  23.871  1.00  0.00    -0.323 N 
BRANCH   8  13
ATOM     13  C   UNL A   1      31.761  28.214  22.347  1.00  0.00     0.410 C 
ATOM     14  O   UNL A   1      32.601  29.108  22.337  1.00  0.00    -0.224 OA
BRANCH  13  15
ATOM     15  O   UNL A   1      30.467  28.365  21.976  1.00  0.00    -0.444 OA
BRANCH  15  16
ATOM     16  C   UNL A   1      29.547  29.232  22.688  1.00  0.00     0.106 C 
ATOM     17  C   UNL A   1      29.311  30.413  21.733  1.00  0.00     0.056 C 
ATOM     18  C   UNL A   1      30.222  29.742  23.963  1.00  0.00     0.056 C 
ATOM     19  C   UNL A   1      28.194  28.575  22.983  1.00  0.00     0.056 C 
ENDBRANCH  15  16
ENDBRANCH  13  15
ENDBRANCH   8  13
BRANCH  12  20
ATOM     20  C   UNL A   1      33.818  23.374  24.340  1.00  0.00     0.254 C 
ATOM     21  O   UNL A   1      34.865  23.485  24.979  1.00  0.00    -0.269 OA
BRANCH  20  22
ATOM     22  C   UNL A   1      33.383  22.003  24.009  1.00  0.00     0.044 A 
ATOM     23  C   UNL A   1      32.458  21.791  22.966  1.00  0.00     0.018 A 
ATOM     24  C   UNL A   1      33.955  20.922  24.690  1.00  0.00     0.064 A 
ATOM     25  C   UNL A   1      32.013  20.499  22.668  1.00  0.00     0.051 A 
ATOM     26  C   UNL A   1      33.506  19.661  24.360  1.00  0.00     0.166 A 
ATOM     27  C   UNL A   1      32.551  19.457  23.389  1.00  0.00     0.165 A 
ATOM     28  O   UNL A   1      33.914  18.497  24.932  1.00  0.00    -0.454 OA
ATOM     29  O   UNL A   1      32.228  18.145  23.245  1.00  0.00    -0.454 OA
ATOM     30  C   UNL A   1      33.092  17.538  24.228  1.00  0.00     0.468 C 
ENDBRANCH  20  22
ENDBRANCH  12  20
ENDBRANCH   4   7
ENDBRANCH   2   3
ENDBRANCH   1   2
BRANCH   1  31
ATOM     31  C   UNL A   1      33.528  28.020  26.979  1.00  0.00     0.023 C 
BRANCH  31  32
ATOM     32  C   UNL A   1      34.003  29.218  26.164  1.00  0.00     0.116 C 
BRANCH  32  33
ATOM     33  N   UNL A   1      33.823  30.477  26.870  1.00  0.00    -0.352 N 
ATOM     34  C   UNL A   1      34.580  31.010  27.883  1.00  0.00     0.251 C 
ATOM     35  H   UNL A   1      33.055  31.022  26.580  1.00  0.00     0.163 HD
ATOM     36  O   UNL A   1      34.196  32.018  28.470  1.00  0.00    -0.269 OA
BRANCH  34  37
ATOM     37  C   UNL A   1      35.841  30.349  28.280  1.00  0.00     0.039 A 
ATOM     38  C   UNL A   1      36.962  30.488  27.458  1.00  0.00     0.014 A 
ATOM     39  C   UNL A   1      35.921  29.615  29.466  1.00  0.00     0.014 A 
ATOM     40  C   UNL A   1      38.183  29.939  27.859  1.00  0.00     0.010 A 
ATOM     41  C   UNL A   1      37.151  29.129  29.896  1.00  0.00     0.010 A 
ATOM     42  C   UNL A   1      38.295  29.285  29.097  1.00  0.00    -0.014 A 
BRANCH  42  43
ATOM     43  C   UNL A   1      39.603  28.776  29.583  1.00  0.00     0.031 A 
ATOM     44  C   UNL A   1      40.326  29.479  30.700  1.00  0.00     0.074 A 
ATOM     45  C   UNL A   1      40.184  27.734  28.955  1.00  0.00     0.049 A 
ATOM     46  N   UNL A   1      41.497  29.215  31.218  1.00  0.00    -0.248 NA
ATOM     47  C   UNL A   1      39.657  30.648  31.295  1.00  0.00     0.031 C 
ATOM     48  C   UNL A   1      39.625  27.021  27.804  1.00  0.00     0.029 A 
ATOM     49  N   UNL A   1      41.387  27.112  29.178  1.00  0.00    -0.354 N 
ATOM     50  C   UNL A   1      41.722  30.200  32.172  1.00  0.00     0.074 A 
ATOM     51  C   UNL A   1      40.580  31.088  32.139  1.00  0.00     0.031 C 
ATOM     52  C   UNL A   1      40.481  26.059  27.425  1.00  0.00     0.029 A 
ATOM     53  C   UNL A   1      41.660  26.102  28.284  1.00  0.00     0.049 A 
ATOM     54  H   UNL A   1      41.997  27.363  29.908  1.00  0.00     0.167 HD
ATOM     55  C   UNL A   1      42.770  30.337  33.019  1.00  0.00     0.034 A 
ATOM     56  C   UNL A   1      42.740  25.304  28.165  1.00  0.00     0.034 A 
ATOM     57  C   UNL A   1      43.879  29.425  33.083  1.00  0.00     0.049 A 
ATOM     58  C   UNL A   1      43.867  25.449  29.151  1.00  0.00     0.074 A 
ATOM     59  C   UNL A   1      44.942  29.424  33.970  1.00  0.00     0.029 A 
ATOM     60  N   UNL A   1      44.076  28.356  32.223  1.00  0.00    -0.354 N 
ATOM     61  N   UNL A   1      43.983  26.283  30.156  1.00  0.00    -0.248 NA
ATOM     62  C   UNL A   1      44.996  24.516  29.013  1.00  0.00     0.031 C 
ATOM     63  C   UNL A   1      45.791  28.365  33.633  1.00  0.00     0.029 A 
ATOM     64  C   UNL A   1      45.246  27.693  32.552  1.00  0.00     0.049 A 
ATOM     65  H   UNL A   1      43.473  28.106  31.486  1.00  0.00     0.167 HD
ATOM     66  C   UNL A   1      45.177  25.954  30.789  1.00  0.00     0.074 A 
ATOM     67  C   UNL A   1      45.735  24.829  30.067  1.00  0.00     0.031 C 
ATOM     68  C   UNL A   1      45.763  26.540  31.860  1.00  0.00     0.034 A 
BRANCH  55  69
ATOM     69  C   UNL A   1      42.737  31.486  33.993  1.00  0.00     0.023 A 
ATOM     70  C   UNL A   1      43.340  32.711  33.640  1.00  0.00     0.012 A 
ATOM     71  C   UNL A   1      42.060  31.379  35.223  1.00  0.00     0.148 A 
ATOM     72  C   UNL A   1      43.298  33.801  34.510  1.00  0.00     0.002 A 
ATOM     73  C   UNL A   1      41.986  32.482  36.066  1.00  0.00     0.091 A 
ATOM     74  F   UNL A   1      41.512  30.200  35.551  1.00  0.00    -0.205 F 
ATOM     75  C   UNL A   1      42.613  33.689  35.716  1.00  0.00     0.022 A 
BRANCH  73  76
ATOM     76  S   UNL A   1      41.060  32.464  37.605  1.00  0.00     0.127 S 
ATOM     77  O   UNL A   1      41.977  31.746  38.490  1.00  0.00    -0.237 OA
ATOM     78  O   UNL A   1      40.922  33.891  37.898  1.00  0.00    -0.237 OA
ATOM     79  O   UNL A   1      39.809  31.780  37.313  1.00  0.00    -0.744 OA
ENDBRANCH  73  76
ENDBRANCH  55  69
BRANCH  56  80
ATOM     80  C   UNL A   1      42.775  24.250  27.113  1.00  0.00     0.023 A 
ATOM     81  C   UNL A   1      43.492  24.485  25.923  1.00  0.00     0.012 A 
ATOM     82  C   UNL A   1      42.131  23.010  27.293  1.00  0.00     0.148 A 
ATOM     83  C   UNL A   1      43.540  23.519  24.918  1.00  0.00     0.002 A 
ATOM     84  C   UNL A   1      42.229  22.031  26.311  1.00  0.00     0.091 A 
ATOM     85  F   UNL A   1      41.443  22.810  28.426  1.00  0.00    -0.205 F 
ATOM     86  C   UNL A   1      42.917  22.289  25.116  1.00  0.00     0.022 A 
BRANCH  84  87
ATOM     87  S   UNL A   1      41.574  20.374  26.539  1.00  0.00     0.127 S 
ATOM     88  O   UNL A   1      42.164  19.993  27.819  1.00  0.00    -0.237 OA
ATOM     89  O   UNL A   1      40.131  20.621  26.573  1.00  0.00    -0.237 OA
ATOM     90  O   UNL A   1      42.022  19.614  25.381  1.00  0.00    -0.744 OA
ENDBRANCH  84  87
ENDBRANCH  56  80
BRANCH  68  91
ATOM     91  C   UNL A   1      47.066  25.960  32.349  1.00  0.00     0.023 A 
ATOM     92  C   UNL A   1      48.284  26.450  31.842  1.00  0.00     0.012 A 
ATOM     93  C   UNL A   1      47.081  24.985  33.366  1.00  0.00     0.148 A 
ATOM     94  C   UNL A   1      49.499  25.956  32.316  1.00  0.00     0.002 A 
ATOM     95  C   UNL A   1      48.295  24.532  33.868  1.00  0.00     0.091 A 
ATOM     96  F   UNL A   1      45.909  24.518  33.822  1.00  0.00    -0.205 F 
ATOM     97  C   UNL A   1      49.505  25.008  33.337  1.00  0.00     0.022 A 
BRANCH  95  98
ATOM     98  S   UNL A   1      48.398  23.385  35.246  1.00  0.00     0.127 S 
ATOM     99  O   UNL A   1      49.845  23.244  35.409  1.00  0.00    -0.237 OA
ATOM    100  O   UNL A   1      47.732  24.124  36.319  1.00  0.00    -0.237 OA
ATOM    101  O   UNL A   1      47.697  22.181  34.818  1.00  0.00    -0.744 OA
ENDBRANCH  95  98
ENDBRANCH  68  91
ENDBRANCH  42  43
ENDBRANCH  34  37
ENDBRANCH  32  33
ENDBRANCH  31  32
ENDBRANCH   1  31
TORSDOF 19
ENDMDL
