MODEL 1
REMARK VINA RESULT:     -10.7      0.000      0.000
REMARK SMILES CC(C)(C)SCC(=O)NC1(CC(=O)NCCCCNC(=O)c2ccc(-c3c4nc(c(-c5cccc(S(=O)(=O)[O-])c5F)c5ccc([nH]5)c(-c5cccc(S(=O)(=O)[O-])c5F)c5nc(c(-c6cccc(S(=O)(=O)[O-])c6F)c6ccc3[nH]6)C=C5)C=C4)cc2)CCC1
REMARK SMILES IDX 15 1 14 2 12 3 13 4 11 6 10 7 85 8 87 9 86 10 9 11 7 12 8 13
REMARK SMILES IDX 6 15 5 16 2 17 1 18 3 19 4 20 16 21 17 22 18 23 19 24 20 25
REMARK SMILES IDX 21 27 22 28 23 29 84 30 24 31 83 32 25 33 26 34 27 35 77 36
REMARK SMILES IDX 28 37 82 38 76 39 78 40 29 41 81 42 75 43 74 44 30 46 62 47
REMARK SMILES IDX 42 48 61 49 43 50 46 51 60 52 79 53 44 54 45 55 59 57 80 58
REMARK SMILES IDX 47 59 31 60 32 61 40 62 33 63 35 64 41 65 34 66 36 67 37 68
REMARK SMILES IDX 38 69 39 70 63 71 64 72 72 73 65 74 67 75 73 76 66 77 68 78
REMARK SMILES IDX 69 79 70 80 71 81 48 82 49 83 57 84 50 85 52 86 58 87 51 88
REMARK SMILES IDX 53 89 54 90 55 91 56 92
REMARK H PARENT 14 5 9 14 19 26 78 45 46 56
REMARK Flexibility Score: inf
ROOT
ATOM      1  C   UNL A   1      32.425  29.778  27.194  1.00  0.00     0.116 C 
ENDROOT
BRANCH   1   2
ATOM      2  N   UNL A   1      31.788  28.494  27.392  1.00  0.00    -0.356 N 
ATOM      3  C   UNL A   1      31.961  27.295  26.767  1.00  0.00     0.222 C 
ATOM      4  O   UNL A   1      31.377  26.305  27.217  1.00  0.00    -0.275 OA
ATOM      5  H   UNL A   1      31.108  28.484  28.103  1.00  0.00     0.163 HD
BRANCH   3   6
ATOM      6  C   UNL A   1      32.910  27.129  25.614  1.00  0.00     0.128 C 
BRANCH   6   7
ATOM      7  C   UNL A   1      32.495  26.306  24.381  1.00  0.00     0.049 C 
ATOM      8  C   UNL A   1      33.032  24.816  24.612  1.00  0.00     0.029 C 
ATOM      9  C   UNL A   1      33.410  26.241  23.110  1.00  0.00     0.029 C 
ATOM     10  C   UNL A   1      34.286  25.198  23.828  1.00  0.00     0.005 C 
BRANCH   7  11
ATOM     11  N   UNL A   1      31.020  26.172  24.220  1.00  0.00    -0.349 N 
ATOM     12  C   UNL A   1      30.016  26.772  23.520  1.00  0.00     0.230 C 
ATOM     13  O   UNL A   1      28.921  26.195  23.583  1.00  0.00    -0.274 OA
ATOM     14  H   UNL A   1      30.670  25.442  24.780  1.00  0.00     0.164 HD
BRANCH  12  15
ATOM     15  C   UNL A   1      30.158  27.992  22.642  1.00  0.00     0.169 C 
BRANCH  15  16
ATOM     16  S   UNL A   1      29.748  29.556  23.436  1.00  0.00    -0.146 SA
BRANCH  16  17
ATOM     17  C   UNL A   1      28.133  30.144  22.798  1.00  0.00     0.008 C 
ATOM     18  C   UNL A   1      27.132  29.013  23.125  1.00  0.00     0.022 C 
ATOM     19  C   UNL A   1      28.125  30.395  21.294  1.00  0.00     0.022 C 
ATOM     20  C   UNL A   1      27.715  31.393  23.577  1.00  0.00     0.022 C 
ENDBRANCH  16  17
ENDBRANCH  15  16
ENDBRANCH  12  15
ENDBRANCH   7  11
ENDBRANCH   6   7
ENDBRANCH   3   6
ENDBRANCH   1   2
BRANCH   1  21
ATOM     21  C   UNL A   1      31.648  30.779  26.327  1.00  0.00     0.023 C 
BRANCH  21  22
ATOM     22  C   UNL A   1      31.562  32.247  26.729  1.00  0.00     0.023 C 
BRANCH  22  23
ATOM     23  C   UNL A   1      32.808  32.859  27.310  1.00  0.00     0.116 C 
BRANCH  23  24
ATOM     24  N   UNL A   1      32.591  34.244  27.683  1.00  0.00    -0.352 N 
ATOM     25  C   UNL A   1      33.121  34.930  28.750  1.00  0.00     0.251 C 
ATOM     26  H   UNL A   1      31.989  34.758  27.096  1.00  0.00     0.163 HD
ATOM     27  O   UNL A   1      32.635  36.006  29.083  1.00  0.00    -0.269 OA
BRANCH  25  28
ATOM     28  C   UNL A   1      34.266  34.356  29.496  1.00  0.00     0.039 A 
ATOM     29  C   UNL A   1      34.024  33.585  30.635  1.00  0.00     0.014 A 
ATOM     30  C   UNL A   1      35.578  34.579  29.070  1.00  0.00     0.014 A 
ATOM     31  C   UNL A   1      35.097  33.011  31.322  1.00  0.00     0.010 A 
ATOM     32  C   UNL A   1      36.632  33.917  29.687  1.00  0.00     0.010 A 
ATOM     33  C   UNL A   1      36.409  33.155  30.842  1.00  0.00    -0.014 A 
BRANCH  33  34
ATOM     34  C   UNL A   1      37.573  32.571  31.556  1.00  0.00     0.031 A 
ATOM     35  C   UNL A   1      38.340  31.436  30.924  1.00  0.00     0.074 A 
ATOM     36  C   UNL A   1      37.895  33.004  32.791  1.00  0.00     0.049 A 
ATOM     37  N   UNL A   1      39.333  30.739  31.410  1.00  0.00    -0.248 NA
ATOM     38  C   UNL A   1      37.915  31.007  29.578  1.00  0.00     0.031 C 
ATOM     39  C   UNL A   1      37.184  34.042  33.541  1.00  0.00     0.029 A 
ATOM     40  N   UNL A   1      38.893  32.606  33.645  1.00  0.00    -0.354 N 
ATOM     41  C   UNL A   1      39.624  29.774  30.451  1.00  0.00     0.074 A 
ATOM     42  C   UNL A   1      38.673  29.940  29.377  1.00  0.00     0.031 C 
ATOM     43  C   UNL A   1      37.774  34.205  34.737  1.00  0.00     0.029 A 
ATOM     44  C   UNL A   1      38.883  33.266  34.853  1.00  0.00     0.049 A 
ATOM     45  H   UNL A   1      39.554  31.914  33.415  1.00  0.00     0.167 HD
ATOM     46  C   UNL A   1      40.621  28.857  30.442  1.00  0.00     0.034 A 
ATOM     47  C   UNL A   1      39.679  33.124  35.931  1.00  0.00     0.034 A 
ATOM     48  C   UNL A   1      41.601  28.734  31.484  1.00  0.00     0.049 A 
ATOM     49  C   UNL A   1      40.805  32.123  35.877  1.00  0.00     0.074 A 
ATOM     50  C   UNL A   1      42.692  27.885  31.542  1.00  0.00     0.029 A 
ATOM     51  N   UNL A   1      41.614  29.485  32.648  1.00  0.00    -0.354 N 
ATOM     52  N   UNL A   1      41.147  31.318  34.900  1.00  0.00    -0.248 NA
ATOM     53  C   UNL A   1      41.676  32.037  37.058  1.00  0.00     0.031 C 
ATOM     54  C   UNL A   1      43.360  28.118  32.748  1.00  0.00     0.029 A 
ATOM     55  C   UNL A   1      42.698  29.126  33.429  1.00  0.00     0.049 A 
ATOM     56  H   UNL A   1      40.951  30.174  32.883  1.00  0.00     0.167 HD
ATOM     57  C   UNL A   1      42.297  30.664  35.331  1.00  0.00     0.074 A 
ATOM     58  C   UNL A   1      42.604  31.184  36.647  1.00  0.00     0.031 C 
ATOM     59  C   UNL A   1      43.025  29.708  34.705  1.00  0.00     0.034 A 
BRANCH  46  60
ATOM     60  C   UNL A   1      40.750  27.969  29.233  1.00  0.00     0.023 A 
ATOM     61  C   UNL A   1      39.959  26.804  29.146  1.00  0.00     0.012 A 
ATOM     62  C   UNL A   1      41.589  28.316  28.156  1.00  0.00     0.148 A 
ATOM     63  C   UNL A   1      40.023  25.983  28.021  1.00  0.00     0.002 A 
ATOM     64  C   UNL A   1      41.613  27.516  27.018  1.00  0.00     0.091 A 
ATOM     65  F   UNL A   1      42.345  29.417  28.265  1.00  0.00    -0.205 F 
ATOM     66  C   UNL A   1      40.841  26.344  26.955  1.00  0.00     0.022 A 
BRANCH  64  67
ATOM     67  S   UNL A   1      42.570  27.930  25.557  1.00  0.00     0.127 S 
ATOM     68  O   UNL A   1      42.397  26.729  24.740  1.00  0.00    -0.237 OA
ATOM     69  O   UNL A   1      41.869  29.113  25.057  1.00  0.00    -0.237 OA
ATOM     70  O   UNL A   1      43.929  28.174  26.018  1.00  0.00    -0.744 OA
ENDBRANCH  64  67
ENDBRANCH  46  60
BRANCH  47  71
ATOM     71  C   UNL A   1      39.494  33.992  37.130  1.00  0.00     0.023 A 
ATOM     72  C   UNL A   1      39.944  35.327  37.094  1.00  0.00     0.012 A 
ATOM     73  C   UNL A   1      38.886  33.507  38.304  1.00  0.00     0.148 A 
ATOM     74  C   UNL A   1      39.837  36.147  38.217  1.00  0.00     0.002 A 
ATOM     75  C   UNL A   1      38.730  34.347  39.402  1.00  0.00     0.091 A 
ATOM     76  F   UNL A   1      38.475  32.231  38.328  1.00  0.00    -0.205 F 
ATOM     77  C   UNL A   1      39.223  35.661  39.368  1.00  0.00     0.022 A 
BRANCH  75  78
ATOM     78  S   UNL A   1      37.837  33.840  40.874  1.00  0.00     0.127 S 
ATOM     79  O   UNL A   1      36.659  33.193  40.304  1.00  0.00    -0.237 OA
ATOM     80  O   UNL A   1      38.790  32.932  41.514  1.00  0.00    -0.237 OA
ATOM     81  O   UNL A   1      37.594  35.068  41.620  1.00  0.00    -0.744 OA
ENDBRANCH  75  78
ENDBRANCH  47  71
BRANCH  59  82
ATOM     82  C   UNL A   1      44.255  29.194  35.404  1.00  0.00     0.023 A 
ATOM     83  C   UNL A   1      44.177  28.033  36.198  1.00  0.00     0.012 A 
ATOM     84  C   UNL A   1      45.502  29.820  35.208  1.00  0.00     0.148 A 
ATOM     85  C   UNL A   1      45.317  27.523  36.816  1.00  0.00     0.002 A 
ATOM     86  C   UNL A   1      46.642  29.275  35.784  1.00  0.00     0.091 A 
ATOM     87  F   UNL A   1      45.549  30.933  34.462  1.00  0.00    -0.205 F 
ATOM     88  C   UNL A   1      46.550  28.135  36.599  1.00  0.00     0.022 A 
BRANCH  86  89
ATOM     89  S   UNL A   1      48.283  29.937  35.481  1.00  0.00     0.127 S 
ATOM     90  O   UNL A   1      48.438  29.706  34.046  1.00  0.00    -0.237 OA
ATOM     91  O   UNL A   1      48.126  31.342  35.860  1.00  0.00    -0.237 OA
ATOM     92  O   UNL A   1      49.186  29.179  36.338  1.00  0.00    -0.744 OA
ENDBRANCH  86  89
ENDBRANCH  59  82
ENDBRANCH  33  34
ENDBRANCH  25  28
ENDBRANCH  23  24
ENDBRANCH  22  23
ENDBRANCH  21  22
ENDBRANCH   1  21
TORSDOF 19
ENDMDL
MODEL 2
REMARK VINA RESULT:     -10.5      5.262      7.949
REMARK SMILES CC(C)(C)SCC(=O)NC1(CC(=O)NCCCCNC(=O)c2ccc(-c3c4nc(c(-c5cccc(S(=O)(=O)[O-])c5F)c5ccc([nH]5)c(-c5cccc(S(=O)(=O)[O-])c5F)c5nc(c(-c6cccc(S(=O)(=O)[O-])c6F)c6ccc3[nH]6)C=C5)C=C4)cc2)CCC1
REMARK SMILES IDX 15 1 14 2 12 3 13 4 11 6 10 7 85 8 87 9 86 10 9 11 7 12 8 13
REMARK SMILES IDX 6 15 5 16 2 17 1 18 3 19 4 20 16 21 17 22 18 23 19 24 20 25
REMARK SMILES IDX 21 27 22 28 23 29 84 30 24 31 83 32 25 33 26 34 27 35 77 36
REMARK SMILES IDX 28 37 82 38 76 39 78 40 29 41 81 42 75 43 74 44 30 46 62 47
REMARK SMILES IDX 42 48 61 49 43 50 46 51 60 52 79 53 44 54 45 55 59 57 80 58
REMARK SMILES IDX 47 59 31 60 32 61 40 62 33 63 35 64 41 65 34 66 36 67 37 68
REMARK SMILES IDX 38 69 39 70 63 71 64 72 72 73 65 74 67 75 73 76 66 77 68 78
REMARK SMILES IDX 69 79 70 80 71 81 48 82 49 83 57 84 50 85 52 86 58 87 51 88
REMARK SMILES IDX 53 89 54 90 55 91 56 92
REMARK H PARENT 14 5 9 14 19 26 78 45 46 56
REMARK Flexibility Score: inf
ROOT
ATOM      1  C   UNL A   1      33.425  23.885  25.434  1.00  0.00     0.116 C 
ENDROOT
BRANCH   1   2
ATOM      2  N   UNL A   1      33.363  24.138  24.010  1.00  0.00    -0.356 N 
ATOM      3  C   UNL A   1      33.553  25.279  23.288  1.00  0.00     0.222 C 
ATOM      4  O   UNL A   1      33.571  25.201  22.056  1.00  0.00    -0.275 OA
ATOM      5  H   UNL A   1      33.144  23.348  23.467  1.00  0.00     0.163 HD
BRANCH   3   6
ATOM      6  C   UNL A   1      33.833  26.599  23.946  1.00  0.00     0.128 C 
BRANCH   6   7
ATOM      7  C   UNL A   1      32.865  27.158  25.005  1.00  0.00     0.049 C 
ATOM      8  C   UNL A   1      32.940  28.754  24.910  1.00  0.00     0.029 C 
ATOM      9  C   UNL A   1      33.339  27.409  26.478  1.00  0.00     0.029 C 
ATOM     10  C   UNL A   1      33.994  28.723  26.014  1.00  0.00     0.005 C 
BRANCH   7  11
ATOM     11  N   UNL A   1      31.438  26.814  24.751  1.00  0.00    -0.349 N 
ATOM     12  C   UNL A   1      30.434  27.195  23.911  1.00  0.00     0.230 C 
ATOM     13  O   UNL A   1      29.417  26.488  23.962  1.00  0.00    -0.274 OA
ATOM     14  H   UNL A   1      31.132  26.111  25.369  1.00  0.00     0.164 HD
BRANCH  12  15
ATOM     15  C   UNL A   1      30.505  28.318  22.905  1.00  0.00     0.169 C 
BRANCH  15  16
ATOM     16  S   UNL A   1      29.838  29.893  23.472  1.00  0.00    -0.146 SA
BRANCH  16  17
ATOM     17  C   UNL A   1      28.150  30.107  22.789  1.00  0.00     0.008 C 
ATOM     18  C   UNL A   1      27.589  31.367  23.486  1.00  0.00     0.022 C 
ATOM     19  C   UNL A   1      27.224  28.929  23.069  1.00  0.00     0.022 C 
ATOM     20  C   UNL A   1      28.253  30.395  21.290  1.00  0.00     0.022 C 
ENDBRANCH  16  17
ENDBRANCH  15  16
ENDBRANCH  12  15
ENDBRANCH   7  11
ENDBRANCH   6   7
ENDBRANCH   3   6
ENDBRANCH   1   2
BRANCH   1  21
ATOM     21  C   UNL A   1      34.743  23.286  25.945  1.00  0.00     0.023 C 
BRANCH  21  22
ATOM     22  C   UNL A   1      36.026  24.111  25.927  1.00  0.00     0.023 C 
BRANCH  22  23
ATOM     23  C   UNL A   1      37.087  23.681  24.949  1.00  0.00     0.116 C 
BRANCH  23  24
ATOM     24  N   UNL A   1      37.887  22.596  25.483  1.00  0.00    -0.352 N 
ATOM     25  C   UNL A   1      39.076  22.674  26.170  1.00  0.00     0.251 C 
ATOM     26  H   UNL A   1      37.534  21.688  25.336  1.00  0.00     0.163 HD
ATOM     27  O   UNL A   1      39.761  21.667  26.317  1.00  0.00    -0.269 OA
BRANCH  25  28
ATOM     28  C   UNL A   1      39.523  23.978  26.714  1.00  0.00     0.039 A 
ATOM     29  C   UNL A   1      40.171  24.885  25.873  1.00  0.00     0.014 A 
ATOM     30  C   UNL A   1      39.305  24.303  28.056  1.00  0.00     0.014 A 
ATOM     31  C   UNL A   1      40.564  26.130  26.370  1.00  0.00     0.010 A 
ATOM     32  C   UNL A   1      39.595  25.581  28.518  1.00  0.00     0.010 A 
ATOM     33  C   UNL A   1      40.260  26.497  27.692  1.00  0.00    -0.014 A 
BRANCH  33  34
ATOM     34  C   UNL A   1      40.676  27.806  28.257  1.00  0.00     0.031 A 
ATOM     35  C   UNL A   1      42.144  28.102  28.444  1.00  0.00     0.074 A 
ATOM     36  C   UNL A   1      39.747  28.694  28.664  1.00  0.00     0.049 A 
ATOM     37  N   UNL A   1      42.713  29.146  28.987  1.00  0.00    -0.248 NA
ATOM     38  C   UNL A   1      43.099  27.074  27.991  1.00  0.00     0.031 C 
ATOM     39  C   UNL A   1      38.297  28.493  28.606  1.00  0.00     0.029 A 
ATOM     40  N   UNL A   1      39.885  29.935  29.231  1.00  0.00    -0.354 N 
ATOM     41  C   UNL A   1      44.079  28.885  28.971  1.00  0.00     0.074 A 
ATOM     42  C   UNL A   1      44.253  27.564  28.413  1.00  0.00     0.031 C 
ATOM     43  C   UNL A   1      37.682  29.577  29.107  1.00  0.00     0.029 A 
ATOM     44  C   UNL A   1      38.688  30.535  29.550  1.00  0.00     0.049 A 
ATOM     45  H   UNL A   1      40.759  30.358  29.395  1.00  0.00     0.167 HD
ATOM     46  C   UNL A   1      45.103  29.688  29.347  1.00  0.00     0.034 A 
ATOM     47  C   UNL A   1      38.435  31.722  30.135  1.00  0.00     0.034 A 
ATOM     48  C   UNL A   1      44.929  31.023  29.846  1.00  0.00     0.049 A 
ATOM     49  C   UNL A   1      39.594  32.611  30.507  1.00  0.00     0.074 A 
ATOM     50  C   UNL A   1      45.901  31.945  30.191  1.00  0.00     0.029 A 
ATOM     51  N   UNL A   1      43.703  31.630  30.064  1.00  0.00    -0.354 N 
ATOM     52  N   UNL A   1      40.879  32.400  30.352  1.00  0.00    -0.248 NA
ATOM     53  C   UNL A   1      39.268  33.916  31.099  1.00  0.00     0.031 C 
ATOM     54  C   UNL A   1      45.260  33.108  30.628  1.00  0.00     0.029 A 
ATOM     55  C   UNL A   1      43.891  32.917  30.534  1.00  0.00     0.049 A 
ATOM     56  H   UNL A   1      42.827  31.208  29.907  1.00  0.00     0.167 HD
ATOM     57  C   UNL A   1      41.510  33.561  30.785  1.00  0.00     0.074 A 
ATOM     58  C   UNL A   1      40.466  34.479  31.187  1.00  0.00     0.031 C 
ATOM     59  C   UNL A   1      42.835  33.839  30.861  1.00  0.00     0.034 A 
BRANCH  46  60
ATOM     60  C   UNL A   1      46.506  29.174  29.157  1.00  0.00     0.023 A 
ATOM     61  C   UNL A   1      47.188  28.610  30.256  1.00  0.00     0.012 A 
ATOM     62  C   UNL A   1      47.123  29.180  27.892  1.00  0.00     0.148 A 
ATOM     63  C   UNL A   1      48.471  28.087  30.105  1.00  0.00     0.002 A 
ATOM     64  C   UNL A   1      48.385  28.616  27.739  1.00  0.00     0.091 A 
ATOM     65  F   UNL A   1      46.467  29.736  26.864  1.00  0.00    -0.205 F 
ATOM     66  C   UNL A   1      49.064  28.080  28.846  1.00  0.00     0.022 A 
BRANCH  64  67
ATOM     67  S   UNL A   1      49.208  28.483  26.148  1.00  0.00     0.127 S 
ATOM     68  O   UNL A   1      49.982  27.254  26.318  1.00  0.00    -0.237 OA
ATOM     69  O   UNL A   1      48.076  28.369  25.228  1.00  0.00    -0.237 OA
ATOM     70  O   UNL A   1      49.997  29.697  25.998  1.00  0.00    -0.744 OA
ENDBRANCH  64  67
ENDBRANCH  46  60
BRANCH  47  71
ATOM     71  C   UNL A   1      37.031  32.179  30.348  1.00  0.00     0.023 A 
ATOM     72  C   UNL A   1      36.487  32.157  31.648  1.00  0.00     0.012 A 
ATOM     73  C   UNL A   1      36.231  32.626  29.280  1.00  0.00     0.148 A 
ATOM     74  C   UNL A   1      35.160  32.524  31.872  1.00  0.00     0.002 A 
ATOM     75  C   UNL A   1      34.927  33.045  29.518  1.00  0.00     0.091 A 
ATOM     76  F   UNL A   1      36.758  32.629  28.047  1.00  0.00    -0.205 F 
ATOM     77  C   UNL A   1      34.382  32.976  30.810  1.00  0.00     0.022 A 
BRANCH  75  78
ATOM     78  S   UNL A   1      33.902  33.762  28.230  1.00  0.00     0.127 S 
ATOM     79  O   UNL A   1      33.370  32.572  27.572  1.00  0.00    -0.237 OA
ATOM     80  O   UNL A   1      32.924  34.527  29.005  1.00  0.00    -0.237 OA
ATOM     81  O   UNL A   1      34.803  34.585  27.433  1.00  0.00    -0.744 OA
ENDBRANCH  75  78
ENDBRANCH  47  71
BRANCH  59  82
ATOM     82  C   UNL A   1      43.236  35.206  31.347  1.00  0.00     0.023 A 
ATOM     83  C   UNL A   1      43.465  35.423  32.720  1.00  0.00     0.012 A 
ATOM     84  C   UNL A   1      43.462  36.252  30.431  1.00  0.00     0.148 A 
ATOM     85  C   UNL A   1      43.878  36.673  33.178  1.00  0.00     0.002 A 
ATOM     86  C   UNL A   1      43.924  37.479  30.889  1.00  0.00     0.091 A 
ATOM     87  F   UNL A   1      43.222  36.028  29.131  1.00  0.00    -0.205 F 
ATOM     88  C   UNL A   1      44.120  37.696  32.263  1.00  0.00     0.022 A 
BRANCH  86  89
ATOM     89  S   UNL A   1      44.357  38.821  29.777  1.00  0.00     0.127 S 
ATOM     90  O   UNL A   1      43.062  39.144  29.182  1.00  0.00    -0.237 OA
ATOM     91  O   UNL A   1      44.874  39.833  30.699  1.00  0.00    -0.237 OA
ATOM     92  O   UNL A   1      45.349  38.278  28.859  1.00  0.00    -0.744 OA
ENDBRANCH  86  89
ENDBRANCH  59  82
ENDBRANCH  33  34
ENDBRANCH  25  28
ENDBRANCH  23  24
ENDBRANCH  22  23
ENDBRANCH  21  22
ENDBRANCH   1  21
TORSDOF 19
ENDMDL
MODEL 3
REMARK VINA RESULT:     -10.5      3.175      4.886
REMARK SMILES CC(C)(C)SCC(=O)NC1(CC(=O)NCCCCNC(=O)c2ccc(-c3c4nc(c(-c5cccc(S(=O)(=O)[O-])c5F)c5ccc([nH]5)c(-c5cccc(S(=O)(=O)[O-])c5F)c5nc(c(-c6cccc(S(=O)(=O)[O-])c6F)c6ccc3[nH]6)C=C5)C=C4)cc2)CCC1
REMARK SMILES IDX 15 1 14 2 12 3 13 4 11 6 10 7 85 8 87 9 86 10 9 11 7 12 8 13
REMARK SMILES IDX 6 15 5 16 2 17 1 18 3 19 4 20 16 21 17 22 18 23 19 24 20 25
REMARK SMILES IDX 21 27 22 28 23 29 84 30 24 31 83 32 25 33 26 34 27 35 77 36
REMARK SMILES IDX 28 37 82 38 76 39 78 40 29 41 81 42 75 43 74 44 30 46 62 47
REMARK SMILES IDX 42 48 61 49 43 50 46 51 60 52 79 53 44 54 45 55 59 57 80 58
REMARK SMILES IDX 47 59 31 60 32 61 40 62 33 63 35 64 41 65 34 66 36 67 37 68
REMARK SMILES IDX 38 69 39 70 63 71 64 72 72 73 65 74 67 75 73 76 66 77 68 78
REMARK SMILES IDX 69 79 70 80 71 81 48 82 49 83 57 84 50 85 52 86 58 87 51 88
REMARK SMILES IDX 53 89 54 90 55 91 56 92
REMARK H PARENT 14 5 9 14 19 26 78 45 46 56
REMARK Flexibility Score: inf
ROOT
ATOM      1  C   UNL A   1      31.127  27.470  22.120  1.00  0.00     0.116 C 
ENDROOT
BRANCH   1   2
ATOM      2  N   UNL A   1      32.177  26.557  21.720  1.00  0.00    -0.356 N 
ATOM      3  C   UNL A   1      32.577  25.361  22.238  1.00  0.00     0.222 C 
ATOM      4  O   UNL A   1      33.427  24.708  21.625  1.00  0.00    -0.275 OA
ATOM      5  H   UNL A   1      32.694  26.852  20.936  1.00  0.00     0.163 HD
BRANCH   3   6
ATOM      6  C   UNL A   1      31.950  24.778  23.471  1.00  0.00     0.128 C 
BRANCH   6   7
ATOM      7  C   UNL A   1      32.788  24.579  24.747  1.00  0.00     0.049 C 
ATOM      8  C   UNL A   1      31.810  23.969  25.858  1.00  0.00     0.029 C 
ATOM      9  C   UNL A   1      32.953  25.735  25.793  1.00  0.00     0.029 C 
ATOM     10  C   UNL A   1      31.558  25.392  26.349  1.00  0.00     0.005 C 
BRANCH   7  11
ATOM     11  N   UNL A   1      33.882  23.579  24.593  1.00  0.00    -0.349 N 
ATOM     12  C   UNL A   1      34.029  22.224  24.595  1.00  0.00     0.230 C 
ATOM     13  O   UNL A   1      35.151  21.822  24.253  1.00  0.00    -0.274 OA
ATOM     14  H   UNL A   1      34.748  24.027  24.450  1.00  0.00     0.164 HD
BRANCH  12  15
ATOM     15  C   UNL A   1      32.942  21.220  24.889  1.00  0.00     0.169 C 
BRANCH  15  16
ATOM     16  S   UNL A   1      32.715  19.950  23.631  1.00  0.00    -0.146 SA
BRANCH  16  17
ATOM     17  C   UNL A   1      33.311  18.346  24.288  1.00  0.00     0.008 C 
ATOM     18  C   UNL A   1      33.131  17.341  23.128  1.00  0.00     0.022 C 
ATOM     19  C   UNL A   1      32.527  17.852  25.499  1.00  0.00     0.022 C 
ATOM     20  C   UNL A   1      34.806  18.459  24.597  1.00  0.00     0.022 C 
ENDBRANCH  16  17
ENDBRANCH  15  16
ENDBRANCH  12  15
ENDBRANCH   7  11
ENDBRANCH   6   7
ENDBRANCH   3   6
ENDBRANCH   1   2
BRANCH   1  21
ATOM     21  C   UNL A   1      31.490  28.447  23.247  1.00  0.00     0.023 C 
BRANCH  21  22
ATOM     22  C   UNL A   1      32.939  28.871  23.467  1.00  0.00     0.023 C 
BRANCH  22  23
ATOM     23  C   UNL A   1      33.342  29.174  24.885  1.00  0.00     0.116 C 
BRANCH  23  24
ATOM     24  N   UNL A   1      32.622  30.321  25.404  1.00  0.00    -0.352 N 
ATOM     25  C   UNL A   1      32.829  30.991  26.587  1.00  0.00     0.251 C 
ATOM     26  H   UNL A   1      31.893  30.663  24.837  1.00  0.00     0.163 HD
ATOM     27  O   UNL A   1      31.973  31.762  27.007  1.00  0.00    -0.269 OA
BRANCH  25  28
ATOM     28  C   UNL A   1      34.080  30.764  27.348  1.00  0.00     0.039 A 
ATOM     29  C   UNL A   1      34.918  31.846  27.627  1.00  0.00     0.014 A 
ATOM     30  C   UNL A   1      34.426  29.482  27.785  1.00  0.00     0.014 A 
ATOM     31  C   UNL A   1      36.081  31.645  28.375  1.00  0.00     0.010 A 
ATOM     32  C   UNL A   1      35.521  29.304  28.621  1.00  0.00     0.010 A 
ATOM     33  C   UNL A   1      36.382  30.376  28.897  1.00  0.00    -0.014 A 
BRANCH  33  34
ATOM     34  C   UNL A   1      37.617  30.125  29.682  1.00  0.00     0.031 A 
ATOM     35  C   UNL A   1      38.691  29.231  29.114  1.00  0.00     0.074 A 
ATOM     36  C   UNL A   1      37.744  30.634  30.924  1.00  0.00     0.049 A 
ATOM     37  N   UNL A   1      39.804  28.824  29.665  1.00  0.00    -0.248 NA
ATOM     38  C   UNL A   1      38.470  28.697  27.757  1.00  0.00     0.031 C 
ATOM     39  C   UNL A   1      36.742  31.451  31.614  1.00  0.00     0.029 A 
ATOM     40  N   UNL A   1      38.762  30.520  31.837  1.00  0.00    -0.354 N 
ATOM     41  C   UNL A   1      40.394  27.966  28.742  1.00  0.00     0.074 A 
ATOM     42  C   UNL A   1      39.494  27.869  27.617  1.00  0.00     0.031 C 
ATOM     43  C   UNL A   1      37.201  31.771  32.836  1.00  0.00     0.029 A 
ATOM     44  C   UNL A   1      38.511  31.161  33.029  1.00  0.00     0.049 A 
ATOM     45  H   UNL A   1      39.595  30.027  31.656  1.00  0.00     0.167 HD
ATOM     46  C   UNL A   1      41.597  27.347  28.804  1.00  0.00     0.034 A 
ATOM     47  C   UNL A   1      39.255  31.241  34.150  1.00  0.00     0.034 A 
ATOM     48  C   UNL A   1      42.515  27.494  29.898  1.00  0.00     0.049 A 
ATOM     49  C   UNL A   1      40.606  30.574  34.174  1.00  0.00     0.074 A 
ATOM     50  C   UNL A   1      43.787  26.966  30.030  1.00  0.00     0.029 A 
ATOM     51  N   UNL A   1      42.264  28.228  31.045  1.00  0.00    -0.354 N 
ATOM     52  N   UNL A   1      41.204  29.884  33.233  1.00  0.00    -0.248 NA
ATOM     53  C   UNL A   1      41.402  30.729  35.401  1.00  0.00     0.031 C 
ATOM     54  C   UNL A   1      44.301  27.374  31.264  1.00  0.00     0.029 A 
ATOM     55  C   UNL A   1      43.358  28.174  31.890  1.00  0.00     0.049 A 
ATOM     56  H   UNL A   1      41.430  28.718  31.232  1.00  0.00     0.167 HD
ATOM     57  C   UNL A   1      42.459  29.561  33.737  1.00  0.00     0.074 A 
ATOM     58  C   UNL A   1      42.544  30.150  35.056  1.00  0.00     0.031 C 
ATOM     59  C   UNL A   1      43.448  28.828  33.168  1.00  0.00     0.034 A 
BRANCH  46  60
ATOM     60  C   UNL A   1      42.023  26.519  27.621  1.00  0.00     0.023 A 
ATOM     61  C   UNL A   1      42.784  27.120  26.596  1.00  0.00     0.012 A 
ATOM     62  C   UNL A   1      41.740  25.141  27.552  1.00  0.00     0.148 A 
ATOM     63  C   UNL A   1      43.230  26.371  25.508  1.00  0.00     0.002 A 
ATOM     64  C   UNL A   1      42.227  24.391  26.487  1.00  0.00     0.091 A 
ATOM     65  F   UNL A   1      41.001  24.591  28.526  1.00  0.00    -0.205 F 
ATOM     66  C   UNL A   1      42.961  25.006  25.460  1.00  0.00     0.022 A 
BRANCH  64  67
ATOM     67  S   UNL A   1      42.006  22.613  26.366  1.00  0.00     0.127 S 
ATOM     68  O   UNL A   1      40.548  22.497  26.354  1.00  0.00    -0.237 OA
ATOM     69  O   UNL A   1      42.652  22.311  25.088  1.00  0.00    -0.237 OA
ATOM     70  O   UNL A   1      42.664  22.043  27.533  1.00  0.00    -0.744 OA
ENDBRANCH  64  67
ENDBRANCH  46  60
BRANCH  47  71
ATOM     71  C   UNL A   1      38.780  32.035  35.320  1.00  0.00     0.023 A 
ATOM     72  C   UNL A   1      38.906  33.438  35.300  1.00  0.00     0.012 A 
ATOM     73  C   UNL A   1      38.216  31.415  36.451  1.00  0.00     0.148 A 
ATOM     74  C   UNL A   1      38.523  34.205  36.401  1.00  0.00     0.002 A 
ATOM     75  C   UNL A   1      37.783  32.189  37.522  1.00  0.00     0.091 A 
ATOM     76  F   UNL A   1      38.115  30.078  36.461  1.00  0.00    -0.205 F 
ATOM     77  C   UNL A   1      37.955  33.582  37.509  1.00  0.00     0.022 A 
BRANCH  75  78
ATOM     78  S   UNL A   1      36.925  31.479  38.930  1.00  0.00     0.127 S 
ATOM     79  O   UNL A   1      35.712  32.289  38.983  1.00  0.00    -0.237 OA
ATOM     80  O   UNL A   1      36.723  30.095  38.501  1.00  0.00    -0.237 OA
ATOM     81  O   UNL A   1      37.841  31.625  40.055  1.00  0.00    -0.744 OA
ENDBRANCH  75  78
ENDBRANCH  47  71
BRANCH  59  82
ATOM     82  C   UNL A   1      44.729  28.663  33.941  1.00  0.00     0.023 A 
ATOM     83  C   UNL A   1      45.769  29.599  33.782  1.00  0.00     0.012 A 
ATOM     84  C   UNL A   1      44.868  27.623  34.881  1.00  0.00     0.148 A 
ATOM     85  C   UNL A   1      46.944  29.483  34.523  1.00  0.00     0.002 A 
ATOM     86  C   UNL A   1      46.020  27.544  35.653  1.00  0.00     0.091 A 
ATOM     87  F   UNL A   1      43.872  26.734  35.004  1.00  0.00    -0.205 F 
ATOM     88  C   UNL A   1      47.064  28.464  35.467  1.00  0.00     0.022 A 
BRANCH  86  89
ATOM     89  S   UNL A   1      46.221  26.328  36.959  1.00  0.00     0.127 S 
ATOM     90  O   UNL A   1      46.265  25.080  36.200  1.00  0.00    -0.237 OA
ATOM     91  O   UNL A   1      47.497  26.724  37.558  1.00  0.00    -0.237 OA
ATOM     92  O   UNL A   1      45.069  26.486  37.837  1.00  0.00    -0.744 OA
ENDBRANCH  86  89
ENDBRANCH  59  82
ENDBRANCH  33  34
ENDBRANCH  25  28
ENDBRANCH  23  24
ENDBRANCH  22  23
ENDBRANCH  21  22
ENDBRANCH   1  21
TORSDOF 19
ENDMDL
