MODEL 1
REMARK VINA RESULT:     -12.3      0.000      0.000
REMARK SMILES C[C@@H]1[C@H](C(=O)NCCCCNC(=O)c2ccc(-c3c4nc(c(-c5cccc(S(=O)(=O)[O-])c5F)c5ccc([nH]5)c(-c5cccc(S(=O)(=O)[O-])c5F)c5nc(c(-c6cccc(S(=O)(=O)[O-])c6F)c6ccc3[nH]6)C=C5)C=C4)cc2)CC[N@@H+]1Cc1cnn(-c2ccccc2)c1
REMARK SMILES IDX 8 1 7 2 6 3 4 4 5 5 3 7 1 8 2 9 79 10 77 11 78 12 80 14
REMARK SMILES IDX 81 15 82 16 91 17 83 18 84 19 85 20 86 21 90 22 87 23 89 24
REMARK SMILES IDX 88 25 9 26 10 27 11 28 12 29 13 31 14 32 15 33 76 34 16 35
REMARK SMILES IDX 75 36 17 37 18 38 19 39 69 40 20 41 74 42 68 43 70 44 21 45
REMARK SMILES IDX 73 46 67 47 66 48 22 50 54 51 34 52 53 53 35 54 38 55 52 56
REMARK SMILES IDX 71 57 36 58 37 59 51 61 72 62 39 63 23 64 24 65 32 66 25 67
REMARK SMILES IDX 27 68 33 69 26 70 28 71 29 72 30 73 31 74 55 75 56 76 64 77
REMARK SMILES IDX 57 78 59 79 65 80 58 81 60 82 61 83 62 84 63 85 40 86 41 87
REMARK SMILES IDX 49 88 42 89 44 90 50 91 43 92 45 93 46 94 47 95 48 96
REMARK H PARENT 6 6 79 13 11 30 70 49 38 60
REMARK Flexibility Score: inf
ROOT
ATOM      1  C   UNL A   1      31.843  27.693  26.875  1.00  0.00     0.023 C 
ENDROOT
BRANCH   1   2
ATOM      2  C   UNL A   1      31.096  26.616  26.094  1.00  0.00     0.116 C 
BRANCH   2   3
ATOM      3  N   UNL A   1      31.051  25.367  26.819  1.00  0.00    -0.356 N 
ATOM      4  C   UNL A   1      31.687  24.190  26.590  1.00  0.00     0.229 C 
ATOM      5  O   UNL A   1      31.405  23.245  27.334  1.00  0.00    -0.275 OA
ATOM      6  H   UNL A   1      30.464  25.370  27.609  1.00  0.00     0.163 HD
BRANCH   4   7
ATOM      7  C   UNL A   1      32.726  23.992  25.494  1.00  0.00     0.142 C 
ATOM      8  C   UNL A   1      30.806  23.971  23.688  1.00  0.00     0.076 C 
ATOM      9  C   UNL A   1      32.280  23.832  24.026  1.00  0.00     0.193 C 
ATOM     10  N   UNL A   1      33.208  24.680  23.290  1.00  0.00    -0.328 N 
ATOM     11  C   UNL A   1      33.879  24.999  25.487  1.00  0.00     0.081 C 
ATOM     12  C   UNL A   1      34.397  24.958  24.060  1.00  0.00     0.263 C 
ATOM     13  H   UNL A   1      33.278  24.206  22.389  1.00  0.00     0.348 HD
BRANCH  10  14
ATOM     14  C   UNL A   1      32.917  25.389  22.071  1.00  0.00     0.302 C 
BRANCH  14  15
ATOM     15  C   UNL A   1      32.437  26.783  22.315  1.00  0.00     0.045 A 
ATOM     16  C   UNL A   1      33.203  27.956  22.479  1.00  0.00     0.145 A 
ATOM     17  C   UNL A   1      31.136  27.250  22.359  1.00  0.00     0.124 A 
ATOM     18  N   UNL A   1      32.462  29.058  22.584  1.00  0.00    -0.176 NA
ATOM     19  N   UNL A   1      31.181  28.617  22.550  1.00  0.00    -0.240 N 
BRANCH  19  20
ATOM     20  C   UNL A   1      30.092  29.509  22.747  1.00  0.00     0.065 A 
ATOM     21  C   UNL A   1      29.111  29.626  21.754  1.00  0.00     0.028 A 
ATOM     22  C   UNL A   1      30.017  30.316  23.892  1.00  0.00     0.028 A 
ATOM     23  C   UNL A   1      28.061  30.535  21.910  1.00  0.00     0.002 A 
ATOM     24  C   UNL A   1      28.993  31.259  24.017  1.00  0.00     0.002 A 
ATOM     25  C   UNL A   1      28.012  31.361  23.032  1.00  0.00     0.000 A 
ENDBRANCH  19  20
ENDBRANCH  14  15
ENDBRANCH  10  14
ENDBRANCH   4   7
ENDBRANCH   2   3
ENDBRANCH   1   2
BRANCH   1  26
ATOM     26  C   UNL A   1      32.838  28.530  26.098  1.00  0.00     0.023 C 
BRANCH  26  27
ATOM     27  C   UNL A   1      33.985  29.091  26.914  1.00  0.00     0.116 C 
BRANCH  27  28
ATOM     28  N   UNL A   1      33.763  30.434  27.441  1.00  0.00    -0.352 N 
ATOM     29  C   UNL A   1      34.652  31.217  28.146  1.00  0.00     0.251 C 
ATOM     30  H   UNL A   1      32.877  30.825  27.273  1.00  0.00     0.163 HD
ATOM     31  O   UNL A   1      34.418  32.380  28.434  1.00  0.00    -0.269 OA
BRANCH  29  32
ATOM     32  C   UNL A   1      35.928  30.614  28.547  1.00  0.00     0.039 A 
ATOM     33  C   UNL A   1      37.122  31.075  27.987  1.00  0.00     0.014 A 
ATOM     34  C   UNL A   1      35.917  29.639  29.543  1.00  0.00     0.014 A 
ATOM     35  C   UNL A   1      38.331  30.561  28.453  1.00  0.00     0.010 A 
ATOM     36  C   UNL A   1      37.119  29.212  30.075  1.00  0.00     0.010 A 
ATOM     37  C   UNL A   1      38.332  29.634  29.505  1.00  0.00    -0.014 A 
BRANCH  37  38
ATOM     38  C   UNL A   1      39.564  28.967  29.976  1.00  0.00     0.031 A 
ATOM     39  C   UNL A   1      40.317  29.606  31.111  1.00  0.00     0.074 A 
ATOM     40  C   UNL A   1      40.065  27.906  29.317  1.00  0.00     0.049 A 
ATOM     41  N   UNL A   1      41.522  29.364  31.547  1.00  0.00    -0.248 NA
ATOM     42  C   UNL A   1      39.636  30.715  31.809  1.00  0.00     0.031 C 
ATOM     43  C   UNL A   1      39.442  27.245  28.169  1.00  0.00     0.029 A 
ATOM     44  N   UNL A   1      41.244  27.229  29.494  1.00  0.00    -0.354 N 
ATOM     45  C   UNL A   1      41.769  30.332  32.514  1.00  0.00     0.074 A 
ATOM     46  C   UNL A   1      40.607  31.188  32.572  1.00  0.00     0.031 C 
ATOM     47  C   UNL A   1      40.251  26.262  27.738  1.00  0.00     0.029 A 
ATOM     48  C   UNL A   1      41.462  26.252  28.552  1.00  0.00     0.049 A 
ATOM     49  H   UNL A   1      41.873  27.424  30.225  1.00  0.00     0.167 HD
ATOM     50  C   UNL A   1      42.856  30.476  33.306  1.00  0.00     0.034 A 
ATOM     51  C   UNL A   1      42.532  25.456  28.363  1.00  0.00     0.034 A 
ATOM     52  C   UNL A   1      43.969  29.570  33.283  1.00  0.00     0.049 A 
ATOM     53  C   UNL A   1      43.702  25.588  29.303  1.00  0.00     0.074 A 
ATOM     54  C   UNL A   1      45.085  29.553  34.098  1.00  0.00     0.029 A 
ATOM     55  N   UNL A   1      44.098  28.510  32.398  1.00  0.00    -0.354 N 
ATOM     56  N   UNL A   1      43.875  26.431  30.293  1.00  0.00    -0.248 NA
ATOM     57  C   UNL A   1      44.807  24.637  29.125  1.00  0.00     0.031 C 
ATOM     58  C   UNL A   1      45.898  28.490  33.694  1.00  0.00     0.029 A 
ATOM     59  C   UNL A   1      45.274  27.827  32.649  1.00  0.00     0.049 A 
ATOM     60  H   UNL A   1      43.449  28.278  31.695  1.00  0.00     0.167 HD
ATOM     61  C   UNL A   1      45.084  26.085  30.885  1.00  0.00     0.074 A 
ATOM     62  C   UNL A   1      45.593  24.945  30.147  1.00  0.00     0.031 C 
ATOM     63  C   UNL A   1      45.722  26.658  31.935  1.00  0.00     0.034 A 
BRANCH  50  64
ATOM     64  C   UNL A   1      42.861  31.621  34.286  1.00  0.00     0.023 A 
ATOM     65  C   UNL A   1      43.468  32.845  33.933  1.00  0.00     0.012 A 
ATOM     66  C   UNL A   1      42.247  31.496  35.547  1.00  0.00     0.148 A 
ATOM     67  C   UNL A   1      43.507  33.907  34.836  1.00  0.00     0.002 A 
ATOM     68  C   UNL A   1      42.241  32.578  36.420  1.00  0.00     0.091 A 
ATOM     69  F   UNL A   1      41.696  30.320  35.877  1.00  0.00    -0.205 F 
ATOM     70  C   UNL A   1      42.885  33.778  36.073  1.00  0.00     0.022 A 
BRANCH  68  71
ATOM     71  S   UNL A   1      41.392  32.543  38.003  1.00  0.00     0.127 S 
ATOM     72  O   UNL A   1      42.207  31.589  38.754  1.00  0.00    -0.237 OA
ATOM     73  O   UNL A   1      41.515  33.932  38.446  1.00  0.00    -0.237 OA
ATOM     74  O   UNL A   1      40.030  32.114  37.718  1.00  0.00    -0.744 OA
ENDBRANCH  68  71
ENDBRANCH  50  64
BRANCH  51  75
ATOM     75  C   UNL A   1      42.512  24.418  27.294  1.00  0.00     0.023 A 
ATOM     76  C   UNL A   1      43.135  24.693  26.059  1.00  0.00     0.012 A 
ATOM     77  C   UNL A   1      41.921  23.156  27.497  1.00  0.00     0.148 A 
ATOM     78  C   UNL A   1      43.141  23.743  25.037  1.00  0.00     0.002 A 
ATOM     79  C   UNL A   1      41.979  22.195  26.493  1.00  0.00     0.091 A 
ATOM     80  F   UNL A   1      41.328  22.915  28.675  1.00  0.00    -0.205 F 
ATOM     81  C   UNL A   1      42.573  22.492  25.256  1.00  0.00     0.022 A 
BRANCH  79  82
ATOM     82  S   UNL A   1      41.392  20.514  26.730  1.00  0.00     0.127 S 
ATOM     83  O   UNL A   1      42.184  20.078  27.877  1.00  0.00    -0.237 OA
ATOM     84  O   UNL A   1      39.971  20.727  27.006  1.00  0.00    -0.237 OA
ATOM     85  O   UNL A   1      41.662  19.822  25.476  1.00  0.00    -0.744 OA
ENDBRANCH  79  82
ENDBRANCH  51  75
BRANCH  63  86
ATOM     86  C   UNL A   1      47.010  26.030  32.393  1.00  0.00     0.023 A 
ATOM     87  C   UNL A   1      48.240  26.483  31.879  1.00  0.00     0.012 A 
ATOM     88  C   UNL A   1      46.999  25.044  33.400  1.00  0.00     0.148 A 
ATOM     89  C   UNL A   1      49.440  25.940  32.337  1.00  0.00     0.002 A 
ATOM     90  C   UNL A   1      48.199  24.547  33.889  1.00  0.00     0.091 A 
ATOM     91  F   UNL A   1      45.816  24.615  33.862  1.00  0.00    -0.205 F 
ATOM     92  C   UNL A   1      49.420  24.983  33.349  1.00  0.00     0.022 A 
BRANCH  90  93
ATOM     93  S   UNL A   1      48.270  23.391  35.262  1.00  0.00     0.127 S 
ATOM     94  O   UNL A   1      47.741  22.172  34.653  1.00  0.00    -0.237 OA
ATOM     95  O   UNL A   1      49.702  23.353  35.561  1.00  0.00    -0.237 OA
ATOM     96  O   UNL A   1      47.450  23.971  36.317  1.00  0.00    -0.744 OA
ENDBRANCH  90  93
ENDBRANCH  63  86
ENDBRANCH  37  38
ENDBRANCH  29  32
ENDBRANCH  27  28
ENDBRANCH  26  27
ENDBRANCH   1  26
TORSDOF 17
ENDMDL
MODEL 2
REMARK VINA RESULT:     -12.2      5.582      8.143
REMARK SMILES C[C@@H]1[C@H](C(=O)NCCCCNC(=O)c2ccc(-c3c4nc(c(-c5cccc(S(=O)(=O)[O-])c5F)c5ccc([nH]5)c(-c5cccc(S(=O)(=O)[O-])c5F)c5nc(c(-c6cccc(S(=O)(=O)[O-])c6F)c6ccc3[nH]6)C=C5)C=C4)cc2)CC[N@@H+]1Cc1cnn(-c2ccccc2)c1
REMARK SMILES IDX 8 1 7 2 6 3 4 4 5 5 3 7 1 8 2 9 79 10 77 11 78 12 80 14
REMARK SMILES IDX 81 15 82 16 91 17 83 18 84 19 85 20 86 21 90 22 87 23 89 24
REMARK SMILES IDX 88 25 9 26 10 27 11 28 12 29 13 31 14 32 15 33 76 34 16 35
REMARK SMILES IDX 75 36 17 37 18 38 19 39 69 40 20 41 74 42 68 43 70 44 21 45
REMARK SMILES IDX 73 46 67 47 66 48 22 50 54 51 34 52 53 53 35 54 38 55 52 56
REMARK SMILES IDX 71 57 36 58 37 59 51 61 72 62 39 63 23 64 24 65 32 66 25 67
REMARK SMILES IDX 27 68 33 69 26 70 28 71 29 72 30 73 31 74 55 75 56 76 64 77
REMARK SMILES IDX 57 78 59 79 65 80 58 81 60 82 61 83 62 84 63 85 40 86 41 87
REMARK SMILES IDX 49 88 42 89 44 90 50 91 43 92 45 93 46 94 47 95 48 96
REMARK H PARENT 6 6 79 13 11 30 70 49 38 60
REMARK Flexibility Score: inf
ROOT
ATOM      1  C   UNL A   1      36.786  20.332  25.011  1.00  0.00     0.023 C 
ENDROOT
BRANCH   1   2
ATOM      2  C   UNL A   1      35.585  21.097  25.558  1.00  0.00     0.116 C 
BRANCH   2   3
ATOM      3  N   UNL A   1      34.357  20.353  25.386  1.00  0.00    -0.356 N 
ATOM      4  C   UNL A   1      33.067  20.773  25.372  1.00  0.00     0.229 C 
ATOM      5  O   UNL A   1      32.195  19.903  25.282  1.00  0.00    -0.275 OA
ATOM      6  H   UNL A   1      34.477  19.385  25.257  1.00  0.00     0.163 HD
BRANCH   4   7
ATOM      7  C   UNL A   1      32.655  22.237  25.441  1.00  0.00     0.142 C 
ATOM      8  C   UNL A   1      32.644  22.349  22.807  1.00  0.00     0.076 C 
ATOM      9  C   UNL A   1      32.485  23.054  24.143  1.00  0.00     0.193 C 
ATOM     10  N   UNL A   1      31.246  23.788  24.358  1.00  0.00    -0.328 N 
ATOM     11  C   UNL A   1      31.425  22.537  26.302  1.00  0.00     0.081 C 
ATOM     12  C   UNL A   1      30.906  23.857  25.759  1.00  0.00     0.263 C 
ATOM     13  H   UNL A   1      31.397  24.644  23.823  1.00  0.00     0.348 HD
BRANCH  10  14
ATOM     14  C   UNL A   1      30.311  24.183  23.336  1.00  0.00     0.302 C 
BRANCH  14  15
ATOM     15  C   UNL A   1      30.340  25.653  23.066  1.00  0.00     0.045 A 
ATOM     16  C   UNL A   1      31.271  26.383  22.296  1.00  0.00     0.145 A 
ATOM     17  C   UNL A   1      29.422  26.616  23.444  1.00  0.00     0.124 A 
ATOM     18  N   UNL A   1      30.956  27.671  22.173  1.00  0.00    -0.176 NA
ATOM     19  N   UNL A   1      29.833  27.825  22.918  1.00  0.00    -0.240 N 
BRANCH  19  20
ATOM     20  C   UNL A   1      29.254  29.107  23.117  1.00  0.00     0.065 A 
ATOM     21  C   UNL A   1      28.035  29.415  22.500  1.00  0.00     0.028 A 
ATOM     22  C   UNL A   1      29.913  30.088  23.872  1.00  0.00     0.028 A 
ATOM     23  C   UNL A   1      27.477  30.688  22.645  1.00  0.00     0.002 A 
ATOM     24  C   UNL A   1      29.375  31.375  23.969  1.00  0.00     0.002 A 
ATOM     25  C   UNL A   1      28.155  31.670  23.365  1.00  0.00     0.000 A 
ENDBRANCH  19  20
ENDBRANCH  14  15
ENDBRANCH  10  14
ENDBRANCH   4   7
ENDBRANCH   2   3
ENDBRANCH   1   2
BRANCH   1  26
ATOM     26  C   UNL A   1      38.109  21.070  24.987  1.00  0.00     0.023 C 
BRANCH  26  27
ATOM     27  C   UNL A   1      39.058  20.729  26.118  1.00  0.00     0.116 C 
BRANCH  27  28
ATOM     28  N   UNL A   1      40.047  19.703  25.802  1.00  0.00    -0.352 N 
ATOM     29  C   UNL A   1      41.411  19.764  25.991  1.00  0.00     0.251 C 
ATOM     30  H   UNL A   1      39.698  18.872  25.407  1.00  0.00     0.163 HD
ATOM     31  O   UNL A   1      42.142  18.803  25.813  1.00  0.00    -0.269 OA
BRANCH  29  32
ATOM     32  C   UNL A   1      41.985  21.039  26.434  1.00  0.00     0.039 A 
ATOM     33  C   UNL A   1      42.304  21.228  27.781  1.00  0.00     0.014 A 
ATOM     34  C   UNL A   1      42.268  22.009  25.474  1.00  0.00     0.014 A 
ATOM     35  C   UNL A   1      42.940  22.407  28.167  1.00  0.00     0.010 A 
ATOM     36  C   UNL A   1      42.994  23.125  25.843  1.00  0.00     0.010 A 
ATOM     37  C   UNL A   1      43.295  23.355  27.197  1.00  0.00    -0.014 A 
BRANCH  37  38
ATOM     38  C   UNL A   1      43.872  24.670  27.544  1.00  0.00     0.031 A 
ATOM     39  C   UNL A   1      42.935  25.736  28.044  1.00  0.00     0.074 A 
ATOM     40  C   UNL A   1      45.164  24.943  27.286  1.00  0.00     0.049 A 
ATOM     41  N   UNL A   1      43.137  27.017  28.189  1.00  0.00    -0.248 NA
ATOM     42  C   UNL A   1      41.560  25.304  28.365  1.00  0.00     0.031 C 
ATOM     43  C   UNL A   1      46.143  23.997  26.749  1.00  0.00     0.029 A 
ATOM     44  N   UNL A   1      45.861  26.118  27.400  1.00  0.00    -0.354 N 
ATOM     45  C   UNL A   1      41.903  27.550  28.544  1.00  0.00     0.074 A 
ATOM     46  C   UNL A   1      40.952  26.463  28.553  1.00  0.00     0.031 C 
ATOM     47  C   UNL A   1      47.314  24.632  26.570  1.00  0.00     0.029 A 
ATOM     48  C   UNL A   1      47.154  26.035  26.941  1.00  0.00     0.049 A 
ATOM     49  H   UNL A   1      45.473  26.942  27.774  1.00  0.00     0.167 HD
ATOM     50  C   UNL A   1      41.597  28.828  28.865  1.00  0.00     0.034 A 
ATOM     51  C   UNL A   1      48.093  26.993  26.819  1.00  0.00     0.034 A 
ATOM     52  C   UNL A   1      42.574  29.878  28.922  1.00  0.00     0.049 A 
ATOM     53  C   UNL A   1      47.748  28.395  27.250  1.00  0.00     0.074 A 
ATOM     54  C   UNL A   1      42.408  31.190  29.322  1.00  0.00     0.029 A 
ATOM     55  N   UNL A   1      43.908  29.728  28.571  1.00  0.00    -0.354 N 
ATOM     56  N   UNL A   1      46.608  28.865  27.699  1.00  0.00    -0.248 NA
ATOM     57  C   UNL A   1      48.827  29.391  27.193  1.00  0.00     0.031 C 
ATOM     58  C   UNL A   1      43.641  31.838  29.199  1.00  0.00     0.029 A 
ATOM     59  C   UNL A   1      44.580  30.922  28.751  1.00  0.00     0.049 A 
ATOM     60  H   UNL A   1      44.315  28.894  28.243  1.00  0.00     0.167 HD
ATOM     61  C   UNL A   1      46.843  30.197  28.020  1.00  0.00     0.074 A 
ATOM     62  C   UNL A   1      48.240  30.453  27.726  1.00  0.00     0.031 C 
ATOM     63  C   UNL A   1      45.985  31.127  28.507  1.00  0.00     0.034 A 
BRANCH  50  64
ATOM     64  C   UNL A   1      40.167  29.135  29.224  1.00  0.00     0.023 A 
ATOM     65  C   UNL A   1      39.239  29.447  28.207  1.00  0.00     0.012 A 
ATOM     66  C   UNL A   1      39.732  29.094  30.563  1.00  0.00     0.148 A 
ATOM     67  C   UNL A   1      37.917  29.761  28.521  1.00  0.00     0.002 A 
ATOM     68  C   UNL A   1      38.399  29.354  30.862  1.00  0.00     0.091 A 
ATOM     69  F   UNL A   1      40.630  28.821  31.519  1.00  0.00    -0.205 F 
ATOM     70  C   UNL A   1      37.495  29.704  29.845  1.00  0.00     0.022 A 
BRANCH  68  71
ATOM     71  S   UNL A   1      37.735  29.223  32.526  1.00  0.00     0.127 S 
ATOM     72  O   UNL A   1      38.627  30.109  33.271  1.00  0.00    -0.237 OA
ATOM     73  O   UNL A   1      36.374  29.732  32.353  1.00  0.00    -0.237 OA
ATOM     74  O   UNL A   1      37.815  27.812  32.880  1.00  0.00    -0.744 OA
ENDBRANCH  68  71
ENDBRANCH  50  64
BRANCH  51  75
ATOM     75  C   UNL A   1      49.461  26.644  26.342  1.00  0.00     0.023 A 
ATOM     76  C   UNL A   1      50.277  25.819  27.142  1.00  0.00     0.012 A 
ATOM     77  C   UNL A   1      49.945  27.085  25.095  1.00  0.00     0.148 A 
ATOM     78  C   UNL A   1      51.561  25.467  26.725  1.00  0.00     0.002 A 
ATOM     79  C   UNL A   1      51.205  26.686  24.661  1.00  0.00     0.091 A 
ATOM     80  F   UNL A   1      49.157  27.874  24.351  1.00  0.00    -0.205 F 
ATOM     81  C   UNL A   1      52.021  25.892  25.482  1.00  0.00     0.022 A 
BRANCH  79  82
ATOM     82  S   UNL A   1      51.830  27.073  23.022  1.00  0.00     0.127 S 
ATOM     83  O   UNL A   1      52.991  26.191  22.928  1.00  0.00    -0.237 OA
ATOM     84  O   UNL A   1      50.700  26.697  22.172  1.00  0.00    -0.237 OA
ATOM     85  O   UNL A   1      52.121  28.500  23.038  1.00  0.00    -0.744 OA
ENDBRANCH  79  82
ENDBRANCH  51  75
BRANCH  63  86
ATOM     86  C   UNL A   1      46.539  32.493  28.811  1.00  0.00     0.023 A 
ATOM     87  C   UNL A   1      47.105  32.761  30.072  1.00  0.00     0.012 A 
ATOM     88  C   UNL A   1      46.572  33.483  27.810  1.00  0.00     0.148 A 
ATOM     89  C   UNL A   1      47.666  34.009  30.343  1.00  0.00     0.002 A 
ATOM     90  C   UNL A   1      47.179  34.704  28.069  1.00  0.00     0.091 A 
ATOM     91  F   UNL A   1      46.011  33.212  26.622  1.00  0.00    -0.205 F 
ATOM     92  C   UNL A   1      47.715  34.974  29.339  1.00  0.00     0.022 A 
BRANCH  90  93
ATOM     93  S   UNL A   1      47.380  35.964  26.805  1.00  0.00     0.127 S 
ATOM     94  O   UNL A   1      47.542  37.173  27.612  1.00  0.00    -0.237 OA
ATOM     95  O   UNL A   1      48.592  35.522  26.116  1.00  0.00    -0.237 OA
ATOM     96  O   UNL A   1      46.172  35.911  25.992  1.00  0.00    -0.744 OA
ENDBRANCH  90  93
ENDBRANCH  63  86
ENDBRANCH  37  38
ENDBRANCH  29  32
ENDBRANCH  27  28
ENDBRANCH  26  27
ENDBRANCH   1  26
TORSDOF 17
ENDMDL
MODEL 3
REMARK VINA RESULT:     -12.1      3.432      9.164
REMARK SMILES C[C@@H]1[C@H](C(=O)NCCCCNC(=O)c2ccc(-c3c4nc(c(-c5cccc(S(=O)(=O)[O-])c5F)c5ccc([nH]5)c(-c5cccc(S(=O)(=O)[O-])c5F)c5nc(c(-c6cccc(S(=O)(=O)[O-])c6F)c6ccc3[nH]6)C=C5)C=C4)cc2)CC[N@@H+]1Cc1cnn(-c2ccccc2)c1
REMARK SMILES IDX 8 1 7 2 6 3 4 4 5 5 3 7 1 8 2 9 79 10 77 11 78 12 80 14
REMARK SMILES IDX 81 15 82 16 91 17 83 18 84 19 85 20 86 21 90 22 87 23 89 24
REMARK SMILES IDX 88 25 9 26 10 27 11 28 12 29 13 31 14 32 15 33 76 34 16 35
REMARK SMILES IDX 75 36 17 37 18 38 19 39 69 40 20 41 74 42 68 43 70 44 21 45
REMARK SMILES IDX 73 46 67 47 66 48 22 50 54 51 34 52 53 53 35 54 38 55 52 56
REMARK SMILES IDX 71 57 36 58 37 59 51 61 72 62 39 63 23 64 24 65 32 66 25 67
REMARK SMILES IDX 27 68 33 69 26 70 28 71 29 72 30 73 31 74 55 75 56 76 64 77
REMARK SMILES IDX 57 78 59 79 65 80 58 81 60 82 61 83 62 84 63 85 40 86 41 87
REMARK SMILES IDX 49 88 42 89 44 90 50 91 43 92 45 93 46 94 47 95 48 96
REMARK H PARENT 6 6 79 13 11 30 70 49 38 60
REMARK Flexibility Score: inf
ROOT
ATOM      1  C   UNL A   1      31.018  31.403  25.926  1.00  0.00     0.023 C 
ENDROOT
BRANCH   1   2
ATOM      2  C   UNL A   1      30.872  30.431  24.760  1.00  0.00     0.116 C 
BRANCH   2   3
ATOM      3  N   UNL A   1      32.046  29.600  24.610  1.00  0.00    -0.356 N 
ATOM      4  C   UNL A   1      32.188  28.253  24.688  1.00  0.00     0.229 C 
ATOM      5  O   UNL A   1      33.335  27.804  24.593  1.00  0.00    -0.275 OA
ATOM      6  H   UNL A   1      32.877  30.092  24.418  1.00  0.00     0.163 HD
BRANCH   4   7
ATOM      7  C   UNL A   1      31.022  27.290  24.863  1.00  0.00     0.142 C 
ATOM      8  C   UNL A   1      31.482  26.309  22.459  1.00  0.00     0.076 C 
ATOM      9  C   UNL A   1      30.630  26.334  23.717  1.00  0.00     0.193 C 
ATOM     10  N   UNL A   1      30.409  25.062  24.389  1.00  0.00    -0.328 N 
ATOM     11  C   UNL A   1      31.050  26.443  26.138  1.00  0.00     0.081 C 
ATOM     12  C   UNL A   1      30.184  25.241  25.803  1.00  0.00     0.263 C 
ATOM     13  H   UNL A   1      29.696  24.622  23.807  1.00  0.00     0.348 HD
BRANCH  10  14
ATOM     14  C   UNL A   1      30.636  23.758  23.821  1.00  0.00     0.302 C 
BRANCH  14  15
ATOM     15  C   UNL A   1      31.795  23.051  24.447  1.00  0.00     0.045 A 
ATOM     16  C   UNL A   1      31.777  21.927  25.299  1.00  0.00     0.145 A 
ATOM     17  C   UNL A   1      33.145  23.290  24.271  1.00  0.00     0.124 A 
ATOM     18  N   UNL A   1      32.994  21.480  25.606  1.00  0.00    -0.176 NA
ATOM     19  N   UNL A   1      33.843  22.349  25.002  1.00  0.00    -0.240 N 
BRANCH  19  20
ATOM     20  C   UNL A   1      35.248  22.256  25.195  1.00  0.00     0.065 A 
ATOM     21  C   UNL A   1      35.963  23.391  25.598  1.00  0.00     0.028 A 
ATOM     22  C   UNL A   1      35.936  21.063  24.932  1.00  0.00     0.028 A 
ATOM     23  C   UNL A   1      37.351  23.330  25.744  1.00  0.00     0.002 A 
ATOM     24  C   UNL A   1      37.331  21.024  25.030  1.00  0.00     0.002 A 
ATOM     25  C   UNL A   1      38.034  22.153  25.445  1.00  0.00     0.000 A 
ENDBRANCH  19  20
ENDBRANCH  14  15
ENDBRANCH  10  14
ENDBRANCH   4   7
ENDBRANCH   2   3
ENDBRANCH   1   2
BRANCH   1  26
ATOM     26  C   UNL A   1      32.086  31.081  26.951  1.00  0.00     0.023 C 
BRANCH  26  27
ATOM     27  C   UNL A   1      33.126  32.163  27.162  1.00  0.00     0.116 C 
BRANCH  27  28
ATOM     28  N   UNL A   1      32.601  33.425  27.674  1.00  0.00    -0.352 N 
ATOM     29  C   UNL A   1      33.192  34.272  28.588  1.00  0.00     0.251 C 
ATOM     30  H   UNL A   1      31.724  33.703  27.327  1.00  0.00     0.163 HD
ATOM     31  O   UNL A   1      32.734  35.370  28.858  1.00  0.00    -0.269 OA
BRANCH  29  32
ATOM     32  C   UNL A   1      34.426  33.821  29.241  1.00  0.00     0.039 A 
ATOM     33  C   UNL A   1      35.659  34.333  28.829  1.00  0.00     0.014 A 
ATOM     34  C   UNL A   1      34.324  32.940  30.317  1.00  0.00     0.014 A 
ATOM     35  C   UNL A   1      36.810  33.970  29.526  1.00  0.00     0.010 A 
ATOM     36  C   UNL A   1      35.451  32.670  31.070  1.00  0.00     0.010 A 
ATOM     37  C   UNL A   1      36.707  33.144  30.655  1.00  0.00    -0.014 A 
BRANCH  37  38
ATOM     38  C   UNL A   1      37.891  32.631  31.376  1.00  0.00     0.031 A 
ATOM     39  C   UNL A   1      38.649  31.490  30.756  1.00  0.00     0.074 A 
ATOM     40  C   UNL A   1      38.191  33.079  32.609  1.00  0.00     0.049 A 
ATOM     41  N   UNL A   1      39.558  30.716  31.281  1.00  0.00    -0.248 NA
ATOM     42  C   UNL A   1      38.284  31.134  29.370  1.00  0.00     0.031 C 
ATOM     43  C   UNL A   1      37.484  34.144  33.323  1.00  0.00     0.029 A 
ATOM     44  N   UNL A   1      39.144  32.656  33.497  1.00  0.00    -0.354 N 
ATOM     45  C   UNL A   1      39.818  29.744  30.321  1.00  0.00     0.074 A 
ATOM     46  C   UNL A   1      38.943  30.000  29.201  1.00  0.00     0.031 C 
ATOM     47  C   UNL A   1      38.023  34.284  34.546  1.00  0.00     0.029 A 
ATOM     48  C   UNL A   1      39.083  33.294  34.714  1.00  0.00     0.049 A 
ATOM     49  H   UNL A   1      39.809  31.961  33.286  1.00  0.00     0.167 HD
ATOM     50  C   UNL A   1      40.728  28.743  30.359  1.00  0.00     0.034 A 
ATOM     51  C   UNL A   1      39.793  33.083  35.839  1.00  0.00     0.034 A 
ATOM     52  C   UNL A   1      41.639  28.551  31.451  1.00  0.00     0.049 A 
ATOM     53  C   UNL A   1      40.849  32.008  35.831  1.00  0.00     0.074 A 
ATOM     54  C   UNL A   1      42.666  27.634  31.566  1.00  0.00     0.029 A 
ATOM     55  N   UNL A   1      41.632  29.301  32.618  1.00  0.00    -0.354 N 
ATOM     56  N   UNL A   1      41.168  31.170  34.873  1.00  0.00    -0.248 NA
ATOM     57  C   UNL A   1      41.668  31.874  37.044  1.00  0.00     0.031 C 
ATOM     58  C   UNL A   1      43.272  27.820  32.813  1.00  0.00     0.029 A 
ATOM     59  C   UNL A   1      42.642  28.873  33.459  1.00  0.00     0.049 A 
ATOM     60  H   UNL A   1      41.001  30.030  32.817  1.00  0.00     0.167 HD
ATOM     61  C   UNL A   1      42.252  30.441  35.348  1.00  0.00     0.074 A 
ATOM     62  C   UNL A   1      42.542  30.948  36.676  1.00  0.00     0.031 C 
ATOM     63  C   UNL A   1      42.942  29.439  34.749  1.00  0.00     0.034 A 
BRANCH  50  64
ATOM     64  C   UNL A   1      40.807  27.825  29.166  1.00  0.00     0.023 A 
ATOM     65  C   UNL A   1      39.993  26.674  29.111  1.00  0.00     0.012 A 
ATOM     66  C   UNL A   1      41.668  28.111  28.089  1.00  0.00     0.148 A 
ATOM     67  C   UNL A   1      40.071  25.797  28.029  1.00  0.00     0.002 A 
ATOM     68  C   UNL A   1      41.699  27.262  26.989  1.00  0.00     0.091 A 
ATOM     69  F   UNL A   1      42.452  29.195  28.166  1.00  0.00    -0.205 F 
ATOM     70  C   UNL A   1      40.914  26.096  26.965  1.00  0.00     0.022 A 
BRANCH  68  71
ATOM     71  S   UNL A   1      42.687  27.603  25.527  1.00  0.00     0.127 S 
ATOM     72  O   UNL A   1      42.040  28.807  25.008  1.00  0.00    -0.237 OA
ATOM     73  O   UNL A   1      44.015  27.824  26.101  1.00  0.00    -0.237 OA
ATOM     74  O   UNL A   1      42.578  26.421  24.684  1.00  0.00    -0.744 OA
ENDBRANCH  68  71
ENDBRANCH  50  64
BRANCH  51  75
ATOM     75  C   UNL A   1      39.582  33.952  37.030  1.00  0.00     0.023 A 
ATOM     76  C   UNL A   1      39.971  35.306  36.970  1.00  0.00     0.012 A 
ATOM     77  C   UNL A   1      38.969  33.468  38.202  1.00  0.00     0.148 A 
ATOM     78  C   UNL A   1      39.784  36.151  38.064  1.00  0.00     0.002 A 
ATOM     79  C   UNL A   1      38.736  34.330  39.269  1.00  0.00     0.091 A 
ATOM     80  F   UNL A   1      38.611  32.177  38.243  1.00  0.00    -0.205 F 
ATOM     81  C   UNL A   1      39.158  35.667  39.209  1.00  0.00     0.022 A 
BRANCH  79  82
ATOM     82  S   UNL A   1      37.820  33.831  40.731  1.00  0.00     0.127 S 
ATOM     83  O   UNL A   1      38.781  32.961  41.405  1.00  0.00    -0.237 OA
ATOM     84  O   UNL A   1      37.584  35.116  41.391  1.00  0.00    -0.237 OA
ATOM     85  O   UNL A   1      36.614  33.180  40.239  1.00  0.00    -0.744 OA
ENDBRANCH  79  82
ENDBRANCH  51  75
BRANCH  63  86
ATOM     86  C   UNL A   1      44.116  28.862  35.493  1.00  0.00     0.023 A 
ATOM     87  C   UNL A   1      45.394  29.437  35.353  1.00  0.00     0.012 A 
ATOM     88  C   UNL A   1      43.928  27.798  36.397  1.00  0.00     0.148 A 
ATOM     89  C   UNL A   1      46.475  28.938  36.077  1.00  0.00     0.002 A 
ATOM     90  C   UNL A   1      44.998  27.342  37.155  1.00  0.00     0.091 A 
ATOM     91  F   UNL A   1      42.707  27.254  36.500  1.00  0.00    -0.205 F 
ATOM     92  C   UNL A   1      46.275  27.902  36.987  1.00  0.00     0.022 A 
BRANCH  90  93
ATOM     93  S   UNL A   1      44.809  26.083  38.422  1.00  0.00     0.127 S 
ATOM     94  O   UNL A   1      46.201  25.772  38.743  1.00  0.00    -0.237 OA
ATOM     95  O   UNL A   1      44.088  26.806  39.470  1.00  0.00    -0.237 OA
ATOM     96  O   UNL A   1      44.052  25.003  37.804  1.00  0.00    -0.744 OA
ENDBRANCH  90  93
ENDBRANCH  63  86
ENDBRANCH  37  38
ENDBRANCH  29  32
ENDBRANCH  27  28
ENDBRANCH  26  27
ENDBRANCH   1  26
TORSDOF 17
ENDMDL
