MODEL 1
REMARK VINA RESULT:     -10.6      0.000      0.000
REMARK SMILES CC(C)C[NH+]1CC[NH+]([C@H](C)[C@@H](C)C(=O)NCCCCNC(=O)c2ccc(-c3c4nc(c(-c5cccc(S(=O)(=O)[O-])c5F)c5ccc([nH]5)c(-c5cccc(S(=O)(=O)[O-])c5F)c5nc(c(-c6cccc(S(=O)(=O)[O-])c6F)c6ccc3[nH]6)C=C5)C=C4)cc2)CC1
REMARK SMILES IDX 17 1 16 2 15 3 13 4 14 5 11 7 12 8 9 9 10 10 8 11 5 12 6 13
REMARK SMILES IDX 87 14 7 16 86 17 4 19 2 20 1 21 3 22 18 23 19 24 20 25 21 26
REMARK SMILES IDX 22 28 23 29 24 30 85 31 25 32 84 33 26 34 27 35 28 36 78 37
REMARK SMILES IDX 29 38 83 39 77 40 79 41 30 42 82 43 76 44 75 45 31 47 63 48
REMARK SMILES IDX 43 49 62 50 44 51 47 52 61 53 80 54 45 55 46 56 60 58 81 59
REMARK SMILES IDX 48 60 32 61 33 62 41 63 34 64 36 65 42 66 35 67 37 68 38 69
REMARK SMILES IDX 39 70 40 71 64 72 65 73 73 74 66 75 68 76 74 77 67 78 69 79
REMARK SMILES IDX 70 80 71 81 72 82 49 83 50 84 58 85 51 86 53 87 59 88 52 89
REMARK SMILES IDX 54 90 55 91 56 92 57 93
REMARK H PARENT 15 6 5 15 8 18 20 27 79 46 47 57
REMARK Flexibility Score: inf
ROOT
ATOM      1  C   UNL A   1      31.048  30.817  25.430  1.00  0.00     0.023 C 
ENDROOT
BRANCH   1   2
ATOM      2  C   UNL A   1      32.028  29.649  25.337  1.00  0.00     0.116 C 
BRANCH   2   3
ATOM      3  N   UNL A   1      31.695  28.581  26.256  1.00  0.00    -0.356 N 
ATOM      4  C   UNL A   1      31.328  27.289  26.038  1.00  0.00     0.228 C 
ATOM      5  O   UNL A   1      31.127  26.578  27.030  1.00  0.00    -0.275 OA
ATOM      6  H   UNL A   1      31.742  28.834  27.207  1.00  0.00     0.163 HD
BRANCH   4   7
ATOM      7  C   UNL A   1      31.240  26.680  24.638  1.00  0.00     0.133 C 
ATOM      8  C   UNL A   1      29.842  26.084  24.430  1.00  0.00     0.024 C 
BRANCH   7   9
ATOM      9  C   UNL A   1      32.436  25.745  24.293  1.00  0.00     0.193 C 
ATOM     10  C   UNL A   1      33.778  26.500  24.206  1.00  0.00     0.076 C 
BRANCH   9  11
ATOM     11  N   UNL A   1      32.497  24.549  25.169  1.00  0.00    -0.323 N 
ATOM     12  N   UNL A   1      33.651  21.908  25.991  1.00  0.00    -0.325 N 
ATOM     13  C   UNL A   1      33.889  23.120  26.782  1.00  0.00     0.324 C 
ATOM     14  C   UNL A   1      32.318  22.046  25.375  1.00  0.00     0.324 C 
ATOM     15  H   UNL A   1      33.717  21.141  26.661  1.00  0.00     0.348 HD
ATOM     16  C   UNL A   1      33.676  24.474  26.055  1.00  0.00     0.324 C 
ATOM     17  C   UNL A   1      32.212  23.289  24.467  1.00  0.00     0.324 C 
ATOM     18  H   UNL A   1      31.719  24.690  25.814  1.00  0.00     0.348 HD
BRANCH  12  19
ATOM     19  C   UNL A   1      34.667  21.454  25.028  1.00  0.00     0.265 C 
BRANCH  19  20
ATOM     20  C   UNL A   1      35.917  22.286  24.648  1.00  0.00     0.038 C 
ATOM     21  C   UNL A   1      37.189  21.446  24.506  1.00  0.00     0.013 C 
ATOM     22  C   UNL A   1      35.667  23.004  23.312  1.00  0.00     0.013 C 
ENDBRANCH  19  20
ENDBRANCH  12  19
ENDBRANCH   9  11
ENDBRANCH   7   9
ENDBRANCH   4   7
ENDBRANCH   2   3
ENDBRANCH   1   2
BRANCH   1  23
ATOM     23  C   UNL A   1      31.256  31.735  26.634  1.00  0.00     0.023 C 
BRANCH  23  24
ATOM     24  C   UNL A   1      32.491  32.630  26.572  1.00  0.00     0.116 C 
BRANCH  24  25
ATOM     25  N   UNL A   1      32.326  33.890  27.282  1.00  0.00    -0.352 N 
ATOM     26  C   UNL A   1      33.070  34.398  28.320  1.00  0.00     0.251 C 
ATOM     27  H   UNL A   1      31.580  34.456  26.976  1.00  0.00     0.163 HD
ATOM     28  O   UNL A   1      32.723  35.439  28.872  1.00  0.00    -0.269 OA
BRANCH  26  29
ATOM     29  C   UNL A   1      34.264  33.665  28.791  1.00  0.00     0.039 A 
ATOM     30  C   UNL A   1      35.518  34.263  28.652  1.00  0.00     0.014 A 
ATOM     31  C   UNL A   1      34.144  32.413  29.398  1.00  0.00     0.014 A 
ATOM     32  C   UNL A   1      36.646  33.637  29.189  1.00  0.00     0.010 A 
ATOM     33  C   UNL A   1      35.256  31.824  29.993  1.00  0.00     0.010 A 
ATOM     34  C   UNL A   1      36.517  32.429  29.898  1.00  0.00    -0.014 A 
BRANCH  34  35
ATOM     35  C   UNL A   1      37.686  31.810  30.576  1.00  0.00     0.031 A 
ATOM     36  C   UNL A   1      38.497  30.749  29.883  1.00  0.00     0.074 A 
ATOM     37  C   UNL A   1      37.954  32.133  31.857  1.00  0.00     0.049 A 
ATOM     38  N   UNL A   1      39.520  30.072  30.335  1.00  0.00    -0.248 NA
ATOM     39  C   UNL A   1      38.091  30.376  28.517  1.00  0.00     0.031 C 
ATOM     40  C   UNL A   1      37.177  33.070  32.674  1.00  0.00     0.029 A 
ATOM     41  N   UNL A   1      38.932  31.685  32.710  1.00  0.00    -0.354 N 
ATOM     42  C   UNL A   1      39.852  29.167  29.334  1.00  0.00     0.074 A 
ATOM     43  C   UNL A   1      38.908  29.365  28.257  1.00  0.00     0.031 C 
ATOM     44  C   UNL A   1      37.704  33.120  33.908  1.00  0.00     0.029 A 
ATOM     45  C   UNL A   1      38.839  32.207  33.980  1.00  0.00     0.049 A 
ATOM     46  H   UNL A   1      39.634  31.050  32.439  1.00  0.00     0.167 HD
ATOM     47  C   UNL A   1      40.866  28.270  29.305  1.00  0.00     0.034 A 
ATOM     48  C   UNL A   1      39.579  31.970  35.082  1.00  0.00     0.034 A 
ATOM     49  C   UNL A   1      41.840  28.119  30.351  1.00  0.00     0.049 A 
ATOM     50  C   UNL A   1      40.748  31.027  34.990  1.00  0.00     0.074 A 
ATOM     51  C   UNL A   1      42.979  27.334  30.355  1.00  0.00     0.029 A 
ATOM     52  N   UNL A   1      41.785  28.751  31.582  1.00  0.00    -0.354 N 
ATOM     53  N   UNL A   1      41.171  30.336  33.959  1.00  0.00    -0.248 NA
ATOM     54  C   UNL A   1      41.568  30.862  36.199  1.00  0.00     0.031 C 
ATOM     55  C   UNL A   1      43.601  27.473  31.600  1.00  0.00     0.029 A 
ATOM     56  C   UNL A   1      42.862  28.363  32.361  1.00  0.00     0.049 A 
ATOM     57  H   UNL A   1      41.084  29.384  31.862  1.00  0.00     0.167 HD
ATOM     58  C   UNL A   1      42.320  29.680  34.386  1.00  0.00     0.074 A 
ATOM     59  C   UNL A   1      42.544  30.080  35.759  1.00  0.00     0.031 C 
ATOM     60  C   UNL A   1      43.107  28.810  33.707  1.00  0.00     0.034 A 
BRANCH  47  61
ATOM     61  C   UNL A   1      41.020  27.413  28.075  1.00  0.00     0.023 A 
ATOM     62  C   UNL A   1      41.656  27.941  26.935  1.00  0.00     0.012 A 
ATOM     63  C   UNL A   1      40.624  26.061  28.086  1.00  0.00     0.148 A 
ATOM     64  C   UNL A   1      41.878  27.143  25.814  1.00  0.00     0.002 A 
ATOM     65  C   UNL A   1      40.887  25.261  26.980  1.00  0.00     0.091 A 
ATOM     66  F   UNL A   1      40.002  25.585  29.173  1.00  0.00    -0.205 F 
ATOM     67  C   UNL A   1      41.505  25.803  25.841  1.00  0.00     0.022 A 
BRANCH  65  68
ATOM     68  S   UNL A   1      40.520  23.503  26.944  1.00  0.00     0.127 S 
ATOM     69  O   UNL A   1      40.964  23.082  28.272  1.00  0.00    -0.237 OA
ATOM     70  O   UNL A   1      39.068  23.497  26.756  1.00  0.00    -0.237 OA
ATOM     71  O   UNL A   1      41.281  22.953  25.831  1.00  0.00    -0.744 OA
ENDBRANCH  65  68
ENDBRANCH  47  61
BRANCH  48  72
ATOM     72  C   UNL A   1      39.271  32.680  36.356  1.00  0.00     0.023 A 
ATOM     73  C   UNL A   1      39.850  33.940  36.606  1.00  0.00     0.012 A 
ATOM     74  C   UNL A   1      38.401  32.124  37.312  1.00  0.00     0.148 A 
ATOM     75  C   UNL A   1      39.600  34.613  37.803  1.00  0.00     0.002 A 
ATOM     76  C   UNL A   1      38.109  32.827  38.476  1.00  0.00     0.091 A 
ATOM     77  F   UNL A   1      37.870  30.917  37.065  1.00  0.00    -0.205 F 
ATOM     78  C   UNL A   1      38.722  34.062  38.732  1.00  0.00     0.022 A 
BRANCH  76  79
ATOM     79  S   UNL A   1      36.884  32.250  39.656  1.00  0.00     0.127 S 
ATOM     80  O   UNL A   1      37.474  30.993  40.110  1.00  0.00    -0.237 OA
ATOM     81  O   UNL A   1      36.886  33.326  40.649  1.00  0.00    -0.237 OA
ATOM     82  O   UNL A   1      35.644  32.140  38.901  1.00  0.00    -0.744 OA
ENDBRANCH  76  79
ENDBRANCH  48  72
BRANCH  60  83
ATOM     83  C   UNL A   1      44.306  28.247  34.423  1.00  0.00     0.023 A 
ATOM     84  C   UNL A   1      45.519  28.966  34.428  1.00  0.00     0.012 A 
ATOM     85  C   UNL A   1      44.211  27.044  35.149  1.00  0.00     0.148 A 
ATOM     86  C   UNL A   1      46.628  28.479  35.119  1.00  0.00     0.002 A 
ATOM     87  C   UNL A   1      45.306  26.590  35.876  1.00  0.00     0.091 A 
ATOM     88  F   UNL A   1      43.056  26.365  35.117  1.00  0.00    -0.205 F 
ATOM     89  C   UNL A   1      46.519  27.299  35.851  1.00  0.00     0.022 A 
BRANCH  87  90
ATOM     90  S   UNL A   1      45.226  25.134  36.924  1.00  0.00     0.127 S 
ATOM     91  O   UNL A   1      46.577  25.089  37.479  1.00  0.00    -0.237 OA
ATOM     92  O   UNL A   1      44.184  25.498  37.885  1.00  0.00    -0.237 OA
ATOM     93  O   UNL A   1      44.872  24.027  36.044  1.00  0.00    -0.744 OA
ENDBRANCH  87  90
ENDBRANCH  60  83
ENDBRANCH  34  35
ENDBRANCH  26  29
ENDBRANCH  24  25
ENDBRANCH  23  24
ENDBRANCH   1  23
TORSDOF 18
ENDMDL
MODEL 2
REMARK VINA RESULT:     -10.5      1.656      2.018
REMARK SMILES CC(C)C[NH+]1CC[NH+]([C@H](C)[C@@H](C)C(=O)NCCCCNC(=O)c2ccc(-c3c4nc(c(-c5cccc(S(=O)(=O)[O-])c5F)c5ccc([nH]5)c(-c5cccc(S(=O)(=O)[O-])c5F)c5nc(c(-c6cccc(S(=O)(=O)[O-])c6F)c6ccc3[nH]6)C=C5)C=C4)cc2)CC1
REMARK SMILES IDX 17 1 16 2 15 3 13 4 14 5 11 7 12 8 9 9 10 10 8 11 5 12 6 13
REMARK SMILES IDX 87 14 7 16 86 17 4 19 2 20 1 21 3 22 18 23 19 24 20 25 21 26
REMARK SMILES IDX 22 28 23 29 24 30 85 31 25 32 84 33 26 34 27 35 28 36 78 37
REMARK SMILES IDX 29 38 83 39 77 40 79 41 30 42 82 43 76 44 75 45 31 47 63 48
REMARK SMILES IDX 43 49 62 50 44 51 47 52 61 53 80 54 45 55 46 56 60 58 81 59
REMARK SMILES IDX 48 60 32 61 33 62 41 63 34 64 36 65 42 66 35 67 37 68 38 69
REMARK SMILES IDX 39 70 40 71 64 72 65 73 73 74 66 75 68 76 74 77 67 78 69 79
REMARK SMILES IDX 70 80 71 81 72 82 49 83 50 84 58 85 51 86 53 87 59 88 52 89
REMARK SMILES IDX 54 90 55 91 56 92 57 93
REMARK H PARENT 15 6 5 15 8 18 20 27 79 46 47 57
REMARK Flexibility Score: inf
ROOT
ATOM      1  C   UNL A   1      32.165  30.250  25.469  1.00  0.00     0.023 C 
ENDROOT
BRANCH   1   2
ATOM      2  C   UNL A   1      31.387  28.936  25.427  1.00  0.00     0.116 C 
BRANCH   2   3
ATOM      3  N   UNL A   1      30.773  28.704  24.136  1.00  0.00    -0.356 N 
ATOM      4  C   UNL A   1      31.137  27.902  23.099  1.00  0.00     0.228 C 
ATOM      5  O   UNL A   1      30.395  27.879  22.110  1.00  0.00    -0.275 OA
ATOM      6  H   UNL A   1      29.947  29.217  23.982  1.00  0.00     0.163 HD
BRANCH   4   7
ATOM      7  C   UNL A   1      32.361  26.987  23.151  1.00  0.00     0.133 C 
ATOM      8  C   UNL A   1      33.525  27.653  22.409  1.00  0.00     0.024 C 
BRANCH   7   9
ATOM      9  C   UNL A   1      32.051  25.515  22.750  1.00  0.00     0.193 C 
ATOM     10  C   UNL A   1      32.855  25.050  21.519  1.00  0.00     0.076 C 
BRANCH   9  11
ATOM     11  N   UNL A   1      32.147  24.578  23.896  1.00  0.00    -0.323 N 
ATOM     12  N   UNL A   1      33.626  22.620  25.617  1.00  0.00    -0.325 N 
ATOM     13  C   UNL A   1      33.313  23.969  26.099  1.00  0.00     0.324 C 
ATOM     14  C   UNL A   1      32.541  22.224  24.699  1.00  0.00     0.324 C 
ATOM     15  H   UNL A   1      33.680  22.048  26.460  1.00  0.00     0.348 HD
ATOM     16  C   UNL A   1      32.994  25.034  25.016  1.00  0.00     0.324 C 
ATOM     17  C   UNL A   1      32.401  23.185  23.500  1.00  0.00     0.324 C 
ATOM     18  H   UNL A   1      31.204  24.588  24.287  1.00  0.00     0.348 HD
BRANCH  12  19
ATOM     19  C   UNL A   1      34.958  22.332  25.063  1.00  0.00     0.265 C 
BRANCH  19  20
ATOM     20  C   UNL A   1      35.957  23.434  24.625  1.00  0.00     0.038 C 
ATOM     21  C   UNL A   1      37.048  23.713  25.662  1.00  0.00     0.013 C 
ATOM     22  C   UNL A   1      36.640  23.011  23.314  1.00  0.00     0.013 C 
ENDBRANCH  19  20
ENDBRANCH  12  19
ENDBRANCH   9  11
ENDBRANCH   7   9
ENDBRANCH   4   7
ENDBRANCH   2   3
ENDBRANCH   1   2
BRANCH   1  23
ATOM     23  C   UNL A   1      31.800  31.174  26.630  1.00  0.00     0.023 C 
BRANCH  23  24
ATOM     24  C   UNL A   1      32.952  31.995  27.202  1.00  0.00     0.116 C 
BRANCH  24  25
ATOM     25  N   UNL A   1      32.606  33.390  27.437  1.00  0.00    -0.352 N 
ATOM     26  C   UNL A   1      33.154  34.275  28.333  1.00  0.00     0.251 C 
ATOM     27  H   UNL A   1      31.880  33.748  26.875  1.00  0.00     0.163 HD
ATOM     28  O   UNL A   1      32.665  35.394  28.469  1.00  0.00    -0.269 OA
BRANCH  26  29
ATOM     29  C   UNL A   1      34.308  33.860  29.158  1.00  0.00     0.039 A 
ATOM     30  C   UNL A   1      34.080  33.068  30.285  1.00  0.00     0.014 A 
ATOM     31  C   UNL A   1      35.611  34.220  28.803  1.00  0.00     0.014 A 
ATOM     32  C   UNL A   1      35.164  32.575  31.015  1.00  0.00     0.010 A 
ATOM     33  C   UNL A   1      36.690  33.672  29.489  1.00  0.00     0.010 A 
ATOM     34  C   UNL A   1      36.480  32.842  30.600  1.00  0.00    -0.014 A 
BRANCH  34  35
ATOM     35  C   UNL A   1      37.643  32.229  31.293  1.00  0.00     0.031 A 
ATOM     36  C   UNL A   1      38.405  31.100  30.655  1.00  0.00     0.074 A 
ATOM     37  C   UNL A   1      37.949  32.625  32.545  1.00  0.00     0.049 A 
ATOM     38  N   UNL A   1      39.416  30.420  31.129  1.00  0.00    -0.248 NA
ATOM     39  C   UNL A   1      37.956  30.653  29.325  1.00  0.00     0.031 C 
ATOM     40  C   UNL A   1      37.221  33.637  33.315  1.00  0.00     0.029 A 
ATOM     41  N   UNL A   1      38.931  32.200  33.405  1.00  0.00    -0.354 N 
ATOM     42  C   UNL A   1      39.697  29.441  30.182  1.00  0.00     0.074 A 
ATOM     43  C   UNL A   1      38.736  29.602  29.114  1.00  0.00     0.031 C 
ATOM     44  C   UNL A   1      37.776  33.749  34.533  1.00  0.00     0.029 A 
ATOM     45  C   UNL A   1      38.883  32.805  34.641  1.00  0.00     0.049 A 
ATOM     46  H   UNL A   1      39.607  31.527  33.162  1.00  0.00     0.167 HD
ATOM     47  C   UNL A   1      40.680  28.512  30.191  1.00  0.00     0.034 A 
ATOM     48  C   UNL A   1      39.639  32.616  35.741  1.00  0.00     0.034 A 
ATOM     49  C   UNL A   1      41.672  28.397  31.226  1.00  0.00     0.049 A 
ATOM     50  C   UNL A   1      40.775  31.631  35.687  1.00  0.00     0.074 A 
ATOM     51  C   UNL A   1      42.786  27.577  31.257  1.00  0.00     0.029 A 
ATOM     52  N   UNL A   1      41.665  29.108  32.414  1.00  0.00    -0.354 N 
ATOM     53  N   UNL A   1      41.153  30.861  34.695  1.00  0.00    -0.248 NA
ATOM     54  C   UNL A   1      41.616  31.517  36.888  1.00  0.00     0.031 C 
ATOM     55  C   UNL A   1      43.439  27.775  32.478  1.00  0.00     0.029 A 
ATOM     56  C   UNL A   1      42.745  28.735  33.194  1.00  0.00     0.049 A 
ATOM     57  H   UNL A   1      40.990  29.780  32.666  1.00  0.00     0.167 HD
ATOM     58  C   UNL A   1      42.290  30.197  35.140  1.00  0.00     0.074 A 
ATOM     59  C   UNL A   1      42.558  30.677  36.480  1.00  0.00     0.031 C 
ATOM     60  C   UNL A   1      43.034  29.260  34.504  1.00  0.00     0.034 A 
BRANCH  47  61
ATOM     61  C   UNL A   1      40.780  27.573  29.017  1.00  0.00     0.023 A 
ATOM     62  C   UNL A   1      39.884  26.491  28.914  1.00  0.00     0.012 A 
ATOM     63  C   UNL A   1      41.692  27.821  27.972  1.00  0.00     0.148 A 
ATOM     64  C   UNL A   1      39.908  25.655  27.799  1.00  0.00     0.002 A 
ATOM     65  C   UNL A   1      41.681  27.008  26.845  1.00  0.00     0.091 A 
ATOM     66  F   UNL A   1      42.549  28.844  28.100  1.00  0.00    -0.205 F 
ATOM     67  C   UNL A   1      40.796  25.921  26.761  1.00  0.00     0.022 A 
BRANCH  65  68
ATOM     68  S   UNL A   1      42.728  27.313  25.418  1.00  0.00     0.127 S 
ATOM     69  O   UNL A   1      42.513  26.100  24.630  1.00  0.00    -0.237 OA
ATOM     70  O   UNL A   1      42.130  28.522  24.851  1.00  0.00    -0.237 OA
ATOM     71  O   UNL A   1      44.078  27.486  25.937  1.00  0.00    -0.744 OA
ENDBRANCH  65  68
ENDBRANCH  47  61
BRANCH  48  72
ATOM     72  C   UNL A   1      39.382  33.416  36.972  1.00  0.00     0.023 A 
ATOM     73  C   UNL A   1      39.896  34.724  37.070  1.00  0.00     0.012 A 
ATOM     74  C   UNL A   1      38.623  32.897  38.037  1.00  0.00     0.148 A 
ATOM     75  C   UNL A   1      39.693  35.484  38.222  1.00  0.00     0.002 A 
ATOM     76  C   UNL A   1      38.374  33.681  39.158  1.00  0.00     0.091 A 
ATOM     77  F   UNL A   1      38.154  31.645  37.934  1.00  0.00    -0.205 F 
ATOM     78  C   UNL A   1      38.924  34.967  39.261  1.00  0.00     0.022 A 
BRANCH  76  79
ATOM     79  S   UNL A   1      37.280  33.140  40.476  1.00  0.00     0.127 S 
ATOM     80  O   UNL A   1      36.053  32.839  39.743  1.00  0.00    -0.237 OA
ATOM     81  O   UNL A   1      37.988  31.971  41.001  1.00  0.00    -0.237 OA
ATOM     82  O   UNL A   1      37.213  34.260  41.404  1.00  0.00    -0.744 OA
ENDBRANCH  76  79
ENDBRANCH  48  72
BRANCH  60  83
ATOM     83  C   UNL A   1      44.231  28.704  35.230  1.00  0.00     0.023 A 
ATOM     84  C   UNL A   1      45.503  29.271  35.017  1.00  0.00     0.012 A 
ATOM     85  C   UNL A   1      44.083  27.671  36.176  1.00  0.00     0.148 A 
ATOM     86  C   UNL A   1      46.616  28.797  35.711  1.00  0.00     0.002 A 
ATOM     87  C   UNL A   1      45.187  27.236  36.900  1.00  0.00     0.091 A 
ATOM     88  F   UNL A   1      42.868  27.132  36.352  1.00  0.00    -0.205 F 
ATOM     89  C   UNL A   1      46.457  27.789  36.659  1.00  0.00     0.022 A 
BRANCH  87  90
ATOM     90  S   UNL A   1      45.057  26.013  38.208  1.00  0.00     0.127 S 
ATOM     91  O   UNL A   1      46.459  25.789  38.550  1.00  0.00    -0.237 OA
ATOM     92  O   UNL A   1      44.287  26.726  39.228  1.00  0.00    -0.237 OA
ATOM     93  O   UNL A   1      44.364  24.873  37.621  1.00  0.00    -0.744 OA
ENDBRANCH  87  90
ENDBRANCH  60  83
ENDBRANCH  34  35
ENDBRANCH  26  29
ENDBRANCH  24  25
ENDBRANCH  23  24
ENDBRANCH   1  23
TORSDOF 18
ENDMDL
MODEL 3
REMARK VINA RESULT:     -10.4      3.227      8.501
REMARK SMILES CC(C)C[NH+]1CC[NH+]([C@H](C)[C@@H](C)C(=O)NCCCCNC(=O)c2ccc(-c3c4nc(c(-c5cccc(S(=O)(=O)[O-])c5F)c5ccc([nH]5)c(-c5cccc(S(=O)(=O)[O-])c5F)c5nc(c(-c6cccc(S(=O)(=O)[O-])c6F)c6ccc3[nH]6)C=C5)C=C4)cc2)CC1
REMARK SMILES IDX 17 1 16 2 15 3 13 4 14 5 11 7 12 8 9 9 10 10 8 11 5 12 6 13
REMARK SMILES IDX 87 14 7 16 86 17 4 19 2 20 1 21 3 22 18 23 19 24 20 25 21 26
REMARK SMILES IDX 22 28 23 29 24 30 85 31 25 32 84 33 26 34 27 35 28 36 78 37
REMARK SMILES IDX 29 38 83 39 77 40 79 41 30 42 82 43 76 44 75 45 31 47 63 48
REMARK SMILES IDX 43 49 62 50 44 51 47 52 61 53 80 54 45 55 46 56 60 58 81 59
REMARK SMILES IDX 48 60 32 61 33 62 41 63 34 64 36 65 42 66 35 67 37 68 38 69
REMARK SMILES IDX 39 70 40 71 64 72 65 73 73 74 66 75 68 76 74 77 67 78 69 79
REMARK SMILES IDX 70 80 71 81 72 82 49 83 50 84 58 85 51 86 53 87 59 88 52 89
REMARK SMILES IDX 54 90 55 91 56 92 57 93
REMARK H PARENT 15 6 5 15 8 18 20 27 79 46 47 57
REMARK Flexibility Score: inf
ROOT
ATOM      1  C   UNL A   1      32.851  29.051  24.629  1.00  0.00     0.023 C 
ENDROOT
BRANCH   1   2
ATOM      2  C   UNL A   1      32.072  27.918  23.962  1.00  0.00     0.116 C 
BRANCH   2   3
ATOM      3  N   UNL A   1      32.838  27.268  22.919  1.00  0.00    -0.356 N 
ATOM      4  C   UNL A   1      33.163  25.961  22.724  1.00  0.00     0.228 C 
ATOM      5  O   UNL A   1      33.815  25.682  21.711  1.00  0.00    -0.275 OA
ATOM      6  H   UNL A   1      33.184  27.880  22.229  1.00  0.00     0.163 HD
BRANCH   4   7
ATOM      7  C   UNL A   1      32.685  24.843  23.652  1.00  0.00     0.133 C 
ATOM      8  C   UNL A   1      31.157  24.736  23.573  1.00  0.00     0.024 C 
BRANCH   7   9
ATOM      9  C   UNL A   1      33.288  24.928  25.084  1.00  0.00     0.193 C 
ATOM     10  C   UNL A   1      32.225  25.214  26.164  1.00  0.00     0.076 C 
BRANCH   9  11
ATOM     11  N   UNL A   1      34.152  23.767  25.411  1.00  0.00    -0.323 N 
ATOM     12  N   UNL A   1      34.736  20.829  25.508  1.00  0.00    -0.325 N 
ATOM     13  C   UNL A   1      35.419  21.707  24.553  1.00  0.00     0.324 C 
ATOM     14  C   UNL A   1      34.453  21.632  26.712  1.00  0.00     0.324 C 
ATOM     15  H   UNL A   1      35.388  20.061  25.670  1.00  0.00     0.348 HD
ATOM     16  C   UNL A   1      34.732  23.065  24.248  1.00  0.00     0.324 C 
ATOM     17  C   UNL A   1      33.568  22.859  26.409  1.00  0.00     0.324 C 
ATOM     18  H   UNL A   1      34.961  24.194  25.862  1.00  0.00     0.348 HD
BRANCH  12  19
ATOM     19  C   UNL A   1      33.569  20.044  25.074  1.00  0.00     0.265 C 
BRANCH  19  20
ATOM     20  C   UNL A   1      33.676  18.745  24.236  1.00  0.00     0.038 C 
ATOM     21  C   UNL A   1      34.934  17.927  24.539  1.00  0.00     0.013 C 
ATOM     22  C   UNL A   1      32.451  17.857  24.512  1.00  0.00     0.013 C 
ENDBRANCH  19  20
ENDBRANCH  12  19
ENDBRANCH   9  11
ENDBRANCH   7   9
ENDBRANCH   4   7
ENDBRANCH   2   3
ENDBRANCH   1   2
BRANCH   1  23
ATOM     23  C   UNL A   1      33.828  28.604  25.715  1.00  0.00     0.023 C 
BRANCH  23  24
ATOM     24  C   UNL A   1      33.439  28.978  27.143  1.00  0.00     0.116 C 
BRANCH  24  25
ATOM     25  N   UNL A   1      33.555  30.403  27.417  1.00  0.00    -0.352 N 
ATOM     26  C   UNL A   1      34.578  31.082  28.033  1.00  0.00     0.251 C 
ATOM     27  H   UNL A   1      32.796  30.957  27.121  1.00  0.00     0.163 HD
ATOM     28  O   UNL A   1      34.462  32.281  28.276  1.00  0.00    -0.269 OA
BRANCH  26  29
ATOM     29  C   UNL A   1      35.801  30.355  28.435  1.00  0.00     0.039 A 
ATOM     30  C   UNL A   1      36.911  30.384  27.587  1.00  0.00     0.014 A 
ATOM     31  C   UNL A   1      35.864  29.678  29.655  1.00  0.00     0.014 A 
ATOM     32  C   UNL A   1      38.109  29.795  27.998  1.00  0.00     0.010 A 
ATOM     33  C   UNL A   1      37.077  29.154  30.092  1.00  0.00     0.010 A 
ATOM     34  C   UNL A   1      38.213  29.208  29.271  1.00  0.00    -0.014 A 
BRANCH  34  35
ATOM     35  C   UNL A   1      39.510  28.683  29.770  1.00  0.00     0.031 A 
ATOM     36  C   UNL A   1      40.236  29.379  30.890  1.00  0.00     0.074 A 
ATOM     37  C   UNL A   1      40.084  27.635  29.145  1.00  0.00     0.049 A 
ATOM     38  N   UNL A   1      41.393  29.088  31.425  1.00  0.00    -0.248 NA
ATOM     39  C   UNL A   1      39.597  30.576  31.464  1.00  0.00     0.031 C 
ATOM     40  C   UNL A   1      39.532  26.939  27.980  1.00  0.00     0.029 A 
ATOM     41  N   UNL A   1      41.275  26.994  29.378  1.00  0.00    -0.354 N 
ATOM     42  C   UNL A   1      41.641  30.083  32.363  1.00  0.00     0.074 A 
ATOM     43  C   UNL A   1      40.524  30.999  32.311  1.00  0.00     0.031 C 
ATOM     44  C   UNL A   1      40.384  25.975  27.597  1.00  0.00     0.029 A 
ATOM     45  C   UNL A   1      41.551  25.995  28.473  1.00  0.00     0.049 A 
ATOM     46  H   UNL A   1      41.875  27.225  30.124  1.00  0.00     0.167 HD
ATOM     47  C   UNL A   1      42.692  30.207  33.208  1.00  0.00     0.034 A 
ATOM     48  C   UNL A   1      42.628  25.192  28.353  1.00  0.00     0.034 A 
ATOM     49  C   UNL A   1      43.770  29.260  33.300  1.00  0.00     0.049 A 
ATOM     50  C   UNL A   1      43.740  25.305  29.360  1.00  0.00     0.074 A 
ATOM     51  C   UNL A   1      44.807  29.228  34.215  1.00  0.00     0.029 A 
ATOM     52  N   UNL A   1      43.959  28.189  32.442  1.00  0.00    -0.354 N 
ATOM     53  N   UNL A   1      43.853  26.125  30.376  1.00  0.00    -0.248 NA
ATOM     54  C   UNL A   1      44.855  24.355  29.230  1.00  0.00     0.031 C 
ATOM     55  C   UNL A   1      45.638  28.150  33.894  1.00  0.00     0.029 A 
ATOM     56  C   UNL A   1      45.105  27.498  32.795  1.00  0.00     0.049 A 
ATOM     57  H   UNL A   1      43.366  27.954  31.692  1.00  0.00     0.167 HD
ATOM     58  C   UNL A   1      45.031  25.771  31.023  1.00  0.00     0.074 A 
ATOM     59  C   UNL A   1      45.581  24.643  30.302  1.00  0.00     0.031 C 
ATOM     60  C   UNL A   1      45.615  26.342  32.105  1.00  0.00     0.034 A 
BRANCH  47  61
ATOM     61  C   UNL A   1      42.708  31.381  34.152  1.00  0.00     0.023 A 
ATOM     62  C   UNL A   1      43.393  32.557  33.788  1.00  0.00     0.012 A 
ATOM     63  C   UNL A   1      41.966  31.352  35.349  1.00  0.00     0.148 A 
ATOM     64  C   UNL A   1      43.357  33.681  34.611  1.00  0.00     0.002 A 
ATOM     65  C   UNL A   1      41.901  32.491  36.143  1.00  0.00     0.091 A 
ATOM     66  F   UNL A   1      41.339  30.216  35.686  1.00  0.00    -0.205 F 
ATOM     67  C   UNL A   1      42.603  33.652  35.780  1.00  0.00     0.022 A 
BRANCH  65  68
ATOM     68  S   UNL A   1      40.892  32.584  37.626  1.00  0.00     0.127 S 
ATOM     69  O   UNL A   1      39.680  31.884  37.203  1.00  0.00    -0.237 OA
ATOM     70  O   UNL A   1      41.709  31.856  38.599  1.00  0.00    -0.237 OA
ATOM     71  O   UNL A   1      40.724  34.002  37.913  1.00  0.00    -0.744 OA
ENDBRANCH  65  68
ENDBRANCH  47  61
BRANCH  48  72
ATOM     72  C   UNL A   1      42.681  24.170  27.269  1.00  0.00     0.023 A 
ATOM     73  C   UNL A   1      43.359  24.464  26.070  1.00  0.00     0.012 A 
ATOM     74  C   UNL A   1      42.077  22.908  27.423  1.00  0.00     0.148 A 
ATOM     75  C   UNL A   1      43.401  23.535  25.029  1.00  0.00     0.002 A 
ATOM     76  C   UNL A   1      42.173  21.965  26.406  1.00  0.00     0.091 A 
ATOM     77  F   UNL A   1      41.422  22.650  28.565  1.00  0.00    -0.205 F 
ATOM     78  C   UNL A   1      42.817  22.282  25.201  1.00  0.00     0.022 A 
BRANCH  76  79
ATOM     79  S   UNL A   1      41.568  20.285  26.604  1.00  0.00     0.127 S 
ATOM     80  O   UNL A   1      42.029  19.653  25.370  1.00  0.00    -0.237 OA
ATOM     81  O   UNL A   1      42.264  19.850  27.816  1.00  0.00    -0.237 OA
ATOM     82  O   UNL A   1      40.126  20.410  26.759  1.00  0.00    -0.744 OA
ENDBRANCH  76  79
ENDBRANCH  48  72
BRANCH  60  83
ATOM     83  C   UNL A   1      46.904  25.743  32.602  1.00  0.00     0.023 A 
ATOM     84  C   UNL A   1      46.886  24.852  33.694  1.00  0.00     0.012 A 
ATOM     85  C   UNL A   1      48.120  26.006  31.943  1.00  0.00     0.148 A 
ATOM     86  C   UNL A   1      48.065  24.257  34.142  1.00  0.00     0.002 A 
ATOM     87  C   UNL A   1      49.283  25.371  32.364  1.00  0.00     0.091 A 
ATOM     88  F   UNL A   1      48.121  26.871  30.918  1.00  0.00    -0.205 F 
ATOM     89  C   UNL A   1      49.260  24.507  33.472  1.00  0.00     0.022 A 
BRANCH  87  90
ATOM     90  S   UNL A   1      50.846  25.559  31.500  1.00  0.00     0.127 S 
ATOM     91  O   UNL A   1      51.722  24.677  32.269  1.00  0.00    -0.237 OA
ATOM     92  O   UNL A   1      50.521  25.075  30.157  1.00  0.00    -0.237 OA
ATOM     93  O   UNL A   1      51.171  26.978  31.565  1.00  0.00    -0.744 OA
ENDBRANCH  87  90
ENDBRANCH  60  83
ENDBRANCH  34  35
ENDBRANCH  26  29
ENDBRANCH  24  25
ENDBRANCH  23  24
ENDBRANCH   1  23
TORSDOF 18
ENDMDL
