MODEL 1
REMARK VINA RESULT:     -12.5      0.000      0.000
REMARK SMILES CC(C)c1ccc(NC(=O)C[C@H]2SC[C@@H](C(=O)NCCCCNC(=O)c3ccc(-c4c5nc(c(-c6cccc(S(=O)(=O)[O-])c6F)c6ccc([nH]6)c(-c6cccc(S(=O)(=O)[O-])c6F)c6nc(c(-c7cccc(S(=O)(=O)[O-])c7F)c7ccc4[nH]7)C=C6)C=C5)cc3)NC2=O)cc1
REMARK SMILES IDX 20 1 19 2 18 3 16 4 17 5 15 7 12 8 13 9 90 10 14 11 89 12
REMARK SMILES IDX 91 13 11 15 9 16 8 17 10 19 7 20 4 21 5 22 93 23 6 24 92 25
REMARK SMILES IDX 2 26 1 27 3 28 21 29 22 30 23 31 24 32 25 34 26 35 27 36
REMARK SMILES IDX 88 37 28 38 87 39 29 40 30 41 31 42 81 43 32 44 86 45 80 46
REMARK SMILES IDX 82 47 33 48 85 49 79 50 78 51 34 53 66 54 46 55 65 56 47 57
REMARK SMILES IDX 50 58 64 59 83 60 48 61 49 62 63 64 84 65 51 66 35 67 36 68
REMARK SMILES IDX 44 69 37 70 39 71 45 72 38 73 40 74 41 75 42 76 43 77 67 78
REMARK SMILES IDX 68 79 76 80 69 81 71 82 77 83 70 84 72 85 73 86 74 87 75 88
REMARK SMILES IDX 52 89 53 90 61 91 54 92 56 93 62 94 55 95 57 96 58 97 59 98
REMARK SMILES IDX 60 99
REMARK H PARENT 18 6 89 14 8 18 23 33 82 52 50 63
REMARK Flexibility Score: inf
ROOT
ATOM      1  C   UNL A   1      35.237  22.646  26.006  1.00  0.00     0.023 C 
ENDROOT
BRANCH   1   2
ATOM      2  C   UNL A   1      34.024  22.011  26.682  1.00  0.00     0.116 C 
BRANCH   2   3
ATOM      3  N   UNL A   1      33.190  23.046  27.251  1.00  0.00    -0.354 N 
ATOM      4  C   UNL A   1      32.098  23.649  26.693  1.00  0.00     0.243 C 
ATOM      5  O   UNL A   1      31.783  24.759  27.117  1.00  0.00    -0.273 OA
ATOM      6  H   UNL A   1      33.440  23.354  28.152  1.00  0.00     0.163 HD
BRANCH   4   7
ATOM      7  C   UNL A   1      31.172  22.806  25.793  1.00  0.00     0.181 C 
ATOM      8  C   UNL A   1      31.013  24.370  23.166  1.00  0.00     0.145 C 
ATOM      9  S   UNL A   1      32.446  23.214  23.296  1.00  0.00    -0.145 SA
ATOM     10  C   UNL A   1      30.415  24.759  24.525  1.00  0.00     0.234 C 
ATOM     11  C   UNL A   1      31.875  22.125  24.629  1.00  0.00     0.105 C 
ATOM     12  N   UNL A   1      30.130  23.744  25.407  1.00  0.00    -0.343 N 
ATOM     13  O   UNL A   1      30.033  25.879  24.848  1.00  0.00    -0.274 OA
ATOM     14  H   UNL A   1      29.222  23.653  25.777  1.00  0.00     0.164 HD
BRANCH   8  15
ATOM     15  C   UNL A   1      31.413  25.495  22.199  1.00  0.00     0.124 C 
BRANCH  15  16
ATOM     16  C   UNL A   1      32.858  25.667  21.772  1.00  0.00     0.226 C 
ATOM     17  N   UNL A   1      33.790  26.336  22.501  1.00  0.00    -0.326 N 
ATOM     18  H   UNL A   1      34.685  26.343  22.091  1.00  0.00     0.169 HD
ATOM     19  O   UNL A   1      33.225  25.204  20.686  1.00  0.00    -0.275 OA
BRANCH  17  20
ATOM     20  C   UNL A   1      33.724  27.014  23.722  1.00  0.00     0.041 A 
ATOM     21  C   UNL A   1      33.771  28.607  26.056  1.00  0.00    -0.045 A 
ATOM     22  C   UNL A   1      34.000  27.221  26.112  1.00  0.00     0.006 A 
ATOM     23  C   UNL A   1      33.458  29.168  24.813  1.00  0.00     0.006 A 
ATOM     24  C   UNL A   1      33.975  26.431  24.957  1.00  0.00     0.026 A 
ATOM     25  C   UNL A   1      33.414  28.375  23.664  1.00  0.00     0.026 A 
BRANCH  21  26
ATOM     26  C   UNL A   1      33.870  29.425  27.335  1.00  0.00     0.013 C 
ATOM     27  C   UNL A   1      35.328  29.543  27.796  1.00  0.00     0.012 C 
ATOM     28  C   UNL A   1      33.255  30.828  27.259  1.00  0.00     0.012 C 
ENDBRANCH  21  26
ENDBRANCH  17  20
ENDBRANCH  15  16
ENDBRANCH   8  15
ENDBRANCH   4   7
ENDBRANCH   2   3
ENDBRANCH   1   2
BRANCH   1  29
ATOM     29  C   UNL A   1      35.759  21.852  24.802  1.00  0.00     0.023 C 
BRANCH  29  30
ATOM     30  C   UNL A   1      37.265  21.947  24.575  1.00  0.00     0.116 C 
BRANCH  30  31
ATOM     31  N   UNL A   1      37.990  20.858  25.214  1.00  0.00    -0.352 N 
ATOM     32  C   UNL A   1      39.089  20.921  26.034  1.00  0.00     0.251 C 
ATOM     33  H   UNL A   1      37.646  19.954  25.033  1.00  0.00     0.163 HD
ATOM     34  O   UNL A   1      39.674  19.890  26.357  1.00  0.00    -0.269 OA
BRANCH  32  35
ATOM     35  C   UNL A   1      39.573  22.236  26.497  1.00  0.00     0.039 A 
ATOM     36  C   UNL A   1      40.686  22.288  27.340  1.00  0.00     0.014 A 
ATOM     37  C   UNL A   1      38.951  23.413  26.069  1.00  0.00     0.014 A 
ATOM     38  C   UNL A   1      41.217  23.528  27.700  1.00  0.00     0.010 A 
ATOM     39  C   UNL A   1      39.527  24.643  26.369  1.00  0.00     0.010 A 
ATOM     40  C   UNL A   1      40.665  24.714  27.186  1.00  0.00    -0.014 A 
BRANCH  40  41
ATOM     41  C   UNL A   1      41.281  26.036  27.469  1.00  0.00     0.031 A 
ATOM     42  C   UNL A   1      42.685  26.330  27.019  1.00  0.00     0.074 A 
ATOM     43  C   UNL A   1      40.607  26.935  28.213  1.00  0.00     0.049 A 
ATOM     44  N   UNL A   1      43.410  27.398  27.228  1.00  0.00    -0.248 NA
ATOM     45  C   UNL A   1      43.375  25.279  26.252  1.00  0.00     0.031 C 
ATOM     46  C   UNL A   1      39.268  26.737  28.773  1.00  0.00     0.029 A 
ATOM     47  N   UNL A   1      40.967  28.186  28.650  1.00  0.00    -0.354 N 
ATOM     48  C   UNL A   1      44.647  27.137  26.654  1.00  0.00     0.074 A 
ATOM     49  C   UNL A   1      44.587  25.795  26.115  1.00  0.00     0.031 C 
ATOM     50  C   UNL A   1      38.918  27.827  29.474  1.00  0.00     0.029 A 
ATOM     51  C   UNL A   1      40.018  28.787  29.445  1.00  0.00     0.049 A 
ATOM     52  H   UNL A   1      41.823  28.612  28.417  1.00  0.00     0.167 HD
ATOM     53  C   UNL A   1      45.727  27.948  26.558  1.00  0.00     0.034 A 
ATOM     54  C   UNL A   1      40.036  29.969  30.090  1.00  0.00     0.034 A 
ATOM     55  C   UNL A   1      45.771  29.292  27.066  1.00  0.00     0.049 A 
ATOM     56  C   UNL A   1      41.241  30.860  29.950  1.00  0.00     0.074 A 
ATOM     57  C   UNL A   1      46.788  30.224  26.944  1.00  0.00     0.029 A 
ATOM     58  N   UNL A   1      44.763  29.894  27.802  1.00  0.00    -0.354 N 
ATOM     59  N   UNL A   1      42.341  30.657  29.268  1.00  0.00    -0.248 NA
ATOM     60  C   UNL A   1      41.194  32.156  30.643  1.00  0.00     0.031 C 
ATOM     61  C   UNL A   1      46.406  31.380  27.633  1.00  0.00     0.029 A 
ATOM     62  C   UNL A   1      45.137  31.180  28.154  1.00  0.00     0.049 A 
ATOM     63  H   UNL A   1      43.907  29.470  28.040  1.00  0.00     0.167 HD
ATOM     64  C   UNL A   1      43.101  31.812  29.416  1.00  0.00     0.074 A 
ATOM     65  C   UNL A   1      42.325  32.718  30.238  1.00  0.00     0.031 C 
ATOM     66  C   UNL A   1      44.334  32.092  28.928  1.00  0.00     0.034 A 
BRANCH  53  67
ATOM     67  C   UNL A   1      46.938  27.419  25.833  1.00  0.00     0.023 A 
ATOM     68  C   UNL A   1      47.816  26.537  26.497  1.00  0.00     0.012 A 
ATOM     69  C   UNL A   1      47.175  27.741  24.483  1.00  0.00     0.148 A 
ATOM     70  C   UNL A   1      48.930  26.016  25.843  1.00  0.00     0.002 A 
ATOM     71  C   UNL A   1      48.262  27.180  23.822  1.00  0.00     0.091 A 
ATOM     72  F   UNL A   1      46.341  28.595  23.872  1.00  0.00    -0.205 F 
ATOM     73  C   UNL A   1      49.147  26.328  24.504  1.00  0.00     0.022 A 
BRANCH  71  74
ATOM     74  S   UNL A   1      48.585  27.453  22.076  1.00  0.00     0.127 S 
ATOM     75  O   UNL A   1      49.840  28.203  22.123  1.00  0.00    -0.237 OA
ATOM     76  O   UNL A   1      48.711  26.086  21.569  1.00  0.00    -0.237 OA
ATOM     77  O   UNL A   1      47.437  28.188  21.565  1.00  0.00    -0.744 OA
ENDBRANCH  71  74
ENDBRANCH  53  67
BRANCH  54  78
ATOM     78  C   UNL A   1      38.849  30.409  30.879  1.00  0.00     0.023 A 
ATOM     79  C   UNL A   1      38.703  29.972  32.209  1.00  0.00     0.012 A 
ATOM     80  C   UNL A   1      37.881  31.271  30.328  1.00  0.00     0.148 A 
ATOM     81  C   UNL A   1      37.597  30.355  32.968  1.00  0.00     0.002 A 
ATOM     82  C   UNL A   1      36.810  31.695  31.108  1.00  0.00     0.091 A 
ATOM     83  F   UNL A   1      38.033  31.668  29.058  1.00  0.00    -0.205 F 
ATOM     84  C   UNL A   1      36.656  31.223  32.421  1.00  0.00     0.022 A 
BRANCH  82  85
ATOM     85  S   UNL A   1      35.622  32.914  30.534  1.00  0.00     0.127 S 
ATOM     86  O   UNL A   1      35.626  32.679  29.094  1.00  0.00    -0.237 OA
ATOM     87  O   UNL A   1      34.403  32.493  31.226  1.00  0.00    -0.237 OA
ATOM     88  O   UNL A   1      36.142  34.203  30.968  1.00  0.00    -0.744 OA
ENDBRANCH  82  85
ENDBRANCH  54  78
BRANCH  66  89
ATOM     89  C   UNL A   1      44.916  33.449  29.230  1.00  0.00     0.023 A 
ATOM     90  C   UNL A   1      45.649  33.652  30.416  1.00  0.00     0.012 A 
ATOM     91  C   UNL A   1      44.804  34.499  28.298  1.00  0.00     0.148 A 
ATOM     92  C   UNL A   1      46.233  34.890  30.684  1.00  0.00     0.002 A 
ATOM     93  C   UNL A   1      45.432  35.713  28.547  1.00  0.00     0.091 A 
ATOM     94  F   UNL A   1      44.087  34.290  27.183  1.00  0.00    -0.205 F 
ATOM     95  C   UNL A   1      46.135  35.915  29.745  1.00  0.00     0.022 A 
BRANCH  93  96
ATOM     96  S   UNL A   1      45.443  37.057  27.354  1.00  0.00     0.127 S 
ATOM     97  O   UNL A   1      46.065  36.421  26.194  1.00  0.00    -0.237 OA
ATOM     98  O   UNL A   1      44.016  37.343  27.199  1.00  0.00    -0.237 OA
ATOM     99  O   UNL A   1      46.214  38.131  27.964  1.00  0.00    -0.744 OA
ENDBRANCH  93  96
ENDBRANCH  66  89
ENDBRANCH  40  41
ENDBRANCH  32  35
ENDBRANCH  30  31
ENDBRANCH  29  30
ENDBRANCH   1  29
TORSDOF 18
ENDMDL
MODEL 2
REMARK VINA RESULT:     -12.5      2.756      3.396
REMARK SMILES CC(C)c1ccc(NC(=O)C[C@H]2SC[C@@H](C(=O)NCCCCNC(=O)c3ccc(-c4c5nc(c(-c6cccc(S(=O)(=O)[O-])c6F)c6ccc([nH]6)c(-c6cccc(S(=O)(=O)[O-])c6F)c6nc(c(-c7cccc(S(=O)(=O)[O-])c7F)c7ccc4[nH]7)C=C6)C=C5)cc3)NC2=O)cc1
REMARK SMILES IDX 20 1 19 2 18 3 16 4 17 5 15 7 12 8 13 9 90 10 14 11 89 12
REMARK SMILES IDX 91 13 11 15 9 16 8 17 10 19 7 20 4 21 5 22 93 23 6 24 92 25
REMARK SMILES IDX 2 26 1 27 3 28 21 29 22 30 23 31 24 32 25 34 26 35 27 36
REMARK SMILES IDX 88 37 28 38 87 39 29 40 30 41 31 42 81 43 32 44 86 45 80 46
REMARK SMILES IDX 82 47 33 48 85 49 79 50 78 51 34 53 66 54 46 55 65 56 47 57
REMARK SMILES IDX 50 58 64 59 83 60 48 61 49 62 63 64 84 65 51 66 35 67 36 68
REMARK SMILES IDX 44 69 37 70 39 71 45 72 38 73 40 74 41 75 42 76 43 77 67 78
REMARK SMILES IDX 68 79 76 80 69 81 71 82 77 83 70 84 72 85 73 86 74 87 75 88
REMARK SMILES IDX 52 89 53 90 61 91 54 92 56 93 62 94 55 95 57 96 58 97 59 98
REMARK SMILES IDX 60 99
REMARK H PARENT 18 6 89 14 8 18 23 33 82 52 50 63
REMARK Flexibility Score: inf
ROOT
ATOM      1  C   UNL A   1      35.569  21.861  26.404  1.00  0.00     0.023 C 
ENDROOT
BRANCH   1   2
ATOM      2  C   UNL A   1      34.107  21.444  26.544  1.00  0.00     0.116 C 
BRANCH   2   3
ATOM      3  N   UNL A   1      33.378  22.465  27.263  1.00  0.00    -0.354 N 
ATOM      4  C   UNL A   1      32.251  23.130  26.871  1.00  0.00     0.243 C 
ATOM      5  O   UNL A   1      32.026  24.221  27.391  1.00  0.00    -0.273 OA
ATOM      6  H   UNL A   1      33.740  22.712  28.146  1.00  0.00     0.163 HD
BRANCH   4   7
ATOM      7  C   UNL A   1      31.201  22.369  26.038  1.00  0.00     0.181 C 
ATOM      8  C   UNL A   1      30.993  23.950  23.424  1.00  0.00     0.145 C 
ATOM      9  S   UNL A   1      32.332  22.680  23.459  1.00  0.00    -0.145 SA
ATOM     10  C   UNL A   1      30.523  24.382  24.819  1.00  0.00     0.234 C 
ATOM     11  C   UNL A   1      31.765  21.637  24.830  1.00  0.00     0.105 C 
ATOM     12  N   UNL A   1      30.216  23.391  25.721  1.00  0.00    -0.343 N 
ATOM     13  O   UNL A   1      30.256  25.529  25.166  1.00  0.00    -0.274 OA
ATOM     14  H   UNL A   1      29.330  23.373  26.152  1.00  0.00     0.164 HD
BRANCH   8  15
ATOM     15  C   UNL A   1      31.417  25.042  22.430  1.00  0.00     0.124 C 
BRANCH  15  16
ATOM     16  C   UNL A   1      32.854  25.138  21.957  1.00  0.00     0.226 C 
ATOM     17  N   UNL A   1      33.795  25.927  22.539  1.00  0.00    -0.326 N 
ATOM     18  H   UNL A   1      34.684  25.862  22.120  1.00  0.00     0.169 HD
ATOM     19  O   UNL A   1      33.208  24.488  20.965  1.00  0.00    -0.275 OA
BRANCH  17  20
ATOM     20  C   UNL A   1      33.744  26.813  23.620  1.00  0.00     0.041 A 
ATOM     21  C   UNL A   1      33.435  28.403  25.935  1.00  0.00    -0.045 A 
ATOM     22  C   UNL A   1      33.391  28.968  24.650  1.00  0.00     0.006 A 
ATOM     23  C   UNL A   1      33.698  27.033  26.038  1.00  0.00     0.006 A 
ATOM     24  C   UNL A   1      33.547  28.182  23.503  1.00  0.00     0.026 A 
ATOM     25  C   UNL A   1      33.872  26.252  24.893  1.00  0.00     0.026 A 
BRANCH  21  26
ATOM     26  C   UNL A   1      33.200  29.297  27.145  1.00  0.00     0.013 C 
ATOM     27  C   UNL A   1      34.508  29.959  27.596  1.00  0.00     0.012 C 
ATOM     28  C   UNL A   1      32.131  30.380  26.956  1.00  0.00     0.012 C 
ENDBRANCH  21  26
ENDBRANCH  17  20
ENDBRANCH  15  16
ENDBRANCH   8  15
ENDBRANCH   4   7
ENDBRANCH   2   3
ENDBRANCH   1   2
BRANCH   1  29
ATOM     29  C   UNL A   1      35.762  23.219  25.716  1.00  0.00     0.023 C 
BRANCH  29  30
ATOM     30  C   UNL A   1      37.135  23.429  25.086  1.00  0.00     0.116 C 
BRANCH  30  31
ATOM     31  N   UNL A   1      38.126  22.493  25.595  1.00  0.00    -0.352 N 
ATOM     32  C   UNL A   1      39.267  22.754  26.313  1.00  0.00     0.251 C 
ATOM     33  H   UNL A   1      37.956  21.544  25.399  1.00  0.00     0.163 HD
ATOM     34  O   UNL A   1      40.078  21.856  26.525  1.00  0.00    -0.269 OA
BRANCH  32  35
ATOM     35  C   UNL A   1      39.519  24.125  26.800  1.00  0.00     0.039 A 
ATOM     36  C   UNL A   1      39.164  24.453  28.109  1.00  0.00     0.014 A 
ATOM     37  C   UNL A   1      40.139  25.068  25.974  1.00  0.00     0.014 A 
ATOM     38  C   UNL A   1      39.492  25.712  28.616  1.00  0.00     0.010 A 
ATOM     39  C   UNL A   1      40.530  26.294  26.505  1.00  0.00     0.010 A 
ATOM     40  C   UNL A   1      40.211  26.628  27.829  1.00  0.00    -0.014 A 
BRANCH  40  41
ATOM     41  C   UNL A   1      40.665  27.929  28.384  1.00  0.00     0.031 A 
ATOM     42  C   UNL A   1      42.130  28.198  28.587  1.00  0.00     0.074 A 
ATOM     43  C   UNL A   1      39.750  28.831  28.791  1.00  0.00     0.049 A 
ATOM     44  N   UNL A   1      42.710  29.243  29.116  1.00  0.00    -0.248 NA
ATOM     45  C   UNL A   1      43.067  27.144  28.163  1.00  0.00     0.031 C 
ATOM     46  C   UNL A   1      38.297  28.656  28.717  1.00  0.00     0.029 A 
ATOM     47  N   UNL A   1      39.905  30.065  29.374  1.00  0.00    -0.354 N 
ATOM     48  C   UNL A   1      44.070  28.962  29.122  1.00  0.00     0.074 A 
ATOM     49  C   UNL A   1      44.228  27.632  28.573  1.00  0.00     0.031 C 
ATOM     50  C   UNL A   1      37.696  29.741  29.229  1.00  0.00     0.029 A 
ATOM     51  C   UNL A   1      38.715  30.674  29.701  1.00  0.00     0.049 A 
ATOM     52  H   UNL A   1      40.784  30.474  29.542  1.00  0.00     0.167 HD
ATOM     53  C   UNL A   1      45.098  29.749  29.519  1.00  0.00     0.034 A 
ATOM     54  C   UNL A   1      38.472  31.844  30.322  1.00  0.00     0.034 A 
ATOM     55  C   UNL A   1      44.939  31.082  30.033  1.00  0.00     0.049 A 
ATOM     56  C   UNL A   1      39.633  32.708  30.737  1.00  0.00     0.074 A 
ATOM     57  C   UNL A   1      45.923  31.991  30.384  1.00  0.00     0.029 A 
ATOM     58  N   UNL A   1      43.722  31.695  30.281  1.00  0.00    -0.354 N 
ATOM     59  N   UNL A   1      40.916  32.490  30.587  1.00  0.00    -0.248 NA
ATOM     60  C   UNL A   1      39.311  33.991  31.377  1.00  0.00     0.031 C 
ATOM     61  C   UNL A   1      45.299  33.143  30.873  1.00  0.00     0.029 A 
ATOM     62  C   UNL A   1      43.926  32.965  30.794  1.00  0.00     0.049 A 
ATOM     63  H   UNL A   1      42.840  31.288  30.118  1.00  0.00     0.167 HD
ATOM     64  C   UNL A   1      41.555  33.624  31.077  1.00  0.00     0.074 A 
ATOM     65  C   UNL A   1      40.514  34.533  31.511  1.00  0.00     0.031 C 
ATOM     66  C   UNL A   1      42.882  33.882  31.173  1.00  0.00     0.034 A 
BRANCH  53  67
ATOM     67  C   UNL A   1      46.496  29.203  29.370  1.00  0.00     0.023 A 
ATOM     68  C   UNL A   1      47.085  28.499  30.440  1.00  0.00     0.012 A 
ATOM     69  C   UNL A   1      47.200  29.331  28.157  1.00  0.00     0.148 A 
ATOM     70  C   UNL A   1      48.367  27.965  30.321  1.00  0.00     0.002 A 
ATOM     71  C   UNL A   1      48.459  28.755  28.029  1.00  0.00     0.091 A 
ATOM     72  F   UNL A   1      46.632  30.019  27.156  1.00  0.00    -0.205 F 
ATOM     73  C   UNL A   1      49.049  28.084  29.113  1.00  0.00     0.022 A 
BRANCH  71  74
ATOM     74  S   UNL A   1      49.386  28.780  26.491  1.00  0.00     0.127 S 
ATOM     75  O   UNL A   1      50.438  27.800  26.765  1.00  0.00    -0.237 OA
ATOM     76  O   UNL A   1      48.383  28.342  25.520  1.00  0.00    -0.237 OA
ATOM     77  O   UNL A   1      49.842  30.152  26.317  1.00  0.00    -0.744 OA
ENDBRANCH  71  74
ENDBRANCH  53  67
BRANCH  54  78
ATOM     78  C   UNL A   1      37.067  32.298  30.537  1.00  0.00     0.023 A 
ATOM     79  C   UNL A   1      36.466  32.111  31.796  1.00  0.00     0.012 A 
ATOM     80  C   UNL A   1      36.336  32.931  29.513  1.00  0.00     0.148 A 
ATOM     81  C   UNL A   1      35.149  32.513  32.024  1.00  0.00     0.002 A 
ATOM     82  C   UNL A   1      35.044  33.380  29.764  1.00  0.00     0.091 A 
ATOM     83  F   UNL A   1      36.923  33.091  28.319  1.00  0.00    -0.205 F 
ATOM     84  C   UNL A   1      34.442  33.156  31.012  1.00  0.00     0.022 A 
BRANCH  82  85
ATOM     85  S   UNL A   1      34.105  34.334  28.565  1.00  0.00     0.127 S 
ATOM     86  O   UNL A   1      34.051  33.417  27.431  1.00  0.00    -0.237 OA
ATOM     87  O   UNL A   1      32.835  34.527  29.265  1.00  0.00    -0.237 OA
ATOM     88  O   UNL A   1      34.866  35.558  28.355  1.00  0.00    -0.744 OA
ENDBRANCH  82  85
ENDBRANCH  54  78
BRANCH  66  89
ATOM     89  C   UNL A   1      43.298  35.219  31.732  1.00  0.00     0.023 A 
ATOM     90  C   UNL A   1      43.606  36.281  30.860  1.00  0.00     0.012 A 
ATOM     91  C   UNL A   1      43.302  35.442  33.123  1.00  0.00     0.148 A 
ATOM     92  C   UNL A   1      43.945  37.536  31.365  1.00  0.00     0.002 A 
ATOM     93  C   UNL A   1      43.589  36.708  33.618  1.00  0.00     0.091 A 
ATOM     94  F   UNL A   1      43.021  34.413  33.937  1.00  0.00    -0.205 F 
ATOM     95  C   UNL A   1      43.924  37.752  32.742  1.00  0.00     0.022 A 
BRANCH  93  96
ATOM     96  S   UNL A   1      43.492  37.106  35.367  1.00  0.00     0.127 S 
ATOM     97  O   UNL A   1      44.512  36.223  35.931  1.00  0.00    -0.237 OA
ATOM     98  O   UNL A   1      43.842  38.527  35.380  1.00  0.00    -0.237 OA
ATOM     99  O   UNL A   1      42.123  36.815  35.772  1.00  0.00    -0.744 OA
ENDBRANCH  93  96
ENDBRANCH  66  89
ENDBRANCH  40  41
ENDBRANCH  32  35
ENDBRANCH  30  31
ENDBRANCH  29  30
ENDBRANCH   1  29
TORSDOF 18
ENDMDL
MODEL 3
REMARK VINA RESULT:     -12.3      0.550      7.396
REMARK SMILES CC(C)c1ccc(NC(=O)C[C@H]2SC[C@@H](C(=O)NCCCCNC(=O)c3ccc(-c4c5nc(c(-c6cccc(S(=O)(=O)[O-])c6F)c6ccc([nH]6)c(-c6cccc(S(=O)(=O)[O-])c6F)c6nc(c(-c7cccc(S(=O)(=O)[O-])c7F)c7ccc4[nH]7)C=C6)C=C5)cc3)NC2=O)cc1
REMARK SMILES IDX 20 1 19 2 18 3 16 4 17 5 15 7 12 8 13 9 90 10 14 11 89 12
REMARK SMILES IDX 91 13 11 15 9 16 8 17 10 19 7 20 4 21 5 22 93 23 6 24 92 25
REMARK SMILES IDX 2 26 1 27 3 28 21 29 22 30 23 31 24 32 25 34 26 35 27 36
REMARK SMILES IDX 88 37 28 38 87 39 29 40 30 41 31 42 81 43 32 44 86 45 80 46
REMARK SMILES IDX 82 47 33 48 85 49 79 50 78 51 34 53 66 54 46 55 65 56 47 57
REMARK SMILES IDX 50 58 64 59 83 60 48 61 49 62 63 64 84 65 51 66 35 67 36 68
REMARK SMILES IDX 44 69 37 70 39 71 45 72 38 73 40 74 41 75 42 76 43 77 67 78
REMARK SMILES IDX 68 79 76 80 69 81 71 82 77 83 70 84 72 85 73 86 74 87 75 88
REMARK SMILES IDX 52 89 53 90 61 91 54 92 56 93 62 94 55 95 57 96 58 97 59 98
REMARK SMILES IDX 60 99
REMARK H PARENT 18 6 89 14 8 18 23 33 82 52 50 63
REMARK Flexibility Score: inf
ROOT
ATOM      1  C   UNL A   1      35.453  22.111  26.474  1.00  0.00     0.023 C 
ENDROOT
BRANCH   1   2
ATOM      2  C   UNL A   1      34.119  21.510  26.910  1.00  0.00     0.116 C 
BRANCH   2   3
ATOM      3  N   UNL A   1      33.300  22.535  27.517  1.00  0.00    -0.354 N 
ATOM      4  C   UNL A   1      32.178  23.127  27.010  1.00  0.00     0.243 C 
ATOM      5  O   UNL A   1      31.872  24.234  27.449  1.00  0.00    -0.273 OA
ATOM      6  H   UNL A   1      33.588  22.846  28.407  1.00  0.00     0.163 HD
BRANCH   4   7
ATOM      7  C   UNL A   1      31.221  22.275  26.152  1.00  0.00     0.181 C 
ATOM      8  C   UNL A   1      31.047  23.761  23.480  1.00  0.00     0.145 C 
ATOM      9  S   UNL A   1      32.460  22.582  23.623  1.00  0.00    -0.145 SA
ATOM     10  C   UNL A   1      30.480  24.203  24.836  1.00  0.00     0.234 C 
ATOM     11  C   UNL A   1      31.891  21.545  24.998  1.00  0.00     0.105 C 
ATOM     12  N   UNL A   1      30.191  23.221  25.754  1.00  0.00    -0.343 N 
ATOM     13  O   UNL A   1      30.124  25.339  25.131  1.00  0.00    -0.274 OA
ATOM     14  H   UNL A   1      29.288  23.159  26.141  1.00  0.00     0.164 HD
BRANCH   8  15
ATOM     15  C   UNL A   1      31.451  24.848  22.473  1.00  0.00     0.124 C 
BRANCH  15  16
ATOM     16  C   UNL A   1      32.866  24.909  21.931  1.00  0.00     0.226 C 
ATOM     17  N   UNL A   1      33.870  25.623  22.507  1.00  0.00    -0.326 N 
ATOM     18  H   UNL A   1      34.732  25.544  22.039  1.00  0.00     0.169 HD
ATOM     19  O   UNL A   1      33.140  24.303  20.888  1.00  0.00    -0.275 OA
BRANCH  17  20
ATOM     20  C   UNL A   1      33.913  26.446  23.637  1.00  0.00     0.041 A 
ATOM     21  C   UNL A   1      33.782  27.917  26.046  1.00  0.00    -0.045 A 
ATOM     22  C   UNL A   1      33.749  28.558  24.795  1.00  0.00     0.006 A 
ATOM     23  C   UNL A   1      33.944  26.528  26.064  1.00  0.00     0.006 A 
ATOM     24  C   UNL A   1      33.816  27.830  23.602  1.00  0.00     0.026 A 
ATOM     25  C   UNL A   1      34.029  25.804  24.872  1.00  0.00     0.026 A 
BRANCH  21  26
ATOM     26  C   UNL A   1      33.646  28.754  27.309  1.00  0.00     0.013 C 
ATOM     27  C   UNL A   1      34.997  29.358  27.712  1.00  0.00     0.012 C 
ATOM     28  C   UNL A   1      32.599  29.874  27.239  1.00  0.00     0.012 C 
ENDBRANCH  21  26
ENDBRANCH  17  20
ENDBRANCH  15  16
ENDBRANCH   8  15
ENDBRANCH   4   7
ENDBRANCH   2   3
ENDBRANCH   1   2
BRANCH   1  29
ATOM     29  C   UNL A   1      35.905  21.667  25.078  1.00  0.00     0.023 C 
BRANCH  29  30
ATOM     30  C   UNL A   1      37.394  21.846  24.798  1.00  0.00     0.116 C 
BRANCH  30  31
ATOM     31  N   UNL A   1      38.189  20.738  25.306  1.00  0.00    -0.352 N 
ATOM     32  C   UNL A   1      39.341  20.777  26.053  1.00  0.00     0.251 C 
ATOM     33  H   UNL A   1      37.858  19.838  25.084  1.00  0.00     0.163 HD
ATOM     34  O   UNL A   1      39.973  19.745  26.261  1.00  0.00    -0.269 OA
BRANCH  32  35
ATOM     35  C   UNL A   1      39.822  22.071  26.576  1.00  0.00     0.039 A 
ATOM     36  C   UNL A   1      40.820  22.076  27.552  1.00  0.00     0.014 A 
ATOM     37  C   UNL A   1      39.312  23.273  26.075  1.00  0.00     0.014 A 
ATOM     38  C   UNL A   1      41.357  23.292  27.979  1.00  0.00     0.010 A 
ATOM     39  C   UNL A   1      39.901  24.477  26.448  1.00  0.00     0.010 A 
ATOM     40  C   UNL A   1      40.928  24.500  27.402  1.00  0.00    -0.014 A 
BRANCH  40  41
ATOM     41  C   UNL A   1      41.563  25.793  27.763  1.00  0.00     0.031 A 
ATOM     42  C   UNL A   1      40.773  26.851  28.484  1.00  0.00     0.074 A 
ATOM     43  C   UNL A   1      42.822  26.050  27.357  1.00  0.00     0.049 A 
ATOM     44  N   UNL A   1      41.135  28.060  28.824  1.00  0.00    -0.248 NA
ATOM     45  C   UNL A   1      39.388  26.515  28.852  1.00  0.00     0.031 C 
ATOM     46  C   UNL A   1      43.666  25.134  26.584  1.00  0.00     0.029 A 
ATOM     47  N   UNL A   1      43.604  27.168  27.513  1.00  0.00    -0.354 N 
ATOM     48  C   UNL A   1      40.018  28.641  29.410  1.00  0.00     0.074 A 
ATOM     49  C   UNL A   1      38.954  27.662  29.351  1.00  0.00     0.031 C 
ATOM     50  C   UNL A   1      44.846  25.724  26.338  1.00  0.00     0.029 A 
ATOM     51  C   UNL A   1      44.834  27.070  26.902  1.00  0.00     0.049 A 
ATOM     52  H   UNL A   1      43.313  27.963  28.014  1.00  0.00     0.167 HD
ATOM     53  C   UNL A   1      39.895  29.866  29.973  1.00  0.00     0.034 A 
ATOM     54  C   UNL A   1      45.832  27.968  26.796  1.00  0.00     0.034 A 
ATOM     55  C   UNL A   1      40.964  30.823  30.059  1.00  0.00     0.049 A 
ATOM     56  C   UNL A   1      45.677  29.316  27.448  1.00  0.00     0.074 A 
ATOM     57  C   UNL A   1      40.964  32.058  30.684  1.00  0.00     0.029 A 
ATOM     58  N   UNL A   1      42.219  30.661  29.494  1.00  0.00    -0.354 N 
ATOM     59  N   UNL A   1      44.667  29.787  28.137  1.00  0.00    -0.248 NA
ATOM     60  C   UNL A   1      46.811  30.244  27.334  1.00  0.00     0.031 C 
ATOM     61  C   UNL A   1      42.211  32.656  30.471  1.00  0.00     0.029 A 
ATOM     62  C   UNL A   1      42.999  31.779  29.743  1.00  0.00     0.049 A 
ATOM     63  H   UNL A   1      42.514  29.869  28.989  1.00  0.00     0.167 HD
ATOM     64  C   UNL A   1      45.056  31.048  28.572  1.00  0.00     0.074 A 
ATOM     65  C   UNL A   1      46.404  31.259  28.083  1.00  0.00     0.031 C 
ATOM     66  C   UNL A   1      44.357  31.955  29.297  1.00  0.00     0.034 A 
BRANCH  53  67
ATOM     67  C   UNL A   1      38.565  30.225  30.585  1.00  0.00     0.023 A 
ATOM     68  C   UNL A   1      38.184  29.643  31.811  1.00  0.00     0.012 A 
ATOM     69  C   UNL A   1      37.723  31.180  29.984  1.00  0.00     0.148 A 
ATOM     70  C   UNL A   1      36.970  29.974  32.410  1.00  0.00     0.002 A 
ATOM     71  C   UNL A   1      36.535  31.542  30.610  1.00  0.00     0.091 A 
ATOM     72  F   UNL A   1      38.092  31.711  28.809  1.00  0.00    -0.205 F 
ATOM     73  C   UNL A   1      36.151  30.930  31.815  1.00  0.00     0.022 A 
BRANCH  71  74
ATOM     74  S   UNL A   1      35.449  32.822  29.970  1.00  0.00     0.127 S 
ATOM     75  O   UNL A   1      35.185  32.333  28.617  1.00  0.00    -0.237 OA
ATOM     76  O   UNL A   1      34.308  32.741  30.882  1.00  0.00    -0.237 OA
ATOM     77  O   UNL A   1      36.203  34.065  30.048  1.00  0.00    -0.744 OA
ENDBRANCH  71  74
ENDBRANCH  53  67
BRANCH  54  78
ATOM     78  C   UNL A   1      47.095  27.601  26.094  1.00  0.00     0.023 A 
ATOM     79  C   UNL A   1      48.136  26.988  26.817  1.00  0.00     0.012 A 
ATOM     80  C   UNL A   1      47.262  27.833  24.715  1.00  0.00     0.148 A 
ATOM     81  C   UNL A   1      49.335  26.645  26.190  1.00  0.00     0.002 A 
ATOM     82  C   UNL A   1      48.437  27.437  24.084  1.00  0.00     0.091 A 
ATOM     83  F   UNL A   1      46.263  28.425  24.045  1.00  0.00    -0.205 F 
ATOM     84  C   UNL A   1      49.481  26.861  24.823  1.00  0.00     0.022 A 
BRANCH  82  85
ATOM     85  S   UNL A   1      48.663  27.554  22.305  1.00  0.00     0.127 S 
ATOM     86  O   UNL A   1      47.490  28.324  21.905  1.00  0.00    -0.237 OA
ATOM     87  O   UNL A   1      49.935  28.271  22.213  1.00  0.00    -0.237 OA
ATOM     88  O   UNL A   1      48.714  26.180  21.826  1.00  0.00    -0.744 OA
ENDBRANCH  82  85
ENDBRANCH  54  78
BRANCH  66  89
ATOM     89  C   UNL A   1      45.043  33.250  29.649  1.00  0.00     0.023 A 
ATOM     90  C   UNL A   1      45.858  33.326  30.796  1.00  0.00     0.012 A 
ATOM     91  C   UNL A   1      44.943  34.367  28.797  1.00  0.00     0.148 A 
ATOM     92  C   UNL A   1      46.537  34.505  31.105  1.00  0.00     0.002 A 
ATOM     93  C   UNL A   1      45.663  35.520  29.083  1.00  0.00     0.091 A 
ATOM     94  F   UNL A   1      44.149  34.280  27.719  1.00  0.00    -0.205 F 
ATOM     95  C   UNL A   1      46.449  35.596  30.244  1.00  0.00     0.022 A 
BRANCH  93  96
ATOM     96  S   UNL A   1      45.690  36.940  27.982  1.00  0.00     0.127 S 
ATOM     97  O   UNL A   1      44.313  37.423  28.084  1.00  0.00    -0.237 OA
ATOM     98  O   UNL A   1      46.687  37.804  28.617  1.00  0.00    -0.237 OA
ATOM     99  O   UNL A   1      46.075  36.429  26.674  1.00  0.00    -0.744 OA
ENDBRANCH  93  96
ENDBRANCH  66  89
ENDBRANCH  40  41
ENDBRANCH  32  35
ENDBRANCH  30  31
ENDBRANCH  29  30
ENDBRANCH   1  29
TORSDOF 18
ENDMDL
