MODEL 1
REMARK VINA RESULT:     -13.4      0.000      0.000
REMARK SMILES Cc1ccc(C(=O)N2C[C@H](C(=O)NCCCCNC(=O)c3ccc(-c4c5nc(c(-c6cccc(S(=O)(=O)[O-])c6F)c6ccc([nH]6)c(-c6cccc(S(=O)(=O)[O-])c6F)c6nc(c(-c7cccc(S(=O)(=O)[O-])c7F)c7ccc4[nH]7)C=C6)C=C5)cc3)Oc3ccccc32)o1
REMARK SMILES IDX 16 1 15 2 14 3 13 4 11 5 12 6 10 8 8 9 9 10 90 11 85 12
REMARK SMILES IDX 89 13 84 14 86 15 88 16 87 17 6 18 7 19 5 20 1 21 2 22 3 23
REMARK SMILES IDX 91 24 4 25 17 26 18 27 19 28 20 30 21 31 22 32 83 33 23 34
REMARK SMILES IDX 82 35 24 36 25 37 26 38 76 39 27 40 81 41 75 42 77 43 28 44
REMARK SMILES IDX 80 45 74 46 73 47 29 49 61 50 41 51 60 52 42 53 45 54 59 55
REMARK SMILES IDX 78 56 43 57 44 58 58 60 79 61 46 62 30 63 31 64 39 65 32 66
REMARK SMILES IDX 34 67 40 68 33 69 35 70 36 71 37 72 38 73 62 74 63 75 71 76
REMARK SMILES IDX 64 77 66 78 72 79 65 80 67 81 68 82 69 83 70 84 47 85 48 86
REMARK SMILES IDX 56 87 49 88 51 89 57 90 50 91 52 92 53 93 54 94 55 95
REMARK H PARENT 13 7 18 29 77 48 45 59
REMARK Flexibility Score: inf
ROOT
ATOM      1  C   UNL A   1      32.100  28.614  24.523  1.00  0.00     0.023 C 
ENDROOT
BRANCH   1   2
ATOM      2  C   UNL A   1      32.680  27.538  23.603  1.00  0.00     0.023 C 
BRANCH   2   3
ATOM      3  C   UNL A   1      31.645  26.625  22.948  1.00  0.00     0.116 C 
BRANCH   3   4
ATOM      4  N   UNL A   1      32.168  25.997  21.745  1.00  0.00    -0.353 N 
ATOM      5  C   UNL A   1      32.916  24.861  21.598  1.00  0.00     0.262 C 
ATOM      6  O   UNL A   1      33.269  24.547  20.457  1.00  0.00    -0.271 OA
ATOM      7  H   UNL A   1      31.950  26.463  20.905  1.00  0.00     0.163 HD
BRANCH   5   8
ATOM      8  C   UNL A   1      33.358  24.032  22.808  1.00  0.00     0.281 C 
ATOM      9  N   UNL A   1      33.103  21.817  23.878  1.00  0.00    -0.298 N 
ATOM     10  C   UNL A   1      32.646  22.686  22.794  1.00  0.00     0.181 C 
ATOM     11  C   UNL A   1      34.489  21.928  24.210  1.00  0.00     0.087 A 
ATOM     12  C   UNL A   1      35.269  22.940  23.627  1.00  0.00     0.144 A 
ATOM     13  C   UNL A   1      35.133  20.981  25.018  1.00  0.00     0.030 A 
ATOM     14  O   UNL A   1      34.780  23.919  22.802  1.00  0.00    -0.477 OA
ATOM     15  C   UNL A   1      36.652  22.984  23.827  1.00  0.00     0.049 A 
ATOM     16  C   UNL A   1      36.515  21.029  25.221  1.00  0.00     0.002 A 
ATOM     17  C   UNL A   1      37.276  22.027  24.621  1.00  0.00     0.004 A 
BRANCH   9  18
ATOM     18  C   UNL A   1      32.241  20.927  24.529  1.00  0.00     0.294 C 
ATOM     19  O   UNL A   1      31.433  21.326  25.382  1.00  0.00    -0.265 OA
BRANCH  18  20
ATOM     20  C   UNL A   1      32.375  19.510  24.220  1.00  0.00     0.192 A 
ATOM     21  C   UNL A   1      32.856  16.307  25.751  1.00  0.00     0.087 C 
ATOM     22  C   UNL A   1      32.690  17.392  24.766  1.00  0.00     0.101 A 
ATOM     23  C   UNL A   1      32.754  17.445  23.392  1.00  0.00     0.046 A 
ATOM     24  O   UNL A   1      32.449  18.632  25.271  1.00  0.00    -0.456 OA
ATOM     25  C   UNL A   1      32.566  18.804  23.041  1.00  0.00     0.056 A 
ENDBRANCH  18  20
ENDBRANCH   9  18
ENDBRANCH   5   8
ENDBRANCH   3   4
ENDBRANCH   2   3
ENDBRANCH   1   2
BRANCH   1  26
ATOM     26  C   UNL A   1      33.126  29.422  25.314  1.00  0.00     0.116 C 
BRANCH  26  27
ATOM     27  N   UNL A   1      32.599  30.682  25.812  1.00  0.00    -0.352 N 
ATOM     28  C   UNL A   1      33.030  31.442  26.872  1.00  0.00     0.251 C 
ATOM     29  H   UNL A   1      31.826  31.041  25.321  1.00  0.00     0.163 HD
ATOM     30  O   UNL A   1      32.378  32.427  27.210  1.00  0.00    -0.269 OA
BRANCH  28  31
ATOM     31  C   UNL A   1      34.251  31.066  27.620  1.00  0.00     0.039 A 
ATOM     32  C   UNL A   1      34.386  29.744  28.059  1.00  0.00     0.014 A 
ATOM     33  C   UNL A   1      35.243  32.004  27.918  1.00  0.00     0.014 A 
ATOM     34  C   UNL A   1      35.532  29.356  28.756  1.00  0.00     0.010 A 
ATOM     35  C   UNL A   1      36.412  31.602  28.559  1.00  0.00     0.010 A 
ATOM     36  C   UNL A   1      36.561  30.279  28.999  1.00  0.00    -0.014 A 
BRANCH  36  37
ATOM     37  C   UNL A   1      37.787  29.884  29.734  1.00  0.00     0.031 A 
ATOM     38  C   UNL A   1      38.037  30.411  31.121  1.00  0.00     0.074 A 
ATOM     39  C   UNL A   1      38.709  29.110  29.129  1.00  0.00     0.049 A 
ATOM     40  N   UNL A   1      39.060  30.204  31.909  1.00  0.00    -0.248 NA
ATOM     41  C   UNL A   1      37.019  31.313  31.685  1.00  0.00     0.031 C 
ATOM     42  C   UNL A   1      38.623  28.606  27.757  1.00  0.00     0.029 A 
ATOM     43  N   UNL A   1      39.911  28.629  29.584  1.00  0.00    -0.354 N 
ATOM     44  C   UNL A   1      38.827  30.975  33.043  1.00  0.00     0.074 A 
ATOM     45  C   UNL A   1      37.582  31.678  32.828  1.00  0.00     0.031 C 
ATOM     46  C   UNL A   1      39.722  27.883  27.484  1.00  0.00     0.029 A 
ATOM     47  C   UNL A   1      40.593  27.877  28.657  1.00  0.00     0.049 A 
ATOM     48  H   UNL A   1      40.253  28.806  30.491  1.00  0.00     0.167 HD
ATOM     49  C   UNL A   1      39.565  31.062  34.175  1.00  0.00     0.034 A 
ATOM     50  C   UNL A   1      41.776  27.240  28.749  1.00  0.00     0.034 A 
ATOM     51  C   UNL A   1      40.765  30.309  34.415  1.00  0.00     0.049 A 
ATOM     52  C   UNL A   1      42.522  27.269  30.056  1.00  0.00     0.074 A 
ATOM     53  C   UNL A   1      41.547  30.271  35.555  1.00  0.00     0.029 A 
ATOM     54  N   UNL A   1      41.350  29.448  33.500  1.00  0.00    -0.354 N 
ATOM     55  N   UNL A   1      42.204  27.878  31.172  1.00  0.00    -0.248 NA
ATOM     56  C   UNL A   1      43.762  26.482  30.134  1.00  0.00     0.031 C 
ATOM     57  C   UNL A   1      42.598  29.375  35.335  1.00  0.00     0.029 A 
ATOM     58  C   UNL A   1      42.472  28.858  34.055  1.00  0.00     0.049 A 
ATOM     59  H   UNL A   1      41.016  29.280  32.589  1.00  0.00     0.167 HD
ATOM     60  C   UNL A   1      43.179  27.517  32.095  1.00  0.00     0.074 A 
ATOM     61  C   UNL A   1      44.090  26.621  31.411  1.00  0.00     0.031 C 
ATOM     62  C   UNL A   1      43.319  27.907  33.385  1.00  0.00     0.034 A 
BRANCH  49  63
ATOM     63  C   UNL A   1      39.043  31.944  35.276  1.00  0.00     0.023 A 
ATOM     64  C   UNL A   1      39.136  33.344  35.133  1.00  0.00     0.012 A 
ATOM     65  C   UNL A   1      38.426  31.405  36.421  1.00  0.00     0.148 A 
ATOM     66  C   UNL A   1      38.651  34.193  36.125  1.00  0.00     0.002 A 
ATOM     67  C   UNL A   1      37.912  32.260  37.390  1.00  0.00     0.091 A 
ATOM     68  F   UNL A   1      38.372  30.072  36.554  1.00  0.00    -0.205 F 
ATOM     69  C   UNL A   1      38.031  33.652  37.248  1.00  0.00     0.022 A 
BRANCH  67  70
ATOM     70  S   UNL A   1      37.039  31.652  38.838  1.00  0.00     0.127 S 
ATOM     71  O   UNL A   1      35.855  32.508  38.852  1.00  0.00    -0.237 OA
ATOM     72  O   UNL A   1      36.779  30.255  38.485  1.00  0.00    -0.237 OA
ATOM     73  O   UNL A   1      37.961  31.826  39.954  1.00  0.00    -0.744 OA
ENDBRANCH  67  70
ENDBRANCH  49  63
BRANCH  50  74
ATOM     74  C   UNL A   1      42.265  26.420  27.606  1.00  0.00     0.023 A 
ATOM     75  C   UNL A   1      43.131  27.010  26.664  1.00  0.00     0.012 A 
ATOM     76  C   UNL A   1      41.919  25.063  27.464  1.00  0.00     0.148 A 
ATOM     77  C   UNL A   1      43.621  26.272  25.587  1.00  0.00     0.002 A 
ATOM     78  C   UNL A   1      42.450  24.319  26.414  1.00  0.00     0.091 A 
ATOM     79  F   UNL A   1      41.081  24.521  28.359  1.00  0.00    -0.205 F 
ATOM     80  C   UNL A   1      43.290  24.925  25.468  1.00  0.00     0.022 A 
BRANCH  78  81
ATOM     81  S   UNL A   1      42.172  22.550  26.275  1.00  0.00     0.127 S 
ATOM     82  O   UNL A   1      42.809  22.245  24.998  1.00  0.00    -0.237 OA
ATOM     83  O   UNL A   1      42.870  22.030  27.452  1.00  0.00    -0.237 OA
ATOM     84  O   UNL A   1      40.724  22.390  26.327  1.00  0.00    -0.744 OA
ENDBRANCH  78  81
ENDBRANCH  50  74
BRANCH  62  85
ATOM     85  C   UNL A   1      44.475  27.342  34.164  1.00  0.00     0.023 A 
ATOM     86  C   UNL A   1      45.722  27.998  34.129  1.00  0.00     0.012 A 
ATOM     87  C   UNL A   1      44.309  26.214  34.988  1.00  0.00     0.148 A 
ATOM     88  C   UNL A   1      46.792  27.525  34.887  1.00  0.00     0.002 A 
ATOM     89  C   UNL A   1      45.371  25.769  35.770  1.00  0.00     0.091 A 
ATOM     90  F   UNL A   1      43.124  25.585  34.990  1.00  0.00    -0.205 F 
ATOM     91  C   UNL A   1      46.614  26.419  35.716  1.00  0.00     0.022 A 
BRANCH  89  92
ATOM     92  S   UNL A   1      45.178  24.403  36.921  1.00  0.00     0.127 S 
ATOM     93  O   UNL A   1      44.847  23.298  36.024  1.00  0.00    -0.237 OA
ATOM     94  O   UNL A   1      46.502  24.311  37.538  1.00  0.00    -0.237 OA
ATOM     95  O   UNL A   1      44.124  24.819  37.837  1.00  0.00    -0.744 OA
ENDBRANCH  89  92
ENDBRANCH  62  85
ENDBRANCH  36  37
ENDBRANCH  28  31
ENDBRANCH  26  27
ENDBRANCH   1  26
TORSDOF 16
ENDMDL
MODEL 2
REMARK VINA RESULT:     -13.2      1.308      1.629
REMARK SMILES Cc1ccc(C(=O)N2C[C@H](C(=O)NCCCCNC(=O)c3ccc(-c4c5nc(c(-c6cccc(S(=O)(=O)[O-])c6F)c6ccc([nH]6)c(-c6cccc(S(=O)(=O)[O-])c6F)c6nc(c(-c7cccc(S(=O)(=O)[O-])c7F)c7ccc4[nH]7)C=C6)C=C5)cc3)Oc3ccccc32)o1
REMARK SMILES IDX 16 1 15 2 14 3 13 4 11 5 12 6 10 8 8 9 9 10 90 11 85 12
REMARK SMILES IDX 89 13 84 14 86 15 88 16 87 17 6 18 7 19 5 20 1 21 2 22 3 23
REMARK SMILES IDX 91 24 4 25 17 26 18 27 19 28 20 30 21 31 22 32 83 33 23 34
REMARK SMILES IDX 82 35 24 36 25 37 26 38 76 39 27 40 81 41 75 42 77 43 28 44
REMARK SMILES IDX 80 45 74 46 73 47 29 49 61 50 41 51 60 52 42 53 45 54 59 55
REMARK SMILES IDX 78 56 43 57 44 58 58 60 79 61 46 62 30 63 31 64 39 65 32 66
REMARK SMILES IDX 34 67 40 68 33 69 35 70 36 71 37 72 38 73 62 74 63 75 71 76
REMARK SMILES IDX 64 77 66 78 72 79 65 80 67 81 68 82 69 83 70 84 47 85 48 86
REMARK SMILES IDX 56 87 49 88 51 89 57 90 50 91 52 92 53 93 54 94 55 95
REMARK H PARENT 13 7 18 29 77 48 45 59
REMARK Flexibility Score: inf
ROOT
ATOM      1  C   UNL A   1      31.875  28.524  24.843  1.00  0.00     0.023 C 
ENDROOT
BRANCH   1   2
ATOM      2  C   UNL A   1      32.434  27.760  23.640  1.00  0.00     0.023 C 
BRANCH   2   3
ATOM      3  C   UNL A   1      31.596  26.563  23.193  1.00  0.00     0.116 C 
BRANCH   3   4
ATOM      4  N   UNL A   1      32.100  25.988  21.956  1.00  0.00    -0.353 N 
ATOM      5  C   UNL A   1      32.861  24.870  21.750  1.00  0.00     0.262 C 
ATOM      6  O   UNL A   1      33.192  24.603  20.591  1.00  0.00    -0.271 OA
ATOM      7  H   UNL A   1      31.856  26.481  21.139  1.00  0.00     0.163 HD
BRANCH   5   8
ATOM      8  C   UNL A   1      33.344  24.004  22.918  1.00  0.00     0.281 C 
ATOM      9  N   UNL A   1      33.160  21.741  23.901  1.00  0.00    -0.298 N 
ATOM     10  C   UNL A   1      32.664  22.642  22.860  1.00  0.00     0.181 C 
ATOM     11  C   UNL A   1      34.547  21.873  24.214  1.00  0.00     0.087 A 
ATOM     12  C   UNL A   1      35.293  22.927  23.661  1.00  0.00     0.144 A 
ATOM     13  C   UNL A   1      35.228  20.910  24.973  1.00  0.00     0.030 A 
ATOM     14  O   UNL A   1      34.768  23.926  22.884  1.00  0.00    -0.477 OA
ATOM     15  C   UNL A   1      36.678  22.997  23.841  1.00  0.00     0.049 A 
ATOM     16  C   UNL A   1      36.612  20.984  25.155  1.00  0.00     0.002 A 
ATOM     17  C   UNL A   1      37.338  22.024  24.584  1.00  0.00     0.004 A 
BRANCH   9  18
ATOM     18  C   UNL A   1      32.330  20.805  24.528  1.00  0.00     0.294 C 
ATOM     19  O   UNL A   1      31.537  21.147  25.419  1.00  0.00    -0.265 OA
BRANCH  18  20
ATOM     20  C   UNL A   1      32.480  19.408  24.146  1.00  0.00     0.192 A 
ATOM     21  C   UNL A   1      33.330  16.184  25.461  1.00  0.00     0.087 C 
ATOM     22  C   UNL A   1      32.969  17.292  24.555  1.00  0.00     0.101 A 
ATOM     23  C   UNL A   1      32.826  17.393  23.190  1.00  0.00     0.046 A 
ATOM     24  O   UNL A   1      32.751  18.500  25.140  1.00  0.00    -0.456 OA
ATOM     25  C   UNL A   1      32.525  18.751  22.926  1.00  0.00     0.056 A 
ENDBRANCH  18  20
ENDBRANCH   9  18
ENDBRANCH   5   8
ENDBRANCH   3   4
ENDBRANCH   2   3
ENDBRANCH   1   2
BRANCH   1  26
ATOM     26  C   UNL A   1      32.917  29.193  25.735  1.00  0.00     0.116 C 
BRANCH  26  27
ATOM     27  N   UNL A   1      32.577  30.563  26.083  1.00  0.00    -0.352 N 
ATOM     28  C   UNL A   1      33.182  31.403  26.985  1.00  0.00     0.251 C 
ATOM     29  H   UNL A   1      31.804  30.941  25.605  1.00  0.00     0.163 HD
ATOM     30  O   UNL A   1      32.673  32.496  27.225  1.00  0.00    -0.269 OA
BRANCH  28  31
ATOM     31  C   UNL A   1      34.419  30.990  27.686  1.00  0.00     0.039 A 
ATOM     32  C   UNL A   1      35.416  31.947  27.902  1.00  0.00     0.014 A 
ATOM     33  C   UNL A   1      34.616  29.671  28.103  1.00  0.00     0.014 A 
ATOM     34  C   UNL A   1      36.589  31.591  28.571  1.00  0.00     0.010 A 
ATOM     35  C   UNL A   1      35.758  29.332  28.825  1.00  0.00     0.010 A 
ATOM     36  C   UNL A   1      36.762  30.283  29.051  1.00  0.00    -0.014 A 
BRANCH  36  37
ATOM     37  C   UNL A   1      37.999  29.888  29.769  1.00  0.00     0.031 A 
ATOM     38  C   UNL A   1      38.272  30.419  31.150  1.00  0.00     0.074 A 
ATOM     39  C   UNL A   1      38.910  29.110  29.152  1.00  0.00     0.049 A 
ATOM     40  N   UNL A   1      39.306  30.212  31.922  1.00  0.00    -0.248 NA
ATOM     41  C   UNL A   1      37.265  31.326  31.727  1.00  0.00     0.031 C 
ATOM     42  C   UNL A   1      38.800  28.602  27.783  1.00  0.00     0.029 A 
ATOM     43  N   UNL A   1      40.117  28.627  29.590  1.00  0.00    -0.354 N 
ATOM     44  C   UNL A   1      39.094  30.988  33.057  1.00  0.00     0.074 A 
ATOM     45  C   UNL A   1      37.847  31.693  32.859  1.00  0.00     0.031 C 
ATOM     46  C   UNL A   1      39.894  27.875  27.496  1.00  0.00     0.029 A 
ATOM     47  C   UNL A   1      40.782  27.870  28.654  1.00  0.00     0.049 A 
ATOM     48  H   UNL A   1      40.474  28.807  30.490  1.00  0.00     0.167 HD
ATOM     49  C   UNL A   1      39.849  31.077  34.177  1.00  0.00     0.034 A 
ATOM     50  C   UNL A   1      41.966  27.231  28.730  1.00  0.00     0.034 A 
ATOM     51  C   UNL A   1      41.051  30.322  34.400  1.00  0.00     0.049 A 
ATOM     52  C   UNL A   1      42.732  27.262  30.025  1.00  0.00     0.074 A 
ATOM     53  C   UNL A   1      41.851  30.286  35.529  1.00  0.00     0.029 A 
ATOM     54  N   UNL A   1      41.620  29.456  33.479  1.00  0.00    -0.354 N 
ATOM     55  N   UNL A   1      42.433  27.876  31.144  1.00  0.00    -0.248 NA
ATOM     56  C   UNL A   1      43.971  26.474  30.086  1.00  0.00     0.031 C 
ATOM     57  C   UNL A   1      42.896  29.387  35.295  1.00  0.00     0.029 A 
ATOM     58  C   UNL A   1      42.749  28.866  34.019  1.00  0.00     0.049 A 
ATOM     59  H   UNL A   1      41.271  29.286  32.575  1.00  0.00     0.167 HD
ATOM     60  C   UNL A   1      43.421  27.516  32.053  1.00  0.00     0.074 A 
ATOM     61  C   UNL A   1      44.320  26.616  31.358  1.00  0.00     0.031 C 
ATOM     62  C   UNL A   1      43.583  27.910  33.339  1.00  0.00     0.034 A 
BRANCH  49  63
ATOM     63  C   UNL A   1      39.346  31.964  35.283  1.00  0.00     0.023 A 
ATOM     64  C   UNL A   1      38.401  31.452  36.194  1.00  0.00     0.012 A 
ATOM     65  C   UNL A   1      39.831  33.275  35.453  1.00  0.00     0.148 A 
ATOM     66  C   UNL A   1      37.923  32.239  37.240  1.00  0.00     0.002 A 
ATOM     67  C   UNL A   1      39.376  34.042  36.520  1.00  0.00     0.091 A 
ATOM     68  F   UNL A   1      40.709  33.756  34.561  1.00  0.00    -0.205 F 
ATOM     69  C   UNL A   1      38.417  33.529  37.409  1.00  0.00     0.022 A 
BRANCH  67  70
ATOM     70  S   UNL A   1      40.007  35.691  36.852  1.00  0.00     0.127 S 
ATOM     71  O   UNL A   1      39.307  36.033  38.088  1.00  0.00    -0.237 OA
ATOM     72  O   UNL A   1      41.443  35.453  37.010  1.00  0.00    -0.237 OA
ATOM     73  O   UNL A   1      39.657  36.488  35.683  1.00  0.00    -0.744 OA
ENDBRANCH  67  70
ENDBRANCH  49  63
BRANCH  50  74
ATOM     74  C   UNL A   1      42.435  26.406  27.582  1.00  0.00     0.023 A 
ATOM     75  C   UNL A   1      43.327  26.976  26.652  1.00  0.00     0.012 A 
ATOM     76  C   UNL A   1      42.044  25.063  27.424  1.00  0.00     0.148 A 
ATOM     77  C   UNL A   1      43.800  26.231  25.571  1.00  0.00     0.002 A 
ATOM     78  C   UNL A   1      42.557  24.312  26.371  1.00  0.00     0.091 A 
ATOM     79  F   UNL A   1      41.182  24.542  28.309  1.00  0.00    -0.205 F 
ATOM     80  C   UNL A   1      43.424  24.898  25.436  1.00  0.00     0.022 A 
BRANCH  78  81
ATOM     81  S   UNL A   1      42.220  22.555  26.212  1.00  0.00     0.127 S 
ATOM     82  O   UNL A   1      42.785  22.026  27.449  1.00  0.00    -0.237 OA
ATOM     83  O   UNL A   1      40.758  22.522  26.140  1.00  0.00    -0.237 OA
ATOM     84  O   UNL A   1      42.882  22.153  24.977  1.00  0.00    -0.744 OA
ENDBRANCH  78  81
ENDBRANCH  50  74
BRANCH  62  85
ATOM     85  C   UNL A   1      44.750  27.345  34.101  1.00  0.00     0.023 A 
ATOM     86  C   UNL A   1      45.990  28.014  34.069  1.00  0.00     0.012 A 
ATOM     87  C   UNL A   1      44.600  26.203  34.910  1.00  0.00     0.148 A 
ATOM     88  C   UNL A   1      47.069  27.540  34.812  1.00  0.00     0.002 A 
ATOM     89  C   UNL A   1      45.672  25.757  35.678  1.00  0.00     0.091 A 
ATOM     90  F   UNL A   1      43.422  25.563  34.910  1.00  0.00    -0.205 F 
ATOM     91  C   UNL A   1      46.908  26.421  35.625  1.00  0.00     0.022 A 
BRANCH  89  92
ATOM     92  S   UNL A   1      45.500  24.372  36.809  1.00  0.00     0.127 S 
ATOM     93  O   UNL A   1      45.155  23.282  35.900  1.00  0.00    -0.237 OA
ATOM     94  O   UNL A   1      46.835  24.272  37.401  1.00  0.00    -0.237 OA
ATOM     95  O   UNL A   1      44.462  24.772  37.750  1.00  0.00    -0.744 OA
ENDBRANCH  89  92
ENDBRANCH  62  85
ENDBRANCH  36  37
ENDBRANCH  28  31
ENDBRANCH  26  27
ENDBRANCH   1  26
TORSDOF 16
ENDMDL
MODEL 3
REMARK VINA RESULT:     -13.1      5.321     10.631
REMARK SMILES Cc1ccc(C(=O)N2C[C@H](C(=O)NCCCCNC(=O)c3ccc(-c4c5nc(c(-c6cccc(S(=O)(=O)[O-])c6F)c6ccc([nH]6)c(-c6cccc(S(=O)(=O)[O-])c6F)c6nc(c(-c7cccc(S(=O)(=O)[O-])c7F)c7ccc4[nH]7)C=C6)C=C5)cc3)Oc3ccccc32)o1
REMARK SMILES IDX 16 1 15 2 14 3 13 4 11 5 12 6 10 8 8 9 9 10 90 11 85 12
REMARK SMILES IDX 89 13 84 14 86 15 88 16 87 17 6 18 7 19 5 20 1 21 2 22 3 23
REMARK SMILES IDX 91 24 4 25 17 26 18 27 19 28 20 30 21 31 22 32 83 33 23 34
REMARK SMILES IDX 82 35 24 36 25 37 26 38 76 39 27 40 81 41 75 42 77 43 28 44
REMARK SMILES IDX 80 45 74 46 73 47 29 49 61 50 41 51 60 52 42 53 45 54 59 55
REMARK SMILES IDX 78 56 43 57 44 58 58 60 79 61 46 62 30 63 31 64 39 65 32 66
REMARK SMILES IDX 34 67 40 68 33 69 35 70 36 71 37 72 38 73 62 74 63 75 71 76
REMARK SMILES IDX 64 77 66 78 72 79 65 80 67 81 68 82 69 83 70 84 47 85 48 86
REMARK SMILES IDX 56 87 49 88 51 89 57 90 50 91 52 92 53 93 54 94 55 95
REMARK H PARENT 13 7 18 29 77 48 45 59
REMARK Flexibility Score: inf
ROOT
ATOM      1  C   UNL A   1      35.103  22.091  26.552  1.00  0.00     0.023 C 
ENDROOT
BRANCH   1   2
ATOM      2  C   UNL A   1      33.945  23.080  26.396  1.00  0.00     0.023 C 
BRANCH   2   3
ATOM      3  C   UNL A   1      32.736  22.539  25.634  1.00  0.00     0.116 C 
BRANCH   3   4
ATOM      4  N   UNL A   1      31.494  22.795  26.347  1.00  0.00    -0.353 N 
ATOM      5  C   UNL A   1      30.791  23.958  26.501  1.00  0.00     0.262 C 
ATOM      6  O   UNL A   1      29.766  23.925  27.189  1.00  0.00    -0.271 OA
ATOM      7  H   UNL A   1      31.100  22.009  26.789  1.00  0.00     0.163 HD
BRANCH   5   8
ATOM      8  C   UNL A   1      31.282  25.277  25.895  1.00  0.00     0.281 C 
ATOM      9  N   UNL A   1      30.580  27.170  24.466  1.00  0.00    -0.298 N 
ATOM     10  C   UNL A   1      30.198  25.861  24.998  1.00  0.00     0.181 C 
ATOM     11  C   UNL A   1      31.344  27.991  25.350  1.00  0.00     0.087 A 
ATOM     12  C   UNL A   1      31.819  27.463  26.562  1.00  0.00     0.144 A 
ATOM     13  C   UNL A   1      31.544  29.357  25.103  1.00  0.00     0.030 A 
ATOM     14  O   UNL A   1      31.679  26.155  26.946  1.00  0.00    -0.477 OA
ATOM     15  C   UNL A   1      32.447  28.282  27.505  1.00  0.00     0.049 A 
ATOM     16  C   UNL A   1      32.176  30.174  26.045  1.00  0.00     0.002 A 
ATOM     17  C   UNL A   1      32.623  29.638  27.248  1.00  0.00     0.004 A 
BRANCH   9  18
ATOM     18  C   UNL A   1      30.203  27.588  23.185  1.00  0.00     0.294 C 
ATOM     19  O   UNL A   1      30.891  27.309  22.191  1.00  0.00    -0.265 OA
BRANCH  18  20
ATOM     20  C   UNL A   1      29.013  28.420  23.070  1.00  0.00     0.192 A 
ATOM     21  C   UNL A   1      27.952  31.836  22.851  1.00  0.00     0.087 C 
ATOM     22  C   UNL A   1      27.968  30.364  22.950  1.00  0.00     0.101 A 
ATOM     23  C   UNL A   1      26.987  29.412  23.106  1.00  0.00     0.046 A 
ATOM     24  O   UNL A   1      29.192  29.772  22.915  1.00  0.00    -0.456 OA
ATOM     25  C   UNL A   1      27.655  28.167  23.196  1.00  0.00     0.056 A 
ENDBRANCH  18  20
ENDBRANCH   9  18
ENDBRANCH   5   8
ENDBRANCH   3   4
ENDBRANCH   2   3
ENDBRANCH   1   2
BRANCH   1  26
ATOM     26  C   UNL A   1      36.383  22.459  25.807  1.00  0.00     0.116 C 
BRANCH  26  27
ATOM     27  N   UNL A   1      37.381  21.403  25.832  1.00  0.00    -0.352 N 
ATOM     28  C   UNL A   1      38.726  21.489  26.100  1.00  0.00     0.251 C 
ATOM     29  H   UNL A   1      37.048  20.500  25.629  1.00  0.00     0.163 HD
ATOM     30  O   UNL A   1      39.433  20.493  25.960  1.00  0.00    -0.269 OA
BRANCH  28  31
ATOM     31  C   UNL A   1      39.327  22.772  26.528  1.00  0.00     0.039 A 
ATOM     32  C   UNL A   1      40.314  22.751  27.520  1.00  0.00     0.014 A 
ATOM     33  C   UNL A   1      38.911  23.991  25.984  1.00  0.00     0.014 A 
ATOM     34  C   UNL A   1      40.909  23.944  27.935  1.00  0.00     0.010 A 
ATOM     35  C   UNL A   1      39.548  25.173  26.355  1.00  0.00     0.010 A 
ATOM     36  C   UNL A   1      40.541  25.163  27.344  1.00  0.00    -0.014 A 
BRANCH  36  37
ATOM     37  C   UNL A   1      41.166  26.440  27.769  1.00  0.00     0.031 A 
ATOM     38  C   UNL A   1      42.600  26.731  27.417  1.00  0.00     0.074 A 
ATOM     39  C   UNL A   1      40.468  27.305  28.530  1.00  0.00     0.049 A 
ATOM     40  N   UNL A   1      43.327  27.774  27.722  1.00  0.00    -0.248 NA
ATOM     41  C   UNL A   1      43.320  25.702  26.648  1.00  0.00     0.031 C 
ATOM     42  C   UNL A   1      39.100  27.098  29.008  1.00  0.00     0.029 A 
ATOM     43  N   UNL A   1      40.822  28.523  29.053  1.00  0.00    -0.354 N 
ATOM     44  C   UNL A   1      44.596  27.512  27.217  1.00  0.00     0.074 A 
ATOM     45  C   UNL A   1      44.548  26.200  26.611  1.00  0.00     0.031 C 
ATOM     46  C   UNL A   1      38.729  28.156  29.749  1.00  0.00     0.029 A 
ATOM     47  C   UNL A   1      39.832  29.111  29.805  1.00  0.00     0.049 A 
ATOM     48  H   UNL A   1      41.703  28.938  28.903  1.00  0.00     0.167 HD
ATOM     49  C   UNL A   1      45.691  28.308  27.223  1.00  0.00     0.034 A 
ATOM     50  C   UNL A   1      39.812  30.293  30.450  1.00  0.00     0.034 A 
ATOM     51  C   UNL A   1      45.718  29.639  27.762  1.00  0.00     0.049 A 
ATOM     52  C   UNL A   1      41.007  31.201  30.350  1.00  0.00     0.074 A 
ATOM     53  C   UNL A   1      46.757  30.554  27.755  1.00  0.00     0.029 A 
ATOM     54  N   UNL A   1      44.649  30.254  28.395  1.00  0.00    -0.354 N 
ATOM     55  N   UNL A   1      42.145  31.000  29.730  1.00  0.00    -0.248 NA
ATOM     56  C   UNL A   1      40.900  32.519  30.994  1.00  0.00     0.031 C 
ATOM     57  C   UNL A   1      46.309  31.727  28.371  1.00  0.00     0.029 A 
ATOM     58  C   UNL A   1      44.994  31.542  28.765  1.00  0.00     0.049 A 
ATOM     59  H   UNL A   1      43.772  29.836  28.556  1.00  0.00     0.167 HD
ATOM     60  C   UNL A   1      42.871  32.177  29.873  1.00  0.00     0.074 A 
ATOM     61  C   UNL A   1      42.037  33.093  30.625  1.00  0.00     0.031 C 
ATOM     62  C   UNL A   1      44.122  32.466  29.440  1.00  0.00     0.034 A 
BRANCH  49  63
ATOM     63  C   UNL A   1      46.931  27.785  26.548  1.00  0.00     0.023 A 
ATOM     64  C   UNL A   1      47.884  27.085  27.316  1.00  0.00     0.012 A 
ATOM     65  C   UNL A   1      47.138  27.943  25.164  1.00  0.00     0.148 A 
ATOM     66  C   UNL A   1      49.037  26.574  26.724  1.00  0.00     0.002 A 
ATOM     67  C   UNL A   1      48.274  27.399  24.575  1.00  0.00     0.091 A 
ATOM     68  F   UNL A   1      46.237  28.636  24.455  1.00  0.00    -0.205 F 
ATOM     69  C   UNL A   1      49.227  26.722  25.353  1.00  0.00     0.022 A 
BRANCH  67  70
ATOM     70  S   UNL A   1      48.568  27.485  22.804  1.00  0.00     0.127 S 
ATOM     71  O   UNL A   1      49.874  28.137  22.752  1.00  0.00    -0.237 OA
ATOM     72  O   UNL A   1      48.576  26.073  22.417  1.00  0.00    -0.237 OA
ATOM     73  O   UNL A   1      47.455  28.250  22.258  1.00  0.00    -0.744 OA
ENDBRANCH  67  70
ENDBRANCH  49  63
BRANCH  50  74
ATOM     74  C   UNL A   1      38.569  30.736  31.143  1.00  0.00     0.023 A 
ATOM     75  C   UNL A   1      38.458  30.542  32.534  1.00  0.00     0.012 A 
ATOM     76  C   UNL A   1      37.523  31.377  30.454  1.00  0.00     0.148 A 
ATOM     77  C   UNL A   1      37.316  30.955  33.221  1.00  0.00     0.002 A 
ATOM     78  C   UNL A   1      36.408  31.829  31.153  1.00  0.00     0.091 A 
ATOM     79  F   UNL A   1      37.637  31.538  29.127  1.00  0.00    -0.205 F 
ATOM     80  C   UNL A   1      36.297  31.607  32.534  1.00  0.00     0.022 A 
BRANCH  78  81
ATOM     81  S   UNL A   1      35.119  32.793  30.355  1.00  0.00     0.127 S 
ATOM     82  O   UNL A   1      34.188  33.021  31.456  1.00  0.00    -0.237 OA
ATOM     83  O   UNL A   1      35.848  33.981  29.907  1.00  0.00    -0.237 OA
ATOM     84  O   UNL A   1      34.636  31.951  29.267  1.00  0.00    -0.744 OA
ENDBRANCH  78  81
ENDBRANCH  50  74
BRANCH  62  85
ATOM     85  C   UNL A   1      44.660  33.840  29.728  1.00  0.00     0.023 A 
ATOM     86  C   UNL A   1      45.428  34.056  30.889  1.00  0.00     0.012 A 
ATOM     87  C   UNL A   1      44.475  34.895  28.815  1.00  0.00     0.148 A 
ATOM     88  C   UNL A   1      45.985  35.307  31.148  1.00  0.00     0.002 A 
ATOM     89  C   UNL A   1      45.065  36.132  29.061  1.00  0.00     0.091 A 
ATOM     90  F   UNL A   1      43.720  34.682  27.727  1.00  0.00    -0.205 F 
ATOM     91  C   UNL A   1      45.814  36.341  30.230  1.00  0.00     0.022 A 
BRANCH  89  92
ATOM     92  S   UNL A   1      44.950  37.476  27.875  1.00  0.00     0.127 S 
ATOM     93  O   UNL A   1      45.731  38.522  28.529  1.00  0.00    -0.237 OA
ATOM     94  O   UNL A   1      45.575  36.905  26.680  1.00  0.00    -0.237 OA
ATOM     95  O   UNL A   1      43.525  37.739  27.730  1.00  0.00    -0.744 OA
ENDBRANCH  89  92
ENDBRANCH  62  85
ENDBRANCH  36  37
ENDBRANCH  28  31
ENDBRANCH  26  27
ENDBRANCH   1  26
TORSDOF 16
ENDMDL
