MODEL 1
REMARK VINA RESULT:     -10.8      0.000      0.000
REMARK SMILES CCN(C)C(=O)Cn1ccc2c(C(=O)NCCCCNC(=O)c3ccc(-c4c5nc(c(-c6cccc(S(=O)(=O)[O-])c6F)c6ccc([nH]6)c(-c6cccc(S(=O)(=O)[O-])c6F)c6nc(c(-c7cccc(S(=O)(=O)[O-])c7F)c7ccc4[nH]7)C=C6)C=C5)cc3)cccc21
REMARK SMILES IDX 17 1 16 2 15 3 13 4 14 5 12 7 8 8 9 9 89 10 10 11 11 12
REMARK SMILES IDX 88 13 87 14 86 15 7 16 5 17 6 18 3 19 4 20 2 21 1 22 18 23
REMARK SMILES IDX 19 24 20 25 21 26 22 28 23 29 24 30 85 31 25 32 84 33 26 34
REMARK SMILES IDX 27 35 28 36 78 37 29 38 83 39 77 40 79 41 30 42 82 43 76 44
REMARK SMILES IDX 75 45 31 47 63 48 43 49 62 50 44 51 47 52 61 53 80 54 45 55
REMARK SMILES IDX 46 56 60 58 81 59 48 60 32 61 33 62 41 63 34 64 36 65 42 66
REMARK SMILES IDX 35 67 37 68 38 69 39 70 40 71 64 72 65 73 73 74 66 75 68 76
REMARK SMILES IDX 74 77 67 78 69 79 70 80 71 81 72 82 49 83 50 84 58 85 51 86
REMARK SMILES IDX 53 87 59 88 52 89 54 90 55 91 56 92 57 93
REMARK H PARENT 15 6 20 27 79 46 47 57
REMARK Flexibility Score: inf
ROOT
ATOM      1  C   UNL A   1      37.970  22.984  25.738  1.00  0.00     0.023 C 
ENDROOT
BRANCH   1   2
ATOM      2  C   UNL A   1      36.597  23.628  25.947  1.00  0.00     0.116 C 
BRANCH   2   3
ATOM      3  N   UNL A   1      35.770  22.774  26.776  1.00  0.00    -0.352 N 
ATOM      4  C   UNL A   1      34.469  22.347  26.672  1.00  0.00     0.251 C 
ATOM      5  O   UNL A   1      34.044  21.640  27.584  1.00  0.00    -0.269 OA
ATOM      6  H   UNL A   1      36.233  22.432  27.574  1.00  0.00     0.163 HD
BRANCH   4   7
ATOM      7  C   UNL A   1      33.629  22.636  25.477  1.00  0.00     0.049 A 
ATOM      8  N   UNL A   1      30.784  24.679  24.769  1.00  0.00    -0.338 N 
ATOM      9  C   UNL A   1      30.970  25.101  26.066  1.00  0.00     0.087 A 
ATOM     10  C   UNL A   1      31.625  23.614  24.515  1.00  0.00     0.049 A 
ATOM     11  C   UNL A   1      32.016  24.386  26.601  1.00  0.00     0.029 A 
ATOM     12  C   UNL A   1      32.519  23.514  25.591  1.00  0.00     0.012 A 
ATOM     13  C   UNL A   1      31.725  22.755  23.417  1.00  0.00     0.027 A 
ATOM     14  C   UNL A   1      32.919  22.081  23.223  1.00  0.00     0.003 A 
ATOM     15  C   UNL A   1      33.891  22.101  24.207  1.00  0.00     0.014 A 
BRANCH   8  16
ATOM     16  C   UNL A   1      30.007  25.478  23.813  1.00  0.00     0.222 C 
BRANCH  16  17
ATOM     17  C   UNL A   1      30.445  26.908  23.552  1.00  0.00     0.242 C 
ATOM     18  O   UNL A   1      29.595  27.805  23.525  1.00  0.00    -0.273 OA
BRANCH  17  19
ATOM     19  N   UNL A   1      31.803  27.191  23.375  1.00  0.00    -0.344 N 
ATOM     20  C   UNL A   1      32.551  28.099  24.240  1.00  0.00     0.146 C 
BRANCH  19  21
ATOM     21  C   UNL A   1      32.489  26.664  22.187  1.00  0.00     0.115 C 
ATOM     22  C   UNL A   1      33.690  25.773  22.498  1.00  0.00     0.027 C 
ENDBRANCH  19  21
ENDBRANCH  17  19
ENDBRANCH  16  17
ENDBRANCH   8  16
ENDBRANCH   4   7
ENDBRANCH   2   3
ENDBRANCH   1   2
BRANCH   1  23
ATOM     23  C   UNL A   1      37.901  21.690  24.911  1.00  0.00     0.023 C 
BRANCH  23  24
ATOM     24  C   UNL A   1      37.973  20.429  25.772  1.00  0.00     0.116 C 
BRANCH  24  25
ATOM     25  N   UNL A   1      39.135  19.613  25.476  1.00  0.00    -0.352 N 
ATOM     26  C   UNL A   1      40.451  19.626  25.841  1.00  0.00     0.251 C 
ATOM     27  H   UNL A   1      38.924  18.870  24.865  1.00  0.00     0.163 HD
ATOM     28  O   UNL A   1      41.132  18.682  25.428  1.00  0.00    -0.269 OA
BRANCH  26  29
ATOM     29  C   UNL A   1      41.108  20.719  26.598  1.00  0.00     0.039 A 
ATOM     30  C   UNL A   1      41.215  20.773  27.985  1.00  0.00     0.014 A 
ATOM     31  C   UNL A   1      41.546  21.821  25.841  1.00  0.00     0.014 A 
ATOM     32  C   UNL A   1      41.557  21.953  28.612  1.00  0.00     0.010 A 
ATOM     33  C   UNL A   1      41.946  22.993  26.464  1.00  0.00     0.010 A 
ATOM     34  C   UNL A   1      41.852  23.078  27.847  1.00  0.00    -0.014 A 
BRANCH  34  35
ATOM     35  C   UNL A   1      42.066  24.315  28.579  1.00  0.00     0.031 A 
ATOM     36  C   UNL A   1      41.010  25.344  28.364  1.00  0.00     0.074 A 
ATOM     37  C   UNL A   1      43.135  24.496  29.379  1.00  0.00     0.049 A 
ATOM     38  N   UNL A   1      41.115  26.485  27.760  1.00  0.00    -0.248 NA
ATOM     39  C   UNL A   1      39.631  24.972  28.715  1.00  0.00     0.031 C 
ATOM     40  C   UNL A   1      44.102  23.501  29.852  1.00  0.00     0.029 A 
ATOM     41  N   UNL A   1      43.502  25.617  30.049  1.00  0.00    -0.354 N 
ATOM     42  C   UNL A   1      39.850  27.066  27.840  1.00  0.00     0.074 A 
ATOM     43  C   UNL A   1      38.949  26.039  28.298  1.00  0.00     0.031 C 
ATOM     44  C   UNL A   1      44.745  23.991  30.937  1.00  0.00     0.029 A 
ATOM     45  C   UNL A   1      44.357  25.376  31.119  1.00  0.00     0.049 A 
ATOM     46  H   UNL A   1      43.192  26.517  29.801  1.00  0.00     0.167 HD
ATOM     47  C   UNL A   1      39.649  28.408  27.735  1.00  0.00     0.034 A 
ATOM     48  C   UNL A   1      44.622  26.246  32.123  1.00  0.00     0.034 A 
ATOM     49  C   UNL A   1      40.784  29.098  27.200  1.00  0.00     0.049 A 
ATOM     50  C   UNL A   1      44.303  27.596  31.602  1.00  0.00     0.074 A 
ATOM     51  C   UNL A   1      41.423  29.155  25.981  1.00  0.00     0.029 A 
ATOM     52  N   UNL A   1      41.660  29.618  28.119  1.00  0.00    -0.354 N 
ATOM     53  N   UNL A   1      44.929  28.157  30.606  1.00  0.00    -0.248 NA
ATOM     54  C   UNL A   1      43.007  28.165  31.930  1.00  0.00     0.031 C 
ATOM     55  C   UNL A   1      42.808  29.287  26.297  1.00  0.00     0.029 A 
ATOM     56  C   UNL A   1      42.930  29.344  27.687  1.00  0.00     0.049 A 
ATOM     57  H   UNL A   1      41.419  30.101  28.942  1.00  0.00     0.167 HD
ATOM     58  C   UNL A   1      43.942  28.849  29.919  1.00  0.00     0.074 A 
ATOM     59  C   UNL A   1      42.810  28.910  30.840  1.00  0.00     0.031 C 
ATOM     60  C   UNL A   1      44.036  29.061  28.574  1.00  0.00     0.034 A 
BRANCH  47  61
ATOM     61  C   UNL A   1      38.554  29.133  28.464  1.00  0.00     0.023 A 
ATOM     62  C   UNL A   1      37.700  29.988  27.739  1.00  0.00     0.012 A 
ATOM     63  C   UNL A   1      38.506  29.202  29.876  1.00  0.00     0.148 A 
ATOM     64  C   UNL A   1      36.827  30.866  28.396  1.00  0.00     0.002 A 
ATOM     65  C   UNL A   1      37.593  30.026  30.521  1.00  0.00     0.091 A 
ATOM     66  F   UNL A   1      39.435  28.560  30.595  1.00  0.00    -0.205 F 
ATOM     67  C   UNL A   1      36.764  30.874  29.786  1.00  0.00     0.022 A 
BRANCH  65  68
ATOM     68  S   UNL A   1      37.460  30.057  32.312  1.00  0.00     0.127 S 
ATOM     69  O   UNL A   1      36.324  30.963  32.501  1.00  0.00    -0.237 OA
ATOM     70  O   UNL A   1      37.182  28.650  32.612  1.00  0.00    -0.237 OA
ATOM     71  O   UNL A   1      38.744  30.530  32.790  1.00  0.00    -0.744 OA
ENDBRANCH  65  68
ENDBRANCH  47  61
BRANCH  48  72
ATOM     72  C   UNL A   1      44.718  25.980  33.583  1.00  0.00     0.023 A 
ATOM     73  C   UNL A   1      45.991  26.005  34.191  1.00  0.00     0.012 A 
ATOM     74  C   UNL A   1      43.582  26.028  34.421  1.00  0.00     0.148 A 
ATOM     75  C   UNL A   1      46.130  26.145  35.577  1.00  0.00     0.002 A 
ATOM     76  C   UNL A   1      43.725  26.155  35.801  1.00  0.00     0.091 A 
ATOM     77  F   UNL A   1      42.363  26.052  33.866  1.00  0.00    -0.205 F 
ATOM     78  C   UNL A   1      44.999  26.235  36.380  1.00  0.00     0.022 A 
BRANCH  76  79
ATOM     79  S   UNL A   1      42.311  26.283  36.907  1.00  0.00     0.127 S 
ATOM     80  O   UNL A   1      42.961  26.391  38.215  1.00  0.00    -0.237 OA
ATOM     81  O   UNL A   1      41.670  27.508  36.440  1.00  0.00    -0.237 OA
ATOM     82  O   UNL A   1      41.549  25.056  36.720  1.00  0.00    -0.744 OA
ENDBRANCH  76  79
ENDBRANCH  48  72
BRANCH  60  83
ATOM     83  C   UNL A   1      45.352  28.749  27.908  1.00  0.00     0.023 A 
ATOM     84  C   UNL A   1      46.440  29.649  27.929  1.00  0.00     0.012 A 
ATOM     85  C   UNL A   1      45.550  27.448  27.423  1.00  0.00     0.148 A 
ATOM     86  C   UNL A   1      47.700  29.253  27.470  1.00  0.00     0.002 A 
ATOM     87  C   UNL A   1      46.811  27.048  27.001  1.00  0.00     0.091 A 
ATOM     88  F   UNL A   1      44.504  26.608  27.432  1.00  0.00    -0.205 F 
ATOM     89  C   UNL A   1      47.889  27.948  27.019  1.00  0.00     0.022 A 
BRANCH  87  90
ATOM     90  S   UNL A   1      47.150  25.357  26.506  1.00  0.00     0.127 S 
ATOM     91  O   UNL A   1      48.588  25.396  26.252  1.00  0.00    -0.237 OA
ATOM     92  O   UNL A   1      46.760  24.604  27.699  1.00  0.00    -0.237 OA
ATOM     93  O   UNL A   1      46.320  25.100  25.335  1.00  0.00    -0.744 OA
ENDBRANCH  87  90
ENDBRANCH  60  83
ENDBRANCH  34  35
ENDBRANCH  26  29
ENDBRANCH  24  25
ENDBRANCH  23  24
ENDBRANCH   1  23
TORSDOF 18
ENDMDL
MODEL 2
REMARK VINA RESULT:     -10.7      3.088      7.762
REMARK SMILES CCN(C)C(=O)Cn1ccc2c(C(=O)NCCCCNC(=O)c3ccc(-c4c5nc(c(-c6cccc(S(=O)(=O)[O-])c6F)c6ccc([nH]6)c(-c6cccc(S(=O)(=O)[O-])c6F)c6nc(c(-c7cccc(S(=O)(=O)[O-])c7F)c7ccc4[nH]7)C=C6)C=C5)cc3)cccc21
REMARK SMILES IDX 17 1 16 2 15 3 13 4 14 5 12 7 8 8 9 9 89 10 10 11 11 12
REMARK SMILES IDX 88 13 87 14 86 15 7 16 5 17 6 18 3 19 4 20 2 21 1 22 18 23
REMARK SMILES IDX 19 24 20 25 21 26 22 28 23 29 24 30 85 31 25 32 84 33 26 34
REMARK SMILES IDX 27 35 28 36 78 37 29 38 83 39 77 40 79 41 30 42 82 43 76 44
REMARK SMILES IDX 75 45 31 47 63 48 43 49 62 50 44 51 47 52 61 53 80 54 45 55
REMARK SMILES IDX 46 56 60 58 81 59 48 60 32 61 33 62 41 63 34 64 36 65 42 66
REMARK SMILES IDX 35 67 37 68 38 69 39 70 40 71 64 72 65 73 73 74 66 75 68 76
REMARK SMILES IDX 74 77 67 78 69 79 70 80 71 81 72 82 49 83 50 84 58 85 51 86
REMARK SMILES IDX 53 87 59 88 52 89 54 90 55 91 56 92 57 93
REMARK H PARENT 15 6 20 27 79 46 47 57
REMARK Flexibility Score: inf
ROOT
ATOM      1  C   UNL A   1      32.679  29.090  25.905  1.00  0.00     0.023 C 
ENDROOT
BRANCH   1   2
ATOM      2  C   UNL A   1      32.630  29.412  24.409  1.00  0.00     0.116 C 
BRANCH   2   3
ATOM      3  N   UNL A   1      31.259  29.380  23.940  1.00  0.00    -0.352 N 
ATOM      4  C   UNL A   1      30.385  28.353  23.681  1.00  0.00     0.251 C 
ATOM      5  O   UNL A   1      29.276  28.666  23.248  1.00  0.00    -0.269 OA
ATOM      6  H   UNL A   1      30.878  30.272  23.774  1.00  0.00     0.163 HD
BRANCH   4   7
ATOM      7  C   UNL A   1      30.708  26.933  23.991  1.00  0.00     0.049 A 
ATOM      8  N   UNL A   1      32.498  24.293  22.379  1.00  0.00    -0.338 N 
ATOM      9  C   UNL A   1      32.795  25.277  21.463  1.00  0.00     0.087 A 
ATOM     10  C   UNL A   1      31.562  24.776  23.273  1.00  0.00     0.049 A 
ATOM     11  C   UNL A   1      32.143  26.426  21.845  1.00  0.00     0.029 A 
ATOM     12  C   UNL A   1      31.444  26.157  23.058  1.00  0.00     0.012 A 
ATOM     13  C   UNL A   1      30.842  24.144  24.290  1.00  0.00     0.027 A 
ATOM     14  C   UNL A   1      30.325  24.929  25.307  1.00  0.00     0.003 A 
ATOM     15  C   UNL A   1      30.343  26.308  25.193  1.00  0.00     0.014 A 
BRANCH   8  16
ATOM     16  C   UNL A   1      33.306  23.071  22.474  1.00  0.00     0.222 C 
BRANCH  16  17
ATOM     17  C   UNL A   1      34.556  23.106  23.335  1.00  0.00     0.242 C 
ATOM     18  O   UNL A   1      35.652  23.310  22.801  1.00  0.00    -0.273 OA
BRANCH  17  19
ATOM     19  N   UNL A   1      34.445  22.934  24.719  1.00  0.00    -0.344 N 
ATOM     20  C   UNL A   1      33.718  21.826  25.331  1.00  0.00     0.146 C 
BRANCH  19  21
ATOM     21  C   UNL A   1      34.961  23.983  25.608  1.00  0.00     0.115 C 
ATOM     22  C   UNL A   1      34.344  25.362  25.379  1.00  0.00     0.027 C 
ENDBRANCH  19  21
ENDBRANCH  17  19
ENDBRANCH  16  17
ENDBRANCH   8  16
ENDBRANCH   4   7
ENDBRANCH   2   3
ENDBRANCH   1   2
BRANCH   1  23
ATOM     23  C   UNL A   1      32.781  30.347  26.782  1.00  0.00     0.023 C 
BRANCH  23  24
ATOM     24  C   UNL A   1      34.130  30.469  27.492  1.00  0.00     0.116 C 
BRANCH  24  25
ATOM     25  N   UNL A   1      34.176  31.581  28.422  1.00  0.00    -0.352 N 
ATOM     26  C   UNL A   1      35.080  32.053  29.330  1.00  0.00     0.251 C 
ATOM     27  H   UNL A   1      33.358  32.129  28.390  1.00  0.00     0.163 HD
ATOM     28  O   UNL A   1      34.776  33.110  29.892  1.00  0.00    -0.269 OA
BRANCH  26  29
ATOM     29  C   UNL A   1      36.317  31.345  29.738  1.00  0.00     0.039 A 
ATOM     30  C   UNL A   1      37.556  31.952  29.924  1.00  0.00     0.014 A 
ATOM     31  C   UNL A   1      36.229  29.944  29.827  1.00  0.00     0.014 A 
ATOM     32  C   UNL A   1      38.702  31.188  29.997  1.00  0.00     0.010 A 
ATOM     33  C   UNL A   1      37.372  29.169  29.956  1.00  0.00     0.010 A 
ATOM     34  C   UNL A   1      38.609  29.800  29.941  1.00  0.00    -0.014 A 
BRANCH  34  35
ATOM     35  C   UNL A   1      39.866  29.073  29.883  1.00  0.00     0.031 A 
ATOM     36  C   UNL A   1      40.473  28.791  31.215  1.00  0.00     0.074 A 
ATOM     37  C   UNL A   1      40.418  28.694  28.714  1.00  0.00     0.049 A 
ATOM     38  N   UNL A   1      41.565  29.275  31.715  1.00  0.00    -0.248 NA
ATOM     39  C   UNL A   1      39.668  28.009  32.166  1.00  0.00     0.031 C 
ATOM     40  C   UNL A   1      39.821  28.701  27.375  1.00  0.00     0.029 A 
ATOM     41  N   UNL A   1      41.615  28.091  28.508  1.00  0.00    -0.354 N 
ATOM     42  C   UNL A   1      41.688  28.689  32.974  1.00  0.00     0.074 A 
ATOM     43  C   UNL A   1      40.430  28.045  33.258  1.00  0.00     0.031 C 
ATOM     44  C   UNL A   1      40.528  27.875  26.572  1.00  0.00     0.029 A 
ATOM     45  C   UNL A   1      41.706  27.427  27.289  1.00  0.00     0.049 A 
ATOM     46  H   UNL A   1      42.351  28.119  29.161  1.00  0.00     0.167 HD
ATOM     47  C   UNL A   1      42.880  28.580  33.621  1.00  0.00     0.034 A 
ATOM     48  C   UNL A   1      42.642  26.502  26.966  1.00  0.00     0.034 A 
ATOM     49  C   UNL A   1      43.897  29.413  33.054  1.00  0.00     0.049 A 
ATOM     50  C   UNL A   1      43.791  26.736  27.873  1.00  0.00     0.074 A 
ATOM     51  C   UNL A   1      44.132  30.767  32.967  1.00  0.00     0.029 A 
ATOM     52  N   UNL A   1      44.707  28.820  32.118  1.00  0.00    -0.354 N 
ATOM     53  N   UNL A   1      44.502  27.828  27.878  1.00  0.00    -0.248 NA
ATOM     54  C   UNL A   1      43.899  25.910  29.064  1.00  0.00     0.031 C 
ATOM     55  C   UNL A   1      44.732  30.955  31.687  1.00  0.00     0.029 A 
ATOM     56  C   UNL A   1      44.865  29.703  31.084  1.00  0.00     0.049 A 
ATOM     57  H   UNL A   1      45.103  27.921  32.179  1.00  0.00     0.167 HD
ATOM     58  C   UNL A   1      44.802  28.043  29.216  1.00  0.00     0.074 A 
ATOM     59  C   UNL A   1      44.503  26.776  29.879  1.00  0.00     0.031 C 
ATOM     60  C   UNL A   1      44.996  29.304  29.700  1.00  0.00     0.034 A 
BRANCH  47  61
ATOM     61  C   UNL A   1      43.214  27.438  34.539  1.00  0.00     0.023 A 
ATOM     62  C   UNL A   1      43.440  27.702  35.905  1.00  0.00     0.012 A 
ATOM     63  C   UNL A   1      43.569  26.158  34.052  1.00  0.00     0.148 A 
ATOM     64  C   UNL A   1      43.986  26.726  36.749  1.00  0.00     0.002 A 
ATOM     65  C   UNL A   1      44.048  25.175  34.907  1.00  0.00     0.091 A 
ATOM     66  F   UNL A   1      43.560  25.935  32.732  1.00  0.00    -0.205 F 
ATOM     67  C   UNL A   1      44.276  25.459  36.253  1.00  0.00     0.022 A 
BRANCH  65  68
ATOM     68  S   UNL A   1      44.418  23.519  34.318  1.00  0.00     0.127 S 
ATOM     69  O   UNL A   1      44.686  22.819  35.577  1.00  0.00    -0.237 OA
ATOM     70  O   UNL A   1      43.160  23.150  33.664  1.00  0.00    -0.237 OA
ATOM     71  O   UNL A   1      45.542  23.668  33.415  1.00  0.00    -0.744 OA
ENDBRANCH  65  68
ENDBRANCH  47  61
BRANCH  48  72
ATOM     72  C   UNL A   1      42.464  25.208  26.257  1.00  0.00     0.023 A 
ATOM     73  C   UNL A   1      43.450  24.807  25.329  1.00  0.00     0.012 A 
ATOM     74  C   UNL A   1      41.541  24.237  26.705  1.00  0.00     0.148 A 
ATOM     75  C   UNL A   1      43.558  23.474  24.918  1.00  0.00     0.002 A 
ATOM     76  C   UNL A   1      41.645  22.913  26.283  1.00  0.00     0.091 A 
ATOM     77  F   UNL A   1      40.626  24.582  27.620  1.00  0.00    -0.205 F 
ATOM     78  C   UNL A   1      42.666  22.525  25.405  1.00  0.00     0.022 A 
BRANCH  76  79
ATOM     79  S   UNL A   1      40.535  21.626  26.871  1.00  0.00     0.127 S 
ATOM     80  O   UNL A   1      40.801  21.634  28.311  1.00  0.00    -0.237 OA
ATOM     81  O   UNL A   1      39.228  22.152  26.488  1.00  0.00    -0.237 OA
ATOM     82  O   UNL A   1      40.950  20.404  26.195  1.00  0.00    -0.744 OA
ENDBRANCH  76  79
ENDBRANCH  48  72
BRANCH  60  83
ATOM     83  C   UNL A   1      45.127  30.424  28.700  1.00  0.00     0.023 A 
ATOM     84  C   UNL A   1      44.013  31.156  28.237  1.00  0.00     0.012 A 
ATOM     85  C   UNL A   1      46.419  30.864  28.375  1.00  0.00     0.148 A 
ATOM     86  C   UNL A   1      44.190  32.306  27.461  1.00  0.00     0.002 A 
ATOM     87  C   UNL A   1      46.591  32.026  27.633  1.00  0.00     0.091 A 
ATOM     88  F   UNL A   1      47.460  30.160  28.844  1.00  0.00    -0.205 F 
ATOM     89  C   UNL A   1      45.479  32.749  27.171  1.00  0.00     0.022 A 
BRANCH  87  90
ATOM     90  S   UNL A   1      48.218  32.709  27.311  1.00  0.00     0.127 S 
ATOM     91  O   UNL A   1      48.828  31.669  26.486  1.00  0.00    -0.237 OA
ATOM     92  O   UNL A   1      47.895  33.945  26.596  1.00  0.00    -0.237 OA
ATOM     93  O   UNL A   1      48.841  32.913  28.613  1.00  0.00    -0.744 OA
ENDBRANCH  87  90
ENDBRANCH  60  83
ENDBRANCH  34  35
ENDBRANCH  26  29
ENDBRANCH  24  25
ENDBRANCH  23  24
ENDBRANCH   1  23
TORSDOF 18
ENDMDL
MODEL 3
REMARK VINA RESULT:     -10.4      3.683      7.564
REMARK SMILES CCN(C)C(=O)Cn1ccc2c(C(=O)NCCCCNC(=O)c3ccc(-c4c5nc(c(-c6cccc(S(=O)(=O)[O-])c6F)c6ccc([nH]6)c(-c6cccc(S(=O)(=O)[O-])c6F)c6nc(c(-c7cccc(S(=O)(=O)[O-])c7F)c7ccc4[nH]7)C=C6)C=C5)cc3)cccc21
REMARK SMILES IDX 17 1 16 2 15 3 13 4 14 5 12 7 8 8 9 9 89 10 10 11 11 12
REMARK SMILES IDX 88 13 87 14 86 15 7 16 5 17 6 18 3 19 4 20 2 21 1 22 18 23
REMARK SMILES IDX 19 24 20 25 21 26 22 28 23 29 24 30 85 31 25 32 84 33 26 34
REMARK SMILES IDX 27 35 28 36 78 37 29 38 83 39 77 40 79 41 30 42 82 43 76 44
REMARK SMILES IDX 75 45 31 47 63 48 43 49 62 50 44 51 47 52 61 53 80 54 45 55
REMARK SMILES IDX 46 56 60 58 81 59 48 60 32 61 33 62 41 63 34 64 36 65 42 66
REMARK SMILES IDX 35 67 37 68 38 69 39 70 40 71 64 72 65 73 73 74 66 75 68 76
REMARK SMILES IDX 74 77 67 78 69 79 70 80 71 81 72 82 49 83 50 84 58 85 51 86
REMARK SMILES IDX 53 87 59 88 52 89 54 90 55 91 56 92 57 93
REMARK H PARENT 15 6 20 27 79 46 47 57
REMARK Flexibility Score: inf
ROOT
ATOM      1  C   UNL A   1      37.886  23.799  26.111  1.00  0.00     0.023 C 
ENDROOT
BRANCH   1   2
ATOM      2  C   UNL A   1      36.364  23.817  25.940  1.00  0.00     0.116 C 
BRANCH   2   3
ATOM      3  N   UNL A   1      36.024  23.721  24.534  1.00  0.00    -0.352 N 
ATOM      4  C   UNL A   1      34.896  24.045  23.822  1.00  0.00     0.251 C 
ATOM      5  O   UNL A   1      34.912  23.801  22.616  1.00  0.00    -0.269 OA
ATOM      6  H   UNL A   1      36.746  23.349  23.978  1.00  0.00     0.163 HD
BRANCH   4   7
ATOM      7  C   UNL A   1      33.735  24.744  24.441  1.00  0.00     0.049 A 
ATOM      8  N   UNL A   1      32.178  27.941  24.097  1.00  0.00    -0.338 N 
ATOM      9  C   UNL A   1      33.092  28.092  23.078  1.00  0.00     0.087 A 
ATOM     10  C   UNL A   1      32.464  26.782  24.792  1.00  0.00     0.049 A 
ATOM     11  C   UNL A   1      33.884  26.970  23.047  1.00  0.00     0.029 A 
ATOM     12  C   UNL A   1      33.427  26.075  24.058  1.00  0.00     0.012 A 
ATOM     13  C   UNL A   1      31.933  26.257  25.973  1.00  0.00     0.027 A 
ATOM     14  C   UNL A   1      32.070  24.897  26.200  1.00  0.00     0.003 A 
ATOM     15  C   UNL A   1      32.891  24.139  25.385  1.00  0.00     0.014 A 
BRANCH   8  16
ATOM     16  C   UNL A   1      30.971  28.774  24.168  1.00  0.00     0.222 C 
BRANCH  16  17
ATOM     17  C   UNL A   1      29.922  28.608  23.082  1.00  0.00     0.242 C 
ATOM     18  O   UNL A   1      30.093  27.757  22.202  1.00  0.00    -0.273 OA
BRANCH  17  19
ATOM     19  N   UNL A   1      28.770  29.399  23.111  1.00  0.00    -0.344 N 
ATOM     20  C   UNL A   1      27.425  28.861  22.932  1.00  0.00     0.146 C 
BRANCH  19  21
ATOM     21  C   UNL A   1      28.913  30.860  23.187  1.00  0.00     0.115 C 
ATOM     22  C   UNL A   1      27.664  31.589  23.681  1.00  0.00     0.027 C 
ENDBRANCH  19  21
ENDBRANCH  17  19
ENDBRANCH  16  17
ENDBRANCH   8  16
ENDBRANCH   4   7
ENDBRANCH   2   3
ENDBRANCH   1   2
BRANCH   1  23
ATOM     23  C   UNL A   1      38.479  22.384  26.024  1.00  0.00     0.023 C 
BRANCH  23  24
ATOM     24  C   UNL A   1      39.780  22.234  26.814  1.00  0.00     0.116 C 
BRANCH  24  25
ATOM     25  N   UNL A   1      40.953  22.201  25.962  1.00  0.00    -0.352 N 
ATOM     26  C   UNL A   1      42.025  23.020  25.751  1.00  0.00     0.251 C 
ATOM     27  H   UNL A   1      40.984  21.392  25.401  1.00  0.00     0.163 HD
ATOM     28  O   UNL A   1      42.884  22.591  24.975  1.00  0.00    -0.269 OA
BRANCH  26  29
ATOM     29  C   UNL A   1      42.166  24.389  26.305  1.00  0.00     0.039 A 
ATOM     30  C   UNL A   1      43.012  24.738  27.354  1.00  0.00     0.014 A 
ATOM     31  C   UNL A   1      41.289  25.360  25.789  1.00  0.00     0.014 A 
ATOM     32  C   UNL A   1      42.855  25.945  28.002  1.00  0.00     0.010 A 
ATOM     33  C   UNL A   1      41.165  26.598  26.401  1.00  0.00     0.010 A 
ATOM     34  C   UNL A   1      41.883  26.840  27.565  1.00  0.00    -0.014 A 
BRANCH  34  35
ATOM     35  C   UNL A   1      41.685  28.025  28.383  1.00  0.00     0.031 A 
ATOM     36  C   UNL A   1      42.649  29.128  28.106  1.00  0.00     0.074 A 
ATOM     37  C   UNL A   1      40.707  28.100  29.306  1.00  0.00     0.049 A 
ATOM     38  N   UNL A   1      43.581  29.588  28.879  1.00  0.00    -0.248 NA
ATOM     39  C   UNL A   1      42.683  29.659  26.735  1.00  0.00     0.031 C 
ATOM     40  C   UNL A   1      39.569  27.198  29.509  1.00  0.00     0.029 A 
ATOM     41  N   UNL A   1      40.461  29.101  30.189  1.00  0.00    -0.354 N 
ATOM     42  C   UNL A   1      44.188  30.615  28.157  1.00  0.00     0.074 A 
ATOM     43  C   UNL A   1      43.702  30.515  26.803  1.00  0.00     0.031 C 
ATOM     44  C   UNL A   1      38.623  27.837  30.234  1.00  0.00     0.029 A 
ATOM     45  C   UNL A   1      39.160  29.109  30.679  1.00  0.00     0.049 A 
ATOM     46  H   UNL A   1      41.140  29.760  30.457  1.00  0.00     0.167 HD
ATOM     47  C   UNL A   1      44.885  31.620  28.752  1.00  0.00     0.034 A 
ATOM     48  C   UNL A   1      38.565  30.148  31.313  1.00  0.00     0.034 A 
ATOM     49  C   UNL A   1      45.219  31.331  30.115  1.00  0.00     0.049 A 
ATOM     50  C   UNL A   1      39.660  30.993  31.847  1.00  0.00     0.074 A 
ATOM     51  C   UNL A   1      46.051  30.445  30.763  1.00  0.00     0.029 A 
ATOM     52  N   UNL A   1      44.344  31.801  31.061  1.00  0.00    -0.354 N 
ATOM     53  N   UNL A   1      40.510  30.595  32.751  1.00  0.00    -0.248 NA
ATOM     54  C   UNL A   1      40.063  32.157  31.074  1.00  0.00     0.031 C 
ATOM     55  C   UNL A   1      45.353  30.090  31.955  1.00  0.00     0.029 A 
ATOM     56  C   UNL A   1      44.156  30.809  31.985  1.00  0.00     0.049 A 
ATOM     57  H   UNL A   1      43.925  32.692  31.073  1.00  0.00     0.167 HD
ATOM     58  C   UNL A   1      41.714  31.175  32.377  1.00  0.00     0.074 A 
ATOM     59  C   UNL A   1      41.353  32.209  31.410  1.00  0.00     0.031 C 
ATOM     60  C   UNL A   1      42.905  30.577  32.672  1.00  0.00     0.034 A 
BRANCH  47  61
ATOM     61  C   UNL A   1      44.942  33.018  28.204  1.00  0.00     0.023 A 
ATOM     62  C   UNL A   1      43.752  33.768  28.118  1.00  0.00     0.012 A 
ATOM     63  C   UNL A   1      46.081  33.517  27.529  1.00  0.00     0.148 A 
ATOM     64  C   UNL A   1      43.705  34.970  27.399  1.00  0.00     0.002 A 
ATOM     65  C   UNL A   1      46.045  34.740  26.875  1.00  0.00     0.091 A 
ATOM     66  F   UNL A   1      47.167  32.742  27.417  1.00  0.00    -0.205 F 
ATOM     67  C   UNL A   1      44.855  35.463  26.791  1.00  0.00     0.022 A 
BRANCH  65  68
ATOM     68  S   UNL A   1      47.508  35.428  26.090  1.00  0.00     0.127 S 
ATOM     69  O   UNL A   1      47.030  36.758  25.706  1.00  0.00    -0.237 OA
ATOM     70  O   UNL A   1      48.469  35.415  27.196  1.00  0.00    -0.237 OA
ATOM     71  O   UNL A   1      47.830  34.523  25.005  1.00  0.00    -0.744 OA
ENDBRANCH  65  68
ENDBRANCH  47  61
BRANCH  48  72
ATOM     72  C   UNL A   1      37.189  30.682  31.134  1.00  0.00     0.023 A 
ATOM     73  C   UNL A   1      36.489  31.135  32.274  1.00  0.00     0.012 A 
ATOM     74  C   UNL A   1      36.696  31.051  29.863  1.00  0.00     0.148 A 
ATOM     75  C   UNL A   1      35.380  31.981  32.154  1.00  0.00     0.002 A 
ATOM     76  C   UNL A   1      35.584  31.882  29.749  1.00  0.00     0.091 A 
ATOM     77  F   UNL A   1      37.368  30.672  28.769  1.00  0.00    -0.205 F 
ATOM     78  C   UNL A   1      34.937  32.366  30.894  1.00  0.00     0.022 A 
BRANCH  76  79
ATOM     79  S   UNL A   1      34.952  32.431  28.156  1.00  0.00     0.127 S 
ATOM     80  O   UNL A   1      34.696  31.158  27.479  1.00  0.00    -0.237 OA
ATOM     81  O   UNL A   1      33.754  33.169  28.542  1.00  0.00    -0.237 OA
ATOM     82  O   UNL A   1      36.020  33.221  27.557  1.00  0.00    -0.744 OA
ENDBRANCH  76  79
ENDBRANCH  48  72
BRANCH  60  83
ATOM     83  C   UNL A   1      42.884  29.414  33.631  1.00  0.00     0.023 A 
ATOM     84  C   UNL A   1      42.511  28.113  33.230  1.00  0.00     0.012 A 
ATOM     85  C   UNL A   1      43.436  29.606  34.906  1.00  0.00     0.148 A 
ATOM     86  C   UNL A   1      42.685  27.025  34.092  1.00  0.00     0.002 A 
ATOM     87  C   UNL A   1      43.639  28.518  35.746  1.00  0.00     0.091 A 
ATOM     88  F   UNL A   1      43.799  30.849  35.255  1.00  0.00    -0.205 F 
ATOM     89  C   UNL A   1      43.262  27.225  35.344  1.00  0.00     0.022 A 
BRANCH  87  90
ATOM     90  S   UNL A   1      44.469  28.686  37.327  1.00  0.00     0.127 S 
ATOM     91  O   UNL A   1      44.190  27.398  37.957  1.00  0.00    -0.237 OA
ATOM     92  O   UNL A   1      45.863  28.880  36.923  1.00  0.00    -0.237 OA
ATOM     93  O   UNL A   1      43.868  29.841  37.983  1.00  0.00    -0.744 OA
ENDBRANCH  87  90
ENDBRANCH  60  83
ENDBRANCH  34  35
ENDBRANCH  26  29
ENDBRANCH  24  25
ENDBRANCH  23  24
ENDBRANCH   1  23
TORSDOF 18
ENDMDL
