MODEL 1
REMARK VINA RESULT:     -11.4      0.000      0.000
REMARK SMILES O=C(C[N@@H+](C[C@@H]1COc2ccccc2O1)CC(F)(F)F)NCCCCNC(=O)c1ccc(-c2c3nc(c(-c4cccc(S(=O)(=O)[O-])c4F)c4ccc([nH]4)c(-c4cccc(S(=O)(=O)[O-])c4F)c4nc(c(-c5cccc(S(=O)(=O)[O-])c5F)c5ccc2[nH]5)C=C4)C=C3)cc1
REMARK SMILES IDX 23 1 22 2 21 3 1 4 2 5 3 7 4 8 5 10 6 11 7 12 15 13 8 14
REMARK SMILES IDX 14 15 9 16 13 17 10 18 12 19 11 20 16 21 17 22 18 23 19 24
REMARK SMILES IDX 20 25 24 26 25 27 26 28 27 29 28 31 29 32 30 33 91 34 31 35
REMARK SMILES IDX 90 36 32 37 33 38 34 39 84 40 35 41 89 42 83 43 85 44 36 45
REMARK SMILES IDX 88 46 82 47 81 48 37 50 69 51 49 52 68 53 50 54 53 55 67 56
REMARK SMILES IDX 86 57 51 58 52 59 66 61 87 62 54 63 38 64 39 65 47 66 40 67
REMARK SMILES IDX 42 68 48 69 41 70 43 71 44 72 45 73 46 74 70 75 71 76 79 77
REMARK SMILES IDX 72 78 74 79 80 80 73 81 75 82 76 83 77 84 78 85 55 86 56 87
REMARK SMILES IDX 64 88 57 89 59 90 65 91 58 92 60 93 61 94 62 95 63 96
REMARK H PARENT 21 6 4 9 26 30 85 49 53 60
REMARK Flexibility Score: inf
ROOT
ATOM      1  C   UNL A   1      31.120  27.919  25.383  1.00  0.00     0.023 C 
ENDROOT
BRANCH   1   2
ATOM      2  C   UNL A   1      31.169  26.652  26.237  1.00  0.00     0.116 C 
BRANCH   2   3
ATOM      3  N   UNL A   1      31.050  25.443  25.446  1.00  0.00    -0.351 N 
ATOM      4  O   UNL A   1      30.959  24.035  27.251  1.00  0.00    -0.269 OA
ATOM      5  C   UNL A   1      30.938  24.204  26.034  1.00  0.00     0.275 C 
ATOM      6  H   UNL A   1      31.047  25.512  24.464  1.00  0.00     0.163 HD
BRANCH   5   7
ATOM      7  C   UNL A   1      30.845  23.022  25.061  1.00  0.00     0.363 C 
BRANCH   7   8
ATOM      8  N   UNL A   1      32.155  22.434  24.689  1.00  0.00    -0.316 N 
ATOM      9  H   UNL A   1      32.845  22.905  25.274  1.00  0.00     0.348 HD
BRANCH   8  10
ATOM     10  C   UNL A   1      32.202  20.982  25.019  1.00  0.00     0.312 C 
BRANCH  10  11
ATOM     11  C   UNL A   1      33.277  20.526  26.039  1.00  0.00     0.265 C 
ATOM     12  C   UNL A   1      33.453  21.475  27.228  1.00  0.00     0.281 C 
ATOM     13  O   UNL A   1      34.516  20.293  25.353  1.00  0.00    -0.477 OA
ATOM     14  O   UNL A   1      34.055  22.715  26.864  1.00  0.00    -0.486 OA
ATOM     15  C   UNL A   1      35.395  21.337  25.387  1.00  0.00     0.162 A 
ATOM     16  C   UNL A   1      35.188  22.500  26.127  1.00  0.00     0.161 A 
ATOM     17  C   UNL A   1      36.558  21.189  24.631  1.00  0.00     0.050 A 
ATOM     18  C   UNL A   1      36.146  23.511  26.123  1.00  0.00     0.050 A 
ATOM     19  C   UNL A   1      37.520  22.199  24.626  1.00  0.00     0.004 A 
ATOM     20  C   UNL A   1      37.318  23.356  25.379  1.00  0.00     0.004 A 
ENDBRANCH  10  11
ENDBRANCH   8  10
BRANCH   8  21
ATOM     21  C   UNL A   1      32.629  22.756  23.309  1.00  0.00     0.379 C 
BRANCH  21  22
ATOM     22  C   UNL A   1      33.688  23.838  22.963  1.00  0.00     0.438 C 
ATOM     23  F   UNL A   1      33.344  24.579  21.891  1.00  0.00    -0.165 F 
ATOM     24  F   UNL A   1      33.837  24.689  24.009  1.00  0.00    -0.165 F 
ATOM     25  F   UNL A   1      34.908  23.321  22.715  1.00  0.00    -0.165 F 
ENDBRANCH  21  22
ENDBRANCH   8  21
ENDBRANCH   7   8
ENDBRANCH   5   7
ENDBRANCH   2   3
ENDBRANCH   1   2
BRANCH   1  26
ATOM     26  C   UNL A   1      32.329  28.122  24.469  1.00  0.00     0.023 C 
BRANCH  26  27
ATOM     27  C   UNL A   1      33.203  29.329  24.797  1.00  0.00     0.116 C 
BRANCH  27  28
ATOM     28  N   UNL A   1      32.496  30.363  25.536  1.00  0.00    -0.352 N 
ATOM     29  C   UNL A   1      32.846  30.986  26.713  1.00  0.00     0.251 C 
ATOM     30  H   UNL A   1      31.647  30.661  25.138  1.00  0.00     0.163 HD
ATOM     31  O   UNL A   1      32.059  31.748  27.259  1.00  0.00    -0.269 OA
BRANCH  29  32
ATOM     32  C   UNL A   1      34.164  30.711  27.333  1.00  0.00     0.039 A 
ATOM     33  C   UNL A   1      35.008  31.786  27.626  1.00  0.00     0.014 A 
ATOM     34  C   UNL A   1      34.563  29.406  27.635  1.00  0.00     0.014 A 
ATOM     35  C   UNL A   1      36.220  31.557  28.284  1.00  0.00     0.010 A 
ATOM     36  C   UNL A   1      35.733  29.189  28.359  1.00  0.00     0.010 A 
ATOM     37  C   UNL A   1      36.575  30.261  28.692  1.00  0.00    -0.014 A 
BRANCH  37  38
ATOM     38  C   UNL A   1      37.810  30.012  29.483  1.00  0.00     0.031 A 
ATOM     39  C   UNL A   1      38.870  29.072  28.971  1.00  0.00     0.074 A 
ATOM     40  C   UNL A   1      37.941  30.565  30.707  1.00  0.00     0.049 A 
ATOM     41  N   UNL A   1      39.978  28.686  29.549  1.00  0.00    -0.248 NA
ATOM     42  C   UNL A   1      38.641  28.467  27.649  1.00  0.00     0.031 C 
ATOM     43  C   UNL A   1      36.951  31.430  31.353  1.00  0.00     0.029 A 
ATOM     44  N   UNL A   1      38.945  30.458  31.637  1.00  0.00    -0.354 N 
ATOM     45  C   UNL A   1      40.563  27.773  28.679  1.00  0.00     0.074 A 
ATOM     46  C   UNL A   1      39.667  27.633  27.552  1.00  0.00     0.031 C 
ATOM     47  C   UNL A   1      37.398  31.776  32.571  1.00  0.00     0.029 A 
ATOM     48  C   UNL A   1      38.685  31.131  32.809  1.00  0.00     0.049 A 
ATOM     49  H   UNL A   1      39.773  29.949  31.480  1.00  0.00     0.167 HD
ATOM     50  C   UNL A   1      41.750  27.131  28.792  1.00  0.00     0.034 A 
ATOM     51  C   UNL A   1      39.395  31.210  33.952  1.00  0.00     0.034 A 
ATOM     52  C   UNL A   1      42.655  27.294  29.898  1.00  0.00     0.049 A 
ATOM     53  C   UNL A   1      40.723  30.509  34.041  1.00  0.00     0.074 A 
ATOM     54  C   UNL A   1      43.916  26.749  30.066  1.00  0.00     0.029 A 
ATOM     55  N   UNL A   1      42.394  28.051  31.030  1.00  0.00    -0.354 N 
ATOM     56  N   UNL A   1      41.329  29.771  33.143  1.00  0.00    -0.248 NA
ATOM     57  C   UNL A   1      41.484  30.681  35.289  1.00  0.00     0.031 C 
ATOM     58  C   UNL A   1      44.405  27.151  31.313  1.00  0.00     0.029 A 
ATOM     59  C   UNL A   1      43.464  27.979  31.906  1.00  0.00     0.049 A 
ATOM     60  H   UNL A   1      41.569  28.565  31.188  1.00  0.00     0.167 HD
ATOM     61  C   UNL A   1      42.554  29.422  33.699  1.00  0.00     0.074 A 
ATOM     62  C   UNL A   1      42.614  30.048  35.004  1.00  0.00     0.031 C 
ATOM     63  C   UNL A   1      43.536  28.645  33.181  1.00  0.00     0.034 A 
BRANCH  50  64
ATOM     64  C   UNL A   1      42.165  26.223  27.662  1.00  0.00     0.023 A 
ATOM     65  C   UNL A   1      42.981  26.726  26.627  1.00  0.00     0.012 A 
ATOM     66  C   UNL A   1      41.803  24.861  27.654  1.00  0.00     0.148 A 
ATOM     67  C   UNL A   1      43.396  25.902  25.583  1.00  0.00     0.002 A 
ATOM     68  C   UNL A   1      42.261  24.033  26.635  1.00  0.00     0.091 A 
ATOM     69  F   UNL A   1      41.014  24.402  28.635  1.00  0.00    -0.205 F 
ATOM     70  C   UNL A   1      43.046  24.555  25.593  1.00  0.00     0.022 A 
BRANCH  68  71
ATOM     71  S   UNL A   1      41.935  22.268  26.597  1.00  0.00     0.127 S 
ATOM     72  O   UNL A   1      42.629  21.866  25.375  1.00  0.00    -0.237 OA
ATOM     73  O   UNL A   1      42.567  21.812  27.835  1.00  0.00    -0.237 OA
ATOM     74  O   UNL A   1      40.486  22.126  26.565  1.00  0.00    -0.744 OA
ENDBRANCH  68  71
ENDBRANCH  50  64
BRANCH  51  75
ATOM     75  C   UNL A   1      38.883  32.026  35.091  1.00  0.00     0.023 A 
ATOM     76  C   UNL A   1      38.899  33.432  35.002  1.00  0.00     0.012 A 
ATOM     77  C   UNL A   1      38.364  31.417  36.250  1.00  0.00     0.148 A 
ATOM     78  C   UNL A   1      38.441  34.217  36.062  1.00  0.00     0.002 A 
ATOM     79  C   UNL A   1      37.856  32.203  37.276  1.00  0.00     0.091 A 
ATOM     80  F   UNL A   1      38.368  30.078  36.319  1.00  0.00    -0.205 F 
ATOM     81  C   UNL A   1      37.911  33.603  37.194  1.00  0.00     0.022 A 
BRANCH  79  82
ATOM     82  S   UNL A   1      37.034  31.500  38.710  1.00  0.00     0.127 S 
ATOM     83  O   UNL A   1      36.860  30.108  38.304  1.00  0.00    -0.237 OA
ATOM     84  O   UNL A   1      38.026  31.717  39.763  1.00  0.00    -0.237 OA
ATOM     85  O   UNL A   1      35.807  32.268  38.876  1.00  0.00    -0.744 OA
ENDBRANCH  79  82
ENDBRANCH  51  75
BRANCH  63  86
ATOM     86  C   UNL A   1      44.785  28.452  34.001  1.00  0.00     0.023 A 
ATOM     87  C   UNL A   1      45.851  29.367  33.891  1.00  0.00     0.012 A 
ATOM     88  C   UNL A   1      44.872  27.400  34.935  1.00  0.00     0.148 A 
ATOM     89  C   UNL A   1      46.997  29.219  34.671  1.00  0.00     0.002 A 
ATOM     90  C   UNL A   1      45.995  27.289  35.746  1.00  0.00     0.091 A 
ATOM     91  F   UNL A   1      43.856  26.529  35.014  1.00  0.00    -0.205 F 
ATOM     92  C   UNL A   1      47.063  28.189  35.607  1.00  0.00     0.022 A 
BRANCH  90  93
ATOM     93  S   UNL A   1      46.129  26.055  37.046  1.00  0.00     0.127 S 
ATOM     94  O   UNL A   1      46.851  24.983  36.364  1.00  0.00    -0.237 OA
ATOM     95  O   UNL A   1      46.905  26.762  38.064  1.00  0.00    -0.237 OA
ATOM     96  O   UNL A   1      44.763  25.736  37.439  1.00  0.00    -0.744 OA
ENDBRANCH  90  93
ENDBRANCH  63  86
ENDBRANCH  37  38
ENDBRANCH  29  32
ENDBRANCH  27  28
ENDBRANCH  26  27
ENDBRANCH   1  26
TORSDOF 19
ENDMDL
MODEL 2
REMARK VINA RESULT:     -11.2      5.543     10.495
REMARK SMILES O=C(C[N@@H+](C[C@@H]1COc2ccccc2O1)CC(F)(F)F)NCCCCNC(=O)c1ccc(-c2c3nc(c(-c4cccc(S(=O)(=O)[O-])c4F)c4ccc([nH]4)c(-c4cccc(S(=O)(=O)[O-])c4F)c4nc(c(-c5cccc(S(=O)(=O)[O-])c5F)c5ccc2[nH]5)C=C4)C=C3)cc1
REMARK SMILES IDX 23 1 22 2 21 3 1 4 2 5 3 7 4 8 5 10 6 11 7 12 15 13 8 14
REMARK SMILES IDX 14 15 9 16 13 17 10 18 12 19 11 20 16 21 17 22 18 23 19 24
REMARK SMILES IDX 20 25 24 26 25 27 26 28 27 29 28 31 29 32 30 33 91 34 31 35
REMARK SMILES IDX 90 36 32 37 33 38 34 39 84 40 35 41 89 42 83 43 85 44 36 45
REMARK SMILES IDX 88 46 82 47 81 48 37 50 69 51 49 52 68 53 50 54 53 55 67 56
REMARK SMILES IDX 86 57 51 58 52 59 66 61 87 62 54 63 38 64 39 65 47 66 40 67
REMARK SMILES IDX 42 68 48 69 41 70 43 71 44 72 45 73 46 74 70 75 71 76 79 77
REMARK SMILES IDX 72 78 74 79 80 80 73 81 75 82 76 83 77 84 78 85 55 86 56 87
REMARK SMILES IDX 64 88 57 89 59 90 65 91 58 92 60 93 61 94 62 95 63 96
REMARK H PARENT 21 6 4 9 26 30 85 49 53 60
REMARK Flexibility Score: inf
ROOT
ATOM      1  C   UNL A   1      37.107  21.083  24.302  1.00  0.00     0.023 C 
ENDROOT
BRANCH   1   2
ATOM      2  C   UNL A   1      36.026  21.741  25.160  1.00  0.00     0.116 C 
BRANCH   2   3
ATOM      3  N   UNL A   1      34.823  22.038  24.409  1.00  0.00    -0.351 N 
ATOM      4  O   UNL A   1      33.568  20.390  25.388  1.00  0.00    -0.269 OA
ATOM      5  C   UNL A   1      33.659  21.329  24.599  1.00  0.00     0.275 C 
ATOM      6  H   UNL A   1      34.839  22.767  23.747  1.00  0.00     0.163 HD
BRANCH   5   7
ATOM      7  C   UNL A   1      32.482  21.748  23.711  1.00  0.00     0.363 C 
BRANCH   7   8
ATOM      8  N   UNL A   1      31.914  23.078  24.039  1.00  0.00    -0.316 N 
ATOM      9  H   UNL A   1      32.690  23.625  24.413  1.00  0.00     0.348 HD
BRANCH   8  10
ATOM     10  C   UNL A   1      31.427  23.769  22.812  1.00  0.00     0.312 C 
BRANCH  10  11
ATOM     11  C   UNL A   1      32.157  25.074  22.403  1.00  0.00     0.265 C 
ATOM     12  C   UNL A   1      33.649  25.089  22.742  1.00  0.00     0.281 C 
ATOM     13  O   UNL A   1      31.469  26.201  22.966  1.00  0.00    -0.477 OA
ATOM     14  O   UNL A   1      33.899  25.167  24.144  1.00  0.00    -0.486 OA
ATOM     15  C   UNL A   1      31.992  26.663  24.140  1.00  0.00     0.162 A 
ATOM     16  C   UNL A   1      33.172  26.182  24.704  1.00  0.00     0.161 A 
ATOM     17  C   UNL A   1      31.279  27.679  24.775  1.00  0.00     0.050 A 
ATOM     18  C   UNL A   1      33.648  26.723  25.896  1.00  0.00     0.050 A 
ATOM     19  C   UNL A   1      31.753  28.224  25.968  1.00  0.00     0.004 A 
ATOM     20  C   UNL A   1      32.943  27.752  26.524  1.00  0.00     0.004 A 
ENDBRANCH  10  11
ENDBRANCH   8  10
BRANCH   8  21
ATOM     21  C   UNL A   1      30.937  23.092  25.169  1.00  0.00     0.379 C 
BRANCH  21  22
ATOM     22  C   UNL A   1      31.222  23.662  26.585  1.00  0.00     0.438 C 
ATOM     23  F   UNL A   1      32.537  23.690  26.880  1.00  0.00    -0.165 F 
ATOM     24  F   UNL A   1      30.765  24.937  26.670  1.00  0.00    -0.165 F 
ATOM     25  F   UNL A   1      30.609  22.970  27.565  1.00  0.00    -0.165 F 
ENDBRANCH  21  22
ENDBRANCH   8  21
ENDBRANCH   7   8
ENDBRANCH   5   7
ENDBRANCH   2   3
ENDBRANCH   1   2
BRANCH   1  26
ATOM     26  C   UNL A   1      37.839  19.921  24.974  1.00  0.00     0.023 C 
BRANCH  26  27
ATOM     27  C   UNL A   1      39.034  20.311  25.839  1.00  0.00     0.116 C 
BRANCH  27  28
ATOM     28  N   UNL A   1      40.037  19.262  25.935  1.00  0.00    -0.352 N 
ATOM     29  C   UNL A   1      41.393  19.371  26.145  1.00  0.00     0.251 C 
ATOM     30  H   UNL A   1      39.698  18.343  25.835  1.00  0.00     0.163 HD
ATOM     31  O   UNL A   1      42.105  18.378  26.067  1.00  0.00    -0.269 OA
BRANCH  29  32
ATOM     32  C   UNL A   1      41.994  20.694  26.436  1.00  0.00     0.039 A 
ATOM     33  C   UNL A   1      42.295  21.546  25.369  1.00  0.00     0.014 A 
ATOM     34  C   UNL A   1      42.249  21.099  27.749  1.00  0.00     0.014 A 
ATOM     35  C   UNL A   1      42.787  22.829  25.624  1.00  0.00     0.010 A 
ATOM     36  C   UNL A   1      42.664  22.405  28.003  1.00  0.00     0.010 A 
ATOM     37  C   UNL A   1      42.938  23.285  26.944  1.00  0.00    -0.014 A 
BRANCH  37  38
ATOM     38  C   UNL A   1      43.361  24.681  27.236  1.00  0.00     0.031 A 
ATOM     39  C   UNL A   1      42.398  25.657  27.859  1.00  0.00     0.074 A 
ATOM     40  C   UNL A   1      44.588  25.098  26.861  1.00  0.00     0.049 A 
ATOM     41  N   UNL A   1      42.568  26.926  28.127  1.00  0.00    -0.248 NA
ATOM     42  C   UNL A   1      41.060  25.147  28.200  1.00  0.00     0.031 C 
ATOM     43  C   UNL A   1      45.587  24.275  26.177  1.00  0.00     0.029 A 
ATOM     44  N   UNL A   1      45.191  26.326  26.974  1.00  0.00    -0.354 N 
ATOM     45  C   UNL A   1      41.356  27.374  28.638  1.00  0.00     0.074 A 
ATOM     46  C   UNL A   1      40.446  26.250  28.607  1.00  0.00     0.031 C 
ATOM     47  C   UNL A   1      46.679  25.019  25.934  1.00  0.00     0.029 A 
ATOM     48  C   UNL A   1      46.445  26.379  26.410  1.00  0.00     0.049 A 
ATOM     49  H   UNL A   1      44.768  27.096  27.418  1.00  0.00     0.167 HD
ATOM     50  C   UNL A   1      41.035  28.599  29.118  1.00  0.00     0.034 A 
ATOM     51  C   UNL A   1      47.306  27.408  26.277  1.00  0.00     0.034 A 
ATOM     52  C   UNL A   1      41.950  29.708  29.178  1.00  0.00     0.049 A 
ATOM     53  C   UNL A   1      46.936  28.752  26.842  1.00  0.00     0.074 A 
ATOM     54  C   UNL A   1      41.744  30.965  29.719  1.00  0.00     0.029 A 
ATOM     55  N   UNL A   1      43.240  29.699  28.672  1.00  0.00    -0.354 N 
ATOM     56  N   UNL A   1      45.838  29.113  27.461  1.00  0.00    -0.248 NA
ATOM     57  C   UNL A   1      47.939  29.822  26.725  1.00  0.00     0.031 C 
ATOM     58  C   UNL A   1      42.898  31.726  29.513  1.00  0.00     0.029 A 
ATOM     59  C   UNL A   1      43.839  30.930  28.878  1.00  0.00     0.049 A 
ATOM     60  H   UNL A   1      43.669  28.929  28.232  1.00  0.00     0.167 HD
ATOM     61  C   UNL A   1      46.031  30.437  27.838  1.00  0.00     0.074 A 
ATOM     62  C   UNL A   1      47.361  30.808  27.398  1.00  0.00     0.031 C 
ATOM     63  C   UNL A   1      45.180  31.274  28.481  1.00  0.00     0.034 A 
BRANCH  50  64
ATOM     64  C   UNL A   1      39.643  28.795  29.663  1.00  0.00     0.023 A 
ATOM     65  C   UNL A   1      39.349  28.390  30.982  1.00  0.00     0.012 A 
ATOM     66  C   UNL A   1      38.646  29.434  28.899  1.00  0.00     0.148 A 
ATOM     67  C   UNL A   1      38.076  28.579  31.517  1.00  0.00     0.002 A 
ATOM     68  C   UNL A   1      37.393  29.664  29.457  1.00  0.00     0.091 A 
ATOM     69  F   UNL A   1      38.938  29.798  27.643  1.00  0.00    -0.205 F 
ATOM     70  C   UNL A   1      37.103  29.226  30.759  1.00  0.00     0.022 A 
BRANCH  68  71
ATOM     71  S   UNL A   1      36.097  30.559  28.595  1.00  0.00     0.127 S 
ATOM     72  O   UNL A   1      35.632  29.556  27.638  1.00  0.00    -0.237 OA
ATOM     73  O   UNL A   1      35.156  30.852  29.676  1.00  0.00    -0.237 OA
ATOM     74  O   UNL A   1      36.735  31.730  28.011  1.00  0.00    -0.744 OA
ENDBRANCH  68  71
ENDBRANCH  50  64
BRANCH  51  75
ATOM     75  C   UNL A   1      48.627  27.192  25.619  1.00  0.00     0.023 A 
ATOM     76  C   UNL A   1      49.718  26.733  26.383  1.00  0.00     0.012 A 
ATOM     77  C   UNL A   1      48.802  27.421  24.241  1.00  0.00     0.148 A 
ATOM     78  C   UNL A   1      50.969  26.540  25.793  1.00  0.00     0.002 A 
ATOM     79  C   UNL A   1      50.033  27.171  23.648  1.00  0.00     0.091 A 
ATOM     80  F   UNL A   1      47.754  27.868  23.534  1.00  0.00    -0.205 F 
ATOM     81  C   UNL A   1      51.124  26.750  24.424  1.00  0.00     0.022 A 
BRANCH  79  82
ATOM     82  S   UNL A   1      50.288  27.285  21.874  1.00  0.00     0.127 S 
ATOM     83  O   UNL A   1      50.060  28.706  21.628  1.00  0.00    -0.237 OA
ATOM     84  O   UNL A   1      51.679  26.851  21.741  1.00  0.00    -0.237 OA
ATOM     85  O   UNL A   1      49.318  26.377  21.277  1.00  0.00    -0.744 OA
ENDBRANCH  79  82
ENDBRANCH  51  75
BRANCH  63  86
ATOM     86  C   UNL A   1      45.666  32.667  28.790  1.00  0.00     0.023 A 
ATOM     87  C   UNL A   1      46.433  32.906  29.947  1.00  0.00     0.012 A 
ATOM     88  C   UNL A   1      45.418  33.726  27.894  1.00  0.00     0.148 A 
ATOM     89  C   UNL A   1      46.918  34.184  30.225  1.00  0.00     0.002 A 
ATOM     90  C   UNL A   1      45.948  34.985  28.150  1.00  0.00     0.091 A 
ATOM     91  F   UNL A   1      44.672  33.483  26.808  1.00  0.00    -0.205 F 
ATOM     92  C   UNL A   1      46.687  35.218  29.321  1.00  0.00     0.022 A 
BRANCH  90  93
ATOM     93  S   UNL A   1      45.786  36.353  26.998  1.00  0.00     0.127 S 
ATOM     94  O   UNL A   1      46.548  37.402  27.673  1.00  0.00    -0.237 OA
ATOM     95  O   UNL A   1      46.420  35.819  25.792  1.00  0.00    -0.237 OA
ATOM     96  O   UNL A   1      44.357  36.605  26.869  1.00  0.00    -0.744 OA
ENDBRANCH  90  93
ENDBRANCH  63  86
ENDBRANCH  37  38
ENDBRANCH  29  32
ENDBRANCH  27  28
ENDBRANCH  26  27
ENDBRANCH   1  26
TORSDOF 19
ENDMDL
MODEL 3
REMARK VINA RESULT:     -11.2      5.300      7.628
REMARK SMILES O=C(C[N@@H+](C[C@@H]1COc2ccccc2O1)CC(F)(F)F)NCCCCNC(=O)c1ccc(-c2c3nc(c(-c4cccc(S(=O)(=O)[O-])c4F)c4ccc([nH]4)c(-c4cccc(S(=O)(=O)[O-])c4F)c4nc(c(-c5cccc(S(=O)(=O)[O-])c5F)c5ccc2[nH]5)C=C4)C=C3)cc1
REMARK SMILES IDX 23 1 22 2 21 3 1 4 2 5 3 7 4 8 5 10 6 11 7 12 15 13 8 14
REMARK SMILES IDX 14 15 9 16 13 17 10 18 12 19 11 20 16 21 17 22 18 23 19 24
REMARK SMILES IDX 20 25 24 26 25 27 26 28 27 29 28 31 29 32 30 33 91 34 31 35
REMARK SMILES IDX 90 36 32 37 33 38 34 39 84 40 35 41 89 42 83 43 85 44 36 45
REMARK SMILES IDX 88 46 82 47 81 48 37 50 69 51 49 52 68 53 50 54 53 55 67 56
REMARK SMILES IDX 86 57 51 58 52 59 66 61 87 62 54 63 38 64 39 65 47 66 40 67
REMARK SMILES IDX 42 68 48 69 41 70 43 71 44 72 45 73 46 74 70 75 71 76 79 77
REMARK SMILES IDX 72 78 74 79 80 80 73 81 75 82 76 83 77 84 78 85 55 86 56 87
REMARK SMILES IDX 64 88 57 89 59 90 65 91 58 92 60 93 61 94 62 95 63 96
REMARK H PARENT 21 6 4 9 26 30 85 49 53 60
REMARK Flexibility Score: inf
ROOT
ATOM      1  C   UNL A   1      35.183  21.602  26.037  1.00  0.00     0.023 C 
ENDROOT
BRANCH   1   2
ATOM      2  C   UNL A   1      34.811  21.173  24.618  1.00  0.00     0.116 C 
BRANCH   2   3
ATOM      3  N   UNL A   1      33.671  21.900  24.097  1.00  0.00    -0.351 N 
ATOM      4  O   UNL A   1      34.922  23.375  22.870  1.00  0.00    -0.269 OA
ATOM      5  C   UNL A   1      33.824  22.961  23.233  1.00  0.00     0.275 C 
ATOM      6  H   UNL A   1      32.765  21.628  24.368  1.00  0.00     0.163 HD
BRANCH   5   7
ATOM      7  C   UNL A   1      32.523  23.641  22.792  1.00  0.00     0.363 C 
BRANCH   7   8
ATOM      8  N   UNL A   1      32.131  24.805  23.624  1.00  0.00    -0.316 N 
ATOM      9  H   UNL A   1      33.004  25.269  23.878  1.00  0.00     0.348 HD
BRANCH   8  10
ATOM     10  C   UNL A   1      31.319  25.776  22.837  1.00  0.00     0.312 C 
BRANCH  10  11
ATOM     11  C   UNL A   1      31.995  27.120  22.463  1.00  0.00     0.265 C 
ATOM     12  C   UNL A   1      33.519  27.114  22.602  1.00  0.00     0.281 C 
ATOM     13  O   UNL A   1      31.393  28.181  23.218  1.00  0.00    -0.477 OA
ATOM     14  O   UNL A   1      33.952  27.058  23.959  1.00  0.00    -0.486 OA
ATOM     15  C   UNL A   1      32.068  28.532  24.352  1.00  0.00     0.162 A 
ATOM     16  C   UNL A   1      33.310  28.008  24.706  1.00  0.00     0.161 A 
ATOM     17  C   UNL A   1      31.451  29.477  25.170  1.00  0.00     0.050 A 
ATOM     18  C   UNL A   1      33.942  28.436  25.872  1.00  0.00     0.050 A 
ATOM     19  C   UNL A   1      32.081  29.908  26.338  1.00  0.00     0.004 A 
ATOM     20  C   UNL A   1      33.332  29.393  26.684  1.00  0.00     0.004 A 
ENDBRANCH  10  11
ENDBRANCH   8  10
BRANCH   8  21
ATOM     21  C   UNL A   1      31.547  24.469  24.957  1.00  0.00     0.379 C 
BRANCH  21  22
ATOM     22  C   UNL A   1      32.143  24.901  26.324  1.00  0.00     0.438 C 
ATOM     23  F   UNL A   1      31.711  26.114  26.722  1.00  0.00    -0.165 F 
ATOM     24  F   UNL A   1      31.783  24.012  27.284  1.00  0.00    -0.165 F 
ATOM     25  F   UNL A   1      33.490  24.938  26.323  1.00  0.00    -0.165 F 
ENDBRANCH  21  22
ENDBRANCH   8  21
ENDBRANCH   7   8
ENDBRANCH   5   7
ENDBRANCH   2   3
ENDBRANCH   1   2
BRANCH   1  26
ATOM     26  C   UNL A   1      36.382  22.548  26.127  1.00  0.00     0.023 C 
BRANCH  26  27
ATOM     27  C   UNL A   1      37.536  22.235  25.179  1.00  0.00     0.116 C 
BRANCH  27  28
ATOM     28  N   UNL A   1      38.471  21.260  25.718  1.00  0.00    -0.352 N 
ATOM     29  C   UNL A   1      39.625  21.468  26.440  1.00  0.00     0.251 C 
ATOM     30  H   UNL A   1      38.247  20.318  25.543  1.00  0.00     0.163 HD
ATOM     31  O   UNL A   1      40.360  20.525  26.702  1.00  0.00    -0.269 OA
BRANCH  29  32
ATOM     32  C   UNL A   1      39.992  22.837  26.872  1.00  0.00     0.039 A 
ATOM     33  C   UNL A   1      40.841  22.991  27.972  1.00  0.00     0.014 A 
ATOM     34  C   UNL A   1      39.513  23.962  26.195  1.00  0.00     0.014 A 
ATOM     35  C   UNL A   1      41.265  24.269  28.348  1.00  0.00     0.010 A 
ATOM     36  C   UNL A   1      39.998  25.226  26.522  1.00  0.00     0.010 A 
ATOM     37  C   UNL A   1      40.879  25.395  27.602  1.00  0.00    -0.014 A 
BRANCH  37  38
ATOM     38  C   UNL A   1      41.402  26.751  27.923  1.00  0.00     0.031 A 
ATOM     39  C   UNL A   1      42.836  27.105  27.633  1.00  0.00     0.074 A 
ATOM     40  C   UNL A   1      40.608  27.639  28.556  1.00  0.00     0.049 A 
ATOM     41  N   UNL A   1      43.482  28.211  27.899  1.00  0.00    -0.248 NA
ATOM     42  C   UNL A   1      43.659  26.072  26.982  1.00  0.00     0.031 C 
ATOM     43  C   UNL A   1      39.223  27.392  28.965  1.00  0.00     0.029 A 
ATOM     44  N   UNL A   1      40.860  28.915  28.993  1.00  0.00    -0.354 N 
ATOM     45  C   UNL A   1      44.790  27.999  27.480  1.00  0.00     0.074 A 
ATOM     46  C   UNL A   1      44.856  26.644  26.976  1.00  0.00     0.031 C 
ATOM     47  C   UNL A   1      38.749  28.482  29.591  1.00  0.00     0.029 A 
ATOM     48  C   UNL A   1      39.803  29.489  29.661  1.00  0.00     0.049 A 
ATOM     49  H   UNL A   1      41.717  29.377  28.843  1.00  0.00     0.167 HD
ATOM     50  C   UNL A   1      45.835  28.860  27.485  1.00  0.00     0.034 A 
ATOM     51  C   UNL A   1      39.695  30.686  30.273  1.00  0.00     0.034 A 
ATOM     52  C   UNL A   1      45.762  30.217  27.957  1.00  0.00     0.049 A 
ATOM     53  C   UNL A   1      40.862  31.634  30.241  1.00  0.00     0.074 A 
ATOM     54  C   UNL A   1      46.744  31.191  27.930  1.00  0.00     0.029 A 
ATOM     55  N   UNL A   1      44.648  30.790  28.550  1.00  0.00    -0.354 N 
ATOM     56  N   UNL A   1      42.045  31.468  29.701  1.00  0.00    -0.248 NA
ATOM     57  C   UNL A   1      40.668  32.950  30.869  1.00  0.00     0.031 C 
ATOM     58  C   UNL A   1      46.235  32.344  28.535  1.00  0.00     0.029 A 
ATOM     59  C   UNL A   1      44.921  32.101  28.904  1.00  0.00     0.049 A 
ATOM     60  H   UNL A   1      43.788  30.333  28.698  1.00  0.00     0.167 HD
ATOM     61  C   UNL A   1      42.723  32.667  29.891  1.00  0.00     0.074 A 
ATOM     62  C   UNL A   1      41.810  33.558  30.577  1.00  0.00     0.031 C 
ATOM     63  C   UNL A   1      43.990  32.996  29.541  1.00  0.00     0.034 A 
BRANCH  50  64
ATOM     64  C   UNL A   1      47.145  28.375  26.917  1.00  0.00     0.023 A 
ATOM     65  C   UNL A   1      48.222  28.102  27.787  1.00  0.00     0.012 A 
ATOM     66  C   UNL A   1      47.294  28.129  25.538  1.00  0.00     0.148 A 
ATOM     67  C   UNL A   1      49.437  27.632  27.290  1.00  0.00     0.002 A 
ATOM     68  C   UNL A   1      48.492  27.614  25.056  1.00  0.00     0.091 A 
ATOM     69  F   UNL A   1      46.267  28.409  24.724  1.00  0.00    -0.205 F 
ATOM     70  C   UNL A   1      49.568  27.378  25.928  1.00  0.00     0.022 A 
BRANCH  68  71
ATOM     71  S   UNL A   1      48.736  27.176  23.331  1.00  0.00     0.127 S 
ATOM     72  O   UNL A   1      50.187  27.000  23.274  1.00  0.00    -0.237 OA
ATOM     73  O   UNL A   1      47.968  25.936  23.218  1.00  0.00    -0.237 OA
ATOM     74  O   UNL A   1      48.212  28.290  22.554  1.00  0.00    -0.744 OA
ENDBRANCH  68  71
ENDBRANCH  50  64
BRANCH  51  75
ATOM     75  C   UNL A   1      38.412  31.073  30.929  1.00  0.00     0.023 A 
ATOM     76  C   UNL A   1      38.233  30.830  32.305  1.00  0.00     0.012 A 
ATOM     77  C   UNL A   1      37.380  31.696  30.201  1.00  0.00     0.148 A 
ATOM     78  C   UNL A   1      37.035  31.169  32.936  1.00  0.00     0.002 A 
ATOM     79  C   UNL A   1      36.214  32.085  30.848  1.00  0.00     0.091 A 
ATOM     80  F   UNL A   1      37.567  31.909  28.890  1.00  0.00    -0.205 F 
ATOM     81  C   UNL A   1      36.030  31.804  32.211  1.00  0.00     0.022 A 
BRANCH  79  82
ATOM     82  S   UNL A   1      34.924  33.026  30.026  1.00  0.00     0.127 S 
ATOM     83  O   UNL A   1      34.039  33.357  31.139  1.00  0.00    -0.237 OA
ATOM     84  O   UNL A   1      35.676  34.154  29.477  1.00  0.00    -0.237 OA
ATOM     85  O   UNL A   1      34.365  32.132  29.020  1.00  0.00    -0.744 OA
ENDBRANCH  79  82
ENDBRANCH  51  75
BRANCH  63  86
ATOM     86  C   UNL A   1      44.463  34.393  29.850  1.00  0.00     0.023 A 
ATOM     87  C   UNL A   1      45.131  34.661  31.062  1.00  0.00     0.012 A 
ATOM     88  C   UNL A   1      44.307  35.426  28.905  1.00  0.00     0.148 A 
ATOM     89  C   UNL A   1      45.605  35.942  31.342  1.00  0.00     0.002 A 
ATOM     90  C   UNL A   1      44.828  36.688  29.169  1.00  0.00     0.091 A 
ATOM     91  F   UNL A   1      43.655  35.157  27.765  1.00  0.00    -0.205 F 
ATOM     92  C   UNL A   1      45.465  36.950  30.392  1.00  0.00     0.022 A 
BRANCH  90  93
ATOM     93  S   UNL A   1      44.783  38.021  27.966  1.00  0.00     0.127 S 
ATOM     94  O   UNL A   1      45.872  37.646  27.066  1.00  0.00    -0.237 OA
ATOM     95  O   UNL A   1      43.443  37.879  27.397  1.00  0.00    -0.237 OA
ATOM     96  O   UNL A   1      44.994  39.251  28.720  1.00  0.00    -0.744 OA
ENDBRANCH  90  93
ENDBRANCH  63  86
ENDBRANCH  37  38
ENDBRANCH  29  32
ENDBRANCH  27  28
ENDBRANCH  26  27
ENDBRANCH   1  26
TORSDOF 19
ENDMDL
