MODEL 1
REMARK VINA RESULT:     -11.6      0.000      0.000
REMARK SMILES C#CC[C@]1(C(=O)NCCCCNC(=O)c2ccc(-c3c4nc(c(-c5cccc(S(=O)(=O)[O-])c5F)c5ccc([nH]5)c(-c5cccc(S(=O)(=O)[O-])c5F)c5nc(c(-c6cccc(S(=O)(=O)[O-])c6F)c6ccc3[nH]6)C=C5)C=C4)cc2)CCCN(C(=O)OC(C)(C)C)C1
REMARK SMILES IDX 9 1 8 2 7 3 5 4 6 5 4 7 78 8 89 9 79 10 81 11 80 12 3 13
REMARK SMILES IDX 2 14 1 15 82 16 83 17 84 18 85 19 86 20 87 21 88 22 10 23
REMARK SMILES IDX 11 24 12 25 13 26 14 28 15 29 16 30 77 31 17 32 76 33 18 34
REMARK SMILES IDX 19 35 20 36 70 37 21 38 75 39 69 40 71 41 22 42 74 43 68 44
REMARK SMILES IDX 67 45 23 47 55 48 35 49 54 50 36 51 39 52 53 53 72 54 37 55
REMARK SMILES IDX 38 56 52 58 73 59 40 60 24 61 25 62 33 63 26 64 28 65 34 66
REMARK SMILES IDX 27 67 29 68 30 69 31 70 32 71 56 72 57 73 65 74 58 75 60 76
REMARK SMILES IDX 66 77 59 78 61 79 62 80 63 81 64 82 41 83 42 84 50 85 43 86
REMARK SMILES IDX 45 87 51 88 44 89 46 90 47 91 48 92 49 93
REMARK H PARENT 7 6 12 27 71 46 39 57
REMARK Flexibility Score: inf
ROOT
ATOM      1  C   UNL A   1      32.153  27.908  27.303  1.00  0.00     0.023 C 
ENDROOT
BRANCH   1   2
ATOM      2  C   UNL A   1      32.099  26.750  26.315  1.00  0.00     0.116 C 
BRANCH   2   3
ATOM      3  N   UNL A   1      31.516  25.552  26.905  1.00  0.00    -0.356 N 
ATOM      4  C   UNL A   1      31.516  24.239  26.527  1.00  0.00     0.228 C 
ATOM      5  O   UNL A   1      30.950  23.466  27.305  1.00  0.00    -0.274 OA
ATOM      6  H   UNL A   1      31.025  25.722  27.742  1.00  0.00     0.163 HD
BRANCH   4   7
ATOM      7  C   UNL A   1      32.173  23.737  25.214  1.00  0.00     0.078 C 
ATOM      8  C   UNL A   1      33.184  24.791  24.696  1.00  0.00     0.021 C 
ATOM      9  C   UNL A   1      32.842  22.381  25.540  1.00  0.00     0.141 C 
ATOM     10  C   UNL A   1      34.138  24.194  23.664  1.00  0.00     0.023 C 
ATOM     11  N   UNL A   1      34.076  22.011  24.856  1.00  0.00    -0.307 N 
ATOM     12  C   UNL A   1      34.920  23.027  24.247  1.00  0.00     0.123 C 
BRANCH   7  13
ATOM     13  C   UNL A   1      31.055  23.631  24.106  1.00  0.00     0.108 C 
BRANCH  13  14
ATOM     14  C   UNL A   1      30.315  24.923  23.800  1.00  0.00    -0.106 C 
ATOM     15  C   UNL A   1      29.679  26.031  23.537  1.00  0.00     0.004 C 
ENDBRANCH  13  14
ENDBRANCH   7  13
BRANCH  11  16
ATOM     16  C   UNL A   1      34.575  20.753  25.195  1.00  0.00     0.410 C 
ATOM     17  O   UNL A   1      35.767  20.472  25.086  1.00  0.00    -0.224 OA
BRANCH  16  18
ATOM     18  O   UNL A   1      33.631  19.884  25.640  1.00  0.00    -0.444 OA
BRANCH  18  19
ATOM     19  C   UNL A   1      33.274  18.748  24.801  1.00  0.00     0.106 C 
ATOM     20  C   UNL A   1      32.492  17.698  25.602  1.00  0.00     0.056 C 
ATOM     21  C   UNL A   1      32.520  19.181  23.534  1.00  0.00     0.056 C 
ATOM     22  C   UNL A   1      34.610  18.129  24.362  1.00  0.00     0.056 C 
ENDBRANCH  18  19
ENDBRANCH  16  18
ENDBRANCH  11  16
ENDBRANCH   4   7
ENDBRANCH   2   3
ENDBRANCH   1   2
BRANCH   1  23
ATOM     23  C   UNL A   1      31.780  29.257  26.681  1.00  0.00     0.023 C 
BRANCH  23  24
ATOM     24  C   UNL A   1      32.967  30.120  26.246  1.00  0.00     0.116 C 
BRANCH  24  25
ATOM     25  N   UNL A   1      32.874  31.493  26.732  1.00  0.00    -0.352 N 
ATOM     26  C   UNL A   1      33.709  32.168  27.591  1.00  0.00     0.251 C 
ATOM     27  H   UNL A   1      32.105  32.009  26.399  1.00  0.00     0.163 HD
ATOM     28  O   UNL A   1      33.396  33.269  28.031  1.00  0.00    -0.269 OA
BRANCH  26  29
ATOM     29  C   UNL A   1      34.980  31.535  27.995  1.00  0.00     0.039 A 
ATOM     30  C   UNL A   1      36.135  32.314  28.076  1.00  0.00     0.014 A 
ATOM     31  C   UNL A   1      35.000  30.186  28.357  1.00  0.00     0.014 A 
ATOM     32  C   UNL A   1      37.297  31.760  28.616  1.00  0.00     0.010 A 
ATOM     33  C   UNL A   1      36.136  29.658  28.958  1.00  0.00     0.010 A 
ATOM     34  C   UNL A   1      37.291  30.443  29.107  1.00  0.00    -0.014 A 
BRANCH  34  35
ATOM     35  C   UNL A   1      38.457  29.873  29.828  1.00  0.00     0.031 A 
ATOM     36  C   UNL A   1      38.825  30.385  31.192  1.00  0.00     0.074 A 
ATOM     37  C   UNL A   1      39.255  28.989  29.197  1.00  0.00     0.049 A 
ATOM     38  N   UNL A   1      39.866  30.096  31.927  1.00  0.00    -0.248 NA
ATOM     39  C   UNL A   1      37.917  31.374  31.797  1.00  0.00     0.031 C 
ATOM     40  C   UNL A   1      39.047  28.476  27.840  1.00  0.00     0.029 A 
ATOM     41  N   UNL A   1      40.422  28.388  29.602  1.00  0.00    -0.354 N 
ATOM     42  C   UNL A   1      39.763  30.892  33.060  1.00  0.00     0.074 A 
ATOM     43  C   UNL A   1      38.571  31.699  32.903  1.00  0.00     0.031 C 
ATOM     44  C   UNL A   1      40.051  27.641  27.526  1.00  0.00     0.029 A 
ATOM     45  C   UNL A   1      40.989  27.583  28.641  1.00  0.00     0.049 A 
ATOM     46  H   UNL A   1      40.816  28.523  30.493  1.00  0.00     0.167 HD
ATOM     47  C   UNL A   1      40.568  30.927  34.148  1.00  0.00     0.034 A 
ATOM     48  C   UNL A   1      42.141  26.882  28.654  1.00  0.00     0.034 A 
ATOM     49  C   UNL A   1      41.721  30.087  34.322  1.00  0.00     0.049 A 
ATOM     50  C   UNL A   1      43.001  26.915  29.887  1.00  0.00     0.074 A 
ATOM     51  C   UNL A   1      42.545  29.975  35.428  1.00  0.00     0.029 A 
ATOM     52  N   UNL A   1      42.218  29.217  33.363  1.00  0.00    -0.354 N 
ATOM     53  N   UNL A   1      42.799  27.549  31.017  1.00  0.00    -0.248 NA
ATOM     54  C   UNL A   1      44.233  26.113  29.862  1.00  0.00     0.031 C 
ATOM     55  C   UNL A   1      43.547  29.045  35.133  1.00  0.00     0.029 A 
ATOM     56  C   UNL A   1      43.341  28.570  33.848  1.00  0.00     0.049 A 
ATOM     57  H   UNL A   1      41.827  29.078  32.470  1.00  0.00     0.167 HD
ATOM     58  C   UNL A   1      43.858  27.200  31.846  1.00  0.00     0.074 A 
ATOM     59  C   UNL A   1      44.691  26.281  31.096  1.00  0.00     0.031 C 
ATOM     60  C   UNL A   1      44.127  27.615  33.109  1.00  0.00     0.034 A 
BRANCH  47  61
ATOM     61  C   UNL A   1      40.185  31.857  35.267  1.00  0.00     0.023 A 
ATOM     62  C   UNL A   1      40.828  33.108  35.372  1.00  0.00     0.012 A 
ATOM     63  C   UNL A   1      39.167  31.525  36.180  1.00  0.00     0.148 A 
ATOM     64  C   UNL A   1      40.489  33.999  36.389  1.00  0.00     0.002 A 
ATOM     65  C   UNL A   1      38.806  32.434  37.168  1.00  0.00     0.091 A 
ATOM     66  F   UNL A   1      38.584  30.321  36.081  1.00  0.00    -0.205 F 
ATOM     67  C   UNL A   1      39.472  33.666  37.281  1.00  0.00     0.022 A 
BRANCH  65  68
ATOM     68  S   UNL A   1      37.460  32.128  38.318  1.00  0.00     0.127 S 
ATOM     69  O   UNL A   1      38.043  32.577  39.581  1.00  0.00    -0.237 OA
ATOM     70  O   UNL A   1      36.401  32.992  37.795  1.00  0.00    -0.237 OA
ATOM     71  O   UNL A   1      37.176  30.702  38.226  1.00  0.00    -0.744 OA
ENDBRANCH  65  68
ENDBRANCH  47  61
BRANCH  48  72
ATOM     72  C   UNL A   1      42.508  26.032  27.487  1.00  0.00     0.023 A 
ATOM     73  C   UNL A   1      43.315  26.579  26.470  1.00  0.00     0.012 A 
ATOM     74  C   UNL A   1      42.104  24.687  27.393  1.00  0.00     0.148 A 
ATOM     75  C   UNL A   1      43.690  25.811  25.367  1.00  0.00     0.002 A 
ATOM     76  C   UNL A   1      42.524  23.911  26.317  1.00  0.00     0.091 A 
ATOM     77  F   UNL A   1      41.325  24.186  28.363  1.00  0.00    -0.205 F 
ATOM     78  C   UNL A   1      43.304  24.476  25.295  1.00  0.00     0.022 A 
BRANCH  76  79
ATOM     79  S   UNL A   1      42.184  22.150  26.211  1.00  0.00     0.127 S 
ATOM     80  O   UNL A   1      42.630  21.681  27.521  1.00  0.00    -0.237 OA
ATOM     81  O   UNL A   1      40.735  22.131  26.010  1.00  0.00    -0.237 OA
ATOM     82  O   UNL A   1      42.951  21.674  25.069  1.00  0.00    -0.744 OA
ENDBRANCH  76  79
ENDBRANCH  48  72
BRANCH  60  83
ATOM     83  C   UNL A   1      45.360  27.069  33.777  1.00  0.00     0.023 A 
ATOM     84  C   UNL A   1      46.563  27.798  33.718  1.00  0.00     0.012 A 
ATOM     85  C   UNL A   1      45.304  25.883  34.537  1.00  0.00     0.148 A 
ATOM     86  C   UNL A   1      47.698  27.347  34.389  1.00  0.00     0.002 A 
ATOM     87  C   UNL A   1      46.427  25.463  35.240  1.00  0.00     0.091 A 
ATOM     88  F   UNL A   1      44.153  25.194  34.564  1.00  0.00    -0.205 F 
ATOM     89  C   UNL A   1      47.627  26.188  35.159  1.00  0.00     0.022 A 
BRANCH  87  90
ATOM     90  S   UNL A   1      46.403  24.034  36.328  1.00  0.00     0.127 S 
ATOM     91  O   UNL A   1      47.767  24.038  36.856  1.00  0.00    -0.237 OA
ATOM     92  O   UNL A   1      45.373  24.401  37.300  1.00  0.00    -0.237 OA
ATOM     93  O   UNL A   1      46.062  22.894  35.487  1.00  0.00    -0.744 OA
ENDBRANCH  87  90
ENDBRANCH  60  83
ENDBRANCH  34  35
ENDBRANCH  26  29
ENDBRANCH  24  25
ENDBRANCH  23  24
ENDBRANCH   1  23
TORSDOF 19
ENDMDL
MODEL 2
REMARK VINA RESULT:     -11.5      1.927      8.000
REMARK SMILES C#CC[C@]1(C(=O)NCCCCNC(=O)c2ccc(-c3c4nc(c(-c5cccc(S(=O)(=O)[O-])c5F)c5ccc([nH]5)c(-c5cccc(S(=O)(=O)[O-])c5F)c5nc(c(-c6cccc(S(=O)(=O)[O-])c6F)c6ccc3[nH]6)C=C5)C=C4)cc2)CCCN(C(=O)OC(C)(C)C)C1
REMARK SMILES IDX 9 1 8 2 7 3 5 4 6 5 4 7 78 8 89 9 79 10 81 11 80 12 3 13
REMARK SMILES IDX 2 14 1 15 82 16 83 17 84 18 85 19 86 20 87 21 88 22 10 23
REMARK SMILES IDX 11 24 12 25 13 26 14 28 15 29 16 30 77 31 17 32 76 33 18 34
REMARK SMILES IDX 19 35 20 36 70 37 21 38 75 39 69 40 71 41 22 42 74 43 68 44
REMARK SMILES IDX 67 45 23 47 55 48 35 49 54 50 36 51 39 52 53 53 72 54 37 55
REMARK SMILES IDX 38 56 52 58 73 59 40 60 24 61 25 62 33 63 26 64 28 65 34 66
REMARK SMILES IDX 27 67 29 68 30 69 31 70 32 71 56 72 57 73 65 74 58 75 60 76
REMARK SMILES IDX 66 77 59 78 61 79 62 80 63 81 64 82 41 83 42 84 50 85 43 86
REMARK SMILES IDX 45 87 51 88 44 89 46 90 47 91 48 92 49 93
REMARK H PARENT 7 6 12 27 71 46 39 57
REMARK Flexibility Score: inf
ROOT
ATOM      1  C   UNL A   1      30.562  31.209  25.315  1.00  0.00     0.023 C 
ENDROOT
BRANCH   1   2
ATOM      2  C   UNL A   1      30.647  29.881  24.573  1.00  0.00     0.116 C 
BRANCH   2   3
ATOM      3  N   UNL A   1      31.944  29.689  23.939  1.00  0.00    -0.356 N 
ATOM      4  C   UNL A   1      32.742  28.592  23.773  1.00  0.00     0.228 C 
ATOM      5  O   UNL A   1      33.778  28.785  23.132  1.00  0.00    -0.274 OA
ATOM      6  H   UNL A   1      32.322  30.513  23.553  1.00  0.00     0.163 HD
BRANCH   4   7
ATOM      7  C   UNL A   1      32.387  27.194  24.346  1.00  0.00     0.078 C 
ATOM      8  C   UNL A   1      30.874  26.916  24.155  1.00  0.00     0.021 C 
ATOM      9  C   UNL A   1      33.278  26.169  23.605  1.00  0.00     0.141 C 
ATOM     10  C   UNL A   1      30.551  25.433  24.318  1.00  0.00     0.023 C 
ATOM     11  N   UNL A   1      32.756  24.834  23.334  1.00  0.00    -0.307 N 
ATOM     12  C   UNL A   1      31.323  24.587  23.317  1.00  0.00     0.123 C 
BRANCH   7  13
ATOM     13  C   UNL A   1      32.627  27.219  25.905  1.00  0.00     0.108 C 
BRANCH  13  14
ATOM     14  C   UNL A   1      33.729  28.151  26.381  1.00  0.00    -0.106 C 
ATOM     15  C   UNL A   1      34.675  28.951  26.790  1.00  0.00     0.004 C 
ENDBRANCH  13  14
ENDBRANCH   7  13
BRANCH  11  16
ATOM     16  C   UNL A   1      33.653  23.978  22.695  1.00  0.00     0.410 C 
ATOM     17  O   UNL A   1      33.292  23.179  21.833  1.00  0.00    -0.224 OA
BRANCH  16  18
ATOM     18  O   UNL A   1      34.937  24.103  23.120  1.00  0.00    -0.444 OA
BRANCH  18  19
ATOM     19  C   UNL A   1      35.415  23.220  24.174  1.00  0.00     0.106 C 
ATOM     20  C   UNL A   1      36.722  22.529  23.761  1.00  0.00     0.056 C 
ATOM     21  C   UNL A   1      35.554  23.950  25.519  1.00  0.00     0.056 C 
ATOM     22  C   UNL A   1      34.327  22.147  24.333  1.00  0.00     0.056 C 
ENDBRANCH  18  19
ENDBRANCH  16  18
ENDBRANCH  11  16
ENDBRANCH   4   7
ENDBRANCH   2   3
ENDBRANCH   1   2
BRANCH   1  23
ATOM     23  C   UNL A   1      31.380  31.237  26.609  1.00  0.00     0.023 C 
BRANCH  23  24
ATOM     24  C   UNL A   1      32.654  32.083  26.551  1.00  0.00     0.116 C 
BRANCH  24  25
ATOM     25  N   UNL A   1      32.514  33.362  27.240  1.00  0.00    -0.352 N 
ATOM     26  C   UNL A   1      33.278  33.891  28.253  1.00  0.00     0.251 C 
ATOM     27  H   UNL A   1      31.766  33.926  26.937  1.00  0.00     0.163 HD
ATOM     28  O   UNL A   1      32.923  34.910  28.837  1.00  0.00    -0.269 OA
BRANCH  26  29
ATOM     29  C   UNL A   1      34.522  33.200  28.643  1.00  0.00     0.039 A 
ATOM     30  C   UNL A   1      35.746  33.852  28.479  1.00  0.00     0.014 A 
ATOM     31  C   UNL A   1      34.459  31.935  29.233  1.00  0.00     0.014 A 
ATOM     32  C   UNL A   1      36.905  33.272  28.998  1.00  0.00     0.010 A 
ATOM     33  C   UNL A   1      35.602  31.395  29.810  1.00  0.00     0.010 A 
ATOM     34  C   UNL A   1      36.833  32.064  29.712  1.00  0.00    -0.014 A 
BRANCH  34  35
ATOM     35  C   UNL A   1      38.014  31.499  30.411  1.00  0.00     0.031 A 
ATOM     36  C   UNL A   1      38.834  30.423  29.757  1.00  0.00     0.074 A 
ATOM     37  C   UNL A   1      38.267  31.865  31.683  1.00  0.00     0.049 A 
ATOM     38  N   UNL A   1      39.827  29.730  30.249  1.00  0.00    -0.248 NA
ATOM     39  C   UNL A   1      38.472  30.059  28.377  1.00  0.00     0.031 C 
ATOM     40  C   UNL A   1      37.493  32.842  32.454  1.00  0.00     0.029 A 
ATOM     41  N   UNL A   1      39.226  31.434  32.565  1.00  0.00    -0.354 N 
ATOM     42  C   UNL A   1      40.183  28.823  29.260  1.00  0.00     0.074 A 
ATOM     43  C   UNL A   1      39.281  29.034  28.147  1.00  0.00     0.031 C 
ATOM     44  C   UNL A   1      38.006  32.934  33.691  1.00  0.00     0.029 A 
ATOM     45  C   UNL A   1      39.123  32.003  33.814  1.00  0.00     0.049 A 
ATOM     46  H   UNL A   1      39.921  30.779  32.328  1.00  0.00     0.167 HD
ATOM     47  C   UNL A   1      41.190  27.918  29.263  1.00  0.00     0.034 A 
ATOM     48  C   UNL A   1      39.842  31.793  34.935  1.00  0.00     0.034 A 
ATOM     49  C   UNL A   1      42.115  27.747  30.349  1.00  0.00     0.049 A 
ATOM     50  C   UNL A   1      40.974  30.804  34.901  1.00  0.00     0.074 A 
ATOM     51  C   UNL A   1      43.228  26.928  30.411  1.00  0.00     0.029 A 
ATOM     52  N   UNL A   1      42.034  28.405  31.567  1.00  0.00    -0.354 N 
ATOM     53  N   UNL A   1      41.400  30.073  33.899  1.00  0.00    -0.248 NA
ATOM     54  C   UNL A   1      41.745  30.630  36.141  1.00  0.00     0.031 C 
ATOM     55  C   UNL A   1      43.814  27.081  31.671  1.00  0.00     0.029 A 
ATOM     56  C   UNL A   1      43.072  28.004  32.391  1.00  0.00     0.049 A 
ATOM     57  H   UNL A   1      41.341  29.061  31.809  1.00  0.00     0.167 HD
ATOM     58  C   UNL A   1      42.505  29.378  34.376  1.00  0.00     0.074 A 
ATOM     59  C   UNL A   1      42.695  29.790  35.753  1.00  0.00     0.031 C 
ATOM     60  C   UNL A   1      43.281  28.467  33.739  1.00  0.00     0.034 A 
BRANCH  47  61
ATOM     61  C   UNL A   1      41.385  27.090  28.020  1.00  0.00     0.023 A 
ATOM     62  C   UNL A   1      41.985  27.679  26.888  1.00  0.00     0.012 A 
ATOM     63  C   UNL A   1      41.024  25.730  27.982  1.00  0.00     0.148 A 
ATOM     64  C   UNL A   1      42.192  26.938  25.726  1.00  0.00     0.002 A 
ATOM     65  C   UNL A   1      41.269  24.986  26.833  1.00  0.00     0.091 A 
ATOM     66  F   UNL A   1      40.431  25.194  29.059  1.00  0.00    -0.205 F 
ATOM     67  C   UNL A   1      41.843  25.590  25.702  1.00  0.00     0.022 A 
BRANCH  65  68
ATOM     68  S   UNL A   1      40.922  23.226  26.730  1.00  0.00     0.127 S 
ATOM     69  O   UNL A   1      39.487  23.225  26.452  1.00  0.00    -0.237 OA
ATOM     70  O   UNL A   1      41.761  22.810  25.605  1.00  0.00    -0.237 OA
ATOM     71  O   UNL A   1      41.317  22.667  28.015  1.00  0.00    -0.744 OA
ENDBRANCH  65  68
ENDBRANCH  47  61
BRANCH  48  72
ATOM     72  C   UNL A   1      39.559  32.590  36.161  1.00  0.00     0.023 A 
ATOM     73  C   UNL A   1      40.183  33.843  36.322  1.00  0.00     0.012 A 
ATOM     74  C   UNL A   1      38.655  32.143  37.144  1.00  0.00     0.148 A 
ATOM     75  C   UNL A   1      39.934  34.624  37.452  1.00  0.00     0.002 A 
ATOM     76  C   UNL A   1      38.371  32.948  38.242  1.00  0.00     0.091 A 
ATOM     77  F   UNL A   1      38.081  30.942  36.982  1.00  0.00    -0.205 F 
ATOM     78  C   UNL A   1      39.022  34.182  38.405  1.00  0.00     0.022 A 
BRANCH  76  79
ATOM     79  S   UNL A   1      37.113  32.519  39.450  1.00  0.00     0.127 S 
ATOM     80  O   UNL A   1      37.346  33.516  40.492  1.00  0.00    -0.237 OA
ATOM     81  O   UNL A   1      35.879  32.704  38.684  1.00  0.00    -0.237 OA
ATOM     82  O   UNL A   1      37.383  31.136  39.819  1.00  0.00    -0.744 OA
ENDBRANCH  76  79
ENDBRANCH  48  72
BRANCH  60  83
ATOM     83  C   UNL A   1      44.425  27.863  34.508  1.00  0.00     0.023 A 
ATOM     84  C   UNL A   1      45.626  28.587  34.649  1.00  0.00     0.012 A 
ATOM     85  C   UNL A   1      44.281  26.625  35.166  1.00  0.00     0.148 A 
ATOM     86  C   UNL A   1      46.672  28.079  35.417  1.00  0.00     0.002 A 
ATOM     87  C   UNL A   1      45.312  26.146  35.965  1.00  0.00     0.091 A 
ATOM     88  F   UNL A   1      43.137  25.944  35.002  1.00  0.00    -0.205 F 
ATOM     89  C   UNL A   1      46.511  26.867  36.084  1.00  0.00     0.022 A 
BRANCH  87  90
ATOM     90  S   UNL A   1      45.160  24.640  36.933  1.00  0.00     0.127 S 
ATOM     91  O   UNL A   1      43.985  24.930  37.753  1.00  0.00    -0.237 OA
ATOM     92  O   UNL A   1      44.948  23.627  35.900  1.00  0.00    -0.237 OA
ATOM     93  O   UNL A   1      46.414  24.505  37.663  1.00  0.00    -0.744 OA
ENDBRANCH  87  90
ENDBRANCH  60  83
ENDBRANCH  34  35
ENDBRANCH  26  29
ENDBRANCH  24  25
ENDBRANCH  23  24
ENDBRANCH   1  23
TORSDOF 19
ENDMDL
MODEL 3
REMARK VINA RESULT:     -11.4      2.564      8.268
REMARK SMILES C#CC[C@]1(C(=O)NCCCCNC(=O)c2ccc(-c3c4nc(c(-c5cccc(S(=O)(=O)[O-])c5F)c5ccc([nH]5)c(-c5cccc(S(=O)(=O)[O-])c5F)c5nc(c(-c6cccc(S(=O)(=O)[O-])c6F)c6ccc3[nH]6)C=C5)C=C4)cc2)CCCN(C(=O)OC(C)(C)C)C1
REMARK SMILES IDX 9 1 8 2 7 3 5 4 6 5 4 7 78 8 89 9 79 10 81 11 80 12 3 13
REMARK SMILES IDX 2 14 1 15 82 16 83 17 84 18 85 19 86 20 87 21 88 22 10 23
REMARK SMILES IDX 11 24 12 25 13 26 14 28 15 29 16 30 77 31 17 32 76 33 18 34
REMARK SMILES IDX 19 35 20 36 70 37 21 38 75 39 69 40 71 41 22 42 74 43 68 44
REMARK SMILES IDX 67 45 23 47 55 48 35 49 54 50 36 51 39 52 53 53 72 54 37 55
REMARK SMILES IDX 38 56 52 58 73 59 40 60 24 61 25 62 33 63 26 64 28 65 34 66
REMARK SMILES IDX 27 67 29 68 30 69 31 70 32 71 56 72 57 73 65 74 58 75 60 76
REMARK SMILES IDX 66 77 59 78 61 79 62 80 63 81 64 82 41 83 42 84 50 85 43 86
REMARK SMILES IDX 45 87 51 88 44 89 46 90 47 91 48 92 49 93
REMARK H PARENT 7 6 12 27 71 46 39 57
REMARK Flexibility Score: inf
ROOT
ATOM      1  C   UNL A   1      32.059  30.443  25.702  1.00  0.00     0.023 C 
ENDROOT
BRANCH   1   2
ATOM      2  C   UNL A   1      32.790  29.126  25.469  1.00  0.00     0.116 C 
BRANCH   2   3
ATOM      3  N   UNL A   1      33.577  29.145  24.244  1.00  0.00    -0.356 N 
ATOM      4  C   UNL A   1      33.687  28.270  23.200  1.00  0.00     0.228 C 
ATOM      5  O   UNL A   1      34.430  28.632  22.284  1.00  0.00    -0.274 OA
ATOM      6  H   UNL A   1      34.141  29.946  24.148  1.00  0.00     0.163 HD
BRANCH   4   7
ATOM      7  C   UNL A   1      32.941  26.910  23.154  1.00  0.00     0.078 C 
ATOM      8  C   UNL A   1      33.145  26.245  21.769  1.00  0.00     0.021 C 
ATOM      9  C   UNL A   1      33.503  26.054  24.314  1.00  0.00     0.141 C 
ATOM     10  C   UNL A   1      32.792  24.760  21.802  1.00  0.00     0.023 C 
ATOM     11  N   UNL A   1      33.608  24.609  24.148  1.00  0.00    -0.307 N 
ATOM     12  C   UNL A   1      33.641  24.014  22.821  1.00  0.00     0.123 C 
BRANCH   7  13
ATOM     13  C   UNL A   1      31.392  27.186  23.275  1.00  0.00     0.108 C 
BRANCH  13  14
ATOM     14  C   UNL A   1      30.687  26.466  24.413  1.00  0.00    -0.106 C 
ATOM     15  C   UNL A   1      30.082  25.847  25.389  1.00  0.00     0.004 C 
ENDBRANCH  13  14
ENDBRANCH   7  13
BRANCH  11  16
ATOM     16  C   UNL A   1      34.091  23.929  25.265  1.00  0.00     0.410 C 
ATOM     17  O   UNL A   1      33.776  24.246  26.411  1.00  0.00    -0.224 OA
BRANCH  16  18
ATOM     18  O   UNL A   1      34.938  22.909  24.970  1.00  0.00    -0.444 OA
BRANCH  18  19
ATOM     19  C   UNL A   1      34.627  21.574  25.463  1.00  0.00     0.106 C 
ATOM     20  C   UNL A   1      34.418  21.586  26.984  1.00  0.00     0.056 C 
ATOM     21  C   UNL A   1      33.430  20.951  24.726  1.00  0.00     0.056 C 
ATOM     22  C   UNL A   1      35.866  20.723  25.149  1.00  0.00     0.056 C 
ENDBRANCH  18  19
ENDBRANCH  16  18
ENDBRANCH  11  16
ENDBRANCH   4   7
ENDBRANCH   2   3
ENDBRANCH   1   2
BRANCH   1  23
ATOM     23  C   UNL A   1      32.208  30.977  27.130  1.00  0.00     0.023 C 
BRANCH  23  24
ATOM     24  C   UNL A   1      33.339  31.990  27.327  1.00  0.00     0.116 C 
BRANCH  24  25
ATOM     25  N   UNL A   1      32.850  33.347  27.544  1.00  0.00    -0.352 N 
ATOM     26  C   UNL A   1      33.211  34.257  28.510  1.00  0.00     0.251 C 
ATOM     27  H   UNL A   1      32.163  33.656  26.909  1.00  0.00     0.163 HD
ATOM     28  O   UNL A   1      32.581  35.299  28.654  1.00  0.00    -0.269 OA
BRANCH  26  29
ATOM     29  C   UNL A   1      34.357  33.948  29.386  1.00  0.00     0.039 A 
ATOM     30  C   UNL A   1      34.150  33.186  30.539  1.00  0.00     0.014 A 
ATOM     31  C   UNL A   1      35.642  34.357  29.021  1.00  0.00     0.014 A 
ATOM     32  C   UNL A   1      35.252  32.752  31.278  1.00  0.00     0.010 A 
ATOM     33  C   UNL A   1      36.739  33.865  29.718  1.00  0.00     0.010 A 
ATOM     34  C   UNL A   1      36.556  33.046  30.844  1.00  0.00    -0.014 A 
BRANCH  34  35
ATOM     35  C   UNL A   1      37.749  32.472  31.514  1.00  0.00     0.031 A 
ATOM     36  C   UNL A   1      38.487  31.323  30.886  1.00  0.00     0.074 A 
ATOM     37  C   UNL A   1      38.087  32.902  32.746  1.00  0.00     0.049 A 
ATOM     38  N   UNL A   1      39.476  30.617  31.368  1.00  0.00    -0.248 NA
ATOM     39  C   UNL A   1      38.035  30.893  29.552  1.00  0.00     0.031 C 
ATOM     40  C   UNL A   1      37.397  33.957  33.494  1.00  0.00     0.029 A 
ATOM     41  N   UNL A   1      39.075  32.483  33.602  1.00  0.00    -0.354 N 
ATOM     42  C   UNL A   1      39.740  29.638  30.420  1.00  0.00     0.074 A 
ATOM     43  C   UNL A   1      38.787  29.821  29.345  1.00  0.00     0.031 C 
ATOM     44  C   UNL A   1      37.981  34.100  34.694  1.00  0.00     0.029 A 
ATOM     45  C   UNL A   1      39.064  33.130  34.817  1.00  0.00     0.049 A 
ATOM     46  H   UNL A   1      39.728  31.784  33.370  1.00  0.00     0.167 HD
ATOM     47  C   UNL A   1      40.707  28.690  30.426  1.00  0.00     0.034 A 
ATOM     48  C   UNL A   1      39.834  32.956  35.909  1.00  0.00     0.034 A 
ATOM     49  C   UNL A   1      41.683  28.544  31.471  1.00  0.00     0.049 A 
ATOM     50  C   UNL A   1      40.921  31.917  35.877  1.00  0.00     0.074 A 
ATOM     51  C   UNL A   1      42.763  27.681  31.526  1.00  0.00     0.029 A 
ATOM     52  N   UNL A   1      41.696  29.277  32.649  1.00  0.00    -0.354 N 
ATOM     53  N   UNL A   1      41.261  31.109  34.902  1.00  0.00    -0.248 NA
ATOM     54  C   UNL A   1      41.751  31.783  37.083  1.00  0.00     0.031 C 
ATOM     55  C   UNL A   1      43.422  27.884  32.742  1.00  0.00     0.029 A 
ATOM     56  C   UNL A   1      42.760  28.880  33.440  1.00  0.00     0.049 A 
ATOM     57  H   UNL A   1      41.045  29.977  32.886  1.00  0.00     0.167 HD
ATOM     58  C   UNL A   1      42.361  30.395  35.363  1.00  0.00     0.074 A 
ATOM     59  C   UNL A   1      42.643  30.880  36.699  1.00  0.00     0.031 C 
ATOM     60  C   UNL A   1      43.062  29.413  34.744  1.00  0.00     0.034 A 
BRANCH  47  61
ATOM     61  C   UNL A   1      40.799  27.782  29.230  1.00  0.00     0.023 A 
ATOM     62  C   UNL A   1      39.994  26.624  29.181  1.00  0.00     0.012 A 
ATOM     63  C   UNL A   1      41.634  28.089  28.140  1.00  0.00     0.148 A 
ATOM     64  C   UNL A   1      40.046  25.768  28.082  1.00  0.00     0.002 A 
ATOM     65  C   UNL A   1      41.651  27.252  27.029  1.00  0.00     0.091 A 
ATOM     66  F   UNL A   1      42.411  29.180  28.214  1.00  0.00    -0.205 F 
ATOM     67  C   UNL A   1      40.866  26.087  27.003  1.00  0.00     0.022 A 
BRANCH  65  68
ATOM     68  S   UNL A   1      42.620  27.615  25.560  1.00  0.00     0.127 S 
ATOM     69  O   UNL A   1      43.975  27.672  26.107  1.00  0.00    -0.237 OA
ATOM     70  O   UNL A   1      42.353  26.451  24.716  1.00  0.00    -0.237 OA
ATOM     71  O   UNL A   1      42.097  28.871  25.040  1.00  0.00    -0.744 OA
ENDBRANCH  65  68
ENDBRANCH  47  61
BRANCH  48  72
ATOM     72  C   UNL A   1      39.652  33.836  37.096  1.00  0.00     0.023 A 
ATOM     73  C   UNL A   1      40.126  35.162  37.043  1.00  0.00     0.012 A 
ATOM     74  C   UNL A   1      38.985  33.392  38.254  1.00  0.00     0.148 A 
ATOM     75  C   UNL A   1      39.963  36.021  38.131  1.00  0.00     0.002 A 
ATOM     76  C   UNL A   1      38.781  34.268  39.315  1.00  0.00     0.091 A 
ATOM     77  F   UNL A   1      38.553  32.123  38.293  1.00  0.00    -0.205 F 
ATOM     78  C   UNL A   1      39.283  35.579  39.261  1.00  0.00     0.022 A 
BRANCH  76  79
ATOM     79  S   UNL A   1      37.801  33.824  40.754  1.00  0.00     0.127 S 
ATOM     80  O   UNL A   1      38.669  32.855  41.419  1.00  0.00    -0.237 OA
ATOM     81  O   UNL A   1      37.669  35.109  41.442  1.00  0.00    -0.237 OA
ATOM     82  O   UNL A   1      36.549  33.300  40.226  1.00  0.00    -0.744 OA
ENDBRANCH  76  79
ENDBRANCH  48  72
BRANCH  60  83
ATOM     83  C   UNL A   1      44.221  28.807  35.488  1.00  0.00     0.023 A 
ATOM     84  C   UNL A   1      45.513  29.341  35.316  1.00  0.00     0.012 A 
ATOM     85  C   UNL A   1      44.017  27.772  36.423  1.00  0.00     0.148 A 
ATOM     86  C   UNL A   1      46.589  28.843  36.049  1.00  0.00     0.002 A 
ATOM     87  C   UNL A   1      45.087  27.310  37.182  1.00  0.00     0.091 A 
ATOM     88  F   UNL A   1      42.783  27.265  36.557  1.00  0.00    -0.205 F 
ATOM     89  C   UNL A   1      46.374  27.838  36.989  1.00  0.00     0.022 A 
BRANCH  87  90
ATOM     90  S   UNL A   1      44.888  26.083  38.479  1.00  0.00     0.127 S 
ATOM     91  O   UNL A   1      43.797  26.655  39.266  1.00  0.00    -0.237 OA
ATOM     92  O   UNL A   1      44.530  24.884  37.720  1.00  0.00    -0.237 OA
ATOM     93  O   UNL A   1      46.175  26.006  39.158  1.00  0.00    -0.744 OA
ENDBRANCH  87  90
ENDBRANCH  60  83
ENDBRANCH  34  35
ENDBRANCH  26  29
ENDBRANCH  24  25
ENDBRANCH  23  24
ENDBRANCH   1  23
TORSDOF 19
ENDMDL
