MODEL 1
REMARK VINA RESULT:     -12.6      0.000      0.000
REMARK SMILES O=C(NCCCCNC(=O)[C@@H](c1ccccc1)N1C(=O)/C(=C\c2ccc(-c3ccc(F)cc3)o2)SC1=S)c1ccc(-c2c3nc(c(-c4cccc(S(=O)(=O)[O-])c4F)c4ccc([nH]4)c(-c4cccc(S(=O)(=O)[O-])c4F)c4nc(c(-c5cccc(S(=O)(=O)[O-])c5F)c5ccc2[nH]5)C=C4)C=C3)cc1
REMARK SMILES IDX 5 1 4 2 3 3 1 4 2 5 38 7 39 8 100 9 40 10 99 11 41 12 42 13
REMARK SMILES IDX 43 14 93 15 44 16 98 17 92 18 94 19 45 20 97 21 91 22 90 23
REMARK SMILES IDX 46 25 78 26 58 27 77 28 59 29 62 30 76 31 95 32 60 33 61 34
REMARK SMILES IDX 75 36 96 37 63 38 47 39 48 40 56 41 49 42 51 43 57 44 50 45
REMARK SMILES IDX 52 46 53 47 54 48 55 49 79 50 80 51 88 52 81 53 83 54 89 55
REMARK SMILES IDX 82 56 84 57 85 58 86 59 87 60 64 61 65 62 73 63 66 64 68 65
REMARK SMILES IDX 74 66 67 67 69 68 70 69 71 70 72 71 6 72 7 73 8 74 9 75
REMARK SMILES IDX 10 77 11 78 12 79 13 80 17 81 14 82 16 83 15 84 18 85 19 86
REMARK SMILES IDX 36 87 20 88 21 89 35 90 37 91 22 92 23 93 24 94 34 95 25 96
REMARK SMILES IDX 26 97 27 98 28 99 33 100 29 101 32 102 30 103 31 104
REMARK H PARENT 3 6 94 24 62 35 8 76
REMARK Flexibility Score: inf
ROOT
ATOM      1  C   UNL A   1      31.627  30.241  26.890  1.00  0.00     0.023 C 
ENDROOT
BRANCH   1   2
ATOM      2  C   UNL A   1      32.715  31.222  26.478  1.00  0.00     0.116 C 
BRANCH   2   3
ATOM      3  N   UNL A   1      32.413  32.598  26.840  1.00  0.00    -0.352 N 
ATOM      4  O   UNL A   1      32.642  34.490  28.049  1.00  0.00    -0.269 OA
ATOM      5  C   UNL A   1      33.077  33.390  27.749  1.00  0.00     0.251 C 
ATOM      6  H   UNL A   1      31.646  33.009  26.382  1.00  0.00     0.163 HD
BRANCH   5   7
ATOM      7  C   UNL A   1      34.304  32.853  28.372  1.00  0.00     0.039 A 
ATOM      8  C   UNL A   1      34.211  31.845  29.337  1.00  0.00     0.014 A 
ATOM      9  C   UNL A   1      35.540  33.402  28.027  1.00  0.00     0.014 A 
ATOM     10  C   UNL A   1      35.344  31.462  30.040  1.00  0.00     0.010 A 
ATOM     11  C   UNL A   1      36.690  32.956  28.680  1.00  0.00     0.010 A 
ATOM     12  C   UNL A   1      36.598  31.994  29.699  1.00  0.00    -0.014 A 
BRANCH  12  13
ATOM     13  C   UNL A   1      37.819  31.421  30.311  1.00  0.00     0.031 A 
ATOM     14  C   UNL A   1      38.628  30.365  29.618  1.00  0.00     0.074 A 
ATOM     15  C   UNL A   1      38.152  31.847  31.545  1.00  0.00     0.049 A 
ATOM     16  N   UNL A   1      39.695  29.744  30.047  1.00  0.00    -0.248 NA
ATOM     17  C   UNL A   1      38.186  29.941  28.280  1.00  0.00     0.031 C 
ATOM     18  C   UNL A   1      37.394  32.831  32.327  1.00  0.00     0.029 A 
ATOM     19  N   UNL A   1      39.188  31.498  32.370  1.00  0.00    -0.354 N 
ATOM     20  C   UNL A   1      40.028  28.825  29.061  1.00  0.00     0.074 A 
ATOM     21  C   UNL A   1      39.055  28.976  27.999  1.00  0.00     0.031 C 
ATOM     22  C   UNL A   1      37.986  33.002  33.516  1.00  0.00     0.029 A 
ATOM     23  C   UNL A   1      39.127  32.101  33.605  1.00  0.00     0.049 A 
ATOM     24  H   UNL A   1      39.904  30.876  32.106  1.00  0.00     0.167 HD
ATOM     25  C   UNL A   1      41.058  27.945  29.047  1.00  0.00     0.034 A 
ATOM     26  C   UNL A   1      39.879  31.921  34.706  1.00  0.00     0.034 A 
ATOM     27  C   UNL A   1      42.042  27.843  30.091  1.00  0.00     0.049 A 
ATOM     28  C   UNL A   1      41.018  30.947  34.646  1.00  0.00     0.074 A 
ATOM     29  C   UNL A   1      43.193  27.074  30.114  1.00  0.00     0.029 A 
ATOM     30  N   UNL A   1      41.982  28.506  31.307  1.00  0.00    -0.354 N 
ATOM     31  N   UNL A   1      41.426  30.220  33.634  1.00  0.00    -0.248 NA
ATOM     32  C   UNL A   1      41.813  30.780  35.869  1.00  0.00     0.031 C 
ATOM     33  C   UNL A   1      43.812  27.247  31.356  1.00  0.00     0.029 A 
ATOM     34  C   UNL A   1      43.055  28.137  32.101  1.00  0.00     0.049 A 
ATOM     35  H   UNL A   1      41.279  29.145  31.568  1.00  0.00     0.167 HD
ATOM     36  C   UNL A   1      42.529  29.516  34.094  1.00  0.00     0.074 A 
ATOM     37  C   UNL A   1      42.750  29.933  35.465  1.00  0.00     0.031 C 
ATOM     38  C   UNL A   1      43.277  28.589  33.451  1.00  0.00     0.034 A 
BRANCH  25  39
ATOM     39  C   UNL A   1      41.214  27.037  27.857  1.00  0.00     0.023 A 
ATOM     40  C   UNL A   1      41.881  27.502  26.707  1.00  0.00     0.012 A 
ATOM     41  C   UNL A   1      40.814  25.687  27.928  1.00  0.00     0.148 A 
ATOM     42  C   UNL A   1      42.142  26.641  25.643  1.00  0.00     0.002 A 
ATOM     43  C   UNL A   1      41.107  24.826  26.877  1.00  0.00     0.091 A 
ATOM     44  F   UNL A   1      40.165  25.271  29.025  1.00  0.00    -0.205 F 
ATOM     45  C   UNL A   1      41.768  25.303  25.732  1.00  0.00     0.022 A 
BRANCH  43  46
ATOM     46  S   UNL A   1      40.732  23.069  26.923  1.00  0.00     0.127 S 
ATOM     47  O   UNL A   1      41.494  22.576  25.776  1.00  0.00    -0.237 OA
ATOM     48  O   UNL A   1      41.266  22.674  28.226  1.00  0.00    -0.237 OA
ATOM     49  O   UNL A   1      39.285  22.964  26.800  1.00  0.00    -0.744 OA
ENDBRANCH  43  46
ENDBRANCH  25  39
BRANCH  26  50
ATOM     50  C   UNL A   1      39.569  32.685  35.944  1.00  0.00     0.023 A 
ATOM     51  C   UNL A   1      40.123  33.965  36.130  1.00  0.00     0.012 A 
ATOM     52  C   UNL A   1      38.685  32.171  36.913  1.00  0.00     0.148 A 
ATOM     53  C   UNL A   1      39.821  34.709  37.271  1.00  0.00     0.002 A 
ATOM     54  C   UNL A   1      38.341  32.943  38.016  1.00  0.00     0.091 A 
ATOM     55  F   UNL A   1      38.182  30.942  36.731  1.00  0.00    -0.205 F 
ATOM     56  C   UNL A   1      38.919  34.204  38.206  1.00  0.00     0.022 A 
BRANCH  54  57
ATOM     57  S   UNL A   1      37.070  32.415  39.171  1.00  0.00     0.127 S 
ATOM     58  O   UNL A   1      37.396  31.006  39.356  1.00  0.00    -0.237 OA
ATOM     59  O   UNL A   1      37.331  33.266  40.334  1.00  0.00    -0.237 OA
ATOM     60  O   UNL A   1      35.807  32.703  38.501  1.00  0.00    -0.744 OA
ENDBRANCH  54  57
ENDBRANCH  26  50
BRANCH  38  61
ATOM     61  C   UNL A   1      44.400  27.953  34.223  1.00  0.00     0.023 A 
ATOM     62  C   UNL A   1      45.660  28.584  34.249  1.00  0.00     0.012 A 
ATOM     63  C   UNL A   1      44.195  26.779  34.971  1.00  0.00     0.148 A 
ATOM     64  C   UNL A   1      46.708  28.040  34.989  1.00  0.00     0.002 A 
ATOM     65  C   UNL A   1      45.231  26.268  35.743  1.00  0.00     0.091 A 
ATOM     66  F   UNL A   1      42.992  26.188  34.916  1.00  0.00    -0.205 F 
ATOM     67  C   UNL A   1      46.490  26.890  35.744  1.00  0.00     0.022 A 
BRANCH  65  68
ATOM     68  S   UNL A   1      45.021  24.843  36.816  1.00  0.00     0.127 S 
ATOM     69  O   UNL A   1      44.708  23.788  35.853  1.00  0.00    -0.237 OA
ATOM     70  O   UNL A   1      46.339  24.728  37.440  1.00  0.00    -0.237 OA
ATOM     71  O   UNL A   1      43.944  25.186  37.735  1.00  0.00    -0.744 OA
ENDBRANCH  65  68
ENDBRANCH  38  61
ENDBRANCH  12  13
ENDBRANCH   5   7
ENDBRANCH   2   3
ENDBRANCH   1   2
BRANCH   1  72
ATOM     72  C   UNL A   1      32.149  28.907  27.416  1.00  0.00     0.023 C 
BRANCH  72  73
ATOM     73  C   UNL A   1      32.116  27.774  26.393  1.00  0.00     0.116 C 
BRANCH  73  74
ATOM     74  N   UNL A   1      31.064  26.826  26.699  1.00  0.00    -0.354 N 
ATOM     75  C   UNL A   1      30.215  26.142  25.871  1.00  0.00     0.247 C 
ATOM     76  H   UNL A   1      30.940  26.643  27.657  1.00  0.00     0.163 HD
ATOM     77  O   UNL A   1      29.240  25.592  26.397  1.00  0.00    -0.272 OA
BRANCH  75  78
ATOM     78  C   UNL A   1      30.355  26.173  24.304  1.00  0.00     0.211 C 
BRANCH  78  79
ATOM     79  C   UNL A   1      29.655  27.461  23.839  1.00  0.00    -0.016 A 
ATOM     80  C   UNL A   1      28.304  27.383  23.453  1.00  0.00     0.006 A 
ATOM     81  C   UNL A   1      30.252  28.733  23.884  1.00  0.00     0.006 A 
ATOM     82  C   UNL A   1      27.580  28.532  23.127  1.00  0.00     0.000 A 
ATOM     83  C   UNL A   1      29.526  29.881  23.561  1.00  0.00     0.000 A 
ATOM     84  C   UNL A   1      28.190  29.782  23.185  1.00  0.00     0.000 A 
ENDBRANCH  78  79
BRANCH  78  85
ATOM     85  N   UNL A   1      31.736  25.953  23.814  1.00  0.00    -0.276 N 
ATOM     86  C   UNL A   1      32.308  24.713  24.062  1.00  0.00     0.267 C 
ATOM     87  C   UNL A   1      32.344  26.586  22.753  1.00  0.00     0.149 C 
ATOM     88  O   UNL A   1      31.701  23.721  24.434  1.00  0.00    -0.268 OA
ATOM     89  C   UNL A   1      33.750  24.720  23.694  1.00  0.00     0.084 C 
ATOM     90  S   UNL A   1      34.029  26.064  22.653  1.00  0.00    -0.054 SA
ATOM     91  S   UNL A   1      31.708  27.636  21.623  1.00  0.00    -0.052 S 
ATOM     92  C   UNL A   1      34.726  23.901  24.107  1.00  0.00     0.068 C 
BRANCH  92  93
ATOM     93  C   UNL A   1      34.538  22.792  24.974  1.00  0.00     0.128 A 
ATOM     94  C   UNL A   1      34.428  22.748  26.359  1.00  0.00     0.051 A 
ATOM     95  O   UNL A   1      34.351  21.507  24.506  1.00  0.00    -0.457 OA
ATOM     96  C   UNL A   1      34.184  21.410  26.739  1.00  0.00     0.051 A 
ATOM     97  C   UNL A   1      34.138  20.683  25.573  1.00  0.00     0.134 A 
BRANCH  97  98
ATOM     98  C   UNL A   1      33.880  19.280  25.285  1.00  0.00     0.017 A 
ATOM     99  C   UNL A   1      34.732  18.534  24.459  1.00  0.00     0.015 A 
ATOM    100  C   UNL A   1      32.774  18.645  25.875  1.00  0.00     0.015 A 
ATOM    101  C   UNL A   1      34.492  17.173  24.239  1.00  0.00     0.040 A 
ATOM    102  C   UNL A   1      32.528  17.290  25.646  1.00  0.00     0.040 A 
ATOM    103  C   UNL A   1      33.392  16.566  24.835  1.00  0.00     0.123 A 
ATOM    104  F   UNL A   1      33.160  15.264  24.629  1.00  0.00    -0.207 F 
ENDBRANCH  97  98
ENDBRANCH  92  93
ENDBRANCH  78  85
ENDBRANCH  75  78
ENDBRANCH  73  74
ENDBRANCH  72  73
ENDBRANCH   1  72
TORSDOF 18
ENDMDL
MODEL 2
REMARK VINA RESULT:     -11.7      6.451     11.749
REMARK SMILES O=C(NCCCCNC(=O)[C@@H](c1ccccc1)N1C(=O)/C(=C\c2ccc(-c3ccc(F)cc3)o2)SC1=S)c1ccc(-c2c3nc(c(-c4cccc(S(=O)(=O)[O-])c4F)c4ccc([nH]4)c(-c4cccc(S(=O)(=O)[O-])c4F)c4nc(c(-c5cccc(S(=O)(=O)[O-])c5F)c5ccc2[nH]5)C=C4)C=C3)cc1
REMARK SMILES IDX 5 1 4 2 3 3 1 4 2 5 38 7 39 8 100 9 40 10 99 11 41 12 42 13
REMARK SMILES IDX 43 14 93 15 44 16 98 17 92 18 94 19 45 20 97 21 91 22 90 23
REMARK SMILES IDX 46 25 78 26 58 27 77 28 59 29 62 30 76 31 95 32 60 33 61 34
REMARK SMILES IDX 75 36 96 37 63 38 47 39 48 40 56 41 49 42 51 43 57 44 50 45
REMARK SMILES IDX 52 46 53 47 54 48 55 49 79 50 80 51 88 52 81 53 83 54 89 55
REMARK SMILES IDX 82 56 84 57 85 58 86 59 87 60 64 61 65 62 73 63 66 64 68 65
REMARK SMILES IDX 74 66 67 67 69 68 70 69 71 70 72 71 6 72 7 73 8 74 9 75
REMARK SMILES IDX 10 77 11 78 12 79 13 80 17 81 14 82 16 83 15 84 18 85 19 86
REMARK SMILES IDX 36 87 20 88 21 89 35 90 37 91 22 92 23 93 24 94 34 95 25 96
REMARK SMILES IDX 26 97 27 98 28 99 33 100 29 101 32 102 30 103 31 104
REMARK H PARENT 3 6 94 24 62 35 8 76
REMARK Flexibility Score: inf
ROOT
ATOM      1  C   UNL A   1      38.988  21.969  25.964  1.00  0.00     0.023 C 
ENDROOT
BRANCH   1   2
ATOM      2  C   UNL A   1      40.010  21.370  26.919  1.00  0.00     0.116 C 
BRANCH   2   3
ATOM      3  N   UNL A   1      40.896  20.409  26.280  1.00  0.00    -0.352 N 
ATOM      4  O   UNL A   1      42.804  19.743  25.276  1.00  0.00    -0.269 OA
ATOM      5  C   UNL A   1      42.211  20.594  25.918  1.00  0.00     0.251 C 
ATOM      6  H   UNL A   1      40.511  19.525  26.086  1.00  0.00     0.163 HD
BRANCH   5   7
ATOM      7  C   UNL A   1      42.864  21.864  26.298  1.00  0.00     0.039 A 
ATOM      8  C   UNL A   1      42.890  22.930  25.393  1.00  0.00     0.014 A 
ATOM      9  C   UNL A   1      43.497  21.961  27.538  1.00  0.00     0.014 A 
ATOM     10  C   UNL A   1      43.647  24.057  25.684  1.00  0.00     0.010 A 
ATOM     11  C   UNL A   1      44.189  23.129  27.860  1.00  0.00     0.010 A 
ATOM     12  C   UNL A   1      44.280  24.178  26.931  1.00  0.00    -0.014 A 
BRANCH  12  13
ATOM     13  C   UNL A   1      44.901  25.469  27.305  1.00  0.00     0.031 A 
ATOM     14  C   UNL A   1      44.139  26.526  28.048  1.00  0.00     0.074 A 
ATOM     15  C   UNL A   1      46.170  25.685  26.907  1.00  0.00     0.049 A 
ATOM     16  N   UNL A   1      44.539  27.717  28.409  1.00  0.00    -0.248 NA
ATOM     17  C   UNL A   1      42.751  26.219  28.430  1.00  0.00     0.031 C 
ATOM     18  C   UNL A   1      46.978  24.739  26.128  1.00  0.00     0.029 A 
ATOM     19  N   UNL A   1      46.996  26.765  27.074  1.00  0.00    -0.354 N 
ATOM     20  C   UNL A   1      43.447  28.322  29.016  1.00  0.00     0.074 A 
ATOM     21  C   UNL A   1      42.364  27.361  28.989  1.00  0.00     0.031 C 
ATOM     22  C   UNL A   1      48.177  25.280  25.881  1.00  0.00     0.029 A 
ATOM     23  C   UNL A   1      48.205  26.629  26.431  1.00  0.00     0.049 A 
ATOM     24  H   UNL A   1      46.749  27.559  27.600  1.00  0.00     0.167 HD
ATOM     25  C   UNL A   1      43.365  29.563  29.552  1.00  0.00     0.034 A 
ATOM     26  C   UNL A   1      49.210  27.507  26.263  1.00  0.00     0.034 A 
ATOM     27  C   UNL A   1      44.467  30.487  29.612  1.00  0.00     0.049 A 
ATOM     28  C   UNL A   1      49.088  28.868  26.882  1.00  0.00     0.074 A 
ATOM     29  C   UNL A   1      44.522  31.717  30.245  1.00  0.00     0.029 A 
ATOM     30  N   UNL A   1      45.694  30.299  28.996  1.00  0.00    -0.354 N 
ATOM     31  N   UNL A   1      48.113  29.353  27.612  1.00  0.00    -0.248 NA
ATOM     32  C   UNL A   1      50.207  29.794  26.674  1.00  0.00     0.031 C 
ATOM     33  C   UNL A   1      45.772  32.287  29.985  1.00  0.00     0.029 A 
ATOM     34  C   UNL A   1      46.502  31.405  29.204  1.00  0.00     0.049 A 
ATOM     35  H   UNL A   1      45.955  29.498  28.487  1.00  0.00     0.167 HD
ATOM     36  C   UNL A   1      48.504  30.639  27.958  1.00  0.00     0.074 A 
ATOM     37  C   UNL A   1      49.822  30.842  27.390  1.00  0.00     0.031 C 
ATOM     38  C   UNL A   1      47.824  31.576  28.660  1.00  0.00     0.034 A 
BRANCH  25  39
ATOM     39  C   UNL A   1      42.058  30.004  30.156  1.00  0.00     0.023 A 
ATOM     40  C   UNL A   1      41.090  30.626  29.344  1.00  0.00     0.012 A 
ATOM     41  C   UNL A   1      41.742  29.685  31.493  1.00  0.00     0.148 A 
ATOM     42  C   UNL A   1      39.829  30.931  29.854  1.00  0.00     0.002 A 
ATOM     43  C   UNL A   1      40.472  29.962  31.984  1.00  0.00     0.091 A 
ATOM     44  F   UNL A   1      42.685  29.109  32.251  1.00  0.00    -0.205 F 
ATOM     45  C   UNL A   1      39.515  30.589  31.166  1.00  0.00     0.022 A 
BRANCH  43  46
ATOM     46  S   UNL A   1      39.944  29.498  33.638  1.00  0.00     0.127 S 
ATOM     47  O   UNL A   1      38.691  30.241  33.765  1.00  0.00    -0.237 OA
ATOM     48  O   UNL A   1      39.785  28.049  33.515  1.00  0.00    -0.237 OA
ATOM     49  O   UNL A   1      41.012  29.920  34.534  1.00  0.00    -0.744 OA
ENDBRANCH  43  46
ENDBRANCH  25  39
BRANCH  26  50
ATOM     50  C   UNL A   1      50.410  27.112  25.475  1.00  0.00     0.023 A 
ATOM     51  C   UNL A   1      51.451  26.404  26.102  1.00  0.00     0.012 A 
ATOM     52  C   UNL A   1      50.498  27.389  24.097  1.00  0.00     0.148 A 
ATOM     53  C   UNL A   1      52.571  26.000  25.374  1.00  0.00     0.002 A 
ATOM     54  C   UNL A   1      51.586  26.931  23.366  1.00  0.00     0.091 A 
ATOM     55  F   UNL A   1      49.506  28.083  23.520  1.00  0.00    -0.205 F 
ATOM     56  C   UNL A   1      52.632  26.250  24.004  1.00  0.00     0.022 A 
BRANCH  54  57
ATOM     57  S   UNL A   1      51.648  27.083  21.577  1.00  0.00     0.127 S 
ATOM     58  O   UNL A   1      51.840  28.519  21.404  1.00  0.00    -0.237 OA
ATOM     59  O   UNL A   1      52.810  26.261  21.233  1.00  0.00    -0.237 OA
ATOM     60  O   UNL A   1      50.380  26.540  21.106  1.00  0.00    -0.744 OA
ENDBRANCH  54  57
ENDBRANCH  26  50
BRANCH  38  61
ATOM     61  C   UNL A   1      48.488  32.912  28.847  1.00  0.00     0.023 A 
ATOM     62  C   UNL A   1      49.352  33.103  29.942  1.00  0.00     0.012 A 
ATOM     63  C   UNL A   1      48.313  33.948  27.911  1.00  0.00     0.148 A 
ATOM     64  C   UNL A   1      50.014  34.318  30.119  1.00  0.00     0.002 A 
ATOM     65  C   UNL A   1      49.010  35.140  28.068  1.00  0.00     0.091 A 
ATOM     66  F   UNL A   1      47.471  33.749  26.886  1.00  0.00    -0.205 F 
ATOM     67  C   UNL A   1      49.852  35.330  29.177  1.00  0.00     0.022 A 
BRANCH  65  68
ATOM     68  S   UNL A   1      48.934  36.468  26.861  1.00  0.00     0.127 S 
ATOM     69  O   UNL A   1      49.733  37.506  27.510  1.00  0.00    -0.237 OA
ATOM     70  O   UNL A   1      49.561  35.859  25.689  1.00  0.00    -0.237 OA
ATOM     71  O   UNL A   1      47.521  36.782  26.697  1.00  0.00    -0.744 OA
ENDBRANCH  65  68
ENDBRANCH  38  61
ENDBRANCH  12  13
ENDBRANCH   5   7
ENDBRANCH   2   3
ENDBRANCH   1   2
BRANCH   1  72
ATOM     72  C   UNL A   1      38.464  23.340  26.382  1.00  0.00     0.023 C 
BRANCH  72  73
ATOM     73  C   UNL A   1      37.219  23.793  25.622  1.00  0.00     0.116 C 
BRANCH  73  74
ATOM     74  N   UNL A   1      36.024  23.599  26.417  1.00  0.00    -0.354 N 
ATOM     75  C   UNL A   1      34.734  23.343  26.036  1.00  0.00     0.247 C 
ATOM     76  H   UNL A   1      36.161  23.662  27.389  1.00  0.00     0.163 HD
ATOM     77  O   UNL A   1      33.857  23.477  26.898  1.00  0.00    -0.272 OA
BRANCH  75  78
ATOM     78  C   UNL A   1      34.337  23.049  24.542  1.00  0.00     0.211 C 
BRANCH  78  79
ATOM     79  C   UNL A   1      33.939  21.564  24.491  1.00  0.00    -0.016 A 
ATOM     80  C   UNL A   1      34.951  20.598  24.637  1.00  0.00     0.006 A 
ATOM     81  C   UNL A   1      32.608  21.116  24.421  1.00  0.00     0.006 A 
ATOM     82  C   UNL A   1      34.643  19.237  24.710  1.00  0.00     0.000 A 
ATOM     83  C   UNL A   1      32.302  19.755  24.498  1.00  0.00     0.000 A 
ATOM     84  C   UNL A   1      33.318  18.817  24.645  1.00  0.00     0.000 A 
ENDBRANCH  78  79
BRANCH  78  85
ATOM     85  N   UNL A   1      33.370  24.016  23.970  1.00  0.00    -0.276 N 
ATOM     86  C   UNL A   1      33.317  25.277  24.548  1.00  0.00     0.267 C 
ATOM     87  C   UNL A   1      32.883  24.029  22.683  1.00  0.00     0.149 C 
ATOM     88  O   UNL A   1      34.146  25.732  25.319  1.00  0.00    -0.268 OA
ATOM     89  C   UNL A   1      32.169  26.053  24.003  1.00  0.00     0.084 C 
ATOM     90  S   UNL A   1      31.668  25.303  22.535  1.00  0.00    -0.054 SA
ATOM     91  S   UNL A   1      33.319  23.110  21.361  1.00  0.00    -0.052 S 
ATOM     92  C   UNL A   1      31.546  27.114  24.532  1.00  0.00     0.068 C 
BRANCH  92  93
ATOM     93  C   UNL A   1      31.921  27.750  25.745  1.00  0.00     0.128 A 
ATOM     94  C   UNL A   1      31.435  27.573  27.035  1.00  0.00     0.051 A 
ATOM     95  O   UNL A   1      32.961  28.655  25.818  1.00  0.00    -0.457 OA
ATOM     96  C   UNL A   1      32.184  28.398  27.904  1.00  0.00     0.051 A 
ATOM     97  C   UNL A   1      33.113  29.039  27.118  1.00  0.00     0.134 A 
BRANCH  97  98
ATOM     98  C   UNL A   1      34.192  29.969  27.414  1.00  0.00     0.017 A 
ATOM     99  C   UNL A   1      33.945  31.336  27.612  1.00  0.00     0.015 A 
ATOM    100  C   UNL A   1      35.506  29.489  27.539  1.00  0.00     0.015 A 
ATOM    101  C   UNL A   1      34.991  32.202  27.946  1.00  0.00     0.040 A 
ATOM    102  C   UNL A   1      36.552  30.356  27.860  1.00  0.00     0.040 A 
ATOM    103  C   UNL A   1      36.284  31.703  28.067  1.00  0.00     0.123 A 
ATOM    104  F   UNL A   1      37.287  32.528  28.388  1.00  0.00    -0.207 F 
ENDBRANCH  97  98
ENDBRANCH  92  93
ENDBRANCH  78  85
ENDBRANCH  75  78
ENDBRANCH  73  74
ENDBRANCH  72  73
ENDBRANCH   1  72
TORSDOF 18
ENDMDL
MODEL 3
REMARK VINA RESULT:     -11.6      2.506      7.499
REMARK SMILES O=C(NCCCCNC(=O)[C@@H](c1ccccc1)N1C(=O)/C(=C\c2ccc(-c3ccc(F)cc3)o2)SC1=S)c1ccc(-c2c3nc(c(-c4cccc(S(=O)(=O)[O-])c4F)c4ccc([nH]4)c(-c4cccc(S(=O)(=O)[O-])c4F)c4nc(c(-c5cccc(S(=O)(=O)[O-])c5F)c5ccc2[nH]5)C=C4)C=C3)cc1
REMARK SMILES IDX 5 1 4 2 3 3 1 4 2 5 38 7 39 8 100 9 40 10 99 11 41 12 42 13
REMARK SMILES IDX 43 14 93 15 44 16 98 17 92 18 94 19 45 20 97 21 91 22 90 23
REMARK SMILES IDX 46 25 78 26 58 27 77 28 59 29 62 30 76 31 95 32 60 33 61 34
REMARK SMILES IDX 75 36 96 37 63 38 47 39 48 40 56 41 49 42 51 43 57 44 50 45
REMARK SMILES IDX 52 46 53 47 54 48 55 49 79 50 80 51 88 52 81 53 83 54 89 55
REMARK SMILES IDX 82 56 84 57 85 58 86 59 87 60 64 61 65 62 73 63 66 64 68 65
REMARK SMILES IDX 74 66 67 67 69 68 70 69 71 70 72 71 6 72 7 73 8 74 9 75
REMARK SMILES IDX 10 77 11 78 12 79 13 80 17 81 14 82 16 83 15 84 18 85 19 86
REMARK SMILES IDX 36 87 20 88 21 89 35 90 37 91 22 92 23 93 24 94 34 95 25 96
REMARK SMILES IDX 26 97 27 98 28 99 33 100 29 101 32 102 30 103 31 104
REMARK H PARENT 3 6 94 24 62 35 8 76
REMARK Flexibility Score: inf
ROOT
ATOM      1  C   UNL A   1      33.017  29.768  26.637  1.00  0.00     0.023 C 
ENDROOT
BRANCH   1   2
ATOM      2  C   UNL A   1      34.224  30.327  27.377  1.00  0.00     0.116 C 
BRANCH   2   3
ATOM      3  N   UNL A   1      33.994  31.654  27.928  1.00  0.00    -0.352 N 
ATOM      4  O   UNL A   1      34.362  33.368  29.349  1.00  0.00    -0.269 OA
ATOM      5  C   UNL A   1      34.739  32.304  28.886  1.00  0.00     0.251 C 
ATOM      6  H   UNL A   1      33.217  32.143  27.574  1.00  0.00     0.163 HD
BRANCH   5   7
ATOM      7  C   UNL A   1      35.980  31.656  29.358  1.00  0.00     0.039 A 
ATOM      8  C   UNL A   1      35.908  30.579  30.248  1.00  0.00     0.014 A 
ATOM      9  C   UNL A   1      37.213  32.167  28.951  1.00  0.00     0.014 A 
ATOM     10  C   UNL A   1      37.071  30.083  30.819  1.00  0.00     0.010 A 
ATOM     11  C   UNL A   1      38.385  31.612  29.466  1.00  0.00     0.010 A 
ATOM     12  C   UNL A   1      38.321  30.577  30.413  1.00  0.00    -0.014 A 
BRANCH  12  13
ATOM     13  C   UNL A   1      39.553  29.894  30.872  1.00  0.00     0.031 A 
ATOM     14  C   UNL A   1      40.279  30.327  32.111  1.00  0.00     0.074 A 
ATOM     15  C   UNL A   1      40.031  28.895  30.105  1.00  0.00     0.049 A 
ATOM     16  N   UNL A   1      41.387  29.850  32.614  1.00  0.00    -0.248 NA
ATOM     17  C   UNL A   1      39.701  31.439  32.883  1.00  0.00     0.031 C 
ATOM     18  C   UNL A   1      39.426  28.438  28.849  1.00  0.00     0.029 A 
ATOM     19  N   UNL A   1      41.139  28.102  30.246  1.00  0.00    -0.354 N 
ATOM     20  C   UNL A   1      41.669  30.627  33.730  1.00  0.00     0.074 A 
ATOM     21  C   UNL A   1      40.606  31.603  33.842  1.00  0.00     0.031 C 
ATOM     22  C   UNL A   1      40.170  27.451  28.333  1.00  0.00     0.029 A 
ATOM     23  C   UNL A   1      41.332  27.245  29.186  1.00  0.00     0.049 A 
ATOM     24  H   UNL A   1      41.737  28.140  31.026  1.00  0.00     0.167 HD
ATOM     25  C   UNL A   1      42.716  30.523  34.582  1.00  0.00     0.034 A 
ATOM     26  C   UNL A   1      42.353  26.415  28.907  1.00  0.00     0.034 A 
ATOM     27  C   UNL A   1      43.739  29.515  34.481  1.00  0.00     0.049 A 
ATOM     28  C   UNL A   1      43.489  26.319  29.882  1.00  0.00     0.074 A 
ATOM     29  C   UNL A   1      44.769  29.247  35.365  1.00  0.00     0.029 A 
ATOM     30  N   UNL A   1      43.877  28.629  33.424  1.00  0.00    -0.354 N 
ATOM     31  N   UNL A   1      43.641  26.935  31.029  1.00  0.00    -0.248 NA
ATOM     32  C   UNL A   1      44.582  25.401  29.538  1.00  0.00     0.031 C 
ATOM     33  C   UNL A   1      45.551  28.220  34.827  1.00  0.00     0.029 A 
ATOM     34  C   UNL A   1      44.998  27.837  33.616  1.00  0.00     0.049 A 
ATOM     35  H   UNL A   1      43.270  28.571  32.652  1.00  0.00     0.167 HD
ATOM     36  C   UNL A   1      44.843  26.476  31.549  1.00  0.00     0.074 A 
ATOM     37  C   UNL A   1      45.358  25.499  30.609  1.00  0.00     0.031 C 
ATOM     38  C   UNL A   1      45.477  26.846  32.687  1.00  0.00     0.034 A 
BRANCH  25  39
ATOM     39  C   UNL A   1      42.811  31.493  35.729  1.00  0.00     0.023 A 
ATOM     40  C   UNL A   1      42.303  31.131  36.992  1.00  0.00     0.012 A 
ATOM     41  C   UNL A   1      43.516  32.706  35.587  1.00  0.00     0.148 A 
ATOM     42  C   UNL A   1      42.489  31.963  38.095  1.00  0.00     0.002 A 
ATOM     43  C   UNL A   1      43.726  33.514  36.698  1.00  0.00     0.091 A 
ATOM     44  F   UNL A   1      43.975  33.037  34.372  1.00  0.00    -0.205 F 
ATOM     45  C   UNL A   1      43.209  33.146  37.952  1.00  0.00     0.022 A 
BRANCH  43  46
ATOM     46  S   UNL A   1      44.701  35.022  36.635  1.00  0.00     0.127 S 
ATOM     47  O   UNL A   1      45.982  34.523  36.135  1.00  0.00    -0.237 OA
ATOM     48  O   UNL A   1      43.949  35.835  35.680  1.00  0.00    -0.237 OA
ATOM     49  O   UNL A   1      44.724  35.544  37.994  1.00  0.00    -0.744 OA
ENDBRANCH  43  46
ENDBRANCH  25  39
BRANCH  26  50
ATOM     50  C   UNL A   1      42.332  25.617  27.651  1.00  0.00     0.023 A 
ATOM     51  C   UNL A   1      42.823  26.182  26.460  1.00  0.00     0.012 A 
ATOM     52  C   UNL A   1      41.878  24.284  27.644  1.00  0.00     0.148 A 
ATOM     53  C   UNL A   1      42.838  25.440  25.278  1.00  0.00     0.002 A 
ATOM     54  C   UNL A   1      41.953  23.532  26.479  1.00  0.00     0.091 A 
ATOM     55  F   UNL A   1      41.394  23.768  28.783  1.00  0.00    -0.205 F 
ATOM     56  C   UNL A   1      42.417  24.112  25.290  1.00  0.00     0.022 A 
BRANCH  54  57
ATOM     57  S   UNL A   1      41.574  21.776  26.468  1.00  0.00     0.127 S 
ATOM     58  O   UNL A   1      42.358  21.306  25.330  1.00  0.00    -0.237 OA
ATOM     59  O   UNL A   1      42.065  21.342  27.777  1.00  0.00    -0.237 OA
ATOM     60  O   UNL A   1      40.124  21.702  26.327  1.00  0.00    -0.744 OA
ENDBRANCH  54  57
ENDBRANCH  26  50
BRANCH  38  61
ATOM     61  C   UNL A   1      46.803  26.200  32.978  1.00  0.00     0.023 A 
ATOM     62  C   UNL A   1      47.978  26.779  32.460  1.00  0.00     0.012 A 
ATOM     63  C   UNL A   1      46.894  25.070  33.811  1.00  0.00     0.148 A 
ATOM     64  C   UNL A   1      49.225  26.226  32.746  1.00  0.00     0.002 A 
ATOM     65  C   UNL A   1      48.142  24.551  34.129  1.00  0.00     0.091 A 
ATOM     66  F   UNL A   1      45.759  24.526  34.277  1.00  0.00    -0.205 F 
ATOM     67  C   UNL A   1      49.308  25.120  33.589  1.00  0.00     0.022 A 
BRANCH  65  68
ATOM     68  S   UNL A   1      48.356  23.185  35.276  1.00  0.00     0.127 S 
ATOM     69  O   UNL A   1      47.670  23.685  36.467  1.00  0.00    -0.237 OA
ATOM     70  O   UNL A   1      47.667  22.092  34.589  1.00  0.00    -0.237 OA
ATOM     71  O   UNL A   1      49.795  22.999  35.417  1.00  0.00    -0.744 OA
ENDBRANCH  65  68
ENDBRANCH  38  61
ENDBRANCH  12  13
ENDBRANCH   5   7
ENDBRANCH   2   3
ENDBRANCH   1   2
BRANCH   1  72
ATOM     72  C   UNL A   1      32.374  28.558  27.308  1.00  0.00     0.023 C 
BRANCH  72  73
ATOM     73  C   UNL A   1      32.425  27.280  26.474  1.00  0.00     0.116 C 
BRANCH  73  74
ATOM     74  N   UNL A   1      31.306  26.412  26.779  1.00  0.00    -0.354 N 
ATOM     75  C   UNL A   1      30.353  25.868  25.960  1.00  0.00     0.247 C 
ATOM     76  H   UNL A   1      31.216  26.175  27.730  1.00  0.00     0.163 HD
ATOM     77  O   UNL A   1      29.360  25.374  26.507  1.00  0.00    -0.272 OA
BRANCH  75  78
ATOM     78  C   UNL A   1      30.412  25.996  24.393  1.00  0.00     0.211 C 
BRANCH  78  79
ATOM     79  C   UNL A   1      29.710  27.320  24.047  1.00  0.00    -0.016 A 
ATOM     80  C   UNL A   1      30.436  28.517  24.190  1.00  0.00     0.006 A 
ATOM     81  C   UNL A   1      28.422  27.395  23.488  1.00  0.00     0.006 A 
ATOM     82  C   UNL A   1      29.894  29.740  23.789  1.00  0.00     0.000 A 
ATOM     83  C   UNL A   1      27.883  28.620  23.085  1.00  0.00     0.000 A 
ATOM     84  C   UNL A   1      28.620  29.791  23.232  1.00  0.00     0.000 A 
ENDBRANCH  78  79
BRANCH  78  85
ATOM     85  N   UNL A   1      31.762  25.790  23.818  1.00  0.00    -0.276 N 
ATOM     86  C   UNL A   1      32.369  24.562  24.047  1.00  0.00     0.267 C 
ATOM     87  C   UNL A   1      32.290  26.416  22.712  1.00  0.00     0.149 C 
ATOM     88  O   UNL A   1      31.803  23.567  24.471  1.00  0.00    -0.268 OA
ATOM     89  C   UNL A   1      33.784  24.586  23.587  1.00  0.00     0.084 C 
ATOM     90  S   UNL A   1      33.973  25.918  22.510  1.00  0.00    -0.054 SA
ATOM     91  S   UNL A   1      31.566  27.439  21.610  1.00  0.00    -0.052 S 
ATOM     92  C   UNL A   1      34.798  23.788  23.947  1.00  0.00     0.068 C 
BRANCH  92  93
ATOM     93  C   UNL A   1      34.684  22.689  24.840  1.00  0.00     0.128 A 
ATOM     94  C   UNL A   1      34.757  22.654  26.228  1.00  0.00     0.051 A 
ATOM     95  O   UNL A   1      34.386  21.412  24.411  1.00  0.00    -0.457 OA
ATOM     96  C   UNL A   1      34.515  21.327  26.647  1.00  0.00     0.051 A 
ATOM     97  C   UNL A   1      34.285  20.599  25.503  1.00  0.00     0.134 A 
BRANCH  97  98
ATOM     98  C   UNL A   1      33.936  19.207  25.264  1.00  0.00     0.017 A 
ATOM     99  C   UNL A   1      32.750  18.654  25.767  1.00  0.00     0.015 A 
ATOM    100  C   UNL A   1      34.784  18.405  24.482  1.00  0.00     0.015 A 
ATOM    101  C   UNL A   1      32.410  17.328  25.480  1.00  0.00     0.040 A 
ATOM    102  C   UNL A   1      34.451  17.078  24.207  1.00  0.00     0.040 A 
ATOM    103  C   UNL A   1      33.264  16.554  24.702  1.00  0.00     0.123 A 
ATOM    104  F   UNL A   1      32.942  15.285  24.424  1.00  0.00    -0.207 F 
ENDBRANCH  97  98
ENDBRANCH  92  93
ENDBRANCH  78  85
ENDBRANCH  75  78
ENDBRANCH  73  74
ENDBRANCH  72  73
ENDBRANCH   1  72
TORSDOF 18
ENDMDL
