MODEL 1
REMARK VINA RESULT:     -12.2      0.000      0.000
REMARK SMILES COc1ccc2c(c1)c(CC(=O)NCCCCNC(=O)c1ccc(-c3c4nc(c(-c5cccc(S(=O)(=O)[O-])c5F)c5ccc([nH]5)c(-c5cccc(S(=O)(=O)[O-])c5F)c5nc(c(-c6cccc(S(=O)(=O)[O-])c6F)c6ccc3[nH]6)C=C5)C=C4)cc1)c(C(F)(F)F)n2C(=O)c1ccc(Cl)cc1
REMARK SMILES IDX 15 1 14 2 13 3 11 4 12 5 10 7 9 8 3 9 4 10 8 11 5 12 7 13
REMARK SMILES IDX 6 14 89 15 84 16 2 17 1 18 90 19 91 20 92 21 93 22 98 23
REMARK SMILES IDX 94 24 97 25 95 26 96 27 85 28 86 29 87 30 88 31 16 32 17 33
REMARK SMILES IDX 18 34 19 35 20 37 21 38 22 39 83 40 23 41 82 42 24 43 25 44
REMARK SMILES IDX 26 45 76 46 27 47 81 48 75 49 77 50 28 51 80 52 74 53 73 54
REMARK SMILES IDX 29 56 61 57 41 58 60 59 42 60 45 61 59 62 78 63 43 64 44 65
REMARK SMILES IDX 58 67 79 68 46 69 30 70 31 71 39 72 32 73 34 74 40 75 33 76
REMARK SMILES IDX 35 77 36 78 37 79 38 80 62 81 63 82 71 83 64 84 66 85 72 86
REMARK SMILES IDX 65 87 67 88 68 89 69 90 70 91 47 92 48 93 56 94 49 95 51 96
REMARK SMILES IDX 57 97 50 98 52 99 53 100 54 101 55 102
REMARK H PARENT 13 6 18 36 77 55 45 66
REMARK Flexibility Score: inf
ROOT
ATOM      1  C   UNL A   1      35.767  31.391  27.938  1.00  0.00     0.023 C 
ENDROOT
BRANCH   1   2
ATOM      2  C   UNL A   1      35.268  29.990  27.588  1.00  0.00     0.116 C 
BRANCH   2   3
ATOM      3  N   UNL A   1      33.860  29.820  27.879  1.00  0.00    -0.356 N 
ATOM      4  C   UNL A   1      32.820  29.732  26.997  1.00  0.00     0.224 C 
ATOM      5  O   UNL A   1      31.685  29.535  27.437  1.00  0.00    -0.275 OA
ATOM      6  H   UNL A   1      33.621  29.760  28.833  1.00  0.00     0.163 HD
BRANCH   4   7
ATOM      7  C   UNL A   1      33.087  29.818  25.501  1.00  0.00     0.138 C 
BRANCH   7   8
ATOM      8  C   UNL A   1      32.234  28.882  24.684  1.00  0.00     0.000 A 
ATOM      9  C   UNL A   1      28.930  30.363  23.493  1.00  0.00     0.119 A 
ATOM     10  C   UNL A   1      28.472  29.221  22.858  1.00  0.00     0.048 A 
ATOM     11  C   UNL A   1      30.185  30.365  24.100  1.00  0.00     0.057 A 
ATOM     12  C   UNL A   1      29.241  28.053  22.845  1.00  0.00     0.031 A 
ATOM     13  C   UNL A   1      30.980  29.197  24.097  1.00  0.00     0.008 A 
ATOM     14  C   UNL A   1      30.519  28.053  23.439  1.00  0.00     0.057 A 
ATOM     15  N   UNL A   1      31.551  27.101  23.471  1.00  0.00    -0.271 N 
ATOM     16  C   UNL A   1      32.481  27.535  24.419  1.00  0.00     0.135 A 
BRANCH   9  17
ATOM     17  O   UNL A   1      28.235  31.540  23.550  1.00  0.00    -0.497 OA
ATOM     18  C   UNL A   1      28.676  32.519  22.614  1.00  0.00     0.278 C 
ENDBRANCH   9  17
BRANCH  15  19
ATOM     19  C   UNL A   1      31.660  25.929  22.667  1.00  0.00     0.262 C 
ATOM     20  O   UNL A   1      31.710  26.062  21.457  1.00  0.00    -0.268 OA
BRANCH  19  21
ATOM     21  C   UNL A   1      31.694  24.548  23.191  1.00  0.00     0.040 A 
ATOM     22  C   UNL A   1      30.882  24.175  24.269  1.00  0.00     0.015 A 
ATOM     23  C   UNL A   1      32.595  23.640  22.626  1.00  0.00     0.015 A 
ATOM     24  C   UNL A   1      31.044  22.909  24.841  1.00  0.00     0.021 A 
ATOM     25  C   UNL A   1      32.743  22.372  23.195  1.00  0.00     0.021 A 
ATOM     26  C   UNL A   1      31.983  22.022  24.313  1.00  0.00     0.041 A 
ATOM     27  Cl  UNL A   1      32.234  20.493  25.062  1.00  0.00    -0.084 Cl
ENDBRANCH  19  21
ENDBRANCH  15  19
BRANCH  16  28
ATOM     28  C   UNL A   1      33.569  26.675  24.972  1.00  0.00     0.432 C 
ATOM     29  F   UNL A   1      34.334  26.127  23.997  1.00  0.00    -0.165 F 
ATOM     30  F   UNL A   1      34.418  27.438  25.723  1.00  0.00    -0.165 F 
ATOM     31  F   UNL A   1      33.158  25.697  25.809  1.00  0.00    -0.165 F 
ENDBRANCH  16  28
ENDBRANCH   7   8
ENDBRANCH   4   7
ENDBRANCH   2   3
ENDBRANCH   1   2
BRANCH   1  32
ATOM     32  C   UNL A   1      34.678  32.472  27.909  1.00  0.00     0.023 C 
BRANCH  32  33
ATOM     33  C   UNL A   1      34.866  33.571  28.957  1.00  0.00     0.116 C 
BRANCH  33  34
ATOM     34  N   UNL A   1      34.330  33.222  30.256  1.00  0.00    -0.352 N 
ATOM     35  C   UNL A   1      34.846  32.656  31.388  1.00  0.00     0.251 C 
ATOM     36  H   UNL A   1      33.374  33.443  30.345  1.00  0.00     0.163 HD
ATOM     37  O   UNL A   1      34.102  32.652  32.372  1.00  0.00    -0.269 OA
BRANCH  35  38
ATOM     38  C   UNL A   1      36.173  31.994  31.479  1.00  0.00     0.039 A 
ATOM     39  C   UNL A   1      37.405  32.646  31.425  1.00  0.00     0.014 A 
ATOM     40  C   UNL A   1      36.154  30.587  31.543  1.00  0.00     0.014 A 
ATOM     41  C   UNL A   1      38.578  31.921  31.318  1.00  0.00     0.010 A 
ATOM     42  C   UNL A   1      37.327  29.853  31.455  1.00  0.00     0.010 A 
ATOM     43  C   UNL A   1      38.528  30.529  31.283  1.00  0.00    -0.014 A 
BRANCH  43  44
ATOM     44  C   UNL A   1      39.792  29.828  31.152  1.00  0.00     0.031 A 
ATOM     45  C   UNL A   1      40.593  29.770  32.407  1.00  0.00     0.074 A 
ATOM     46  C   UNL A   1      40.161  29.226  30.005  1.00  0.00     0.049 A 
ATOM     47  N   UNL A   1      41.764  30.275  32.629  1.00  0.00    -0.248 NA
ATOM     48  C   UNL A   1      39.943  29.211  33.604  1.00  0.00     0.031 C 
ATOM     49  C   UNL A   1      39.349  29.004  28.804  1.00  0.00     0.029 A 
ATOM     50  N   UNL A   1      41.307  28.549  29.728  1.00  0.00    -0.354 N 
ATOM     51  C   UNL A   1      42.087  29.907  33.934  1.00  0.00     0.074 A 
ATOM     52  C   UNL A   1      40.878  29.404  34.534  1.00  0.00     0.031 C 
ATOM     53  C   UNL A   1      39.917  28.025  28.067  1.00  0.00     0.029 A 
ATOM     54  C   UNL A   1      41.179  27.648  28.677  1.00  0.00     0.049 A 
ATOM     55  H   UNL A   1      42.146  28.685  30.225  1.00  0.00     0.167 HD
ATOM     56  C   UNL A   1      43.374  29.827  34.367  1.00  0.00     0.034 A 
ATOM     57  C   UNL A   1      41.999  26.597  28.422  1.00  0.00     0.034 A 
ATOM     58  C   UNL A   1      44.284  30.521  33.504  1.00  0.00     0.049 A 
ATOM     59  C   UNL A   1      43.292  26.891  29.090  1.00  0.00     0.074 A 
ATOM     60  C   UNL A   1      44.426  31.833  33.098  1.00  0.00     0.029 A 
ATOM     61  N   UNL A   1      44.997  29.765  32.605  1.00  0.00    -0.354 N 
ATOM     62  N   UNL A   1      44.061  27.892  28.757  1.00  0.00    -0.248 NA
ATOM     63  C   UNL A   1      43.505  26.349  30.423  1.00  0.00     0.031 C 
ATOM     64  C   UNL A   1      44.782  31.748  31.722  1.00  0.00     0.029 A 
ATOM     65  C   UNL A   1      44.899  30.395  31.393  1.00  0.00     0.049 A 
ATOM     66  H   UNL A   1      45.484  28.931  32.796  1.00  0.00     0.167 HD
ATOM     67  C   UNL A   1      44.526  28.385  29.969  1.00  0.00     0.074 A 
ATOM     68  C   UNL A   1      44.225  27.344  30.949  1.00  0.00     0.031 C 
ATOM     69  C   UNL A   1      44.840  29.704  30.126  1.00  0.00     0.034 A 
BRANCH  56  70
ATOM     70  C   UNL A   1      43.852  28.831  35.387  1.00  0.00     0.023 A 
ATOM     71  C   UNL A   1      44.639  29.294  36.462  1.00  0.00     0.012 A 
ATOM     72  C   UNL A   1      43.785  27.433  35.186  1.00  0.00     0.148 A 
ATOM     73  C   UNL A   1      45.332  28.405  37.291  1.00  0.00     0.002 A 
ATOM     74  C   UNL A   1      44.413  26.552  36.055  1.00  0.00     0.091 A 
ATOM     75  F   UNL A   1      43.222  26.952  34.071  1.00  0.00    -0.205 F 
ATOM     76  C   UNL A   1      45.208  27.033  37.097  1.00  0.00     0.022 A 
BRANCH  74  77
ATOM     77  S   UNL A   1      44.261  24.773  35.862  1.00  0.00     0.127 S 
ATOM     78  O   UNL A   1      44.954  24.290  37.052  1.00  0.00    -0.237 OA
ATOM     79  O   UNL A   1      42.808  24.596  35.872  1.00  0.00    -0.237 OA
ATOM     80  O   UNL A   1      44.890  24.468  34.583  1.00  0.00    -0.744 OA
ENDBRANCH  74  77
ENDBRANCH  56  70
BRANCH  57  81
ATOM     81  C   UNL A   1      41.630  25.232  27.959  1.00  0.00     0.023 A 
ATOM     82  C   UNL A   1      40.290  24.801  28.053  1.00  0.00     0.012 A 
ATOM     83  C   UNL A   1      42.516  24.444  27.188  1.00  0.00     0.148 A 
ATOM     84  C   UNL A   1      39.847  23.651  27.383  1.00  0.00     0.002 A 
ATOM     85  C   UNL A   1      42.079  23.288  26.547  1.00  0.00     0.091 A 
ATOM     86  F   UNL A   1      43.768  24.874  26.991  1.00  0.00    -0.205 F 
ATOM     87  C   UNL A   1      40.740  22.896  26.628  1.00  0.00     0.022 A 
BRANCH  85  88
ATOM     88  S   UNL A   1      43.196  22.266  25.575  1.00  0.00     0.127 S 
ATOM     89  O   UNL A   1      42.456  21.007  25.482  1.00  0.00    -0.237 OA
ATOM     90  O   UNL A   1      43.289  23.016  24.327  1.00  0.00    -0.237 OA
ATOM     91  O   UNL A   1      44.424  22.175  26.357  1.00  0.00    -0.744 OA
ENDBRANCH  85  88
ENDBRANCH  57  81
BRANCH  69  92
ATOM     92  C   UNL A   1      44.865  30.592  28.910  1.00  0.00     0.023 A 
ATOM     93  C   UNL A   1      43.707  31.254  28.448  1.00  0.00     0.012 A 
ATOM     94  C   UNL A   1      46.119  30.977  28.409  1.00  0.00     0.148 A 
ATOM     95  C   UNL A   1      43.803  32.290  27.514  1.00  0.00     0.002 A 
ATOM     96  C   UNL A   1      46.214  32.033  27.513  1.00  0.00     0.091 A 
ATOM     97  F   UNL A   1      47.205  30.345  28.879  1.00  0.00    -0.205 F 
ATOM     98  C   UNL A   1      45.058  32.691  27.061  1.00  0.00     0.022 A 
BRANCH  96  99
ATOM     99  S   UNL A   1      47.798  32.691  26.990  1.00  0.00     0.127 S 
ATOM    100  O   UNL A   1      48.485  31.493  26.515  1.00  0.00    -0.237 OA
ATOM    101  O   UNL A   1      47.407  33.631  25.938  1.00  0.00    -0.237 OA
ATOM    102  O   UNL A   1      48.388  33.317  28.167  1.00  0.00    -0.744 OA
ENDBRANCH  96  99
ENDBRANCH  69  92
ENDBRANCH  43  44
ENDBRANCH  35  38
ENDBRANCH  33  34
ENDBRANCH  32  33
ENDBRANCH   1  32
TORSDOF 19
ENDMDL
MODEL 2
REMARK VINA RESULT:     -11.9      3.724      9.179
REMARK SMILES COc1ccc2c(c1)c(CC(=O)NCCCCNC(=O)c1ccc(-c3c4nc(c(-c5cccc(S(=O)(=O)[O-])c5F)c5ccc([nH]5)c(-c5cccc(S(=O)(=O)[O-])c5F)c5nc(c(-c6cccc(S(=O)(=O)[O-])c6F)c6ccc3[nH]6)C=C5)C=C4)cc1)c(C(F)(F)F)n2C(=O)c1ccc(Cl)cc1
REMARK SMILES IDX 15 1 14 2 13 3 11 4 12 5 10 7 9 8 3 9 4 10 8 11 5 12 7 13
REMARK SMILES IDX 6 14 89 15 84 16 2 17 1 18 90 19 91 20 92 21 93 22 98 23
REMARK SMILES IDX 94 24 97 25 95 26 96 27 85 28 86 29 87 30 88 31 16 32 17 33
REMARK SMILES IDX 18 34 19 35 20 37 21 38 22 39 83 40 23 41 82 42 24 43 25 44
REMARK SMILES IDX 26 45 76 46 27 47 81 48 75 49 77 50 28 51 80 52 74 53 73 54
REMARK SMILES IDX 29 56 61 57 41 58 60 59 42 60 45 61 59 62 78 63 43 64 44 65
REMARK SMILES IDX 58 67 79 68 46 69 30 70 31 71 39 72 32 73 34 74 40 75 33 76
REMARK SMILES IDX 35 77 36 78 37 79 38 80 62 81 63 82 71 83 64 84 66 85 72 86
REMARK SMILES IDX 65 87 67 88 68 89 69 90 70 91 47 92 48 93 56 94 49 95 51 96
REMARK SMILES IDX 57 97 50 98 52 99 53 100 54 101 55 102
REMARK H PARENT 13 6 18 36 77 55 45 66
REMARK Flexibility Score: inf
ROOT
ATOM      1  C   UNL A   1      40.065  21.372  26.821  1.00  0.00     0.023 C 
ENDROOT
BRANCH   1   2
ATOM      2  C   UNL A   1      39.120  22.539  26.539  1.00  0.00     0.116 C 
BRANCH   2   3
ATOM      3  N   UNL A   1      38.569  22.487  25.200  1.00  0.00    -0.356 N 
ATOM      4  C   UNL A   1      37.358  21.992  24.804  1.00  0.00     0.224 C 
ATOM      5  O   UNL A   1      37.041  22.084  23.616  1.00  0.00    -0.275 OA
ATOM      6  H   UNL A   1      39.137  22.857  24.486  1.00  0.00     0.163 HD
BRANCH   4   7
ATOM      7  C   UNL A   1      36.410  21.396  25.835  1.00  0.00     0.138 C 
BRANCH   7   8
ATOM      8  C   UNL A   1      34.967  21.412  25.402  1.00  0.00     0.000 A 
ATOM      9  C   UNL A   1      33.698  18.123  23.954  1.00  0.00     0.119 A 
ATOM     10  C   UNL A   1      32.419  18.568  23.664  1.00  0.00     0.048 A 
ATOM     11  C   UNL A   1      34.610  18.981  24.566  1.00  0.00     0.057 A 
ATOM     12  C   UNL A   1      32.038  19.883  23.949  1.00  0.00     0.031 A 
ATOM     13  C   UNL A   1      34.247  20.313  24.865  1.00  0.00     0.008 A 
ATOM     14  C   UNL A   1      32.948  20.751  24.586  1.00  0.00     0.057 A 
ATOM     15  N   UNL A   1      32.818  22.049  25.104  1.00  0.00    -0.271 N 
ATOM     16  C   UNL A   1      34.107  22.510  25.385  1.00  0.00     0.135 A 
BRANCH   9  17
ATOM     17  O   UNL A   1      34.144  16.854  23.703  1.00  0.00    -0.497 OA
ATOM     18  C   UNL A   1      34.458  16.109  24.875  1.00  0.00     0.278 C 
ENDBRANCH   9  17
BRANCH  15  19
ATOM     19  C   UNL A   1      31.605  22.759  25.341  1.00  0.00     0.262 C 
ATOM     20  O   UNL A   1      30.857  22.351  26.212  1.00  0.00    -0.268 OA
BRANCH  19  21
ATOM     21  C   UNL A   1      31.167  23.952  24.586  1.00  0.00     0.040 A 
ATOM     22  C   UNL A   1      31.519  24.114  23.242  1.00  0.00     0.015 A 
ATOM     23  C   UNL A   1      30.443  24.941  25.262  1.00  0.00     0.015 A 
ATOM     24  C   UNL A   1      31.222  25.319  22.597  1.00  0.00     0.021 A 
ATOM     25  C   UNL A   1      30.139  26.138  24.607  1.00  0.00     0.021 A 
ATOM     26  C   UNL A   1      30.549  26.329  23.286  1.00  0.00     0.041 A 
ATOM     27  Cl  UNL A   1      30.249  27.839  22.516  1.00  0.00    -0.084 Cl
ENDBRANCH  19  21
ENDBRANCH  15  19
BRANCH  16  28
ATOM     28  C   UNL A   1      34.436  23.939  25.669  1.00  0.00     0.432 C 
ATOM     29  F   UNL A   1      35.676  24.085  26.195  1.00  0.00    -0.165 F 
ATOM     30  F   UNL A   1      34.444  24.647  24.501  1.00  0.00    -0.165 F 
ATOM     31  F   UNL A   1      33.547  24.586  26.455  1.00  0.00    -0.165 F 
ENDBRANCH  16  28
ENDBRANCH   7   8
ENDBRANCH   4   7
ENDBRANCH   2   3
ENDBRANCH   1   2
BRANCH   1  32
ATOM     32  C   UNL A   1      41.038  21.617  27.982  1.00  0.00     0.023 C 
BRANCH  32  33
ATOM     33  C   UNL A   1      42.509  21.649  27.564  1.00  0.00     0.116 C 
BRANCH  33  34
ATOM     34  N   UNL A   1      42.730  22.315  26.297  1.00  0.00    -0.352 N 
ATOM     35  C   UNL A   1      42.821  23.621  25.901  1.00  0.00     0.251 C 
ATOM     36  H   UNL A   1      42.840  21.684  25.550  1.00  0.00     0.163 HD
ATOM     37  O   UNL A   1      43.173  23.803  24.732  1.00  0.00    -0.269 OA
BRANCH  35  38
ATOM     38  C   UNL A   1      42.455  24.791  26.739  1.00  0.00     0.039 A 
ATOM     39  C   UNL A   1      41.413  25.680  26.472  1.00  0.00     0.014 A 
ATOM     40  C   UNL A   1      43.295  25.044  27.841  1.00  0.00     0.014 A 
ATOM     41  C   UNL A   1      41.283  26.847  27.204  1.00  0.00     0.010 A 
ATOM     42  C   UNL A   1      43.160  26.202  28.590  1.00  0.00     0.010 A 
ATOM     43  C   UNL A   1      42.188  27.125  28.226  1.00  0.00    -0.014 A 
BRANCH  43  44
ATOM     44  C   UNL A   1      42.007  28.374  28.944  1.00  0.00     0.031 A 
ATOM     45  C   UNL A   1      42.943  29.458  28.530  1.00  0.00     0.074 A 
ATOM     46  C   UNL A   1      41.028  28.542  29.853  1.00  0.00     0.049 A 
ATOM     47  N   UNL A   1      43.841  30.053  29.248  1.00  0.00    -0.248 NA
ATOM     48  C   UNL A   1      42.982  29.814  27.102  1.00  0.00     0.031 C 
ATOM     49  C   UNL A   1      39.910  27.641  30.147  1.00  0.00     0.029 A 
ATOM     50  N   UNL A   1      40.745  29.638  30.607  1.00  0.00    -0.354 N 
ATOM     51  C   UNL A   1      44.410  31.012  28.412  1.00  0.00     0.074 A 
ATOM     52  C   UNL A   1      43.967  30.712  27.075  1.00  0.00     0.031 C 
ATOM     53  C   UNL A   1      38.944  28.337  30.787  1.00  0.00     0.029 A 
ATOM     54  C   UNL A   1      39.427  29.680  31.051  1.00  0.00     0.049 A 
ATOM     55  H   UNL A   1      41.409  30.334  30.817  1.00  0.00     0.167 HD
ATOM     56  C   UNL A   1      45.025  32.124  28.897  1.00  0.00     0.034 A 
ATOM     57  C   UNL A   1      38.766  30.782  31.483  1.00  0.00     0.034 A 
ATOM     58  C   UNL A   1      45.363  31.997  30.285  1.00  0.00     0.049 A 
ATOM     59  C   UNL A   1      39.797  31.765  31.901  1.00  0.00     0.074 A 
ATOM     60  C   UNL A   1      46.169  31.145  31.012  1.00  0.00     0.029 A 
ATOM     61  N   UNL A   1      44.523  32.595  31.193  1.00  0.00    -0.354 N 
ATOM     62  N   UNL A   1      40.620  31.564  32.894  1.00  0.00    -0.248 NA
ATOM     63  C   UNL A   1      40.215  32.763  30.929  1.00  0.00     0.031 C 
ATOM     64  C   UNL A   1      45.445  30.903  32.215  1.00  0.00     0.029 A 
ATOM     65  C   UNL A   1      44.279  31.671  32.173  1.00  0.00     0.049 A 
ATOM     66  H   UNL A   1      44.166  33.512  31.147  1.00  0.00     0.167 HD
ATOM     67  C   UNL A   1      41.834  32.066  32.442  1.00  0.00     0.074 A 
ATOM     68  C   UNL A   1      41.503  32.870  31.267  1.00  0.00     0.031 C 
ATOM     69  C   UNL A   1      43.021  31.549  32.873  1.00  0.00     0.034 A 
BRANCH  56  70
ATOM     70  C   UNL A   1      45.012  33.457  28.202  1.00  0.00     0.023 A 
ATOM     71  C   UNL A   1      46.242  34.019  27.801  1.00  0.00     0.012 A 
ATOM     72  C   UNL A   1      43.874  34.295  28.170  1.00  0.00     0.148 A 
ATOM     73  C   UNL A   1      46.333  35.355  27.395  1.00  0.00     0.002 A 
ATOM     74  C   UNL A   1      43.955  35.597  27.696  1.00  0.00     0.091 A 
ATOM     75  F   UNL A   1      42.730  33.878  28.725  1.00  0.00    -0.205 F 
ATOM     76  C   UNL A   1      45.188  36.140  27.328  1.00  0.00     0.022 A 
BRANCH  74  77
ATOM     77  S   UNL A   1      42.500  36.641  27.565  1.00  0.00     0.127 S 
ATOM     78  O   UNL A   1      42.294  37.030  28.957  1.00  0.00    -0.237 OA
ATOM     79  O   UNL A   1      42.976  37.708  26.684  1.00  0.00    -0.237 OA
ATOM     80  O   UNL A   1      41.469  35.796  26.976  1.00  0.00    -0.744 OA
ENDBRANCH  74  77
ENDBRANCH  56  70
BRANCH  57  81
ATOM     81  C   UNL A   1      37.351  31.168  31.226  1.00  0.00     0.023 A 
ATOM     82  C   UNL A   1      36.519  31.531  32.307  1.00  0.00     0.012 A 
ATOM     83  C   UNL A   1      36.880  31.437  29.920  1.00  0.00     0.148 A 
ATOM     84  C   UNL A   1      35.285  32.162  32.093  1.00  0.00     0.002 A 
ATOM     85  C   UNL A   1      35.642  32.038  29.712  1.00  0.00     0.091 A 
ATOM     86  F   UNL A   1      37.683  31.201  28.875  1.00  0.00    -0.205 F 
ATOM     87  C   UNL A   1      34.847  32.418  30.797  1.00  0.00     0.022 A 
BRANCH  85  88
ATOM     88  S   UNL A   1      35.020  32.374  28.057  1.00  0.00     0.127 S 
ATOM     89  O   UNL A   1      35.042  31.045  27.446  1.00  0.00    -0.237 OA
ATOM     90  O   UNL A   1      33.687  32.900  28.333  1.00  0.00    -0.237 OA
ATOM     91  O   UNL A   1      35.967  33.314  27.467  1.00  0.00    -0.744 OA
ENDBRANCH  85  88
ENDBRANCH  57  81
BRANCH  69  92
ATOM     92  C   UNL A   1      43.010  30.553  34.003  1.00  0.00     0.023 A 
ATOM     93  C   UNL A   1      42.922  29.165  33.769  1.00  0.00     0.012 A 
ATOM     94  C   UNL A   1      43.373  31.011  35.280  1.00  0.00     0.148 A 
ATOM     95  C   UNL A   1      43.207  28.250  34.788  1.00  0.00     0.002 A 
ATOM     96  C   UNL A   1      43.695  30.100  36.277  1.00  0.00     0.091 A 
ATOM     97  F   UNL A   1      43.467  32.336  35.470  1.00  0.00    -0.205 F 
ATOM     98  C   UNL A   1      43.611  28.718  36.037  1.00  0.00     0.022 A 
BRANCH  96  99
ATOM     99  S   UNL A   1      44.349  30.625  37.862  1.00  0.00     0.127 S 
ATOM    100  O   UNL A   1      45.477  31.465  37.464  1.00  0.00    -0.237 OA
ATOM    101  O   UNL A   1      43.216  31.353  38.436  1.00  0.00    -0.237 OA
ATOM    102  O   UNL A   1      44.708  29.408  38.579  1.00  0.00    -0.744 OA
ENDBRANCH  96  99
ENDBRANCH  69  92
ENDBRANCH  43  44
ENDBRANCH  35  38
ENDBRANCH  33  34
ENDBRANCH  32  33
ENDBRANCH   1  32
TORSDOF 19
ENDMDL
MODEL 3
REMARK VINA RESULT:     -11.9      3.566      9.567
REMARK SMILES COc1ccc2c(c1)c(CC(=O)NCCCCNC(=O)c1ccc(-c3c4nc(c(-c5cccc(S(=O)(=O)[O-])c5F)c5ccc([nH]5)c(-c5cccc(S(=O)(=O)[O-])c5F)c5nc(c(-c6cccc(S(=O)(=O)[O-])c6F)c6ccc3[nH]6)C=C5)C=C4)cc1)c(C(F)(F)F)n2C(=O)c1ccc(Cl)cc1
REMARK SMILES IDX 15 1 14 2 13 3 11 4 12 5 10 7 9 8 3 9 4 10 8 11 5 12 7 13
REMARK SMILES IDX 6 14 89 15 84 16 2 17 1 18 90 19 91 20 92 21 93 22 98 23
REMARK SMILES IDX 94 24 97 25 95 26 96 27 85 28 86 29 87 30 88 31 16 32 17 33
REMARK SMILES IDX 18 34 19 35 20 37 21 38 22 39 83 40 23 41 82 42 24 43 25 44
REMARK SMILES IDX 26 45 76 46 27 47 81 48 75 49 77 50 28 51 80 52 74 53 73 54
REMARK SMILES IDX 29 56 61 57 41 58 60 59 42 60 45 61 59 62 78 63 43 64 44 65
REMARK SMILES IDX 58 67 79 68 46 69 30 70 31 71 39 72 32 73 34 74 40 75 33 76
REMARK SMILES IDX 35 77 36 78 37 79 38 80 62 81 63 82 71 83 64 84 66 85 72 86
REMARK SMILES IDX 65 87 67 88 68 89 69 90 70 91 47 92 48 93 56 94 49 95 51 96
REMARK SMILES IDX 57 97 50 98 52 99 53 100 54 101 55 102
REMARK H PARENT 13 6 18 36 77 55 45 66
REMARK Flexibility Score: inf
ROOT
ATOM      1  C   UNL A   1      39.430  23.831  27.259  1.00  0.00     0.023 C 
ENDROOT
BRANCH   1   2
ATOM      2  C   UNL A   1      38.514  23.275  26.170  1.00  0.00     0.116 C 
BRANCH   2   3
ATOM      3  N   UNL A   1      38.611  21.835  26.053  1.00  0.00    -0.356 N 
ATOM      4  C   UNL A   1      37.970  21.013  25.170  1.00  0.00     0.224 C 
ATOM      5  O   UNL A   1      38.222  19.807  25.191  1.00  0.00    -0.275 OA
ATOM      6  H   UNL A   1      39.218  21.391  26.690  1.00  0.00     0.163 HD
BRANCH   4   7
ATOM      7  C   UNL A   1      37.009  21.605  24.147  1.00  0.00     0.138 C 
BRANCH   7   8
ATOM      8  C   UNL A   1      35.572  21.600  24.601  1.00  0.00     0.000 A 
ATOM      9  C   UNL A   1      33.953  18.152  24.739  1.00  0.00     0.119 A 
ATOM     10  C   UNL A   1      32.701  18.589  25.139  1.00  0.00     0.048 A 
ATOM     11  C   UNL A   1      34.987  19.071  24.568  1.00  0.00     0.057 A 
ATOM     12  C   UNL A   1      32.449  19.949  25.343  1.00  0.00     0.031 A 
ATOM     13  C   UNL A   1      34.757  20.450  24.770  1.00  0.00     0.008 A 
ATOM     14  C   UNL A   1      33.495  20.882  25.191  1.00  0.00     0.057 A 
ATOM     15  N   UNL A   1      33.582  22.260  25.446  1.00  0.00    -0.271 N 
ATOM     16  C   UNL A   1      34.772  22.710  24.868  1.00  0.00     0.135 A 
BRANCH   9  17
ATOM     17  O   UNL A   1      34.274  16.841  24.519  1.00  0.00    -0.497 OA
ATOM     18  C   UNL A   1      33.187  15.940  24.705  1.00  0.00     0.278 C 
ENDBRANCH   9  17
BRANCH  15  19
ATOM     19  C   UNL A   1      32.657  23.054  26.186  1.00  0.00     0.262 C 
ATOM     20  O   UNL A   1      32.648  22.947  27.400  1.00  0.00    -0.268 OA
BRANCH  19  21
ATOM     21  C   UNL A   1      31.683  23.989  25.587  1.00  0.00     0.040 A 
ATOM     22  C   UNL A   1      31.109  23.719  24.340  1.00  0.00     0.015 A 
ATOM     23  C   UNL A   1      31.392  25.177  26.267  1.00  0.00     0.015 A 
ATOM     24  C   UNL A   1      30.310  24.690  23.729  1.00  0.00     0.021 A 
ATOM     25  C   UNL A   1      30.581  26.138  25.657  1.00  0.00     0.021 A 
ATOM     26  C   UNL A   1      30.063  25.899  24.382  1.00  0.00     0.041 A 
ATOM     27  Cl  UNL A   1      29.140  27.123  23.600  1.00  0.00    -0.084 Cl
ENDBRANCH  19  21
ENDBRANCH  15  19
BRANCH  16  28
ATOM     28  C   UNL A   1      35.099  24.152  24.653  1.00  0.00     0.432 C 
ATOM     29  F   UNL A   1      36.302  24.320  24.054  1.00  0.00    -0.165 F 
ATOM     30  F   UNL A   1      34.183  24.707  23.806  1.00  0.00    -0.165 F 
ATOM     31  F   UNL A   1      35.049  24.922  25.763  1.00  0.00    -0.165 F 
ENDBRANCH  16  28
ENDBRANCH   7   8
ENDBRANCH   4   7
ENDBRANCH   2   3
ENDBRANCH   1   2
BRANCH   1  32
ATOM     32  C   UNL A   1      40.391  22.797  27.861  1.00  0.00     0.023 C 
BRANCH  32  33
ATOM     33  C   UNL A   1      41.861  23.220  27.826  1.00  0.00     0.116 C 
BRANCH  33  34
ATOM     34  N   UNL A   1      42.338  23.521  26.493  1.00  0.00    -0.352 N 
ATOM     35  C   UNL A   1      42.900  24.616  25.897  1.00  0.00     0.251 C 
ATOM     36  H   UNL A   1      42.234  22.764  25.872  1.00  0.00     0.163 HD
ATOM     37  O   UNL A   1      43.324  24.444  24.751  1.00  0.00    -0.269 OA
BRANCH  35  38
ATOM     38  C   UNL A   1      42.956  25.974  26.496  1.00  0.00     0.039 A 
ATOM     39  C   UNL A   1      43.804  26.365  27.531  1.00  0.00     0.014 A 
ATOM     40  C   UNL A   1      42.008  26.898  26.011  1.00  0.00     0.014 A 
ATOM     41  C   UNL A   1      43.638  27.593  28.148  1.00  0.00     0.010 A 
ATOM     42  C   UNL A   1      41.848  28.137  26.612  1.00  0.00     0.010 A 
ATOM     43  C   UNL A   1      42.629  28.450  27.718  1.00  0.00    -0.014 A 
BRANCH  43  44
ATOM     44  C   UNL A   1      42.496  29.715  28.418  1.00  0.00     0.031 A 
ATOM     45  C   UNL A   1      43.599  30.680  28.152  1.00  0.00     0.074 A 
ATOM     46  C   UNL A   1      41.424  29.999  29.183  1.00  0.00     0.049 A 
ATOM     47  N   UNL A   1      44.450  31.170  28.995  1.00  0.00    -0.248 NA
ATOM     48  C   UNL A   1      43.879  31.024  26.748  1.00  0.00     0.031 C 
ATOM     49  C   UNL A   1      40.179  29.236  29.308  1.00  0.00     0.029 A 
ATOM     50  N   UNL A   1      41.168  31.124  29.904  1.00  0.00    -0.354 N 
ATOM     51  C   UNL A   1      45.238  32.053  28.259  1.00  0.00     0.074 A 
ATOM     52  C   UNL A   1      44.955  31.801  26.869  1.00  0.00     0.031 C 
ATOM     53  C   UNL A   1      39.221  30.042  29.815  1.00  0.00     0.029 A 
ATOM     54  C   UNL A   1      39.814  31.321  30.160  1.00  0.00     0.049 A 
ATOM     55  H   UNL A   1      41.872  31.739  30.213  1.00  0.00     0.167 HD
ATOM     56  C   UNL A   1      45.904  33.088  28.838  1.00  0.00     0.034 A 
ATOM     57  C   UNL A   1      39.231  32.495  30.509  1.00  0.00     0.034 A 
ATOM     58  C   UNL A   1      46.027  32.929  30.258  1.00  0.00     0.049 A 
ATOM     59  C   UNL A   1      40.301  33.352  31.078  1.00  0.00     0.074 A 
ATOM     60  C   UNL A   1      46.619  31.992  31.080  1.00  0.00     0.029 A 
ATOM     61  N   UNL A   1      45.143  33.624  31.047  1.00  0.00    -0.354 N 
ATOM     62  N   UNL A   1      40.948  33.062  32.174  1.00  0.00    -0.248 NA
ATOM     63  C   UNL A   1      40.964  34.291  30.186  1.00  0.00     0.031 C 
ATOM     64  C   UNL A   1      45.711  31.841  32.167  1.00  0.00     0.029 A 
ATOM     65  C   UNL A   1      44.659  32.739  31.973  1.00  0.00     0.049 A 
ATOM     66  H   UNL A   1      44.905  34.576  30.962  1.00  0.00     0.167 HD
ATOM     67  C   UNL A   1      42.262  33.416  31.902  1.00  0.00     0.074 A 
ATOM     68  C   UNL A   1      42.196  34.248  30.702  1.00  0.00     0.031 C 
ATOM     69  C   UNL A   1      43.310  32.768  32.489  1.00  0.00     0.034 A 
BRANCH  56  70
ATOM     70  C   UNL A   1      46.143  34.410  28.165  1.00  0.00     0.023 A 
ATOM     71  C   UNL A   1      45.065  35.313  28.053  1.00  0.00     0.012 A 
ATOM     72  C   UNL A   1      47.304  34.687  27.406  1.00  0.00     0.148 A 
ATOM     73  C   UNL A   1      45.139  36.434  27.218  1.00  0.00     0.002 A 
ATOM     74  C   UNL A   1      47.400  35.838  26.636  1.00  0.00     0.091 A 
ATOM     75  F   UNL A   1      48.271  33.766  27.318  1.00  0.00    -0.205 F 
ATOM     76  C   UNL A   1      46.312  36.705  26.521  1.00  0.00     0.022 A 
BRANCH  74  77
ATOM     77  S   UNL A   1      48.902  36.244  25.740  1.00  0.00     0.127 S 
ATOM     78  O   UNL A   1      49.885  36.279  26.818  1.00  0.00    -0.237 OA
ATOM     79  O   UNL A   1      49.021  35.108  24.826  1.00  0.00    -0.237 OA
ATOM     80  O   UNL A   1      48.627  37.514  25.080  1.00  0.00    -0.744 OA
ENDBRANCH  74  77
ENDBRANCH  56  70
BRANCH  57  81
ATOM     81  C   UNL A   1      37.921  33.041  30.062  1.00  0.00     0.023 A 
ATOM     82  C   UNL A   1      37.535  32.913  28.711  1.00  0.00     0.012 A 
ATOM     83  C   UNL A   1      36.933  33.453  30.987  1.00  0.00     0.148 A 
ATOM     84  C   UNL A   1      36.214  33.154  28.306  1.00  0.00     0.002 A 
ATOM     85  C   UNL A   1      35.630  33.719  30.576  1.00  0.00     0.091 A 
ATOM     86  F   UNL A   1      37.234  33.487  32.291  1.00  0.00    -0.205 F 
ATOM     87  C   UNL A   1      35.261  33.555  29.237  1.00  0.00     0.022 A 
BRANCH  85  88
ATOM     88  S   UNL A   1      34.364  34.257  31.736  1.00  0.00     0.127 S 
ATOM     89  O   UNL A   1      33.307  34.727  30.839  1.00  0.00    -0.237 OA
ATOM     90  O   UNL A   1      34.059  33.022  32.450  1.00  0.00    -0.237 OA
ATOM     91  O   UNL A   1      34.983  35.315  32.527  1.00  0.00    -0.744 OA
ENDBRANCH  85  88
ENDBRANCH  57  81
BRANCH  69  92
ATOM     92  C   UNL A   1      43.025  31.784  33.594  1.00  0.00     0.023 A 
ATOM     93  C   UNL A   1      42.789  32.204  34.920  1.00  0.00     0.012 A 
ATOM     94  C   UNL A   1      42.720  30.463  33.228  1.00  0.00     0.148 A 
ATOM     95  C   UNL A   1      42.244  31.324  35.860  1.00  0.00     0.002 A 
ATOM     96  C   UNL A   1      42.140  29.605  34.153  1.00  0.00     0.091 A 
ATOM     97  F   UNL A   1      42.936  30.096  31.956  1.00  0.00    -0.205 F 
ATOM     98  C   UNL A   1      41.903  30.030  35.471  1.00  0.00     0.022 A 
BRANCH  96  99
ATOM     99  S   UNL A   1      41.552  27.975  33.692  1.00  0.00     0.127 S 
ATOM    100  O   UNL A   1      42.762  27.354  33.158  1.00  0.00    -0.237 OA
ATOM    101  O   UNL A   1      41.103  27.436  34.977  1.00  0.00    -0.237 OA
ATOM    102  O   UNL A   1      40.485  28.185  32.721  1.00  0.00    -0.744 OA
ENDBRANCH  96  99
ENDBRANCH  69  92
ENDBRANCH  43  44
ENDBRANCH  35  38
ENDBRANCH  33  34
ENDBRANCH  32  33
ENDBRANCH   1  32
TORSDOF 19
ENDMDL
