MODEL 1
REMARK VINA RESULT:     -12.1      0.000      0.000
REMARK SMILES Cn1cc(C[C@H](C(=O)NCCCCNC(=O)c2ccc(-c3c4nc(c(-c5cccc(S(=O)(=O)[O-])c5F)c5ccc([nH]5)c(-c5cccc(S(=O)(=O)[O-])c5F)c5nc(c(-c6cccc(S(=O)(=O)[O-])c6F)c6ccc3[nH]6)C=C5)C=C4)cc2)c2ccc(F)cc2)cn1
REMARK SMILES IDX 12 1 11 2 10 3 9 4 7 5 8 6 6 8 5 9 4 10 1 11 2 12 3 13 88 14
REMARK SMILES IDX 87 15 80 16 81 17 86 18 82 19 85 20 83 21 84 22 13 23 14 24
REMARK SMILES IDX 15 25 16 27 17 28 18 29 79 30 19 31 78 32 20 33 21 34 22 35
REMARK SMILES IDX 72 36 23 37 77 38 71 39 73 40 24 41 76 42 70 43 69 44 25 46
REMARK SMILES IDX 57 47 37 48 56 49 38 50 41 51 55 52 74 53 39 54 40 55 54 57
REMARK SMILES IDX 75 58 42 59 26 60 27 61 35 62 28 63 30 64 36 65 29 66 31 67
REMARK SMILES IDX 32 68 33 69 34 70 58 71 59 72 67 73 60 74 62 75 68 76 61 77
REMARK SMILES IDX 63 78 64 79 65 80 66 81 43 82 44 83 52 84 45 85 47 86 53 87
REMARK SMILES IDX 46 88 48 89 49 90 50 91 51 92
REMARK H PARENT 9 7 14 26 73 45 41 56
REMARK Flexibility Score: inf
ROOT
ATOM      1  C   UNL A   1      31.749  29.774  26.941  1.00  0.00     0.023 C 
ENDROOT
BRANCH   1   2
ATOM      2  C   UNL A   1      31.882  28.363  27.517  1.00  0.00     0.023 C 
BRANCH   2   3
ATOM      3  C   UNL A   1      32.296  27.300  26.498  1.00  0.00     0.116 C 
BRANCH   3   4
ATOM      4  N   UNL A   1      31.150  26.527  26.072  1.00  0.00    -0.356 N 
ATOM      5  C   UNL A   1      30.369  26.671  24.963  1.00  0.00     0.227 C 
ATOM      6  O   UNL A   1      29.323  26.016  24.932  1.00  0.00    -0.274 OA
ATOM      7  H   UNL A   1      30.897  25.787  26.670  1.00  0.00     0.163 HD
BRANCH   5   8
ATOM      8  C   UNL A   1      30.804  27.571  23.783  1.00  0.00     0.113 C 
BRANCH   8   9
ATOM      9  C   UNL A   1      30.983  26.634  22.566  1.00  0.00     0.057 C 
BRANCH   9  10
ATOM     10  C   UNL A   1      32.066  25.606  22.601  1.00  0.00    -0.009 A 
ATOM     11  C   UNL A   1      33.406  22.320  23.247  1.00  0.00     0.173 C 
ATOM     12  N   UNL A   1      33.101  23.689  22.909  1.00  0.00    -0.276 N 
ATOM     13  C   UNL A   1      31.879  24.283  22.960  1.00  0.00     0.112 A 
ATOM     14  N   UNL A   1      34.082  24.524  22.526  1.00  0.00    -0.182 NA
ATOM     15  C   UNL A   1      33.450  25.686  22.336  1.00  0.00     0.138 A 
ENDBRANCH   9  10
ENDBRANCH   8   9
BRANCH   8  16
ATOM     16  C   UNL A   1      29.824  28.716  23.534  1.00  0.00    -0.035 A 
ATOM     17  C   UNL A   1      30.174  30.035  23.887  1.00  0.00     0.007 A 
ATOM     18  C   UNL A   1      28.540  28.484  23.013  1.00  0.00     0.007 A 
ATOM     19  C   UNL A   1      29.250  31.076  23.778  1.00  0.00     0.039 A 
ATOM     20  C   UNL A   1      27.626  29.532  22.878  1.00  0.00     0.039 A 
ATOM     21  C   UNL A   1      27.983  30.814  23.276  1.00  0.00     0.123 A 
ATOM     22  F   UNL A   1      27.092  31.809  23.182  1.00  0.00    -0.207 F 
ENDBRANCH   8  16
ENDBRANCH   5   8
ENDBRANCH   3   4
ENDBRANCH   2   3
ENDBRANCH   1   2
BRANCH   1  23
ATOM     23  C   UNL A   1      33.073  30.485  26.688  1.00  0.00     0.116 C 
BRANCH  23  24
ATOM     24  N   UNL A   1      33.047  31.896  27.050  1.00  0.00    -0.352 N 
ATOM     25  C   UNL A   1      33.972  32.604  27.782  1.00  0.00     0.251 C 
ATOM     26  H   UNL A   1      32.269  32.407  26.731  1.00  0.00     0.163 HD
ATOM     27  O   UNL A   1      33.764  33.772  28.081  1.00  0.00    -0.269 OA
BRANCH  25  28
ATOM     28  C   UNL A   1      35.197  31.917  28.239  1.00  0.00     0.039 A 
ATOM     29  C   UNL A   1      36.385  32.648  28.324  1.00  0.00     0.014 A 
ATOM     30  C   UNL A   1      35.156  30.580  28.640  1.00  0.00     0.014 A 
ATOM     31  C   UNL A   1      37.518  32.054  28.881  1.00  0.00     0.010 A 
ATOM     32  C   UNL A   1      36.265  30.013  29.258  1.00  0.00     0.010 A 
ATOM     33  C   UNL A   1      37.456  30.745  29.386  1.00  0.00    -0.014 A 
BRANCH  33  34
ATOM     34  C   UNL A   1      38.617  30.126  30.072  1.00  0.00     0.031 A 
ATOM     35  C   UNL A   1      38.997  30.566  31.459  1.00  0.00     0.074 A 
ATOM     36  C   UNL A   1      39.388  29.244  29.405  1.00  0.00     0.049 A 
ATOM     37  N   UNL A   1      40.013  30.193  32.192  1.00  0.00    -0.248 NA
ATOM     38  C   UNL A   1      38.141  31.583  32.094  1.00  0.00     0.031 C 
ATOM     39  C   UNL A   1      39.176  28.809  28.023  1.00  0.00     0.029 A 
ATOM     40  N   UNL A   1      40.524  28.578  29.791  1.00  0.00    -0.354 N 
ATOM     41  C   UNL A   1      39.942  30.953  33.352  1.00  0.00     0.074 A 
ATOM     42  C   UNL A   1      38.802  31.833  33.214  1.00  0.00     0.031 C 
ATOM     43  C   UNL A   1      40.148  27.948  27.678  1.00  0.00     0.029 A 
ATOM     44  C   UNL A   1      41.063  27.785  28.804  1.00  0.00     0.049 A 
ATOM     45  H   UNL A   1      40.918  28.660  30.690  1.00  0.00     0.167 HD
ATOM     46  C   UNL A   1      40.733  30.898  34.450  1.00  0.00     0.034 A 
ATOM     47  C   UNL A   1      42.168  27.014  28.808  1.00  0.00     0.034 A 
ATOM     48  C   UNL A   1      41.825  29.978  34.608  1.00  0.00     0.049 A 
ATOM     49  C   UNL A   1      42.989  26.923  30.064  1.00  0.00     0.074 A 
ATOM     50  C   UNL A   1      42.621  29.771  35.722  1.00  0.00     0.029 A 
ATOM     51  N   UNL A   1      42.277  29.111  33.626  1.00  0.00    -0.354 N 
ATOM     52  N   UNL A   1      42.803  27.519  31.217  1.00  0.00    -0.248 NA
ATOM     53  C   UNL A   1      44.153  26.024  30.035  1.00  0.00     0.031 C 
ATOM     54  C   UNL A   1      43.560  28.781  35.408  1.00  0.00     0.029 A 
ATOM     55  C   UNL A   1      43.343  28.369  34.104  1.00  0.00     0.049 A 
ATOM     56  H   UNL A   1      41.896  29.035  32.721  1.00  0.00     0.167 HD
ATOM     57  C   UNL A   1      43.802  27.046  32.058  1.00  0.00     0.074 A 
ATOM     58  C   UNL A   1      44.579  26.094  31.289  1.00  0.00     0.031 C 
ATOM     59  C   UNL A   1      44.068  27.383  33.344  1.00  0.00     0.034 A 
BRANCH  46  60
ATOM     60  C   UNL A   1      40.396  31.811  35.598  1.00  0.00     0.023 A 
ATOM     61  C   UNL A   1      41.211  32.935  35.846  1.00  0.00     0.012 A 
ATOM     62  C   UNL A   1      39.256  31.594  36.395  1.00  0.00     0.148 A 
ATOM     63  C   UNL A   1      40.915  33.811  36.889  1.00  0.00     0.002 A 
ATOM     64  C   UNL A   1      38.945  32.495  37.408  1.00  0.00     0.091 A 
ATOM     65  F   UNL A   1      38.508  30.507  36.161  1.00  0.00    -0.205 F 
ATOM     66  C   UNL A   1      39.777  33.597  37.662  1.00  0.00     0.022 A 
BRANCH  64  67
ATOM     67  S   UNL A   1      37.463  32.346  38.413  1.00  0.00     0.127 S 
ATOM     68  O   UNL A   1      37.847  33.087  39.614  1.00  0.00    -0.237 OA
ATOM     69  O   UNL A   1      36.458  33.009  37.583  1.00  0.00    -0.237 OA
ATOM     70  O   UNL A   1      37.248  30.918  38.599  1.00  0.00    -0.744 OA
ENDBRANCH  64  67
ENDBRANCH  46  60
BRANCH  47  71
ATOM     71  C   UNL A   1      42.511  26.203  27.606  1.00  0.00     0.023 A 
ATOM     72  C   UNL A   1      43.279  26.787  26.579  1.00  0.00     0.012 A 
ATOM     73  C   UNL A   1      42.115  24.857  27.486  1.00  0.00     0.148 A 
ATOM     74  C   UNL A   1      43.620  26.056  25.441  1.00  0.00     0.002 A 
ATOM     75  C   UNL A   1      42.503  24.118  26.372  1.00  0.00     0.091 A 
ATOM     76  F   UNL A   1      41.372  24.322  28.465  1.00  0.00    -0.205 F 
ATOM     77  C   UNL A   1      43.242  24.720  25.342  1.00  0.00     0.022 A 
BRANCH  75  78
ATOM     78  S   UNL A   1      42.168  22.359  26.228  1.00  0.00     0.127 S 
ATOM     79  O   UNL A   1      40.711  22.338  26.138  1.00  0.00    -0.237 OA
ATOM     80  O   UNL A   1      42.867  22.015  24.989  1.00  0.00    -0.237 OA
ATOM     81  O   UNL A   1      42.744  21.757  27.423  1.00  0.00    -0.744 OA
ENDBRANCH  75  78
ENDBRANCH  47  71
BRANCH  59  82
ATOM     82  C   UNL A   1      45.232  26.707  34.017  1.00  0.00     0.023 A 
ATOM     83  C   UNL A   1      46.500  27.320  33.990  1.00  0.00     0.012 A 
ATOM     84  C   UNL A   1      45.054  25.514  34.744  1.00  0.00     0.148 A 
ATOM     85  C   UNL A   1      47.580  26.742  34.655  1.00  0.00     0.002 A 
ATOM     86  C   UNL A   1      46.125  24.967  35.441  1.00  0.00     0.091 A 
ATOM     87  F   UNL A   1      43.845  24.935  34.740  1.00  0.00    -0.205 F 
ATOM     88  C   UNL A   1      47.390  25.575  35.389  1.00  0.00     0.022 A 
BRANCH  86  89
ATOM     89  S   UNL A   1      45.948  23.517  36.487  1.00  0.00     0.127 S 
ATOM     90  O   UNL A   1      45.196  24.055  37.619  1.00  0.00    -0.237 OA
ATOM     91  O   UNL A   1      45.189  22.604  35.631  1.00  0.00    -0.237 OA
ATOM     92  O   UNL A   1      47.303  23.073  36.785  1.00  0.00    -0.744 OA
ENDBRANCH  86  89
ENDBRANCH  59  82
ENDBRANCH  33  34
ENDBRANCH  25  28
ENDBRANCH  23  24
ENDBRANCH   1  23
TORSDOF 17
ENDMDL
MODEL 2
REMARK VINA RESULT:     -12.1      2.816      8.625
REMARK SMILES Cn1cc(C[C@H](C(=O)NCCCCNC(=O)c2ccc(-c3c4nc(c(-c5cccc(S(=O)(=O)[O-])c5F)c5ccc([nH]5)c(-c5cccc(S(=O)(=O)[O-])c5F)c5nc(c(-c6cccc(S(=O)(=O)[O-])c6F)c6ccc3[nH]6)C=C5)C=C4)cc2)c2ccc(F)cc2)cn1
REMARK SMILES IDX 12 1 11 2 10 3 9 4 7 5 8 6 6 8 5 9 4 10 1 11 2 12 3 13 88 14
REMARK SMILES IDX 87 15 80 16 81 17 86 18 82 19 85 20 83 21 84 22 13 23 14 24
REMARK SMILES IDX 15 25 16 27 17 28 18 29 79 30 19 31 78 32 20 33 21 34 22 35
REMARK SMILES IDX 72 36 23 37 77 38 71 39 73 40 24 41 76 42 70 43 69 44 25 46
REMARK SMILES IDX 57 47 37 48 56 49 38 50 41 51 55 52 74 53 39 54 40 55 54 57
REMARK SMILES IDX 75 58 42 59 26 60 27 61 35 62 28 63 30 64 36 65 29 66 31 67
REMARK SMILES IDX 32 68 33 69 34 70 58 71 59 72 67 73 60 74 62 75 68 76 61 77
REMARK SMILES IDX 63 78 64 79 65 80 66 81 43 82 44 83 52 84 45 85 47 86 53 87
REMARK SMILES IDX 46 88 48 89 49 90 50 91 51 92
REMARK H PARENT 9 7 14 26 73 45 41 56
REMARK Flexibility Score: inf
ROOT
ATOM      1  C   UNL A   1      31.984  31.250  26.580  1.00  0.00     0.023 C 
ENDROOT
BRANCH   1   2
ATOM      2  C   UNL A   1      32.083  29.739  26.794  1.00  0.00     0.023 C 
BRANCH   2   3
ATOM      3  C   UNL A   1      33.433  29.132  26.407  1.00  0.00     0.116 C 
BRANCH   3   4
ATOM      4  N   UNL A   1      33.722  29.377  25.011  1.00  0.00    -0.356 N 
ATOM      5  C   UNL A   1      33.566  28.554  23.935  1.00  0.00     0.227 C 
ATOM      6  O   UNL A   1      34.081  28.923  22.875  1.00  0.00    -0.274 OA
ATOM      7  H   UNL A   1      34.083  30.270  24.808  1.00  0.00     0.163 HD
BRANCH   5   8
ATOM      8  C   UNL A   1      32.738  27.252  24.030  1.00  0.00     0.113 C 
BRANCH   8   9
ATOM      9  C   UNL A   1      31.846  27.211  22.767  1.00  0.00     0.057 C 
BRANCH   9  10
ATOM     10  C   UNL A   1      30.628  28.073  22.716  1.00  0.00    -0.009 A 
ATOM     11  C   UNL A   1      27.131  28.790  23.238  1.00  0.00     0.173 C 
ATOM     12  N   UNL A   1      28.542  28.737  22.942  1.00  0.00    -0.276 N 
ATOM     13  C   UNL A   1      29.391  27.713  23.220  1.00  0.00     0.112 A 
ATOM     14  N   UNL A   1      29.135  29.759  22.301  1.00  0.00    -0.182 NA
ATOM     15  C   UNL A   1      30.402  29.354  22.168  1.00  0.00     0.138 A 
ENDBRANCH   9  10
ENDBRANCH   8   9
BRANCH   8  16
ATOM     16  C   UNL A   1      33.618  26.015  24.196  1.00  0.00    -0.035 A 
ATOM     17  C   UNL A   1      33.839  25.153  23.103  1.00  0.00     0.007 A 
ATOM     18  C   UNL A   1      34.173  25.669  25.440  1.00  0.00     0.007 A 
ATOM     19  C   UNL A   1      34.541  23.957  23.263  1.00  0.00     0.039 A 
ATOM     20  C   UNL A   1      34.900  24.485  25.591  1.00  0.00     0.039 A 
ATOM     21  C   UNL A   1      35.063  23.633  24.507  1.00  0.00     0.123 A 
ATOM     22  F   UNL A   1      35.726  22.480  24.664  1.00  0.00    -0.207 F 
ENDBRANCH   8  16
ENDBRANCH   5   8
ENDBRANCH   3   4
ENDBRANCH   2   3
ENDBRANCH   1   2
BRANCH   1  23
ATOM     23  C   UNL A   1      33.033  32.067  27.325  1.00  0.00     0.116 C 
BRANCH  23  24
ATOM     24  N   UNL A   1      32.641  33.455  27.531  1.00  0.00    -0.352 N 
ATOM     25  C   UNL A   1      33.153  34.359  28.434  1.00  0.00     0.251 C 
ATOM     26  H   UNL A   1      31.918  33.788  26.952  1.00  0.00     0.163 HD
ATOM     27  O   UNL A   1      32.655  35.471  28.549  1.00  0.00    -0.269 OA
BRANCH  25  28
ATOM     28  C   UNL A   1      34.284  33.949  29.291  1.00  0.00     0.039 A 
ATOM     29  C   UNL A   1      34.050  33.029  30.316  1.00  0.00     0.014 A 
ATOM     30  C   UNL A   1      35.574  34.422  29.041  1.00  0.00     0.014 A 
ATOM     31  C   UNL A   1      35.129  32.528  31.048  1.00  0.00     0.010 A 
ATOM     32  C   UNL A   1      36.653  33.869  29.723  1.00  0.00     0.010 A 
ATOM     33  C   UNL A   1      36.441  32.916  30.731  1.00  0.00    -0.014 A 
BRANCH  33  34
ATOM     34  C   UNL A   1      37.611  32.324  31.426  1.00  0.00     0.031 A 
ATOM     35  C   UNL A   1      38.368  31.189  30.795  1.00  0.00     0.074 A 
ATOM     36  C   UNL A   1      37.924  32.739  32.669  1.00  0.00     0.049 A 
ATOM     37  N   UNL A   1      39.370  30.500  31.275  1.00  0.00    -0.248 NA
ATOM     38  C   UNL A   1      37.922  30.749  29.462  1.00  0.00     0.031 C 
ATOM     39  C   UNL A   1      37.205  33.768  33.425  1.00  0.00     0.029 A 
ATOM     40  N   UNL A   1      38.910  32.326  33.529  1.00  0.00    -0.354 N 
ATOM     41  C   UNL A   1      39.648  29.524  30.325  1.00  0.00     0.074 A 
ATOM     42  C   UNL A   1      38.689  29.688  29.255  1.00  0.00     0.031 C 
ATOM     43  C   UNL A   1      37.775  33.906  34.633  1.00  0.00     0.029 A 
ATOM     44  C   UNL A   1      38.885  32.965  34.748  1.00  0.00     0.049 A 
ATOM     45  H   UNL A   1      39.574  31.637  33.297  1.00  0.00     0.167 HD
ATOM     46  C   UNL A   1      40.636  28.599  30.327  1.00  0.00     0.034 A 
ATOM     47  C   UNL A   1      39.669  32.809  35.833  1.00  0.00     0.034 A 
ATOM     48  C   UNL A   1      41.626  28.481  31.362  1.00  0.00     0.049 A 
ATOM     49  C   UNL A   1      40.799  31.819  35.780  1.00  0.00     0.074 A 
ATOM     50  C   UNL A   1      42.729  27.646  31.407  1.00  0.00     0.029 A 
ATOM     51  N   UNL A   1      41.634  29.219  32.535  1.00  0.00    -0.354 N 
ATOM     52  N   UNL A   1      41.156  31.025  34.799  1.00  0.00    -0.248 NA
ATOM     53  C   UNL A   1      41.661  31.727  36.968  1.00  0.00     0.031 C 
ATOM     54  C   UNL A   1      43.401  27.876  32.613  1.00  0.00     0.029 A 
ATOM     55  C   UNL A   1      42.719  28.858  33.313  1.00  0.00     0.049 A 
ATOM     56  H   UNL A   1      40.965  29.899  32.779  1.00  0.00     0.167 HD
ATOM     57  C   UNL A   1      42.297  30.365  35.236  1.00  0.00     0.074 A 
ATOM     58  C   UNL A   1      42.588  30.869  36.564  1.00  0.00     0.031 C 
ATOM     59  C   UNL A   1      43.027  29.412  34.607  1.00  0.00     0.034 A 
BRANCH  46  60
ATOM     60  C   UNL A   1      40.739  27.687  29.133  1.00  0.00     0.023 A 
ATOM     61  C   UNL A   1      39.913  26.547  29.065  1.00  0.00     0.012 A 
ATOM     62  C   UNL A   1      41.605  27.979  28.062  1.00  0.00     0.148 A 
ATOM     63  C   UNL A   1      39.970  25.693  27.964  1.00  0.00     0.002 A 
ATOM     64  C   UNL A   1      41.627  27.145  26.950  1.00  0.00     0.091 A 
ATOM     65  F   UNL A   1      42.401  29.054  28.157  1.00  0.00    -0.205 F 
ATOM     66  C   UNL A   1      40.818  25.998  26.903  1.00  0.00     0.022 A 
BRANCH  64  67
ATOM     67  S   UNL A   1      42.633  27.490  25.502  1.00  0.00     0.127 S 
ATOM     68  O   UNL A   1      43.978  27.511  26.076  1.00  0.00    -0.237 OA
ATOM     69  O   UNL A   1      42.353  26.336  24.648  1.00  0.00    -0.237 OA
ATOM     70  O   UNL A   1      42.154  28.761  24.977  1.00  0.00    -0.744 OA
ENDBRANCH  64  67
ENDBRANCH  46  60
BRANCH  47  71
ATOM     71  C   UNL A   1      39.462  33.673  37.029  1.00  0.00     0.023 A 
ATOM     72  C   UNL A   1      39.888  35.015  36.988  1.00  0.00     0.012 A 
ATOM     73  C   UNL A   1      38.823  33.191  38.187  1.00  0.00     0.148 A 
ATOM     74  C   UNL A   1      39.708  35.854  38.089  1.00  0.00     0.002 A 
ATOM     75  C   UNL A   1      38.601  34.046  39.262  1.00  0.00     0.091 A 
ATOM     76  F   UNL A   1      38.438  31.907  38.215  1.00  0.00    -0.205 F 
ATOM     77  C   UNL A   1      39.056  35.373  39.221  1.00  0.00     0.022 A 
BRANCH  75  78
ATOM     78  S   UNL A   1      37.655  33.543  40.704  1.00  0.00     0.127 S 
ATOM     79  O   UNL A   1      37.586  34.787  41.466  1.00  0.00    -0.237 OA
ATOM     80  O   UNL A   1      36.389  33.117  40.106  1.00  0.00    -0.237 OA
ATOM     81  O   UNL A   1      38.420  32.463  41.312  1.00  0.00    -0.744 OA
ENDBRANCH  75  78
ENDBRANCH  47  71
BRANCH  59  82
ATOM     82  C   UNL A   1      44.228  28.861  35.329  1.00  0.00     0.023 A 
ATOM     83  C   UNL A   1      45.492  29.445  35.119  1.00  0.00     0.012 A 
ATOM     84  C   UNL A   1      44.091  27.826  36.274  1.00  0.00     0.148 A 
ATOM     85  C   UNL A   1      46.607  28.991  35.820  1.00  0.00     0.002 A 
ATOM     86  C   UNL A   1      45.199  27.407  37.001  1.00  0.00     0.091 A 
ATOM     87  F   UNL A   1      42.883  27.268  36.445  1.00  0.00    -0.205 F 
ATOM     88  C   UNL A   1      46.459  27.981  36.768  1.00  0.00     0.022 A 
BRANCH  86  89
ATOM     89  S   UNL A   1      45.080  26.178  38.307  1.00  0.00     0.127 S 
ATOM     90  O   UNL A   1      44.667  24.991  37.562  1.00  0.00    -0.237 OA
ATOM     91  O   UNL A   1      46.451  26.130  38.817  1.00  0.00    -0.237 OA
ATOM     92  O   UNL A   1      44.103  26.698  39.254  1.00  0.00    -0.744 OA
ENDBRANCH  86  89
ENDBRANCH  59  82
ENDBRANCH  33  34
ENDBRANCH  25  28
ENDBRANCH  23  24
ENDBRANCH   1  23
TORSDOF 17
ENDMDL
MODEL 3
REMARK VINA RESULT:     -12.0      2.412      8.392
REMARK SMILES Cn1cc(C[C@H](C(=O)NCCCCNC(=O)c2ccc(-c3c4nc(c(-c5cccc(S(=O)(=O)[O-])c5F)c5ccc([nH]5)c(-c5cccc(S(=O)(=O)[O-])c5F)c5nc(c(-c6cccc(S(=O)(=O)[O-])c6F)c6ccc3[nH]6)C=C5)C=C4)cc2)c2ccc(F)cc2)cn1
REMARK SMILES IDX 12 1 11 2 10 3 9 4 7 5 8 6 6 8 5 9 4 10 1 11 2 12 3 13 88 14
REMARK SMILES IDX 87 15 80 16 81 17 86 18 82 19 85 20 83 21 84 22 13 23 14 24
REMARK SMILES IDX 15 25 16 27 17 28 18 29 79 30 19 31 78 32 20 33 21 34 22 35
REMARK SMILES IDX 72 36 23 37 77 38 71 39 73 40 24 41 76 42 70 43 69 44 25 46
REMARK SMILES IDX 57 47 37 48 56 49 38 50 41 51 55 52 74 53 39 54 40 55 54 57
REMARK SMILES IDX 75 58 42 59 26 60 27 61 35 62 28 63 30 64 36 65 29 66 31 67
REMARK SMILES IDX 32 68 33 69 34 70 58 71 59 72 67 73 60 74 62 75 68 76 61 77
REMARK SMILES IDX 63 78 64 79 65 80 66 81 43 82 44 83 52 84 45 85 47 86 53 87
REMARK SMILES IDX 46 88 48 89 49 90 50 91 51 92
REMARK H PARENT 9 7 14 26 73 45 41 56
REMARK Flexibility Score: inf
ROOT
ATOM      1  C   UNL A   1      31.402  28.615  25.808  1.00  0.00     0.023 C 
ENDROOT
BRANCH   1   2
ATOM      2  C   UNL A   1      31.682  27.399  26.693  1.00  0.00     0.023 C 
BRANCH   2   3
ATOM      3  C   UNL A   1      31.102  26.085  26.166  1.00  0.00     0.116 C 
BRANCH   3   4
ATOM      4  N   UNL A   1      31.461  24.984  27.033  1.00  0.00    -0.356 N 
ATOM      5  C   UNL A   1      32.011  23.777  26.719  1.00  0.00     0.227 C 
ATOM      6  O   UNL A   1      32.029  22.926  27.614  1.00  0.00    -0.274 OA
ATOM      7  H   UNL A   1      31.283  25.129  27.990  1.00  0.00     0.163 HD
BRANCH   5   8
ATOM      8  C   UNL A   1      32.628  23.510  25.327  1.00  0.00     0.113 C 
BRANCH   8   9
ATOM      9  C   UNL A   1      33.778  24.531  25.159  1.00  0.00     0.057 C 
BRANCH   9  10
ATOM     10  C   UNL A   1      33.796  25.404  23.948  1.00  0.00    -0.009 A 
ATOM     11  C   UNL A   1      34.002  28.567  22.226  1.00  0.00     0.173 C 
ATOM     12  N   UNL A   1      33.902  27.203  22.685  1.00  0.00    -0.276 N 
ATOM     13  C   UNL A   1      34.005  26.771  23.971  1.00  0.00     0.112 A 
ATOM     14  N   UNL A   1      33.653  26.214  21.811  1.00  0.00    -0.182 NA
ATOM     15  C   UNL A   1      33.592  25.122  22.580  1.00  0.00     0.138 A 
ENDBRANCH   9  10
ENDBRANCH   8   9
BRANCH   8  16
ATOM     16  C   UNL A   1      33.071  22.058  25.158  1.00  0.00    -0.035 A 
ATOM     17  C   UNL A   1      34.434  21.717  25.274  1.00  0.00     0.007 A 
ATOM     18  C   UNL A   1      32.158  21.045  24.822  1.00  0.00     0.007 A 
ATOM     19  C   UNL A   1      34.875  20.419  25.006  1.00  0.00     0.039 A 
ATOM     20  C   UNL A   1      32.597  19.740  24.581  1.00  0.00     0.039 A 
ATOM     21  C   UNL A   1      33.951  19.443  24.660  1.00  0.00     0.123 A 
ATOM     22  F   UNL A   1      34.374  18.201  24.391  1.00  0.00    -0.207 F 
ENDBRANCH   8  16
ENDBRANCH   5   8
ENDBRANCH   3   4
ENDBRANCH   2   3
ENDBRANCH   1   2
BRANCH   1  23
ATOM     23  C   UNL A   1      32.527  29.642  25.764  1.00  0.00     0.116 C 
BRANCH  23  24
ATOM     24  N   UNL A   1      32.112  30.970  26.197  1.00  0.00    -0.352 N 
ATOM     25  C   UNL A   1      32.757  31.824  27.061  1.00  0.00     0.251 C 
ATOM     26  H   UNL A   1      31.261  31.296  25.824  1.00  0.00     0.163 HD
ATOM     27  O   UNL A   1      32.233  32.878  27.399  1.00  0.00    -0.269 OA
BRANCH  25  28
ATOM     28  C   UNL A   1      34.070  31.427  27.609  1.00  0.00     0.039 A 
ATOM     29  C   UNL A   1      35.048  32.409  27.785  1.00  0.00     0.014 A 
ATOM     30  C   UNL A   1      34.307  30.109  28.003  1.00  0.00     0.014 A 
ATOM     31  C   UNL A   1      36.244  32.079  28.426  1.00  0.00     0.010 A 
ATOM     32  C   UNL A   1      35.469  29.799  28.702  1.00  0.00     0.010 A 
ATOM     33  C   UNL A   1      36.447  30.781  28.923  1.00  0.00    -0.014 A 
BRANCH  33  34
ATOM     34  C   UNL A   1      37.665  30.431  29.694  1.00  0.00     0.031 A 
ATOM     35  C   UNL A   1      38.682  29.489  29.110  1.00  0.00     0.074 A 
ATOM     36  C   UNL A   1      37.802  30.879  30.957  1.00  0.00     0.049 A 
ATOM     37  N   UNL A   1      39.771  29.014  29.655  1.00  0.00    -0.248 NA
ATOM     38  C   UNL A   1      38.426  28.992  27.748  1.00  0.00     0.031 C 
ATOM     39  C   UNL A   1      36.837  31.723  31.666  1.00  0.00     0.029 A 
ATOM     40  N   UNL A   1      38.794  30.663  31.881  1.00  0.00    -0.354 N 
ATOM     41  C   UNL A   1      40.308  28.134  28.723  1.00  0.00     0.074 A 
ATOM     42  C   UNL A   1      39.408  28.117  27.590  1.00  0.00     0.031 C 
ATOM     43  C   UNL A   1      37.285  31.954  32.911  1.00  0.00     0.029 A 
ATOM     44  C   UNL A   1      38.556  31.261  33.097  1.00  0.00     0.049 A 
ATOM     45  H   UNL A   1      39.600  30.131  31.691  1.00  0.00     0.167 HD
ATOM     46  C   UNL A   1      41.464  27.434  28.788  1.00  0.00     0.034 A 
ATOM     47  C   UNL A   1      39.282  31.250  34.233  1.00  0.00     0.034 A 
ATOM     48  C   UNL A   1      42.386  27.504  29.888  1.00  0.00     0.049 A 
ATOM     49  C   UNL A   1      40.594  30.516  34.253  1.00  0.00     0.074 A 
ATOM     50  C   UNL A   1      43.633  26.915  30.004  1.00  0.00     0.029 A 
ATOM     51  N   UNL A   1      42.163  28.206  31.062  1.00  0.00    -0.354 N 
ATOM     52  N   UNL A   1      41.172  29.832  33.295  1.00  0.00    -0.248 NA
ATOM     53  C   UNL A   1      41.375  30.583  35.498  1.00  0.00     0.031 C 
ATOM     54  C   UNL A   1      44.161  27.256  31.254  1.00  0.00     0.029 A 
ATOM     55  C   UNL A   1      43.246  28.063  31.911  1.00  0.00     0.049 A 
ATOM     56  H   UNL A   1      41.353  28.728  31.262  1.00  0.00     0.167 HD
ATOM     57  C   UNL A   1      42.394  29.414  33.807  1.00  0.00     0.074 A 
ATOM     58  C   UNL A   1      42.485  29.942  35.154  1.00  0.00     0.031 C 
ATOM     59  C   UNL A   1      43.346  28.644  33.225  1.00  0.00     0.034 A 
BRANCH  46  60
ATOM     60  C   UNL A   1      41.833  26.585  27.600  1.00  0.00     0.023 A 
ATOM     61  C   UNL A   1      42.473  27.187  26.497  1.00  0.00     0.012 A 
ATOM     62  C   UNL A   1      41.599  25.197  27.591  1.00  0.00     0.148 A 
ATOM     63  C   UNL A   1      42.846  26.426  25.390  1.00  0.00     0.002 A 
ATOM     64  C   UNL A   1      42.009  24.439  26.501  1.00  0.00     0.091 A 
ATOM     65  F   UNL A   1      40.966  24.648  28.638  1.00  0.00    -0.205 F 
ATOM     66  C   UNL A   1      42.624  25.052  25.397  1.00  0.00     0.022 A 
BRANCH  64  67
ATOM     67  S   UNL A   1      41.832  22.651  26.444  1.00  0.00     0.127 S 
ATOM     68  O   UNL A   1      42.486  22.331  25.176  1.00  0.00    -0.237 OA
ATOM     69  O   UNL A   1      42.571  22.229  27.635  1.00  0.00    -0.237 OA
ATOM     70  O   UNL A   1      40.400  22.390  26.496  1.00  0.00    -0.744 OA
ENDBRANCH  64  67
ENDBRANCH  46  60
BRANCH  47  71
ATOM     71  C   UNL A   1      38.821  32.030  35.416  1.00  0.00     0.023 A 
ATOM     72  C   UNL A   1      38.936  33.434  35.399  1.00  0.00     0.012 A 
ATOM     73  C   UNL A   1      38.245  31.402  36.536  1.00  0.00     0.148 A 
ATOM     74  C   UNL A   1      38.514  34.196  36.489  1.00  0.00     0.002 A 
ATOM     75  C   UNL A   1      37.778  32.172  37.598  1.00  0.00     0.091 A 
ATOM     76  F   UNL A   1      38.157  30.064  36.542  1.00  0.00    -0.205 F 
ATOM     77  C   UNL A   1      37.926  33.567  37.583  1.00  0.00     0.022 A 
BRANCH  75  78
ATOM     78  S   UNL A   1      36.892  31.451  38.984  1.00  0.00     0.127 S 
ATOM     79  O   UNL A   1      35.703  32.297  39.052  1.00  0.00    -0.237 OA
ATOM     80  O   UNL A   1      36.651  30.085  38.517  1.00  0.00    -0.237 OA
ATOM     81  O   UNL A   1      37.805  31.541  40.116  1.00  0.00    -0.744 OA
ENDBRANCH  75  78
ENDBRANCH  47  71
BRANCH  59  82
ATOM     82  C   UNL A   1      44.584  28.340  34.026  1.00  0.00     0.023 A 
ATOM     83  C   UNL A   1      45.666  29.241  33.997  1.00  0.00     0.012 A 
ATOM     84  C   UNL A   1      44.642  27.212  34.867  1.00  0.00     0.148 A 
ATOM     85  C   UNL A   1      46.800  29.010  34.774  1.00  0.00     0.002 A 
ATOM     86  C   UNL A   1      45.757  27.012  35.673  1.00  0.00     0.091 A 
ATOM     87  F   UNL A   1      43.610  26.356  34.865  1.00  0.00    -0.205 F 
ATOM     88  C   UNL A   1      46.840  27.905  35.620  1.00  0.00     0.022 A 
BRANCH  86  89
ATOM     89  S   UNL A   1      45.853  25.666  36.859  1.00  0.00     0.127 S 
ATOM     90  O   UNL A   1      47.073  25.999  37.590  1.00  0.00    -0.237 OA
ATOM     91  O   UNL A   1      44.618  25.836  37.625  1.00  0.00    -0.237 OA
ATOM     92  O   UNL A   1      45.907  24.443  36.068  1.00  0.00    -0.744 OA
ENDBRANCH  86  89
ENDBRANCH  59  82
ENDBRANCH  33  34
ENDBRANCH  25  28
ENDBRANCH  23  24
ENDBRANCH   1  23
TORSDOF 17
ENDMDL
