MODEL 1
REMARK VINA RESULT:     -12.1      0.000      0.000
REMARK SMILES CCc1cc2c(C)cc(=O)oc2cc1O[C@H](C)C(=O)NCCCCNC(=O)c1ccc(-c2c3nc(c(-c4cccc(S(=O)(=O)[O-])c4F)c4ccc([nH]4)c(-c4cccc(S(=O)(=O)[O-])c4F)c4nc(c(-c5cccc(S(=O)(=O)[O-])c5F)c5ccc2[nH]5)C=C4)C=C3)cc1
REMARK SMILES IDX 22 1 21 2 20 3 18 4 19 5 16 7 17 8 15 9 14 10 3 11 4 12 5 13
REMARK SMILES IDX 13 14 6 15 12 16 7 17 8 18 11 19 9 20 10 21 2 22 1 23 23 24
REMARK SMILES IDX 24 25 25 26 26 27 27 29 28 30 29 31 90 32 30 33 89 34 31 35
REMARK SMILES IDX 32 36 33 37 83 38 34 39 88 40 82 41 84 42 35 43 87 44 81 45
REMARK SMILES IDX 80 46 36 48 68 49 48 50 67 51 49 52 52 53 66 54 85 55 50 56
REMARK SMILES IDX 51 57 65 59 86 60 53 61 37 62 38 63 46 64 39 65 41 66 47 67
REMARK SMILES IDX 40 68 42 69 43 70 44 71 45 72 69 73 70 74 78 75 71 76 73 77
REMARK SMILES IDX 79 78 72 79 74 80 75 81 76 82 77 83 54 84 55 85 63 86 56 87
REMARK SMILES IDX 58 88 64 89 57 90 59 91 60 92 61 93 62 94
REMARK H PARENT 20 6 25 28 84 47 52 58
REMARK Flexibility Score: inf
ROOT
ATOM      1  C   UNL A   1      32.179  29.555  24.718  1.00  0.00     0.023 C 
ENDROOT
BRANCH   1   2
ATOM      2  C   UNL A   1      31.312  28.350  24.372  1.00  0.00     0.116 C 
BRANCH   2   3
ATOM      3  N   UNL A   1      31.013  27.571  25.556  1.00  0.00    -0.353 N 
ATOM      4  C   UNL A   1      30.634  26.268  25.649  1.00  0.00     0.260 C 
ATOM      5  O   UNL A   1      30.446  25.794  26.773  1.00  0.00    -0.271 OA
ATOM      6  H   UNL A   1      31.095  28.052  26.412  1.00  0.00     0.163 HD
BRANCH   4   7
ATOM      7  C   UNL A   1      30.441  25.393  24.384  1.00  0.00     0.258 C 
ATOM      8  C   UNL A   1      29.262  25.984  23.590  1.00  0.00     0.064 C 
BRANCH   7   9
ATOM      9  O   UNL A   1      31.456  25.070  23.440  1.00  0.00    -0.480 OA
BRANCH   9  10
ATOM     10  C   UNL A   1      32.265  23.976  23.565  1.00  0.00     0.127 A 
ATOM     11  C   UNL A   1      33.584  24.233  24.006  1.00  0.00    -0.005 A 
ATOM     12  C   UNL A   1      34.409  23.149  24.377  1.00  0.00     0.019 A 
ATOM     13  C   UNL A   1      33.953  21.828  24.311  1.00  0.00     0.021 A 
ATOM     14  C   UNL A   1      31.867  22.660  23.354  1.00  0.00     0.094 A 
ATOM     15  C   UNL A   1      34.729  20.665  24.761  1.00  0.00    -0.033 A 
ATOM     16  C   UNL A   1      32.678  21.617  23.798  1.00  0.00     0.142 A 
ATOM     17  C   UNL A   1      36.185  20.804  25.086  1.00  0.00     0.045 C 
ATOM     18  C   UNL A   1      34.093  19.490  24.869  1.00  0.00     0.098 A 
ATOM     19  O   UNL A   1      32.087  20.340  23.800  1.00  0.00    -0.423 OA
ATOM     20  C   UNL A   1      32.675  19.310  24.516  1.00  0.00     0.336 A 
ATOM     21  O   UNL A   1      32.074  18.291  24.814  1.00  0.00    -0.246 OA
BRANCH  11  22
ATOM     22  C   UNL A   1      34.067  25.668  24.136  1.00  0.00     0.036 C 
ATOM     23  C   UNL A   1      34.178  26.213  25.557  1.00  0.00     0.009 C 
ENDBRANCH  11  22
ENDBRANCH   9  10
ENDBRANCH   7   9
ENDBRANCH   4   7
ENDBRANCH   2   3
ENDBRANCH   1   2
BRANCH   1  24
ATOM     24  C   UNL A   1      31.622  30.421  25.850  1.00  0.00     0.023 C 
BRANCH  24  25
ATOM     25  C   UNL A   1      32.642  30.820  26.910  1.00  0.00     0.116 C 
BRANCH  25  26
ATOM     26  N   UNL A   1      32.741  32.264  27.066  1.00  0.00    -0.352 N 
ATOM     27  C   UNL A   1      33.681  32.995  27.752  1.00  0.00     0.251 C 
ATOM     28  H   UNL A   1      32.037  32.789  26.620  1.00  0.00     0.163 HD
ATOM     29  O   UNL A   1      33.509  34.195  27.945  1.00  0.00    -0.269 OA
BRANCH  27  30
ATOM     30  C   UNL A   1      34.890  32.319  28.266  1.00  0.00     0.039 A 
ATOM     31  C   UNL A   1      36.116  32.986  28.221  1.00  0.00     0.014 A 
ATOM     32  C   UNL A   1      34.801  31.036  28.814  1.00  0.00     0.014 A 
ATOM     33  C   UNL A   1      37.244  32.387  28.783  1.00  0.00     0.010 A 
ATOM     34  C   UNL A   1      35.907  30.480  29.446  1.00  0.00     0.010 A 
ATOM     35  C   UNL A   1      37.143  31.143  29.428  1.00  0.00    -0.014 A 
BRANCH  35  36
ATOM     36  C   UNL A   1      38.318  30.520  30.090  1.00  0.00     0.031 A 
ATOM     37  C   UNL A   1      38.716  30.943  31.478  1.00  0.00     0.074 A 
ATOM     38  C   UNL A   1      39.070  29.629  29.413  1.00  0.00     0.049 A 
ATOM     39  N   UNL A   1      39.725  30.541  32.206  1.00  0.00    -0.248 NA
ATOM     40  C   UNL A   1      37.885  31.973  32.126  1.00  0.00     0.031 C 
ATOM     41  C   UNL A   1      38.833  29.193  28.036  1.00  0.00     0.029 A 
ATOM     42  N   UNL A   1      40.200  28.945  29.787  1.00  0.00    -0.354 N 
ATOM     43  C   UNL A   1      39.671  31.286  33.377  1.00  0.00     0.074 A 
ATOM     44  C   UNL A   1      38.555  32.197  33.246  1.00  0.00     0.031 C 
ATOM     45  C   UNL A   1      39.778  28.307  27.685  1.00  0.00     0.029 A 
ATOM     46  C   UNL A   1      40.706  28.134  28.797  1.00  0.00     0.049 A 
ATOM     47  H   UNL A   1      40.610  29.028  30.678  1.00  0.00     0.167 HD
ATOM     48  C   UNL A   1      40.456  31.202  34.478  1.00  0.00     0.034 A 
ATOM     49  C   UNL A   1      41.798  27.344  28.789  1.00  0.00     0.034 A 
ATOM     50  C   UNL A   1      41.548  30.275  34.615  1.00  0.00     0.049 A 
ATOM     51  C   UNL A   1      42.644  27.253  30.030  1.00  0.00     0.074 A 
ATOM     52  C   UNL A   1      42.358  30.056  35.715  1.00  0.00     0.029 A 
ATOM     53  N   UNL A   1      41.990  29.420  33.616  1.00  0.00    -0.354 N 
ATOM     54  N   UNL A   1      42.484  27.852  31.185  1.00  0.00    -0.248 NA
ATOM     55  C   UNL A   1      43.801  26.348  29.979  1.00  0.00     0.031 C 
ATOM     56  C   UNL A   1      43.309  29.089  35.371  1.00  0.00     0.029 A 
ATOM     57  C   UNL A   1      43.068  28.679  34.070  1.00  0.00     0.049 A 
ATOM     58  H   UNL A   1      41.595  29.352  32.717  1.00  0.00     0.167 HD
ATOM     59  C   UNL A   1      43.492  27.367  32.010  1.00  0.00     0.074 A 
ATOM     60  C   UNL A   1      44.246  26.409  31.227  1.00  0.00     0.031 C 
ATOM     61  C   UNL A   1      43.776  27.691  33.296  1.00  0.00     0.034 A 
BRANCH  48  62
ATOM     62  C   UNL A   1      40.126  32.103  35.641  1.00  0.00     0.023 A 
ATOM     63  C   UNL A   1      40.856  33.297  35.824  1.00  0.00     0.012 A 
ATOM     64  C   UNL A   1      39.076  31.795  36.528  1.00  0.00     0.148 A 
ATOM     65  C   UNL A   1      40.577  34.146  36.895  1.00  0.00     0.002 A 
ATOM     66  C   UNL A   1      38.773  32.669  37.565  1.00  0.00     0.091 A 
ATOM     67  F   UNL A   1      38.406  30.647  36.353  1.00  0.00    -0.205 F 
ATOM     68  C   UNL A   1      39.530  33.837  37.758  1.00  0.00     0.022 A 
BRANCH  66  69
ATOM     69  S   UNL A   1      37.393  32.405  38.684  1.00  0.00     0.127 S 
ATOM     70  O   UNL A   1      37.743  33.287  39.797  1.00  0.00    -0.237 OA
ATOM     71  O   UNL A   1      36.256  32.860  37.883  1.00  0.00    -0.237 OA
ATOM     72  O   UNL A   1      37.390  30.982  38.990  1.00  0.00    -0.744 OA
ENDBRANCH  66  69
ENDBRANCH  48  62
BRANCH  49  73
ATOM     73  C   UNL A   1      42.111  26.516  27.589  1.00  0.00     0.023 A 
ATOM     74  C   UNL A   1      42.751  27.116  26.487  1.00  0.00     0.012 A 
ATOM     75  C   UNL A   1      41.801  25.143  27.538  1.00  0.00     0.148 A 
ATOM     76  C   UNL A   1      43.043  26.374  25.342  1.00  0.00     0.002 A 
ATOM     77  C   UNL A   1      42.145  24.397  26.417  1.00  0.00     0.091 A 
ATOM     78  F   UNL A   1      41.186  24.592  28.594  1.00  0.00    -0.205 F 
ATOM     79  C   UNL A   1      42.749  25.014  25.311  1.00  0.00     0.022 A 
BRANCH  77  80
ATOM     80  S   UNL A   1      41.920  22.616  26.334  1.00  0.00     0.127 S 
ATOM     81  O   UNL A   1      40.465  22.500  26.319  1.00  0.00    -0.237 OA
ATOM     82  O   UNL A   1      42.578  22.290  25.068  1.00  0.00    -0.237 OA
ATOM     83  O   UNL A   1      42.584  22.080  27.513  1.00  0.00    -0.744 OA
ENDBRANCH  77  80
ENDBRANCH  49  73
BRANCH  61  84
ATOM     84  C   UNL A   1      44.922  26.973  33.961  1.00  0.00     0.023 A 
ATOM     85  C   UNL A   1      46.229  27.490  33.867  1.00  0.00     0.012 A 
ATOM     86  C   UNL A   1      44.689  25.820  34.738  1.00  0.00     0.148 A 
ATOM     87  C   UNL A   1      47.293  26.849  34.503  1.00  0.00     0.002 A 
ATOM     88  C   UNL A   1      45.743  25.218  35.412  1.00  0.00     0.091 A 
ATOM     89  F   UNL A   1      43.441  25.333  34.801  1.00  0.00    -0.205 F 
ATOM     90  C   UNL A   1      47.048  25.722  35.285  1.00  0.00     0.022 A 
BRANCH  88  91
ATOM     91  S   UNL A   1      45.508  23.824  36.520  1.00  0.00     0.127 S 
ATOM     92  O   UNL A   1      44.593  24.384  37.513  1.00  0.00    -0.237 OA
ATOM     93  O   UNL A   1      44.911  22.822  35.636  1.00  0.00    -0.237 OA
ATOM     94  O   UNL A   1      46.832  23.477  37.017  1.00  0.00    -0.744 OA
ENDBRANCH  88  91
ENDBRANCH  61  84
ENDBRANCH  35  36
ENDBRANCH  27  30
ENDBRANCH  25  26
ENDBRANCH  24  25
ENDBRANCH   1  24
TORSDOF 17
ENDMDL
MODEL 2
REMARK VINA RESULT:     -11.9      1.584      7.735
REMARK SMILES CCc1cc2c(C)cc(=O)oc2cc1O[C@H](C)C(=O)NCCCCNC(=O)c1ccc(-c2c3nc(c(-c4cccc(S(=O)(=O)[O-])c4F)c4ccc([nH]4)c(-c4cccc(S(=O)(=O)[O-])c4F)c4nc(c(-c5cccc(S(=O)(=O)[O-])c5F)c5ccc2[nH]5)C=C4)C=C3)cc1
REMARK SMILES IDX 22 1 21 2 20 3 18 4 19 5 16 7 17 8 15 9 14 10 3 11 4 12 5 13
REMARK SMILES IDX 13 14 6 15 12 16 7 17 8 18 11 19 9 20 10 21 2 22 1 23 23 24
REMARK SMILES IDX 24 25 25 26 26 27 27 29 28 30 29 31 90 32 30 33 89 34 31 35
REMARK SMILES IDX 32 36 33 37 83 38 34 39 88 40 82 41 84 42 35 43 87 44 81 45
REMARK SMILES IDX 80 46 36 48 68 49 48 50 67 51 49 52 52 53 66 54 85 55 50 56
REMARK SMILES IDX 51 57 65 59 86 60 53 61 37 62 38 63 46 64 39 65 41 66 47 67
REMARK SMILES IDX 40 68 42 69 43 70 44 71 45 72 69 73 70 74 78 75 71 76 73 77
REMARK SMILES IDX 79 78 72 79 74 80 75 81 76 82 77 83 54 84 55 85 63 86 56 87
REMARK SMILES IDX 58 88 64 89 57 90 59 91 60 92 61 93 62 94
REMARK H PARENT 20 6 25 28 84 47 52 58
REMARK Flexibility Score: inf
ROOT
ATOM      1  C   UNL A   1      31.421  30.227  26.711  1.00  0.00     0.023 C 
ENDROOT
BRANCH   1   2
ATOM      2  C   UNL A   1      31.740  29.493  25.414  1.00  0.00     0.116 C 
BRANCH   2   3
ATOM      3  N   UNL A   1      30.971  30.032  24.312  1.00  0.00    -0.353 N 
ATOM      4  C   UNL A   1      30.293  29.368  23.337  1.00  0.00     0.260 C 
ATOM      5  O   UNL A   1      29.683  30.033  22.495  1.00  0.00    -0.271 OA
ATOM      6  H   UNL A   1      30.934  31.015  24.261  1.00  0.00     0.163 HD
BRANCH   4   7
ATOM      7  C   UNL A   1      30.283  27.819  23.275  1.00  0.00     0.258 C 
ATOM      8  C   UNL A   1      28.833  27.358  23.506  1.00  0.00     0.064 C 
BRANCH   7   9
ATOM      9  O   UNL A   1      30.805  27.031  22.212  1.00  0.00    -0.480 OA
BRANCH   9  10
ATOM     10  C   UNL A   1      31.608  25.945  22.418  1.00  0.00     0.127 A 
ATOM     11  C   UNL A   1      32.999  26.184  22.332  1.00  0.00    -0.005 A 
ATOM     12  C   UNL A   1      33.897  25.177  22.751  1.00  0.00     0.019 A 
ATOM     13  C   UNL A   1      33.440  23.949  23.241  1.00  0.00     0.021 A 
ATOM     14  C   UNL A   1      31.160  24.674  22.757  1.00  0.00     0.094 A 
ATOM     15  C   UNL A   1      34.316  22.896  23.770  1.00  0.00    -0.033 A 
ATOM     16  C   UNL A   1      32.068  23.729  23.233  1.00  0.00     0.142 A 
ATOM     17  C   UNL A   1      35.800  22.973  23.576  1.00  0.00     0.045 C 
ATOM     18  C   UNL A   1      33.745  21.876  24.427  1.00  0.00     0.098 A 
ATOM     19  O   UNL A   1      31.504  22.576  23.812  1.00  0.00    -0.423 OA
ATOM     20  C   UNL A   1      32.288  21.747  24.597  1.00  0.00     0.336 A 
ATOM     21  O   UNL A   1      31.813  20.927  25.365  1.00  0.00    -0.246 OA
BRANCH  11  22
ATOM     22  C   UNL A   1      33.503  27.536  21.856  1.00  0.00     0.036 C 
ATOM     23  C   UNL A   1      34.034  28.474  22.936  1.00  0.00     0.009 C 
ENDBRANCH  11  22
ENDBRANCH   9  10
ENDBRANCH   7   9
ENDBRANCH   4   7
ENDBRANCH   2   3
ENDBRANCH   1   2
BRANCH   1  24
ATOM     24  C   UNL A   1      31.277  31.743  26.552  1.00  0.00     0.023 C 
BRANCH  24  25
ATOM     25  C   UNL A   1      32.584  32.521  26.640  1.00  0.00     0.116 C 
BRANCH  25  26
ATOM     26  N   UNL A   1      32.407  33.832  27.249  1.00  0.00    -0.352 N 
ATOM     27  C   UNL A   1      33.059  34.377  28.328  1.00  0.00     0.251 C 
ATOM     28  H   UNL A   1      31.725  34.407  26.830  1.00  0.00     0.163 HD
ATOM     29  O   UNL A   1      32.653  35.420  28.832  1.00  0.00    -0.269 OA
BRANCH  27  30
ATOM     30  C   UNL A   1      34.240  33.686  28.885  1.00  0.00     0.039 A 
ATOM     31  C   UNL A   1      35.478  34.333  28.870  1.00  0.00     0.014 A 
ATOM     32  C   UNL A   1      34.114  32.410  29.442  1.00  0.00     0.014 A 
ATOM     33  C   UNL A   1      36.579  33.721  29.470  1.00  0.00     0.010 A 
ATOM     34  C   UNL A   1      35.192  31.842  30.112  1.00  0.00     0.010 A 
ATOM     35  C   UNL A   1      36.439  32.485  30.124  1.00  0.00    -0.014 A 
BRANCH  35  36
ATOM     36  C   UNL A   1      37.583  31.849  30.826  1.00  0.00     0.031 A 
ATOM     37  C   UNL A   1      38.424  30.820  30.121  1.00  0.00     0.074 A 
ATOM     38  C   UNL A   1      37.818  32.142  32.120  1.00  0.00     0.049 A 
ATOM     39  N   UNL A   1      39.441  30.133  30.575  1.00  0.00    -0.248 NA
ATOM     40  C   UNL A   1      38.063  30.502  28.729  1.00  0.00     0.031 C 
ATOM     41  C   UNL A   1      37.028  33.066  32.936  1.00  0.00     0.029 A 
ATOM     42  N   UNL A   1      38.778  31.677  32.983  1.00  0.00    -0.354 N 
ATOM     43  C   UNL A   1      39.817  29.282  29.543  1.00  0.00     0.074 A 
ATOM     44  C   UNL A   1      38.894  29.509  28.452  1.00  0.00     0.031 C 
ATOM     45  C   UNL A   1      37.543  33.110  34.175  1.00  0.00     0.029 A 
ATOM     46  C   UNL A   1      38.678  32.197  34.253  1.00  0.00     0.049 A 
ATOM     47  H   UNL A   1      39.473  31.032  32.719  1.00  0.00     0.167 HD
ATOM     48  C   UNL A   1      40.856  28.415  29.489  1.00  0.00     0.034 A 
ATOM     49  C   UNL A   1      39.416  31.960  35.356  1.00  0.00     0.034 A 
ATOM     50  C   UNL A   1      41.788  28.214  30.566  1.00  0.00     0.049 A 
ATOM     51  C   UNL A   1      40.576  31.004  35.267  1.00  0.00     0.074 A 
ATOM     52  C   UNL A   1      42.918  27.415  30.589  1.00  0.00     0.029 A 
ATOM     53  N   UNL A   1      41.695  28.808  31.815  1.00  0.00    -0.354 N 
ATOM     54  N   UNL A   1      41.010  30.326  34.233  1.00  0.00    -0.248 NA
ATOM     55  C   UNL A   1      41.370  30.811  36.488  1.00  0.00     0.031 C 
ATOM     56  C   UNL A   1      43.491  27.505  31.862  1.00  0.00     0.029 A 
ATOM     57  C   UNL A   1      42.739  28.388  32.620  1.00  0.00     0.049 A 
ATOM     58  H   UNL A   1      40.988  29.437  32.089  1.00  0.00     0.167 HD
ATOM     59  C   UNL A   1      42.151  29.660  34.665  1.00  0.00     0.074 A 
ATOM     60  C   UNL A   1      42.350  30.031  36.051  1.00  0.00     0.031 C 
ATOM     61  C   UNL A   1      42.955  28.807  33.982  1.00  0.00     0.034 A 
BRANCH  48  62
ATOM     62  C   UNL A   1      41.066  27.656  28.204  1.00  0.00     0.023 A 
ATOM     63  C   UNL A   1      41.595  28.325  27.080  1.00  0.00     0.012 A 
ATOM     64  C   UNL A   1      40.778  26.280  28.113  1.00  0.00     0.148 A 
ATOM     65  C   UNL A   1      41.793  27.651  25.876  1.00  0.00     0.002 A 
ATOM     66  C   UNL A   1      41.023  25.603  26.924  1.00  0.00     0.091 A 
ATOM     67  F   UNL A   1      40.257  25.663  29.182  1.00  0.00    -0.205 F 
ATOM     68  C   UNL A   1      41.517  26.289  25.801  1.00  0.00     0.022 A 
BRANCH  66  69
ATOM     69  S   UNL A   1      40.777  23.833  26.747  1.00  0.00     0.127 S 
ATOM     70  O   UNL A   1      39.375  23.770  26.334  1.00  0.00    -0.237 OA
ATOM     71  O   UNL A   1      41.736  23.493  25.695  1.00  0.00    -0.237 OA
ATOM     72  O   UNL A   1      41.073  23.254  28.049  1.00  0.00    -0.744 OA
ENDBRANCH  66  69
ENDBRANCH  48  62
BRANCH  49  73
ATOM     73  C   UNL A   1      39.128  32.696  36.620  1.00  0.00     0.023 A 
ATOM     74  C   UNL A   1      39.718  33.958  36.830  1.00  0.00     0.012 A 
ATOM     75  C   UNL A   1      38.266  32.169  37.601  1.00  0.00     0.148 A 
ATOM     76  C   UNL A   1      39.483  34.666  38.010  1.00  0.00     0.002 A 
ATOM     77  C   UNL A   1      37.993  32.904  38.749  1.00  0.00     0.091 A 
ATOM     78  F   UNL A   1      37.721  30.964  37.386  1.00  0.00    -0.205 F 
ATOM     79  C   UNL A   1      38.615  34.144  38.964  1.00  0.00     0.022 A 
BRANCH  77  80
ATOM     80  S   UNL A   1      36.792  32.373  39.975  1.00  0.00     0.127 S 
ATOM     81  O   UNL A   1      36.857  33.461  40.947  1.00  0.00    -0.237 OA
ATOM     82  O   UNL A   1      35.561  32.324  39.186  1.00  0.00    -0.237 OA
ATOM     83  O   UNL A   1      37.257  31.076  40.446  1.00  0.00    -0.744 OA
ENDBRANCH  77  80
ENDBRANCH  49  73
BRANCH  61  84
ATOM     84  C   UNL A   1      44.156  28.251  34.702  1.00  0.00     0.023 A 
ATOM     85  C   UNL A   1      45.361  28.978  34.732  1.00  0.00     0.012 A 
ATOM     86  C   UNL A   1      44.066  27.034  35.409  1.00  0.00     0.148 A 
ATOM     87  C   UNL A   1      46.471  28.486  35.420  1.00  0.00     0.002 A 
ATOM     88  C   UNL A   1      45.157  26.576  36.136  1.00  0.00     0.091 A 
ATOM     89  F   UNL A   1      42.915  26.347  35.355  1.00  0.00    -0.205 F 
ATOM     90  C   UNL A   1      46.364  27.293  36.132  1.00  0.00     0.022 A 
BRANCH  88  91
ATOM     91  S   UNL A   1      45.082  25.104  37.163  1.00  0.00     0.127 S 
ATOM     92  O   UNL A   1      44.619  24.099  36.208  1.00  0.00    -0.237 OA
ATOM     93  O   UNL A   1      46.474  24.950  37.585  1.00  0.00    -0.237 OA
ATOM     94  O   UNL A   1      44.155  25.413  38.242  1.00  0.00    -0.744 OA
ENDBRANCH  88  91
ENDBRANCH  61  84
ENDBRANCH  35  36
ENDBRANCH  27  30
ENDBRANCH  25  26
ENDBRANCH  24  25
ENDBRANCH   1  24
TORSDOF 17
ENDMDL
MODEL 3
REMARK VINA RESULT:     -11.7      2.254      2.671
REMARK SMILES CCc1cc2c(C)cc(=O)oc2cc1O[C@H](C)C(=O)NCCCCNC(=O)c1ccc(-c2c3nc(c(-c4cccc(S(=O)(=O)[O-])c4F)c4ccc([nH]4)c(-c4cccc(S(=O)(=O)[O-])c4F)c4nc(c(-c5cccc(S(=O)(=O)[O-])c5F)c5ccc2[nH]5)C=C4)C=C3)cc1
REMARK SMILES IDX 22 1 21 2 20 3 18 4 19 5 16 7 17 8 15 9 14 10 3 11 4 12 5 13
REMARK SMILES IDX 13 14 6 15 12 16 7 17 8 18 11 19 9 20 10 21 2 22 1 23 23 24
REMARK SMILES IDX 24 25 25 26 26 27 27 29 28 30 29 31 90 32 30 33 89 34 31 35
REMARK SMILES IDX 32 36 33 37 83 38 34 39 88 40 82 41 84 42 35 43 87 44 81 45
REMARK SMILES IDX 80 46 36 48 68 49 48 50 67 51 49 52 52 53 66 54 85 55 50 56
REMARK SMILES IDX 51 57 65 59 86 60 53 61 37 62 38 63 46 64 39 65 41 66 47 67
REMARK SMILES IDX 40 68 42 69 43 70 44 71 45 72 69 73 70 74 78 75 71 76 73 77
REMARK SMILES IDX 79 78 72 79 74 80 75 81 76 82 77 83 54 84 55 85 63 86 56 87
REMARK SMILES IDX 58 88 64 89 57 90 59 91 60 92 61 93 62 94
REMARK H PARENT 20 6 25 28 84 47 52 58
REMARK Flexibility Score: inf
ROOT
ATOM      1  C   UNL A   1      32.198  29.334  25.088  1.00  0.00     0.023 C 
ENDROOT
BRANCH   1   2
ATOM      2  C   UNL A   1      31.293  28.216  24.586  1.00  0.00     0.116 C 
BRANCH   2   3
ATOM      3  N   UNL A   1      30.839  27.386  25.684  1.00  0.00    -0.353 N 
ATOM      4  C   UNL A   1      30.425  26.090  25.661  1.00  0.00     0.260 C 
ATOM      5  O   UNL A   1      30.095  25.565  26.728  1.00  0.00    -0.271 OA
ATOM      6  H   UNL A   1      30.829  27.820  26.568  1.00  0.00     0.163 HD
BRANCH   4   7
ATOM      7  C   UNL A   1      30.365  25.287  24.337  1.00  0.00     0.258 C 
ATOM      8  C   UNL A   1      29.234  25.887  23.484  1.00  0.00     0.064 C 
BRANCH   7   9
ATOM      9  O   UNL A   1      31.463  25.051  23.463  1.00  0.00    -0.480 OA
BRANCH   9  10
ATOM     10  C   UNL A   1      32.277  23.959  23.571  1.00  0.00     0.127 A 
ATOM     11  C   UNL A   1      33.584  24.211  24.048  1.00  0.00    -0.005 A 
ATOM     12  C   UNL A   1      34.409  23.121  24.403  1.00  0.00     0.019 A 
ATOM     13  C   UNL A   1      33.964  21.800  24.285  1.00  0.00     0.021 A 
ATOM     14  C   UNL A   1      31.894  22.648  23.310  1.00  0.00     0.094 A 
ATOM     15  C   UNL A   1      34.738  20.628  24.714  1.00  0.00    -0.033 A 
ATOM     16  C   UNL A   1      32.702  21.597  23.738  1.00  0.00     0.142 A 
ATOM     17  C   UNL A   1      36.186  20.765  25.075  1.00  0.00     0.045 C 
ATOM     18  C   UNL A   1      34.109  19.446  24.771  1.00  0.00     0.098 A 
ATOM     19  O   UNL A   1      32.120  20.316  23.686  1.00  0.00    -0.423 OA
ATOM     20  C   UNL A   1      32.700  19.268  24.381  1.00  0.00     0.336 A 
ATOM     21  O   UNL A   1      32.101  18.236  24.633  1.00  0.00    -0.246 OA
BRANCH  11  22
ATOM     22  C   UNL A   1      34.054  25.643  24.234  1.00  0.00     0.036 C 
ATOM     23  C   UNL A   1      34.110  26.151  25.673  1.00  0.00     0.009 C 
ENDBRANCH  11  22
ENDBRANCH   9  10
ENDBRANCH   7   9
ENDBRANCH   4   7
ENDBRANCH   2   3
ENDBRANCH   1   2
BRANCH   1  24
ATOM     24  C   UNL A   1      32.384  29.353  26.608  1.00  0.00     0.023 C 
BRANCH  24  25
ATOM     25  C   UNL A   1      33.761  29.808  27.077  1.00  0.00     0.116 C 
BRANCH  25  26
ATOM     26  N   UNL A   1      33.733  31.143  27.658  1.00  0.00    -0.352 N 
ATOM     27  C   UNL A   1      34.597  31.706  28.566  1.00  0.00     0.251 C 
ATOM     28  H   UNL A   1      32.993  31.721  27.360  1.00  0.00     0.163 HD
ATOM     29  O   UNL A   1      34.319  32.776  29.100  1.00  0.00    -0.269 OA
BRANCH  27  30
ATOM     30  C   UNL A   1      35.851  31.004  28.905  1.00  0.00     0.039 A 
ATOM     31  C   UNL A   1      37.058  31.469  28.379  1.00  0.00     0.014 A 
ATOM     32  C   UNL A   1      35.831  29.899  29.763  1.00  0.00     0.014 A 
ATOM     33  C   UNL A   1      38.254  30.862  28.764  1.00  0.00     0.010 A 
ATOM     34  C   UNL A   1      37.029  29.352  30.208  1.00  0.00     0.010 A 
ATOM     35  C   UNL A   1      38.253  29.819  29.706  1.00  0.00    -0.014 A 
BRANCH  35  36
ATOM     36  C   UNL A   1      39.520  29.205  30.177  1.00  0.00     0.031 A 
ATOM     37  C   UNL A   1      40.213  29.745  31.399  1.00  0.00     0.074 A 
ATOM     38  C   UNL A   1      40.086  28.211  29.464  1.00  0.00     0.049 A 
ATOM     39  N   UNL A   1      41.339  29.365  31.945  1.00  0.00    -0.248 NA
ATOM     40  C   UNL A   1      39.568  30.878  32.085  1.00  0.00     0.031 C 
ATOM     41  C   UNL A   1      39.552  27.651  28.221  1.00  0.00     0.029 A 
ATOM     42  N   UNL A   1      41.247  27.509  29.671  1.00  0.00    -0.354 N 
ATOM     43  C   UNL A   1      41.555  30.227  33.013  1.00  0.00     0.074 A 
ATOM     44  C   UNL A   1      40.464  31.178  33.013  1.00  0.00     0.031 C 
ATOM     45  C   UNL A   1      40.374  26.684  27.784  1.00  0.00     0.029 A 
ATOM     46  C   UNL A   1      41.509  26.576  28.695  1.00  0.00     0.049 A 
ATOM     47  H   UNL A   1      41.837  27.660  30.444  1.00  0.00     0.167 HD
ATOM     48  C   UNL A   1      42.549  30.213  33.932  1.00  0.00     0.034 A 
ATOM     49  C   UNL A   1      42.550  25.731  28.550  1.00  0.00     0.034 A 
ATOM     50  C   UNL A   1      43.617  29.249  33.944  1.00  0.00     0.049 A 
ATOM     51  C   UNL A   1      43.634  25.722  29.594  1.00  0.00     0.074 A 
ATOM     52  C   UNL A   1      44.632  29.099  34.872  1.00  0.00     0.029 A 
ATOM     53  N   UNL A   1      43.813  28.274  32.977  1.00  0.00    -0.354 N 
ATOM     54  N   UNL A   1      43.738  26.443  30.684  1.00  0.00    -0.248 NA
ATOM     55  C   UNL A   1      44.726  24.756  29.407  1.00  0.00     0.031 C 
ATOM     56  C   UNL A   1      45.459  28.053  34.450  1.00  0.00     0.029 A 
ATOM     57  C   UNL A   1      44.938  27.527  33.279  1.00  0.00     0.049 A 
ATOM     58  H   UNL A   1      43.237  28.136  32.190  1.00  0.00     0.167 HD
ATOM     59  C   UNL A   1      44.880  25.991  31.334  1.00  0.00     0.074 A 
ATOM     60  C   UNL A   1      45.424  24.920  30.523  1.00  0.00     0.031 C 
ATOM     61  C   UNL A   1      45.437  26.429  32.490  1.00  0.00     0.034 A 
BRANCH  48  62
ATOM     62  C   UNL A   1      42.498  31.244  35.031  1.00  0.00     0.023 A 
ATOM     63  C   UNL A   1      41.884  30.922  36.259  1.00  0.00     0.012 A 
ATOM     64  C   UNL A   1      43.086  32.514  34.868  1.00  0.00     0.148 A 
ATOM     65  C   UNL A   1      41.817  31.858  37.290  1.00  0.00     0.002 A 
ATOM     66  C   UNL A   1      43.057  33.425  35.917  1.00  0.00     0.091 A 
ATOM     67  F   UNL A   1      43.648  32.813  33.688  1.00  0.00    -0.205 F 
ATOM     68  C   UNL A   1      42.410  33.105  37.123  1.00  0.00     0.022 A 
BRANCH  66  69
ATOM     69  S   UNL A   1      43.862  35.028  35.832  1.00  0.00     0.127 S 
ATOM     70  O   UNL A   1      43.522  35.599  37.135  1.00  0.00    -0.237 OA
ATOM     71  O   UNL A   1      45.270  34.657  35.681  1.00  0.00    -0.237 OA
ATOM     72  O   UNL A   1      43.286  35.708  34.681  1.00  0.00    -0.744 OA
ENDBRANCH  66  69
ENDBRANCH  48  62
BRANCH  49  73
ATOM     73  C   UNL A   1      42.579  24.770  27.411  1.00  0.00     0.023 A 
ATOM     74  C   UNL A   1      43.178  25.160  26.197  1.00  0.00     0.012 A 
ATOM     75  C   UNL A   1      42.039  23.474  27.524  1.00  0.00     0.148 A 
ATOM     76  C   UNL A   1      43.208  24.291  25.105  1.00  0.00     0.002 A 
ATOM     77  C   UNL A   1      42.121  22.594  26.451  1.00  0.00     0.091 A 
ATOM     78  F   UNL A   1      41.467  23.124  28.685  1.00  0.00    -0.205 F 
ATOM     79  C   UNL A   1      42.688  23.006  25.236  1.00  0.00     0.022 A 
BRANCH  77  80
ATOM     80  S   UNL A   1      41.594  20.880  26.564  1.00  0.00     0.127 S 
ATOM     81  O   UNL A   1      40.145  21.005  26.427  1.00  0.00    -0.237 OA
ATOM     82  O   UNL A   1      42.273  20.282  25.413  1.00  0.00    -0.237 OA
ATOM     83  O   UNL A   1      42.067  20.406  27.856  1.00  0.00    -0.744 OA
ENDBRANCH  77  80
ENDBRANCH  49  73
BRANCH  61  84
ATOM     84  C   UNL A   1      46.674  25.722  32.982  1.00  0.00     0.023 A 
ATOM     85  C   UNL A   1      47.950  26.227  32.664  1.00  0.00     0.012 A 
ATOM     86  C   UNL A   1      46.567  24.591  33.817  1.00  0.00     0.148 A 
ATOM     87  C   UNL A   1      49.101  25.597  33.138  1.00  0.00     0.002 A 
ATOM     88  C   UNL A   1      47.715  24.001  34.329  1.00  0.00     0.091 A 
ATOM     89  F   UNL A   1      45.344  24.114  34.094  1.00  0.00    -0.205 F 
ATOM     90  C   UNL A   1      48.983  24.493  33.980  1.00  0.00     0.022 A 
BRANCH  88  91
ATOM     91  S   UNL A   1      47.659  22.639  35.499  1.00  0.00     0.127 S 
ATOM     92  O   UNL A   1      47.084  21.570  34.685  1.00  0.00    -0.237 OA
ATOM     93  O   UNL A   1      49.072  22.459  35.833  1.00  0.00    -0.237 OA
ATOM     94  O   UNL A   1      46.831  23.095  36.608  1.00  0.00    -0.744 OA
ENDBRANCH  88  91
ENDBRANCH  61  84
ENDBRANCH  35  36
ENDBRANCH  27  30
ENDBRANCH  25  26
ENDBRANCH  24  25
ENDBRANCH   1  24
TORSDOF 17
ENDMDL
