MODEL 1
REMARK VINA RESULT:     -13.7      0.000      0.000
REMARK SMILES Cc1ccc2c(=O)c3cccc(CC(=O)NCCCCNC(=O)c4ccc(-c5c6nc(c(-c7cccc(S(=O)(=O)[O-])c7F)c7ccc([nH]7)c(-c7cccc(S(=O)(=O)[O-])c7F)c7nc(c(-c8cccc(S(=O)(=O)[O-])c8F)c8ccc5[nH]8)C=C7)C=C6)cc4)c3oc2c1C
REMARK SMILES IDX 19 1 18 2 17 3 16 4 14 5 15 6 13 8 12 9 1 10 2 11 3 12 90 13
REMARK SMILES IDX 4 14 89 15 91 16 5 17 88 18 6 19 87 20 7 21 8 22 9 23 11 24
REMARK SMILES IDX 10 25 20 26 21 27 22 28 23 30 24 31 25 32 86 33 26 34 85 35
REMARK SMILES IDX 27 36 28 37 29 38 79 39 30 40 84 41 78 42 80 43 31 44 83 45
REMARK SMILES IDX 77 46 76 47 32 49 64 50 44 51 63 52 45 53 48 54 62 55 81 56
REMARK SMILES IDX 46 57 47 58 61 60 82 61 49 62 33 63 34 64 42 65 35 66 37 67
REMARK SMILES IDX 43 68 36 69 38 70 39 71 40 72 41 73 65 74 66 75 74 76 67 77
REMARK SMILES IDX 69 78 75 79 68 80 70 81 71 82 72 83 73 84 50 85 51 86 59 87
REMARK SMILES IDX 52 88 54 89 60 90 53 91 55 92 56 93 57 94 58 95
REMARK H PARENT 16 7 21 29 80 48 48 59
REMARK Flexibility Score: inf
ROOT
ATOM      1  C   UNL A   1      35.451  21.888  26.036  1.00  0.00     0.023 C 
ENDROOT
BRANCH   1   2
ATOM      2  C   UNL A   1      34.457  20.870  25.475  1.00  0.00     0.023 C 
BRANCH   2   3
ATOM      3  C   UNL A   1      33.213  20.640  26.333  1.00  0.00     0.116 C 
BRANCH   3   4
ATOM      4  N   UNL A   1      32.843  21.817  27.096  1.00  0.00    -0.356 N 
ATOM      5  C   UNL A   1      31.919  22.780  26.805  1.00  0.00     0.224 C 
ATOM      6  O   UNL A   1      31.737  23.680  27.627  1.00  0.00    -0.275 OA
ATOM      7  H   UNL A   1      33.326  21.938  27.944  1.00  0.00     0.163 HD
BRANCH   5   8
ATOM      8  C   UNL A   1      31.084  22.692  25.538  1.00  0.00     0.139 C 
BRANCH   8   9
ATOM      9  C   UNL A   1      31.806  23.078  24.264  1.00  0.00     0.005 A 
ATOM     10  C   UNL A   1      31.959  29.990  26.621  1.00  0.00     0.045 C 
ATOM     11  C   UNL A   1      32.309  28.941  25.600  1.00  0.00    -0.044 A 
ATOM     12  C   UNL A   1      33.039  29.330  24.463  1.00  0.00     0.005 A 
ATOM     13  C   UNL A   1      31.921  27.590  25.750  1.00  0.00    -0.005 A 
ATOM     14  C   UNL A   1      33.392  28.399  23.489  1.00  0.00     0.016 A 
ATOM     15  C   UNL A   1      32.292  26.654  24.761  1.00  0.00     0.141 A 
ATOM     16  C   UNL A   1      31.161  27.109  26.961  1.00  0.00     0.049 C 
ATOM     17  C   UNL A   1      33.017  27.066  23.644  1.00  0.00     0.066 A 
ATOM     18  O   UNL A   1      31.908  25.346  24.961  1.00  0.00    -0.455 OA
ATOM     19  C   UNL A   1      33.372  26.074  22.620  1.00  0.00     0.200 A 
ATOM     20  C   UNL A   1      32.226  24.399  24.019  1.00  0.00     0.142 A 
ATOM     21  O   UNL A   1      33.989  26.385  21.609  1.00  0.00    -0.288 OA
ATOM     22  C   UNL A   1      32.934  24.693  22.854  1.00  0.00     0.066 A 
ATOM     23  C   UNL A   1      33.223  23.696  21.917  1.00  0.00     0.016 A 
ATOM     24  C   UNL A   1      32.067  22.091  23.294  1.00  0.00     0.008 A 
ATOM     25  C   UNL A   1      32.781  22.395  22.135  1.00  0.00     0.001 A 
ENDBRANCH   8   9
ENDBRANCH   5   8
ENDBRANCH   3   4
ENDBRANCH   2   3
ENDBRANCH   1   2
BRANCH   1  26
ATOM     26  C   UNL A   1      36.712  22.096  25.208  1.00  0.00     0.116 C 
BRANCH  26  27
ATOM     27  N   UNL A   1      37.672  21.008  25.321  1.00  0.00    -0.352 N 
ATOM     28  C   UNL A   1      38.936  21.038  25.868  1.00  0.00     0.251 C 
ATOM     29  H   UNL A   1      37.380  20.140  24.961  1.00  0.00     0.163 HD
ATOM     30  O   UNL A   1      39.658  20.048  25.804  1.00  0.00    -0.269 OA
BRANCH  28  31
ATOM     31  C   UNL A   1      39.427  22.291  26.485  1.00  0.00     0.039 A 
ATOM     32  C   UNL A   1      38.898  23.524  26.099  1.00  0.00     0.014 A 
ATOM     33  C   UNL A   1      40.472  22.231  27.410  1.00  0.00     0.014 A 
ATOM     34  C   UNL A   1      39.525  24.696  26.504  1.00  0.00     0.010 A 
ATOM     35  C   UNL A   1      41.053  23.415  27.875  1.00  0.00     0.010 A 
ATOM     36  C   UNL A   1      40.621  24.656  27.384  1.00  0.00    -0.014 A 
BRANCH  36  37
ATOM     37  C   UNL A   1      41.299  25.924  27.759  1.00  0.00     0.031 A 
ATOM     38  C   UNL A   1      42.686  26.236  27.262  1.00  0.00     0.074 A 
ATOM     39  C   UNL A   1      40.632  26.829  28.502  1.00  0.00     0.049 A 
ATOM     40  N   UNL A   1      43.401  27.317  27.452  1.00  0.00    -0.248 NA
ATOM     41  C   UNL A   1      43.363  25.211  26.450  1.00  0.00     0.031 C 
ATOM     42  C   UNL A   1      39.287  26.640  29.050  1.00  0.00     0.029 A 
ATOM     43  N   UNL A   1      40.980  28.095  28.902  1.00  0.00    -0.354 N 
ATOM     44  C   UNL A   1      44.616  27.089  26.818  1.00  0.00     0.074 A 
ATOM     45  C   UNL A   1      44.550  25.766  26.238  1.00  0.00     0.031 C 
ATOM     46  C   UNL A   1      38.902  27.768  29.667  1.00  0.00     0.029 A 
ATOM     47  C   UNL A   1      39.987  28.742  29.599  1.00  0.00     0.049 A 
ATOM     48  H   UNL A   1      41.856  28.500  28.709  1.00  0.00     0.167 HD
ATOM     49  C   UNL A   1      45.681  27.918  26.706  1.00  0.00     0.034 A 
ATOM     50  C   UNL A   1      39.947  29.983  30.122  1.00  0.00     0.034 A 
ATOM     51  C   UNL A   1      45.727  29.256  27.229  1.00  0.00     0.049 A 
ATOM     52  C   UNL A   1      41.137  30.885  29.969  1.00  0.00     0.074 A 
ATOM     53  C   UNL A   1      46.758  30.176  27.136  1.00  0.00     0.029 A 
ATOM     54  N   UNL A   1      44.701  29.872  27.926  1.00  0.00    -0.354 N 
ATOM     55  N   UNL A   1      42.250  30.669  29.314  1.00  0.00    -0.248 NA
ATOM     56  C   UNL A   1      41.062  32.204  30.615  1.00  0.00     0.031 C 
ATOM     57  C   UNL A   1      46.352  31.351  27.773  1.00  0.00     0.029 A 
ATOM     58  C   UNL A   1      45.070  31.161  28.263  1.00  0.00     0.049 A 
ATOM     59  H   UNL A   1      43.838  29.454  28.147  1.00  0.00     0.167 HD
ATOM     60  C   UNL A   1      43.006  31.825  29.459  1.00  0.00     0.074 A 
ATOM     61  C   UNL A   1      42.214  32.750  30.245  1.00  0.00     0.031 C 
ATOM     62  C   UNL A   1      44.253  32.088  29.001  1.00  0.00     0.034 A 
BRANCH  49  63
ATOM     63  C   UNL A   1      46.877  27.437  25.934  1.00  0.00     0.023 A 
ATOM     64  C   UNL A   1      47.746  26.505  26.534  1.00  0.00     0.012 A 
ATOM     65  C   UNL A   1      47.073  27.806  24.589  1.00  0.00     0.148 A 
ATOM     66  C   UNL A   1      48.799  25.949  25.808  1.00  0.00     0.002 A 
ATOM     67  C   UNL A   1      48.109  27.230  23.863  1.00  0.00     0.091 A 
ATOM     68  F   UNL A   1      46.238  28.702  24.045  1.00  0.00    -0.205 F 
ATOM     69  C   UNL A   1      48.974  26.303  24.472  1.00  0.00     0.022 A 
BRANCH  67  70
ATOM     70  S   UNL A   1      48.392  27.572  22.123  1.00  0.00     0.127 S 
ATOM     71  O   UNL A   1      49.564  28.446  22.181  1.00  0.00    -0.237 OA
ATOM     72  O   UNL A   1      48.654  26.238  21.586  1.00  0.00    -0.237 OA
ATOM     73  O   UNL A   1      47.175  28.204  21.632  1.00  0.00    -0.744 OA
ENDBRANCH  67  70
ENDBRANCH  49  63
BRANCH  50  74
ATOM     74  C   UNL A   1      38.700  30.457  30.778  1.00  0.00     0.023 A 
ATOM     75  C   UNL A   1      38.581  30.354  32.177  1.00  0.00     0.012 A 
ATOM     76  C   UNL A   1      37.674  31.077  30.040  1.00  0.00     0.148 A 
ATOM     77  C   UNL A   1      37.458  30.858  32.832  1.00  0.00     0.002 A 
ATOM     78  C   UNL A   1      36.578  31.617  30.702  1.00  0.00     0.091 A 
ATOM     79  F   UNL A   1      37.806  31.151  28.708  1.00  0.00    -0.205 F 
ATOM     80  C   UNL A   1      36.463  31.500  32.097  1.00  0.00     0.022 A 
BRANCH  78  81
ATOM     81  S   UNL A   1      35.310  32.566  29.856  1.00  0.00     0.127 S 
ATOM     82  O   UNL A   1      34.327  32.765  30.918  1.00  0.00    -0.237 OA
ATOM     83  O   UNL A   1      36.045  33.767  29.461  1.00  0.00    -0.237 OA
ATOM     84  O   UNL A   1      34.875  31.734  28.741  1.00  0.00    -0.744 OA
ENDBRANCH  78  81
ENDBRANCH  50  74
BRANCH  62  85
ATOM     85  C   UNL A   1      44.857  33.424  29.326  1.00  0.00     0.023 A 
ATOM     86  C   UNL A   1      45.613  33.564  30.504  1.00  0.00     0.012 A 
ATOM     87  C   UNL A   1      44.780  34.493  28.413  1.00  0.00     0.148 A 
ATOM     88  C   UNL A   1      46.283  34.755  30.774  1.00  0.00     0.002 A 
ATOM     89  C   UNL A   1      45.475  35.668  28.675  1.00  0.00     0.091 A 
ATOM     90  F   UNL A   1      44.044  34.334  27.303  1.00  0.00    -0.205 F 
ATOM     91  C   UNL A   1      46.224  35.802  29.856  1.00  0.00     0.022 A 
BRANCH  89  92
ATOM     92  S   UNL A   1      45.517  37.045  27.523  1.00  0.00     0.127 S 
ATOM     93  O   UNL A   1      46.058  36.411  26.321  1.00  0.00    -0.237 OA
ATOM     94  O   UNL A   1      44.105  37.417  27.434  1.00  0.00    -0.237 OA
ATOM     95  O   UNL A   1      46.375  38.054  28.130  1.00  0.00    -0.744 OA
ENDBRANCH  89  92
ENDBRANCH  62  85
ENDBRANCH  36  37
ENDBRANCH  28  31
ENDBRANCH  26  27
ENDBRANCH   1  26
TORSDOF 15
ENDMDL
MODEL 2
REMARK VINA RESULT:     -13.2      1.467      7.535
REMARK SMILES Cc1ccc2c(=O)c3cccc(CC(=O)NCCCCNC(=O)c4ccc(-c5c6nc(c(-c7cccc(S(=O)(=O)[O-])c7F)c7ccc([nH]7)c(-c7cccc(S(=O)(=O)[O-])c7F)c7nc(c(-c8cccc(S(=O)(=O)[O-])c8F)c8ccc5[nH]8)C=C7)C=C6)cc4)c3oc2c1C
REMARK SMILES IDX 19 1 18 2 17 3 16 4 14 5 15 6 13 8 12 9 1 10 2 11 3 12 90 13
REMARK SMILES IDX 4 14 89 15 91 16 5 17 88 18 6 19 87 20 7 21 8 22 9 23 11 24
REMARK SMILES IDX 10 25 20 26 21 27 22 28 23 30 24 31 25 32 86 33 26 34 85 35
REMARK SMILES IDX 27 36 28 37 29 38 79 39 30 40 84 41 78 42 80 43 31 44 83 45
REMARK SMILES IDX 77 46 76 47 32 49 64 50 44 51 63 52 45 53 48 54 62 55 81 56
REMARK SMILES IDX 46 57 47 58 61 60 82 61 49 62 33 63 34 64 42 65 35 66 37 67
REMARK SMILES IDX 43 68 36 69 38 70 39 71 40 72 41 73 65 74 66 75 74 76 67 77
REMARK SMILES IDX 69 78 75 79 68 80 70 81 71 82 72 83 73 84 50 85 51 86 59 87
REMARK SMILES IDX 52 88 54 89 60 90 53 91 55 92 56 93 57 94 58 95
REMARK H PARENT 16 7 21 29 80 48 48 59
REMARK Flexibility Score: inf
ROOT
ATOM      1  C   UNL A   1      35.460  21.608  25.572  1.00  0.00     0.023 C 
ENDROOT
BRANCH   1   2
ATOM      2  C   UNL A   1      34.530  20.497  25.081  1.00  0.00     0.023 C 
BRANCH   2   3
ATOM      3  C   UNL A   1      33.193  20.402  25.816  1.00  0.00     0.116 C 
BRANCH   3   4
ATOM      4  N   UNL A   1      32.994  21.498  26.744  1.00  0.00    -0.356 N 
ATOM      5  C   UNL A   1      32.136  22.558  26.659  1.00  0.00     0.224 C 
ATOM      6  O   UNL A   1      32.104  23.360  27.594  1.00  0.00    -0.275 OA
ATOM      7  H   UNL A   1      33.556  21.475  27.551  1.00  0.00     0.163 HD
BRANCH   5   8
ATOM      8  C   UNL A   1      31.193  22.694  25.474  1.00  0.00     0.139 C 
BRANCH   8   9
ATOM      9  C   UNL A   1      31.845  23.126  24.178  1.00  0.00     0.005 A 
ATOM     10  C   UNL A   1      32.092  29.958  26.751  1.00  0.00     0.045 C 
ATOM     11  C   UNL A   1      32.393  28.945  25.679  1.00  0.00    -0.044 A 
ATOM     12  C   UNL A   1      33.060  29.375  24.519  1.00  0.00     0.005 A 
ATOM     13  C   UNL A   1      32.019  27.587  25.805  1.00  0.00    -0.005 A 
ATOM     14  C   UNL A   1      33.366  28.479  23.498  1.00  0.00     0.016 A 
ATOM     15  C   UNL A   1      32.342  26.686  24.767  1.00  0.00     0.141 A 
ATOM     16  C   UNL A   1      31.325  27.062  27.037  1.00  0.00     0.049 C 
ATOM     17  C   UNL A   1      33.004  27.139  23.628  1.00  0.00     0.066 A 
ATOM     18  O   UNL A   1      31.974  25.370  24.943  1.00  0.00    -0.455 OA
ATOM     19  C   UNL A   1      33.309  26.183  22.555  1.00  0.00     0.200 A 
ATOM     20  C   UNL A   1      32.246  24.456  23.955  1.00  0.00     0.142 A 
ATOM     21  O   UNL A   1      33.871  26.531  21.524  1.00  0.00    -0.288 OA
ATOM     22  C   UNL A   1      32.890  24.792  22.765  1.00  0.00     0.066 A 
ATOM     23  C   UNL A   1      33.134  23.829  21.781  1.00  0.00     0.016 A 
ATOM     24  C   UNL A   1      32.058  22.173  23.163  1.00  0.00     0.008 A 
ATOM     25  C   UNL A   1      32.710  22.519  21.980  1.00  0.00     0.001 A 
ENDBRANCH   8   9
ENDBRANCH   5   8
ENDBRANCH   3   4
ENDBRANCH   2   3
ENDBRANCH   1   2
BRANCH   1  26
ATOM     26  C   UNL A   1      36.793  21.715  24.841  1.00  0.00     0.116 C 
BRANCH  26  27
ATOM     27  N   UNL A   1      37.702  20.614  25.120  1.00  0.00    -0.352 N 
ATOM     28  C   UNL A   1      38.919  20.654  25.766  1.00  0.00     0.251 C 
ATOM     29  H   UNL A   1      37.411  19.728  24.807  1.00  0.00     0.163 HD
ATOM     30  O   UNL A   1      39.609  19.642  25.841  1.00  0.00    -0.269 OA
BRANCH  28  31
ATOM     31  C   UNL A   1      39.401  21.939  26.319  1.00  0.00     0.039 A 
ATOM     32  C   UNL A   1      38.774  23.137  25.974  1.00  0.00     0.014 A 
ATOM     33  C   UNL A   1      40.533  21.946  27.138  1.00  0.00     0.014 A 
ATOM     34  C   UNL A   1      39.375  24.346  26.304  1.00  0.00     0.010 A 
ATOM     35  C   UNL A   1      41.094  23.165  27.533  1.00  0.00     0.010 A 
ATOM     36  C   UNL A   1      40.552  24.375  27.073  1.00  0.00    -0.014 A 
BRANCH  36  37
ATOM     37  C   UNL A   1      41.196  25.681  27.369  1.00  0.00     0.031 A 
ATOM     38  C   UNL A   1      40.482  26.730  28.181  1.00  0.00     0.074 A 
ATOM     39  C   UNL A   1      42.460  25.898  26.955  1.00  0.00     0.049 A 
ATOM     40  N   UNL A   1      40.918  27.900  28.574  1.00  0.00    -0.248 NA
ATOM     41  C   UNL A   1      39.104  26.435  28.611  1.00  0.00     0.031 C 
ATOM     42  C   UNL A   1      43.254  24.964  26.154  1.00  0.00     0.029 A 
ATOM     43  N   UNL A   1      43.307  26.955  27.170  1.00  0.00    -0.354 N 
ATOM     44  C   UNL A   1      39.865  28.492  29.261  1.00  0.00     0.074 A 
ATOM     45  C   UNL A   1      38.762  27.557  29.231  1.00  0.00     0.031 C 
ATOM     46  C   UNL A   1      44.488  25.464  25.992  1.00  0.00     0.029 A 
ATOM     47  C   UNL A   1      44.561  26.771  26.636  1.00  0.00     0.049 A 
ATOM     48  H   UNL A   1      43.043  27.768  27.659  1.00  0.00     0.167 HD
ATOM     49  C   UNL A   1      39.828  29.694  29.881  1.00  0.00     0.034 A 
ATOM     50  C   UNL A   1      45.652  27.561  26.664  1.00  0.00     0.034 A 
ATOM     51  C   UNL A   1      40.942  30.600  29.964  1.00  0.00     0.049 A 
ATOM     52  C   UNL A   1      45.587  28.882  27.373  1.00  0.00     0.074 A 
ATOM     53  C   UNL A   1      41.000  31.830  30.599  1.00  0.00     0.029 A 
ATOM     54  N   UNL A   1      42.191  30.374  29.411  1.00  0.00    -0.354 N 
ATOM     55  N   UNL A   1      44.599  29.393  28.066  1.00  0.00    -0.248 NA
ATOM     56  C   UNL A   1      46.786  29.730  27.317  1.00  0.00     0.031 C 
ATOM     57  C   UNL A   1      42.288  32.344  30.435  1.00  0.00     0.029 A 
ATOM     58  C   UNL A   1      43.030  31.436  29.697  1.00  0.00     0.049 A 
ATOM     59  H   UNL A   1      42.445  29.576  28.893  1.00  0.00     0.167 HD
ATOM     60  C   UNL A   1      45.058  30.616  28.536  1.00  0.00     0.074 A 
ATOM     61  C   UNL A   1      46.422  30.761  28.069  1.00  0.00     0.031 C 
ATOM     62  C   UNL A   1      44.400  31.545  29.269  1.00  0.00     0.034 A 
BRANCH  49  63
ATOM     63  C   UNL A   1      38.562  30.091  30.586  1.00  0.00     0.023 A 
ATOM     64  C   UNL A   1      38.402  29.752  31.944  1.00  0.00     0.012 A 
ATOM     65  C   UNL A   1      37.595  30.895  29.950  1.00  0.00     0.148 A 
ATOM     66  C   UNL A   1      37.295  30.204  32.660  1.00  0.00     0.002 A 
ATOM     67  C   UNL A   1      36.506  31.362  30.677  1.00  0.00     0.091 A 
ATOM     68  F   UNL A   1      37.766  31.194  28.655  1.00  0.00    -0.205 F 
ATOM     69  C   UNL A   1      36.354  31.016  32.031  1.00  0.00     0.022 A 
BRANCH  67  70
ATOM     70  S   UNL A   1      35.264  32.458  29.981  1.00  0.00     0.127 S 
ATOM     71  O   UNL A   1      34.340  32.606  31.105  1.00  0.00    -0.237 OA
ATOM     72  O   UNL A   1      36.047  33.653  29.674  1.00  0.00    -0.237 OA
ATOM     73  O   UNL A   1      34.720  31.765  28.821  1.00  0.00    -0.744 OA
ENDBRANCH  67  70
ENDBRANCH  49  63
BRANCH  50  74
ATOM     74  C   UNL A   1      46.918  27.076  26.053  1.00  0.00     0.023 A 
ATOM     75  C   UNL A   1      47.181  27.373  24.701  1.00  0.00     0.012 A 
ATOM     76  C   UNL A   1      47.888  26.400  26.815  1.00  0.00     0.148 A 
ATOM     77  C   UNL A   1      48.392  27.000  24.118  1.00  0.00     0.002 A 
ATOM     78  C   UNL A   1      49.109  26.071  26.241  1.00  0.00     0.091 A 
ATOM     79  F   UNL A   1      47.606  26.119  28.095  1.00  0.00    -0.205 F 
ATOM     80  C   UNL A   1      49.360  26.360  24.890  1.00  0.00     0.022 A 
BRANCH  78  81
ATOM     81  S   UNL A   1      50.459  25.356  27.186  1.00  0.00     0.127 S 
ATOM     82  O   UNL A   1      50.786  26.442  28.106  1.00  0.00    -0.237 OA
ATOM     83  O   UNL A   1      49.815  24.198  27.803  1.00  0.00    -0.237 OA
ATOM     84  O   UNL A   1      51.489  25.023  26.211  1.00  0.00    -0.744 OA
ENDBRANCH  78  81
ENDBRANCH  50  74
BRANCH  62  85
ATOM     85  C   UNL A   1      45.129  32.808  29.625  1.00  0.00     0.023 A 
ATOM     86  C   UNL A   1      45.927  32.834  30.784  1.00  0.00     0.012 A 
ATOM     87  C   UNL A   1      45.123  33.916  28.756  1.00  0.00     0.148 A 
ATOM     88  C   UNL A   1      46.708  33.950  31.077  1.00  0.00     0.002 A 
ATOM     89  C   UNL A   1      45.926  35.013  29.040  1.00  0.00     0.091 A 
ATOM     90  F   UNL A   1      44.345  33.866  27.664  1.00  0.00    -0.205 F 
ATOM     91  C   UNL A   1      46.717  35.034  30.201  1.00  0.00     0.022 A 
BRANCH  89  92
ATOM     92  S   UNL A   1      46.059  36.427  27.939  1.00  0.00     0.127 S 
ATOM     93  O   UNL A   1      44.783  37.103  28.168  1.00  0.00    -0.237 OA
ATOM     94  O   UNL A   1      47.226  37.127  28.476  1.00  0.00    -0.237 OA
ATOM     95  O   UNL A   1      46.240  35.882  26.601  1.00  0.00    -0.744 OA
ENDBRANCH  89  92
ENDBRANCH  62  85
ENDBRANCH  36  37
ENDBRANCH  28  31
ENDBRANCH  26  27
ENDBRANCH   1  26
TORSDOF 15
ENDMDL
MODEL 3
REMARK VINA RESULT:     -13.2      1.843      2.145
REMARK SMILES Cc1ccc2c(=O)c3cccc(CC(=O)NCCCCNC(=O)c4ccc(-c5c6nc(c(-c7cccc(S(=O)(=O)[O-])c7F)c7ccc([nH]7)c(-c7cccc(S(=O)(=O)[O-])c7F)c7nc(c(-c8cccc(S(=O)(=O)[O-])c8F)c8ccc5[nH]8)C=C7)C=C6)cc4)c3oc2c1C
REMARK SMILES IDX 19 1 18 2 17 3 16 4 14 5 15 6 13 8 12 9 1 10 2 11 3 12 90 13
REMARK SMILES IDX 4 14 89 15 91 16 5 17 88 18 6 19 87 20 7 21 8 22 9 23 11 24
REMARK SMILES IDX 10 25 20 26 21 27 22 28 23 30 24 31 25 32 86 33 26 34 85 35
REMARK SMILES IDX 27 36 28 37 29 38 79 39 30 40 84 41 78 42 80 43 31 44 83 45
REMARK SMILES IDX 77 46 76 47 32 49 64 50 44 51 63 52 45 53 48 54 62 55 81 56
REMARK SMILES IDX 46 57 47 58 61 60 82 61 49 62 33 63 34 64 42 65 35 66 37 67
REMARK SMILES IDX 43 68 36 69 38 70 39 71 40 72 41 73 65 74 66 75 74 76 67 77
REMARK SMILES IDX 69 78 75 79 68 80 70 81 71 82 72 83 73 84 50 85 51 86 59 87
REMARK SMILES IDX 52 88 54 89 60 90 53 91 55 92 56 93 57 94 58 95
REMARK H PARENT 16 7 21 29 80 48 48 59
REMARK Flexibility Score: inf
ROOT
ATOM      1  C   UNL A   1      34.879  21.407  26.203  1.00  0.00     0.023 C 
ENDROOT
BRANCH   1   2
ATOM      2  C   UNL A   1      34.068  20.575  25.209  1.00  0.00     0.023 C 
BRANCH   2   3
ATOM      3  C   UNL A   1      32.551  20.683  25.362  1.00  0.00     0.116 C 
BRANCH   3   4
ATOM      4  N   UNL A   1      32.165  21.660  26.361  1.00  0.00    -0.356 N 
ATOM      5  C   UNL A   1      31.576  22.882  26.194  1.00  0.00     0.224 C 
ATOM      6  O   UNL A   1      31.295  23.536  27.200  1.00  0.00    -0.275 OA
ATOM      7  H   UNL A   1      32.353  21.407  27.293  1.00  0.00     0.163 HD
BRANCH   5   8
ATOM      8  C   UNL A   1      31.208  23.376  24.805  1.00  0.00     0.139 C 
BRANCH   8   9
ATOM      9  C   UNL A   1      32.244  24.258  24.140  1.00  0.00     0.005 A 
ATOM     10  C   UNL A   1      27.052  29.278  23.039  1.00  0.00     0.045 C 
ATOM     11  C   UNL A   1      28.484  28.824  22.942  1.00  0.00    -0.044 A 
ATOM     12  C   UNL A   1      29.429  29.700  22.379  1.00  0.00     0.005 A 
ATOM     13  C   UNL A   1      28.899  27.549  23.393  1.00  0.00    -0.005 A 
ATOM     14  C   UNL A   1      30.767  29.332  22.268  1.00  0.00     0.016 A 
ATOM     15  C   UNL A   1      30.260  27.190  23.284  1.00  0.00     0.141 A 
ATOM     16  C   UNL A   1      27.937  26.578  24.030  1.00  0.00     0.049 C 
ATOM     17  C   UNL A   1      31.175  28.079  22.722  1.00  0.00     0.066 A 
ATOM     18  O   UNL A   1      30.619  25.946  23.753  1.00  0.00    -0.455 OA
ATOM     19  C   UNL A   1      32.581  27.671  22.602  1.00  0.00     0.200 A 
ATOM     20  C   UNL A   1      31.926  25.539  23.652  1.00  0.00     0.142 A 
ATOM     21  O   UNL A   1      33.423  28.403  22.097  1.00  0.00    -0.288 OA
ATOM     22  C   UNL A   1      32.929  26.333  23.096  1.00  0.00     0.066 A 
ATOM     23  C   UNL A   1      34.245  25.871  23.002  1.00  0.00     0.016 A 
ATOM     24  C   UNL A   1      33.563  23.786  24.003  1.00  0.00     0.008 A 
ATOM     25  C   UNL A   1      34.559  24.592  23.451  1.00  0.00     0.001 A 
ENDBRANCH   8   9
ENDBRANCH   5   8
ENDBRANCH   3   4
ENDBRANCH   2   3
ENDBRANCH   1   2
BRANCH   1  26
ATOM     26  C   UNL A   1      36.190  21.969  25.669  1.00  0.00     0.116 C 
BRANCH  26  27
ATOM     27  N   UNL A   1      37.224  20.962  25.481  1.00  0.00    -0.352 N 
ATOM     28  C   UNL A   1      38.566  21.050  25.782  1.00  0.00     0.251 C 
ATOM     29  H   UNL A   1      36.927  20.111  25.088  1.00  0.00     0.163 HD
ATOM     30  O   UNL A   1      39.326  20.136  25.475  1.00  0.00    -0.269 OA
BRANCH  28  31
ATOM     31  C   UNL A   1      39.082  22.276  26.430  1.00  0.00     0.039 A 
ATOM     32  C   UNL A   1      38.550  23.525  26.106  1.00  0.00     0.014 A 
ATOM     33  C   UNL A   1      40.155  22.176  27.320  1.00  0.00     0.014 A 
ATOM     34  C   UNL A   1      39.197  24.678  26.536  1.00  0.00     0.010 A 
ATOM     35  C   UNL A   1      40.756  23.339  27.812  1.00  0.00     0.010 A 
ATOM     36  C   UNL A   1      40.317  24.600  27.380  1.00  0.00    -0.014 A 
BRANCH  36  37
ATOM     37  C   UNL A   1      41.014  25.849  27.783  1.00  0.00     0.031 A 
ATOM     38  C   UNL A   1      42.419  26.135  27.320  1.00  0.00     0.074 A 
ATOM     39  C   UNL A   1      40.351  26.762  28.518  1.00  0.00     0.049 A 
ATOM     40  N   UNL A   1      43.152  27.198  27.535  1.00  0.00    -0.248 NA
ATOM     41  C   UNL A   1      43.092  25.102  26.513  1.00  0.00     0.031 C 
ATOM     42  C   UNL A   1      38.990  26.598  29.035  1.00  0.00     0.029 A 
ATOM     43  N   UNL A   1      40.717  28.016  28.938  1.00  0.00    -0.354 N 
ATOM     44  C   UNL A   1      44.377  26.949  26.926  1.00  0.00     0.074 A 
ATOM     45  C   UNL A   1      44.295  25.633  26.333  1.00  0.00     0.031 C 
ATOM     46  C   UNL A   1      38.616  27.728  29.654  1.00  0.00     0.029 A 
ATOM     47  C   UNL A   1      39.723  28.679  29.618  1.00  0.00     0.049 A 
ATOM     48  H   UNL A   1      41.606  28.404  28.769  1.00  0.00     0.167 HD
ATOM     49  C   UNL A   1      45.461  27.755  26.845  1.00  0.00     0.034 A 
ATOM     50  C   UNL A   1      39.699  29.916  30.152  1.00  0.00     0.034 A 
ATOM     51  C   UNL A   1      45.525  29.087  27.382  1.00  0.00     0.049 A 
ATOM     52  C   UNL A   1      40.911  30.793  30.034  1.00  0.00     0.074 A 
ATOM     53  C   UNL A   1      46.578  29.985  27.321  1.00  0.00     0.029 A 
ATOM     54  N   UNL A   1      44.498  29.719  28.061  1.00  0.00    -0.354 N 
ATOM     55  N   UNL A   1      42.034  30.558  29.402  1.00  0.00    -0.248 NA
ATOM     56  C   UNL A   1      40.850  32.107  30.690  1.00  0.00     0.031 C 
ATOM     57  C   UNL A   1      46.183  31.163  27.959  1.00  0.00     0.029 A 
ATOM     58  C   UNL A   1      44.886  30.997  28.418  1.00  0.00     0.049 A 
ATOM     59  H   UNL A   1      43.620  29.318  28.260  1.00  0.00     0.167 HD
ATOM     60  C   UNL A   1      42.811  31.696  29.575  1.00  0.00     0.074 A 
ATOM     61  C   UNL A   1      42.022  32.631  30.351  1.00  0.00     0.031 C 
ATOM     62  C   UNL A   1      44.073  31.935  29.147  1.00  0.00     0.034 A 
BRANCH  49  63
ATOM     63  C   UNL A   1      46.664  27.255  26.095  1.00  0.00     0.023 A 
ATOM     64  C   UNL A   1      46.752  27.495  24.710  1.00  0.00     0.012 A 
ATOM     65  C   UNL A   1      47.749  26.662  26.770  1.00  0.00     0.148 A 
ATOM     66  C   UNL A   1      47.902  27.149  24.003  1.00  0.00     0.002 A 
ATOM     67  C   UNL A   1      48.903  26.343  26.064  1.00  0.00     0.091 A 
ATOM     68  F   UNL A   1      47.635  26.435  28.085  1.00  0.00    -0.205 F 
ATOM     69  C   UNL A   1      48.981  26.584  24.681  1.00  0.00     0.022 A 
BRANCH  67  70
ATOM     70  S   UNL A   1      50.370  25.661  26.846  1.00  0.00     0.127 S 
ATOM     71  O   UNL A   1      49.855  24.407  27.394  1.00  0.00    -0.237 OA
ATOM     72  O   UNL A   1      51.277  25.503  25.710  1.00  0.00    -0.237 OA
ATOM     73  O   UNL A   1      50.792  26.642  27.837  1.00  0.00    -0.744 OA
ENDBRANCH  67  70
ENDBRANCH  49  63
BRANCH  50  74
ATOM     74  C   UNL A   1      38.448  30.411  30.785  1.00  0.00     0.023 A 
ATOM     75  C   UNL A   1      38.266  30.236  32.170  1.00  0.00     0.012 A 
ATOM     76  C   UNL A   1      37.483  31.120  30.044  1.00  0.00     0.148 A 
ATOM     77  C   UNL A   1      37.140  30.755  32.807  1.00  0.00     0.002 A 
ATOM     78  C   UNL A   1      36.386  31.674  30.693  1.00  0.00     0.091 A 
ATOM     79  F   UNL A   1      37.675  31.262  28.725  1.00  0.00    -0.205 F 
ATOM     80  C   UNL A   1      36.207  31.484  32.072  1.00  0.00     0.022 A 
BRANCH  78  81
ATOM     81  S   UNL A   1      35.199  32.728  29.853  1.00  0.00     0.127 S 
ATOM     82  O   UNL A   1      36.055  33.800  29.351  1.00  0.00    -0.237 OA
ATOM     83  O   UNL A   1      34.671  31.829  28.827  1.00  0.00    -0.237 OA
ATOM     84  O   UNL A   1      34.231  33.117  30.869  1.00  0.00    -0.744 OA
ENDBRANCH  78  81
ENDBRANCH  50  74
BRANCH  62  85
ATOM     85  C   UNL A   1      44.699  33.254  29.497  1.00  0.00     0.023 A 
ATOM     86  C   UNL A   1      45.473  33.354  30.668  1.00  0.00     0.012 A 
ATOM     87  C   UNL A   1      44.623  34.348  28.614  1.00  0.00     0.148 A 
ATOM     88  C   UNL A   1      46.163  34.530  30.959  1.00  0.00     0.002 A 
ATOM     89  C   UNL A   1      45.336  35.507  28.896  1.00  0.00     0.091 A 
ATOM     90  F   UNL A   1      43.870  34.227  27.510  1.00  0.00    -0.205 F 
ATOM     91  C   UNL A   1      46.104  35.601  30.069  1.00  0.00     0.022 A 
BRANCH  89  92
ATOM     92  S   UNL A   1      45.380  36.913  27.779  1.00  0.00     0.127 S 
ATOM     93  O   UNL A   1      46.212  37.858  28.523  1.00  0.00    -0.237 OA
ATOM     94  O   UNL A   1      46.017  36.344  26.591  1.00  0.00    -0.237 OA
ATOM     95  O   UNL A   1      43.996  37.322  27.590  1.00  0.00    -0.744 OA
ENDBRANCH  89  92
ENDBRANCH  62  85
ENDBRANCH  36  37
ENDBRANCH  28  31
ENDBRANCH  26  27
ENDBRANCH   1  26
TORSDOF 15
ENDMDL
