MODEL 1
REMARK VINA RESULT:     -11.3      0.000      0.000
REMARK SMILES C[C@H](O)[C@@H](C)C1(C(=O)NCCCCNC(=O)c2ccc(-c3c4nc(c(-c5cccc(S(=O)(=O)[O-])c5F)c5ccc([nH]5)c(-c5cccc(S(=O)(=O)[O-])c5F)c5nc(c(-c6cccc(S(=O)(=O)[O-])c6F)c6ccc3[nH]6)C=C5)C=C4)cc2)CCCCC1
REMARK SMILES IDX 11 1 10 2 9 3 7 4 8 5 6 7 80 8 84 9 81 10 83 11 82 12 4 13
REMARK SMILES IDX 5 14 2 15 1 16 3 17 12 19 13 20 14 21 15 22 16 24 17 25
REMARK SMILES IDX 18 26 79 27 19 28 78 29 20 30 21 31 22 32 72 33 23 34 77 35
REMARK SMILES IDX 71 36 73 37 24 38 76 39 70 40 69 41 25 43 57 44 37 45 56 46
REMARK SMILES IDX 38 47 41 48 55 49 74 50 39 51 40 52 54 54 75 55 42 56 26 57
REMARK SMILES IDX 27 58 35 59 28 60 30 61 36 62 29 63 31 64 32 65 33 66 34 67
REMARK SMILES IDX 58 68 59 69 67 70 60 71 62 72 68 73 61 74 63 75 64 76 65 77
REMARK SMILES IDX 66 78 43 79 44 80 52 81 45 82 47 83 53 84 46 85 48 86 49 87
REMARK SMILES IDX 50 88 51 89
REMARK H PARENT 9 6 3 18 14 23 73 42 41 53
REMARK Flexibility Score: inf
ROOT
ATOM      1  C   UNL A   1      31.130  27.873  26.212  1.00  0.00     0.023 C 
ENDROOT
BRANCH   1   2
ATOM      2  C   UNL A   1      30.810  26.524  25.567  1.00  0.00     0.116 C 
BRANCH   2   3
ATOM      3  N   UNL A   1      30.949  25.434  26.502  1.00  0.00    -0.356 N 
ATOM      4  C   UNL A   1      31.688  24.297  26.498  1.00  0.00     0.226 C 
ATOM      5  O   UNL A   1      31.264  23.433  27.276  1.00  0.00    -0.274 OA
ATOM      6  H   UNL A   1      30.391  25.537  27.307  1.00  0.00     0.163 HD
BRANCH   4   7
ATOM      7  C   UNL A   1      32.909  23.999  25.545  1.00  0.00     0.054 C 
ATOM      8  C   UNL A   1      33.891  25.201  25.452  1.00  0.00     0.017 C 
ATOM      9  C   UNL A   1      32.275  23.552  24.197  1.00  0.00     0.017 C 
ATOM     10  C   UNL A   1      33.902  26.081  24.195  1.00  0.00     0.001 C 
ATOM     11  C   UNL A   1      32.116  24.598  23.107  1.00  0.00     0.001 C 
ATOM     12  C   UNL A   1      33.346  25.467  22.920  1.00  0.00     0.000 C 
BRANCH   7  13
ATOM     13  C   UNL A   1      33.707  22.705  26.151  1.00  0.00     0.030 C 
ATOM     14  C   UNL A   1      35.195  22.999  26.496  1.00  0.00     0.011 C 
BRANCH  13  15
ATOM     15  C   UNL A   1      33.724  21.382  25.305  1.00  0.00     0.115 C 
ATOM     16  C   UNL A   1      32.525  20.454  25.378  1.00  0.00     0.038 C 
BRANCH  15  17
ATOM     17  O   UNL A   1      34.855  20.582  25.692  1.00  0.00    -0.393 OA
ATOM     18  H   UNL A   1      34.630  20.066  26.483  1.00  0.00     0.210 HD
ENDBRANCH  15  17
ENDBRANCH  13  15
ENDBRANCH   7  13
ENDBRANCH   4   7
ENDBRANCH   2   3
ENDBRANCH   1   2
BRANCH   1  19
ATOM     19  C   UNL A   1      31.761  28.893  25.271  1.00  0.00     0.023 C 
BRANCH  19  20
ATOM     20  C   UNL A   1      32.941  29.667  25.850  1.00  0.00     0.116 C 
BRANCH  20  21
ATOM     21  N   UNL A   1      32.592  30.978  26.387  1.00  0.00    -0.352 N 
ATOM     22  C   UNL A   1      33.332  31.758  27.250  1.00  0.00     0.251 C 
ATOM     23  H   UNL A   1      31.727  31.349  26.099  1.00  0.00     0.163 HD
ATOM     24  O   UNL A   1      32.899  32.821  27.671  1.00  0.00    -0.269 OA
BRANCH  22  25
ATOM     25  C   UNL A   1      34.645  31.247  27.687  1.00  0.00     0.039 A 
ATOM     26  C   UNL A   1      35.670  32.155  27.955  1.00  0.00     0.014 A 
ATOM     27  C   UNL A   1      34.801  29.886  27.963  1.00  0.00     0.014 A 
ATOM     28  C   UNL A   1      36.830  31.707  28.589  1.00  0.00     0.010 A 
ATOM     29  C   UNL A   1      35.920  29.459  28.665  1.00  0.00     0.010 A 
ATOM     30  C   UNL A   1      36.941  30.365  28.992  1.00  0.00    -0.014 A 
BRANCH  30  31
ATOM     31  C   UNL A   1      38.106  29.885  29.777  1.00  0.00     0.031 A 
ATOM     32  C   UNL A   1      38.342  30.418  31.163  1.00  0.00     0.074 A 
ATOM     33  C   UNL A   1      39.003  29.056  29.206  1.00  0.00     0.049 A 
ATOM     34  N   UNL A   1      39.345  30.195  31.972  1.00  0.00    -0.248 NA
ATOM     35  C   UNL A   1      37.337  31.353  31.698  1.00  0.00     0.031 C 
ATOM     36  C   UNL A   1      38.933  28.542  27.835  1.00  0.00     0.029 A 
ATOM     37  N   UNL A   1      40.167  28.521  29.698  1.00  0.00    -0.354 N 
ATOM     38  C   UNL A   1      39.112  30.988  33.088  1.00  0.00     0.074 A 
ATOM     39  C   UNL A   1      37.896  31.729  32.838  1.00  0.00     0.031 C 
ATOM     40  C   UNL A   1      39.999  27.759  27.601  1.00  0.00     0.029 A 
ATOM     41  C   UNL A   1      40.841  27.732  28.793  1.00  0.00     0.049 A 
ATOM     42  H   UNL A   1      40.490  28.686  30.612  1.00  0.00     0.167 HD
ATOM     43  C   UNL A   1      39.823  31.063  34.238  1.00  0.00     0.034 A 
ATOM     44  C   UNL A   1      42.004  27.061  28.915  1.00  0.00     0.034 A 
ATOM     45  C   UNL A   1      40.993  30.275  34.510  1.00  0.00     0.049 A 
ATOM     46  C   UNL A   1      42.737  27.109  30.229  1.00  0.00     0.074 A 
ATOM     47  C   UNL A   1      41.739  30.216  35.673  1.00  0.00     0.029 A 
ATOM     48  N   UNL A   1      41.579  29.399  33.612  1.00  0.00    -0.354 N 
ATOM     49  N   UNL A   1      42.415  27.745  31.330  1.00  0.00    -0.248 NA
ATOM     50  C   UNL A   1      43.971  26.317  30.333  1.00  0.00     0.031 C 
ATOM     51  C   UNL A   1      42.778  29.300  35.478  1.00  0.00     0.029 A 
ATOM     52  C   UNL A   1      42.674  28.786  34.195  1.00  0.00     0.049 A 
ATOM     53  H   UNL A   1      41.265  29.236  32.693  1.00  0.00     0.167 HD
ATOM     54  C   UNL A   1      43.383  27.399  32.266  1.00  0.00     0.074 A 
ATOM     55  C   UNL A   1      44.290  26.481  31.610  1.00  0.00     0.031 C 
ATOM     56  C   UNL A   1      43.521  27.818  33.549  1.00  0.00     0.034 A 
BRANCH  43  57
ATOM     57  C   UNL A   1      39.301  31.969  35.321  1.00  0.00     0.023 A 
ATOM     58  C   UNL A   1      38.302  31.490  36.193  1.00  0.00     0.012 A 
ATOM     59  C   UNL A   1      39.825  33.261  35.512  1.00  0.00     0.148 A 
ATOM     60  C   UNL A   1      37.808  32.294  37.219  1.00  0.00     0.002 A 
ATOM     61  C   UNL A   1      39.356  34.042  36.563  1.00  0.00     0.091 A 
ATOM     62  F   UNL A   1      40.758  33.707  34.659  1.00  0.00    -0.205 F 
ATOM     63  C   UNL A   1      38.342  33.564  37.409  1.00  0.00     0.022 A 
BRANCH  61  64
ATOM     64  S   UNL A   1      40.028  35.665  36.940  1.00  0.00     0.127 S 
ATOM     65  O   UNL A   1      39.654  36.422  35.746  1.00  0.00    -0.237 OA
ATOM     66  O   UNL A   1      39.290  36.030  38.149  1.00  0.00    -0.237 OA
ATOM     67  O   UNL A   1      41.458  35.472  37.135  1.00  0.00    -0.744 OA
ENDBRANCH  61  64
ENDBRANCH  43  57
BRANCH  44  68
ATOM     68  C   UNL A   1      42.502  26.209  27.797  1.00  0.00     0.023 A 
ATOM     69  C   UNL A   1      43.442  26.746  26.894  1.00  0.00     0.012 A 
ATOM     70  C   UNL A   1      42.070  24.881  27.625  1.00  0.00     0.148 A 
ATOM     71  C   UNL A   1      43.913  25.990  25.821  1.00  0.00     0.002 A 
ATOM     72  C   UNL A   1      42.582  24.115  26.582  1.00  0.00     0.091 A 
ATOM     73  F   UNL A   1      41.162  24.389  28.481  1.00  0.00    -0.205 F 
ATOM     74  C   UNL A   1      43.491  24.672  25.669  1.00  0.00     0.022 A 
BRANCH  72  75
ATOM     75  S   UNL A   1      42.185  22.373  26.398  1.00  0.00     0.127 S 
ATOM     76  O   UNL A   1      42.673  21.819  27.656  1.00  0.00    -0.237 OA
ATOM     77  O   UNL A   1      40.728  22.400  26.260  1.00  0.00    -0.237 OA
ATOM     78  O   UNL A   1      42.886  21.947  25.193  1.00  0.00    -0.744 OA
ENDBRANCH  72  75
ENDBRANCH  44  68
BRANCH  56  79
ATOM     79  C   UNL A   1      44.670  27.263  34.346  1.00  0.00     0.023 A 
ATOM     80  C   UNL A   1      45.916  27.917  34.319  1.00  0.00     0.012 A 
ATOM     81  C   UNL A   1      44.488  26.146  35.186  1.00  0.00     0.148 A 
ATOM     82  C   UNL A   1      46.974  27.455  35.098  1.00  0.00     0.002 A 
ATOM     83  C   UNL A   1      45.535  25.717  35.994  1.00  0.00     0.091 A 
ATOM     84  F   UNL A   1      43.299  25.525  35.180  1.00  0.00    -0.205 F 
ATOM     85  C   UNL A   1      46.781  26.364  35.945  1.00  0.00     0.022 A 
BRANCH  83  86
ATOM     86  S   UNL A   1      45.342  24.381  37.179  1.00  0.00     0.127 S 
ATOM     87  O   UNL A   1      44.923  23.277  36.318  1.00  0.00    -0.237 OA
ATOM     88  O   UNL A   1      46.694  24.249  37.724  1.00  0.00    -0.237 OA
ATOM     89  O   UNL A   1      44.349  24.842  38.139  1.00  0.00    -0.744 OA
ENDBRANCH  83  86
ENDBRANCH  56  79
ENDBRANCH  30  31
ENDBRANCH  22  25
ENDBRANCH  20  21
ENDBRANCH  19  20
ENDBRANCH   1  19
TORSDOF 17
ENDMDL
MODEL 2
REMARK VINA RESULT:     -11.1      5.189     10.209
REMARK SMILES C[C@H](O)[C@@H](C)C1(C(=O)NCCCCNC(=O)c2ccc(-c3c4nc(c(-c5cccc(S(=O)(=O)[O-])c5F)c5ccc([nH]5)c(-c5cccc(S(=O)(=O)[O-])c5F)c5nc(c(-c6cccc(S(=O)(=O)[O-])c6F)c6ccc3[nH]6)C=C5)C=C4)cc2)CCCCC1
REMARK SMILES IDX 11 1 10 2 9 3 7 4 8 5 6 7 80 8 84 9 81 10 83 11 82 12 4 13
REMARK SMILES IDX 5 14 2 15 1 16 3 17 12 19 13 20 14 21 15 22 16 24 17 25
REMARK SMILES IDX 18 26 79 27 19 28 78 29 20 30 21 31 22 32 72 33 23 34 77 35
REMARK SMILES IDX 71 36 73 37 24 38 76 39 70 40 69 41 25 43 57 44 37 45 56 46
REMARK SMILES IDX 38 47 41 48 55 49 74 50 39 51 40 52 54 54 75 55 42 56 26 57
REMARK SMILES IDX 27 58 35 59 28 60 30 61 36 62 29 63 31 64 32 65 33 66 34 67
REMARK SMILES IDX 58 68 59 69 67 70 60 71 62 72 68 73 61 74 63 75 64 76 65 77
REMARK SMILES IDX 66 78 43 79 44 80 52 81 45 82 47 83 53 84 46 85 48 86 49 87
REMARK SMILES IDX 50 88 51 89
REMARK H PARENT 9 6 3 18 14 23 73 42 41 53
REMARK Flexibility Score: inf
ROOT
ATOM      1  C   UNL A   1      35.001  22.484  25.793  1.00  0.00     0.023 C 
ENDROOT
BRANCH   1   2
ATOM      2  C   UNL A   1      34.433  23.845  25.391  1.00  0.00     0.116 C 
BRANCH   2   3
ATOM      3  N   UNL A   1      33.114  24.059  25.935  1.00  0.00    -0.356 N 
ATOM      4  C   UNL A   1      32.361  25.170  26.135  1.00  0.00     0.226 C 
ATOM      5  O   UNL A   1      31.455  25.007  26.961  1.00  0.00    -0.274 OA
ATOM      6  H   UNL A   1      32.669  23.228  26.220  1.00  0.00     0.163 HD
BRANCH   4   7
ATOM      7  C   UNL A   1      32.629  26.587  25.495  1.00  0.00     0.054 C 
ATOM      8  C   UNL A   1      33.997  27.182  25.933  1.00  0.00     0.017 C 
ATOM      9  C   UNL A   1      31.383  27.442  25.861  1.00  0.00     0.017 C 
ATOM     10  C   UNL A   1      34.040  28.312  26.970  1.00  0.00     0.001 C 
ATOM     11  C   UNL A   1      31.479  28.349  27.076  1.00  0.00     0.001 C 
ATOM     12  C   UNL A   1      32.773  29.137  27.142  1.00  0.00     0.000 C 
BRANCH   7  13
ATOM     13  C   UNL A   1      32.625  26.405  23.869  1.00  0.00     0.030 C 
ATOM     14  C   UNL A   1      33.384  27.534  23.115  1.00  0.00     0.011 C 
BRANCH  13  15
ATOM     15  C   UNL A   1      31.238  26.272  23.142  1.00  0.00     0.115 C 
ATOM     16  C   UNL A   1      30.596  24.900  23.042  1.00  0.00     0.038 C 
BRANCH  15  17
ATOM     17  O   UNL A   1      31.362  26.740  21.788  1.00  0.00    -0.393 OA
ATOM     18  H   UNL A   1      31.870  27.567  21.777  1.00  0.00     0.210 HD
ENDBRANCH  15  17
ENDBRANCH  13  15
ENDBRANCH   7  13
ENDBRANCH   4   7
ENDBRANCH   2   3
ENDBRANCH   1   2
BRANCH   1  19
ATOM     19  C   UNL A   1      35.901  21.838  24.745  1.00  0.00     0.023 C 
BRANCH  19  20
ATOM     20  C   UNL A   1      37.378  22.205  24.844  1.00  0.00     0.116 C 
BRANCH  20  21
ATOM     21  N   UNL A   1      38.244  21.101  25.242  1.00  0.00    -0.352 N 
ATOM     22  C   UNL A   1      39.331  21.147  26.089  1.00  0.00     0.251 C 
ATOM     23  H   UNL A   1      38.028  20.220  24.863  1.00  0.00     0.163 HD
ATOM     24  O   UNL A   1      40.012  20.154  26.300  1.00  0.00    -0.269 OA
BRANCH  22  25
ATOM     25  C   UNL A   1      39.676  22.447  26.698  1.00  0.00     0.039 A 
ATOM     26  C   UNL A   1      40.723  22.506  27.619  1.00  0.00     0.014 A 
ATOM     27  C   UNL A   1      39.052  23.611  26.242  1.00  0.00     0.014 A 
ATOM     28  C   UNL A   1      41.208  23.752  28.018  1.00  0.00     0.010 A 
ATOM     29  C   UNL A   1      39.589  24.845  26.580  1.00  0.00     0.010 A 
ATOM     30  C   UNL A   1      40.677  24.929  27.464  1.00  0.00    -0.014 A 
BRANCH  30  31
ATOM     31  C   UNL A   1      41.253  26.262  27.774  1.00  0.00     0.031 A 
ATOM     32  C   UNL A   1      42.669  26.573  27.375  1.00  0.00     0.074 A 
ATOM     33  C   UNL A   1      40.542  27.146  28.503  1.00  0.00     0.049 A 
ATOM     34  N   UNL A   1      43.382  27.639  27.632  1.00  0.00    -0.248 NA
ATOM     35  C   UNL A   1      43.391  25.537  26.617  1.00  0.00     0.031 C 
ATOM     36  C   UNL A   1      39.192  26.924  29.027  1.00  0.00     0.029 A 
ATOM     37  N   UNL A   1      40.867  28.400  28.954  1.00  0.00    -0.354 N 
ATOM     38  C   UNL A   1      44.642  27.386  27.105  1.00  0.00     0.074 A 
ATOM     39  C   UNL A   1      44.611  26.051  26.549  1.00  0.00     0.031 C 
ATOM     40  C   UNL A   1      38.802  28.008  29.718  1.00  0.00     0.029 A 
ATOM     41  C   UNL A   1      39.879  28.993  29.707  1.00  0.00     0.049 A 
ATOM     42  H   UNL A   1      41.727  28.836  28.758  1.00  0.00     0.167 HD
ATOM     43  C   UNL A   1      45.718  28.205  27.049  1.00  0.00     0.034 A 
ATOM     44  C   UNL A   1      39.846  30.196  30.314  1.00  0.00     0.034 A 
ATOM     45  C   UNL A   1      45.724  29.554  27.541  1.00  0.00     0.049 A 
ATOM     46  C   UNL A   1      41.032  31.113  30.177  1.00  0.00     0.074 A 
ATOM     47  C   UNL A   1      46.735  30.495  27.461  1.00  0.00     0.029 A 
ATOM     48  N   UNL A   1      44.663  30.160  28.194  1.00  0.00    -0.354 N 
ATOM     49  N   UNL A   1      42.160  30.912  29.538  1.00  0.00    -0.248 NA
ATOM     50  C   UNL A   1      40.928  32.436  30.809  1.00  0.00     0.031 C 
ATOM     51  C   UNL A   1      46.283  31.672  28.065  1.00  0.00     0.029 A 
ATOM     52  C   UNL A   1      44.990  31.465  28.516  1.00  0.00     0.049 A 
ATOM     53  H   UNL A   1      43.804  29.726  28.400  1.00  0.00     0.167 HD
ATOM     54  C   UNL A   1      42.880  32.095  29.657  1.00  0.00     0.074 A 
ATOM     55  C   UNL A   1      42.054  33.013  30.412  1.00  0.00     0.031 C 
ATOM     56  C   UNL A   1      44.124  32.388  29.202  1.00  0.00     0.034 A 
BRANCH  43  57
ATOM     57  C   UNL A   1      46.949  27.689  26.355  1.00  0.00     0.023 A 
ATOM     58  C   UNL A   1      47.886  26.933  27.090  1.00  0.00     0.012 A 
ATOM     59  C   UNL A   1      47.158  27.900  24.978  1.00  0.00     0.148 A 
ATOM     60  C   UNL A   1      49.028  26.424  26.475  1.00  0.00     0.002 A 
ATOM     61  C   UNL A   1      48.279  27.354  24.364  1.00  0.00     0.091 A 
ATOM     62  F   UNL A   1      46.268  28.640  24.301  1.00  0.00    -0.205 F 
ATOM     63  C   UNL A   1      49.219  26.626  25.112  1.00  0.00     0.022 A 
BRANCH  61  64
ATOM     64  S   UNL A   1      48.583  27.494  22.598  1.00  0.00     0.127 S 
ATOM     65  O   UNL A   1      48.611  26.089  22.193  1.00  0.00    -0.237 OA
ATOM     66  O   UNL A   1      47.409  28.237  22.142  1.00  0.00    -0.237 OA
ATOM     67  O   UNL A   1      49.845  28.208  22.464  1.00  0.00    -0.744 OA
ENDBRANCH  61  64
ENDBRANCH  43  57
BRANCH  44  68
ATOM     68  C   UNL A   1      38.616  30.646  31.027  1.00  0.00     0.023 A 
ATOM     69  C   UNL A   1      38.510  30.427  32.415  1.00  0.00     0.012 A 
ATOM     70  C   UNL A   1      37.563  31.294  30.355  1.00  0.00     0.148 A 
ATOM     71  C   UNL A   1      37.366  30.809  33.114  1.00  0.00     0.002 A 
ATOM     72  C   UNL A   1      36.444  31.718  31.067  1.00  0.00     0.091 A 
ATOM     73  F   UNL A   1      37.668  31.480  29.032  1.00  0.00    -0.205 F 
ATOM     74  C   UNL A   1      36.337  31.463  32.443  1.00  0.00     0.022 A 
BRANCH  72  75
ATOM     75  S   UNL A   1      35.137  32.681  30.297  1.00  0.00     0.127 S 
ATOM     76  O   UNL A   1      34.225  32.897  31.416  1.00  0.00    -0.237 OA
ATOM     77  O   UNL A   1      35.855  33.874  29.847  1.00  0.00    -0.237 OA
ATOM     78  O   UNL A   1      34.638  31.846  29.212  1.00  0.00    -0.744 OA
ENDBRANCH  72  75
ENDBRANCH  44  68
BRANCH  56  79
ATOM     79  C   UNL A   1      44.657  33.770  29.468  1.00  0.00     0.023 A 
ATOM     80  C   UNL A   1      45.344  34.031  30.669  1.00  0.00     0.012 A 
ATOM     81  C   UNL A   1      44.554  34.780  28.492  1.00  0.00     0.148 A 
ATOM     82  C   UNL A   1      45.899  35.286  30.907  1.00  0.00     0.002 A 
ATOM     83  C   UNL A   1      45.149  36.016  28.717  1.00  0.00     0.091 A 
ATOM     84  F   UNL A   1      43.878  34.516  27.364  1.00  0.00    -0.205 F 
ATOM     85  C   UNL A   1      45.814  36.274  29.927  1.00  0.00     0.022 A 
BRANCH  83  86
ATOM     86  S   UNL A   1      45.166  37.311  27.472  1.00  0.00     0.127 S 
ATOM     87  O   UNL A   1      45.948  36.689  26.405  1.00  0.00    -0.237 OA
ATOM     88  O   UNL A   1      43.743  37.473  27.169  1.00  0.00    -0.237 OA
ATOM     89  O   UNL A   1      45.780  38.468  28.109  1.00  0.00    -0.744 OA
ENDBRANCH  83  86
ENDBRANCH  56  79
ENDBRANCH  30  31
ENDBRANCH  22  25
ENDBRANCH  20  21
ENDBRANCH  19  20
ENDBRANCH   1  19
TORSDOF 17
ENDMDL
MODEL 3
REMARK VINA RESULT:     -11.1      2.412      3.251
REMARK SMILES C[C@H](O)[C@@H](C)C1(C(=O)NCCCCNC(=O)c2ccc(-c3c4nc(c(-c5cccc(S(=O)(=O)[O-])c5F)c5ccc([nH]5)c(-c5cccc(S(=O)(=O)[O-])c5F)c5nc(c(-c6cccc(S(=O)(=O)[O-])c6F)c6ccc3[nH]6)C=C5)C=C4)cc2)CCCCC1
REMARK SMILES IDX 11 1 10 2 9 3 7 4 8 5 6 7 80 8 84 9 81 10 83 11 82 12 4 13
REMARK SMILES IDX 5 14 2 15 1 16 3 17 12 19 13 20 14 21 15 22 16 24 17 25
REMARK SMILES IDX 18 26 79 27 19 28 78 29 20 30 21 31 22 32 72 33 23 34 77 35
REMARK SMILES IDX 71 36 73 37 24 38 76 39 70 40 69 41 25 43 57 44 37 45 56 46
REMARK SMILES IDX 38 47 41 48 55 49 74 50 39 51 40 52 54 54 75 55 42 56 26 57
REMARK SMILES IDX 27 58 35 59 28 60 30 61 36 62 29 63 31 64 32 65 33 66 34 67
REMARK SMILES IDX 58 68 59 69 67 70 60 71 62 72 68 73 61 74 63 75 64 76 65 77
REMARK SMILES IDX 66 78 43 79 44 80 52 81 45 82 47 83 53 84 46 85 48 86 49 87
REMARK SMILES IDX 50 88 51 89
REMARK H PARENT 9 6 3 18 14 23 73 42 41 53
REMARK Flexibility Score: inf
ROOT
ATOM      1  C   UNL A   1      33.036  28.090  24.995  1.00  0.00     0.023 C 
ENDROOT
BRANCH   1   2
ATOM      2  C   UNL A   1      32.598  26.627  24.927  1.00  0.00     0.116 C 
BRANCH   2   3
ATOM      3  N   UNL A   1      32.823  26.058  23.620  1.00  0.00    -0.356 N 
ATOM      4  C   UNL A   1      33.459  24.938  23.193  1.00  0.00     0.226 C 
ATOM      5  O   UNL A   1      33.775  24.979  21.998  1.00  0.00    -0.274 OA
ATOM      6  H   UNL A   1      32.437  26.592  22.889  1.00  0.00     0.163 HD
BRANCH   4   7
ATOM      7  C   UNL A   1      33.882  23.720  24.101  1.00  0.00     0.054 C 
ATOM      8  C   UNL A   1      34.471  24.179  25.466  1.00  0.00     0.017 C 
ATOM      9  C   UNL A   1      34.835  22.864  23.219  1.00  0.00     0.017 C 
ATOM     10  C   UNL A   1      35.984  24.104  25.706  1.00  0.00     0.001 C 
ATOM     11  C   UNL A   1      36.331  23.070  23.386  1.00  0.00     0.001 C 
ATOM     12  C   UNL A   1      36.774  23.138  24.836  1.00  0.00     0.000 C 
BRANCH   7  13
ATOM     13  C   UNL A   1      32.544  22.818  24.376  1.00  0.00     0.030 C 
ATOM     14  C   UNL A   1      31.772  23.229  25.662  1.00  0.00     0.011 C 
BRANCH  13  15
ATOM     15  C   UNL A   1      32.707  21.258  24.463  1.00  0.00     0.115 C 
ATOM     16  C   UNL A   1      32.293  20.414  23.270  1.00  0.00     0.038 C 
BRANCH  15  17
ATOM     17  O   UNL A   1      31.943  20.759  25.573  1.00  0.00    -0.393 OA
ATOM     18  H   UNL A   1      32.071  19.800  25.650  1.00  0.00     0.210 HD
ENDBRANCH  15  17
ENDBRANCH  13  15
ENDBRANCH   7  13
ENDBRANCH   4   7
ENDBRANCH   2   3
ENDBRANCH   1   2
BRANCH   1  19
ATOM     19  C   UNL A   1      34.024  28.405  26.113  1.00  0.00     0.023 C 
BRANCH  19  20
ATOM     20  C   UNL A   1      33.397  28.905  27.410  1.00  0.00     0.116 C 
BRANCH  20  21
ATOM     21  N   UNL A   1      33.547  30.339  27.634  1.00  0.00    -0.352 N 
ATOM     22  C   UNL A   1      34.670  31.009  28.072  1.00  0.00     0.251 C 
ATOM     23  H   UNL A   1      32.755  30.893  27.451  1.00  0.00     0.163 HD
ATOM     24  O   UNL A   1      34.649  32.215  28.274  1.00  0.00    -0.269 OA
BRANCH  22  25
ATOM     25  C   UNL A   1      35.886  30.216  28.337  1.00  0.00     0.039 A 
ATOM     26  C   UNL A   1      36.939  30.266  27.422  1.00  0.00     0.014 A 
ATOM     27  C   UNL A   1      36.025  29.548  29.556  1.00  0.00     0.014 A 
ATOM     28  C   UNL A   1      38.173  29.716  27.773  1.00  0.00     0.010 A 
ATOM     29  C   UNL A   1      37.273  29.073  29.932  1.00  0.00     0.010 A 
ATOM     30  C   UNL A   1      38.362  29.160  29.049  1.00  0.00    -0.014 A 
BRANCH  30  31
ATOM     31  C   UNL A   1      39.693  28.679  29.496  1.00  0.00     0.031 A 
ATOM     32  C   UNL A   1      40.422  29.411  30.588  1.00  0.00     0.074 A 
ATOM     33  C   UNL A   1      40.287  27.654  28.851  1.00  0.00     0.049 A 
ATOM     34  N   UNL A   1      41.626  29.206  31.057  1.00  0.00    -0.248 NA
ATOM     35  C   UNL A   1      39.722  30.546  31.212  1.00  0.00     0.031 C 
ATOM     36  C   UNL A   1      39.719  26.921  27.716  1.00  0.00     0.029 A 
ATOM     37  N   UNL A   1      41.513  27.068  29.040  1.00  0.00    -0.354 N 
ATOM     38  C   UNL A   1      41.839  30.206  31.997  1.00  0.00     0.074 A 
ATOM     39  C   UNL A   1      40.660  31.042  32.006  1.00  0.00     0.031 C 
ATOM     40  C   UNL A   1      40.590  25.979  27.318  1.00  0.00     0.029 A 
ATOM     41  C   UNL A   1      41.786  26.053  28.151  1.00  0.00     0.049 A 
ATOM     42  H   UNL A   1      42.140  27.348  29.745  1.00  0.00     0.167 HD
ATOM     43  C   UNL A   1      42.904  30.389  32.813  1.00  0.00     0.034 A 
ATOM     44  C   UNL A   1      42.876  25.270  28.027  1.00  0.00     0.034 A 
ATOM     45  C   UNL A   1      44.045  29.517  32.850  1.00  0.00     0.049 A 
ATOM     46  C   UNL A   1      44.017  25.453  28.993  1.00  0.00     0.074 A 
ATOM     47  C   UNL A   1      45.139  29.567  33.694  1.00  0.00     0.029 A 
ATOM     48  N   UNL A   1      44.233  28.429  32.013  1.00  0.00    -0.354 N 
ATOM     49  N   UNL A   1      44.132  26.308  29.980  1.00  0.00    -0.248 NA
ATOM     50  C   UNL A   1      45.160  24.539  28.854  1.00  0.00     0.031 C 
ATOM     51  C   UNL A   1      45.989  28.505  33.368  1.00  0.00     0.029 A 
ATOM     52  C   UNL A   1      45.420  27.792  32.325  1.00  0.00     0.049 A 
ATOM     53  H   UNL A   1      43.613  28.149  31.300  1.00  0.00     0.167 HD
ATOM     54  C   UNL A   1      45.338  26.009  30.604  1.00  0.00     0.074 A 
ATOM     55  C   UNL A   1      45.907  24.882  29.895  1.00  0.00     0.031 C 
ATOM     56  C   UNL A   1      45.933  26.625  31.656  1.00  0.00     0.034 A 
BRANCH  43  57
ATOM     57  C   UNL A   1      42.842  31.529  33.792  1.00  0.00     0.023 A 
ATOM     58  C   UNL A   1      43.323  32.796  33.402  1.00  0.00     0.012 A 
ATOM     59  C   UNL A   1      42.266  31.371  35.068  1.00  0.00     0.148 A 
ATOM     60  C   UNL A   1      43.264  33.880  34.277  1.00  0.00     0.002 A 
ATOM     61  C   UNL A   1      42.174  32.466  35.919  1.00  0.00     0.091 A 
ATOM     62  F   UNL A   1      41.835  30.154  35.429  1.00  0.00    -0.205 F 
ATOM     63  C   UNL A   1      42.681  33.716  35.529  1.00  0.00     0.022 A 
BRANCH  61  64
ATOM     64  S   UNL A   1      41.376  32.381  37.526  1.00  0.00     0.127 S 
ATOM     65  O   UNL A   1      42.252  31.453  38.240  1.00  0.00    -0.237 OA
ATOM     66  O   UNL A   1      41.455  33.768  37.983  1.00  0.00    -0.237 OA
ATOM     67  O   UNL A   1      40.024  31.899  37.278  1.00  0.00    -0.744 OA
ENDBRANCH  61  64
ENDBRANCH  43  57
BRANCH  44  68
ATOM     68  C   UNL A   1      42.907  24.179  27.012  1.00  0.00     0.023 A 
ATOM     69  C   UNL A   1      43.619  24.380  25.811  1.00  0.00     0.012 A 
ATOM     70  C   UNL A   1      42.257  22.949  27.222  1.00  0.00     0.148 A 
ATOM     71  C   UNL A   1      43.651  23.394  24.826  1.00  0.00     0.002 A 
ATOM     72  C   UNL A   1      42.335  21.949  26.256  1.00  0.00     0.091 A 
ATOM     73  F   UNL A   1      41.569  22.777  28.360  1.00  0.00    -0.205 F 
ATOM     74  C   UNL A   1      43.017  22.175  25.051  1.00  0.00     0.022 A 
BRANCH  72  75
ATOM     75  S   UNL A   1      41.654  20.309  26.528  1.00  0.00     0.127 S 
ATOM     76  O   UNL A   1      40.219  20.573  26.512  1.00  0.00    -0.237 OA
ATOM     77  O   UNL A   1      42.158  19.568  25.371  1.00  0.00    -0.237 OA
ATOM     78  O   UNL A   1      42.213  19.871  27.801  1.00  0.00    -0.744 OA
ENDBRANCH  72  75
ENDBRANCH  44  68
BRANCH  56  79
ATOM     79  C   UNL A   1      47.248  26.075  32.135  1.00  0.00     0.023 A 
ATOM     80  C   UNL A   1      48.449  26.570  31.592  1.00  0.00     0.012 A 
ATOM     81  C   UNL A   1      47.295  25.133  33.182  1.00  0.00     0.148 A 
ATOM     82  C   UNL A   1      49.679  26.118  32.067  1.00  0.00     0.002 A 
ATOM     83  C   UNL A   1      48.525  24.720  33.680  1.00  0.00     0.091 A 
ATOM     84  F   UNL A   1      46.139  24.659  33.670  1.00  0.00    -0.205 F 
ATOM     85  C   UNL A   1      49.717  25.204  33.119  1.00  0.00     0.022 A 
BRANCH  83  86
ATOM     86  S   UNL A   1      48.663  23.618  35.092  1.00  0.00     0.127 S 
ATOM     87  O   UNL A   1      47.861  24.316  36.095  1.00  0.00    -0.237 OA
ATOM     88  O   UNL A   1      48.064  22.383  34.585  1.00  0.00    -0.237 OA
ATOM     89  O   UNL A   1      50.087  23.520  35.382  1.00  0.00    -0.744 OA
ENDBRANCH  83  86
ENDBRANCH  56  79
ENDBRANCH  30  31
ENDBRANCH  22  25
ENDBRANCH  20  21
ENDBRANCH  19  20
ENDBRANCH   1  19
TORSDOF 17
ENDMDL
