MODEL 1
REMARK VINA RESULT:     -12.4      0.000      0.000
REMARK SMILES Cc1cccc(CS(=O)(=O)c2ccc(C(=O)NCCCCNC(=O)c3ccc(-c4c5nc(c(-c6cccc(S(=O)(=O)[O-])c6F)c6ccc([nH]6)c(-c6cccc(S(=O)(=O)[O-])c6F)c6nc(c(-c7cccc(S(=O)(=O)[O-])c7F)c7ccc4[nH]7)C=C6)C=C5)cc3)cc2F)n1
REMARK SMILES IDX 19 1 18 2 17 3 15 4 16 5 14 7 11 8 12 9 89 10 13 11 88 12
REMARK SMILES IDX 90 13 8 14 9 15 10 16 7 17 6 18 1 19 2 20 3 21 91 22 4 23
REMARK SMILES IDX 5 24 20 25 21 26 22 27 23 28 24 30 25 31 26 32 87 33 27 34
REMARK SMILES IDX 86 35 28 36 29 37 30 38 80 39 31 40 85 41 79 42 81 43 32 44
REMARK SMILES IDX 84 45 78 46 77 47 33 49 65 50 45 51 64 52 46 53 49 54 63 55
REMARK SMILES IDX 82 56 47 57 48 58 62 60 83 61 50 62 34 63 35 64 43 65 36 66
REMARK SMILES IDX 38 67 44 68 37 69 39 70 40 71 41 72 42 73 66 74 67 75 75 76
REMARK SMILES IDX 68 77 70 78 76 79 69 80 71 81 72 82 73 83 74 84 51 85 52 86
REMARK SMILES IDX 60 87 53 88 55 89 61 90 54 91 56 92 57 93 58 94 59 95
REMARK H PARENT 17 6 22 29 81 48 49 59
REMARK Flexibility Score: inf
ROOT
ATOM      1  C   UNL A   1      31.769  30.529  26.249  1.00  0.00     0.023 C 
ENDROOT
BRANCH   1   2
ATOM      2  C   UNL A   1      33.231  30.080  26.274  1.00  0.00     0.116 C 
BRANCH   2   3
ATOM      3  N   UNL A   1      33.660  29.685  24.947  1.00  0.00    -0.352 N 
ATOM      4  C   UNL A   1      33.568  28.492  24.280  1.00  0.00     0.251 C 
ATOM      5  O   UNL A   1      34.005  28.423  23.131  1.00  0.00    -0.269 OA
ATOM      6  H   UNL A   1      34.096  30.403  24.432  1.00  0.00     0.163 HD
BRANCH   4   7
ATOM      7  C   UNL A   1      32.911  27.292  24.857  1.00  0.00     0.042 A 
ATOM      8  C   UNL A   1      31.839  24.976  26.045  1.00  0.00     0.103 A 
ATOM      9  C   UNL A   1      33.194  25.280  26.197  1.00  0.00     0.024 A 
ATOM     10  C   UNL A   1      31.033  25.823  25.292  1.00  0.00     0.142 A 
ATOM     11  C   UNL A   1      33.717  26.445  25.632  1.00  0.00     0.015 A 
ATOM     12  C   UNL A   1      31.559  26.981  24.712  1.00  0.00     0.054 A 
ATOM     13  F   UNL A   1      29.736  25.571  25.085  1.00  0.00    -0.206 F 
BRANCH   8  14
ATOM     14  S   UNL A   1      31.194  23.467  26.723  1.00  0.00     0.186 S 
ATOM     15  O   UNL A   1      29.887  23.789  27.270  1.00  0.00    -0.223 OA
ATOM     16  O   UNL A   1      32.199  22.913  27.615  1.00  0.00    -0.223 OA
BRANCH  14  17
ATOM     17  C   UNL A   1      31.067  22.300  25.379  1.00  0.00     0.198 C 
BRANCH  17  18
ATOM     18  C   UNL A   1      32.352  21.571  25.143  1.00  0.00     0.056 A 
ATOM     19  C   UNL A   1      35.818  22.587  24.447  1.00  0.00     0.067 C 
ATOM     20  C   UNL A   1      34.635  21.694  24.666  1.00  0.00     0.038 A 
ATOM     21  C   UNL A   1      34.773  20.317  24.763  1.00  0.00     0.023 A 
ATOM     22  N   UNL A   1      33.440  22.310  24.829  1.00  0.00    -0.257 NA
ATOM     23  C   UNL A   1      33.642  19.554  25.030  1.00  0.00     0.004 A 
ATOM     24  C   UNL A   1      32.415  20.182  25.223  1.00  0.00     0.025 A 
ENDBRANCH  17  18
ENDBRANCH  14  17
ENDBRANCH   8  14
ENDBRANCH   4   7
ENDBRANCH   2   3
ENDBRANCH   1   2
BRANCH   1  25
ATOM     25  C   UNL A   1      31.537  31.951  26.774  1.00  0.00     0.023 C 
BRANCH  25  26
ATOM     26  C   UNL A   1      32.763  32.623  27.381  1.00  0.00     0.116 C 
BRANCH  26  27
ATOM     27  N   UNL A   1      32.537  34.019  27.722  1.00  0.00    -0.352 N 
ATOM     28  C   UNL A   1      33.170  34.787  28.669  1.00  0.00     0.251 C 
ATOM     29  H   UNL A   1      31.834  34.474  27.206  1.00  0.00     0.163 HD
ATOM     30  O   UNL A   1      32.771  35.920  28.904  1.00  0.00    -0.269 OA
BRANCH  28  31
ATOM     31  C   UNL A   1      34.312  34.225  29.423  1.00  0.00     0.039 A 
ATOM     32  C   UNL A   1      34.046  33.406  30.522  1.00  0.00     0.014 A 
ATOM     33  C   UNL A   1      35.630  34.501  29.050  1.00  0.00     0.014 A 
ATOM     34  C   UNL A   1      35.106  32.825  31.221  1.00  0.00     0.010 A 
ATOM     35  C   UNL A   1      36.681  33.864  29.702  1.00  0.00     0.010 A 
ATOM     36  C   UNL A   1      36.431  33.029  30.801  1.00  0.00    -0.014 A 
BRANCH  36  37
ATOM     37  C   UNL A   1      37.562  32.381  31.510  1.00  0.00     0.031 A 
ATOM     38  C   UNL A   1      38.299  31.235  30.876  1.00  0.00     0.074 A 
ATOM     39  C   UNL A   1      37.888  32.792  32.752  1.00  0.00     0.049 A 
ATOM     40  N   UNL A   1      39.310  30.550  31.342  1.00  0.00    -0.248 NA
ATOM     41  C   UNL A   1      37.826  30.776  29.557  1.00  0.00     0.031 C 
ATOM     42  C   UNL A   1      37.191  33.838  33.503  1.00  0.00     0.029 A 
ATOM     43  N   UNL A   1      38.877  32.372  33.606  1.00  0.00    -0.354 N 
ATOM     44  C   UNL A   1      39.577  29.571  30.394  1.00  0.00     0.074 A 
ATOM     45  C   UNL A   1      38.596  29.720  29.343  1.00  0.00     0.031 C 
ATOM     46  C   UNL A   1      37.787  33.993  34.697  1.00  0.00     0.029 A 
ATOM     47  C   UNL A   1      38.891  33.043  34.807  1.00  0.00     0.049 A 
ATOM     48  H   UNL A   1      39.515  31.658  33.381  1.00  0.00     0.167 HD
ATOM     49  C   UNL A   1      40.573  28.657  30.380  1.00  0.00     0.034 A 
ATOM     50  C   UNL A   1      39.706  32.914  35.873  1.00  0.00     0.034 A 
ATOM     51  C   UNL A   1      41.582  28.555  31.399  1.00  0.00     0.049 A 
ATOM     52  C   UNL A   1      40.835  31.922  35.813  1.00  0.00     0.074 A 
ATOM     53  C   UNL A   1      42.691  27.730  31.425  1.00  0.00     0.029 A 
ATOM     54  N   UNL A   1      41.604  29.299  32.568  1.00  0.00    -0.354 N 
ATOM     55  N   UNL A   1      41.171  31.117  34.834  1.00  0.00    -0.248 NA
ATOM     56  C   UNL A   1      41.719  31.839  36.986  1.00  0.00     0.031 C 
ATOM     57  C   UNL A   1      43.374  27.960  32.622  1.00  0.00     0.029 A 
ATOM     58  C   UNL A   1      42.703  28.944  33.330  1.00  0.00     0.049 A 
ATOM     59  H   UNL A   1      40.939  29.980  32.818  1.00  0.00     0.167 HD
ATOM     60  C   UNL A   1      42.317  30.455  35.257  1.00  0.00     0.074 A 
ATOM     61  C   UNL A   1      42.630  30.965  36.576  1.00  0.00     0.031 C 
ATOM     62  C   UNL A   1      43.034  29.499  34.617  1.00  0.00     0.034 A 
BRANCH  49  63
ATOM     63  C   UNL A   1      40.679  27.739  29.191  1.00  0.00     0.023 A 
ATOM     64  C   UNL A   1      39.800  26.643  29.086  1.00  0.00     0.012 A 
ATOM     65  C   UNL A   1      41.571  28.015  28.136  1.00  0.00     0.148 A 
ATOM     66  C   UNL A   1      39.820  25.820  27.961  1.00  0.00     0.002 A 
ATOM     67  C   UNL A   1      41.556  27.216  26.998  1.00  0.00     0.091 A 
ATOM     68  F   UNL A   1      42.411  29.051  28.264  1.00  0.00    -0.205 F 
ATOM     69  C   UNL A   1      40.688  26.114  26.914  1.00  0.00     0.022 A 
BRANCH  67  70
ATOM     70  S   UNL A   1      42.573  27.558  25.558  1.00  0.00     0.127 S 
ATOM     71  O   UNL A   1      42.007  28.823  25.091  1.00  0.00    -0.237 OA
ATOM     72  O   UNL A   1      43.909  27.669  26.145  1.00  0.00    -0.237 OA
ATOM     73  O   UNL A   1      42.394  26.427  24.660  1.00  0.00    -0.744 OA
ENDBRANCH  67  70
ENDBRANCH  49  63
BRANCH  50  74
ATOM     74  C   UNL A   1      39.531  33.819  37.044  1.00  0.00     0.023 A 
ATOM     75  C   UNL A   1      39.902  35.172  36.930  1.00  0.00     0.012 A 
ATOM     76  C   UNL A   1      38.937  33.368  38.240  1.00  0.00     0.148 A 
ATOM     77  C   UNL A   1      39.701  36.058  37.990  1.00  0.00     0.002 A 
ATOM     78  C   UNL A   1      38.688  34.267  39.271  1.00  0.00     0.091 A 
ATOM     79  F   UNL A   1      38.601  32.074  38.334  1.00  0.00    -0.205 F 
ATOM     80  C   UNL A   1      39.083  35.609  39.154  1.00  0.00     0.022 A 
BRANCH  78  81
ATOM     81  S   UNL A   1      37.771  33.812  40.749  1.00  0.00     0.127 S 
ATOM     82  O   UNL A   1      38.706  32.907  41.414  1.00  0.00    -0.237 OA
ATOM     83  O   UNL A   1      37.595  35.108  41.404  1.00  0.00    -0.237 OA
ATOM     84  O   UNL A   1      36.535  33.207  40.273  1.00  0.00    -0.744 OA
ENDBRANCH  78  81
ENDBRANCH  50  74
BRANCH  62  85
ATOM     85  C   UNL A   1      44.245  28.931  35.308  1.00  0.00     0.023 A 
ATOM     86  C   UNL A   1      45.490  29.569  35.153  1.00  0.00     0.012 A 
ATOM     87  C   UNL A   1      44.115  27.870  36.226  1.00  0.00     0.148 A 
ATOM     88  C   UNL A   1      46.593  29.155  35.899  1.00  0.00     0.002 A 
ATOM     89  C   UNL A   1      45.206  27.494  37.000  1.00  0.00     0.091 A 
ATOM     90  F   UNL A   1      42.921  27.273  36.347  1.00  0.00    -0.205 F 
ATOM     91  C   UNL A   1      46.447  28.131  36.832  1.00  0.00     0.022 A 
BRANCH  89  92
ATOM     92  S   UNL A   1      45.093  26.261  38.302  1.00  0.00     0.127 S 
ATOM     93  O   UNL A   1      46.483  26.163  38.741  1.00  0.00    -0.237 OA
ATOM     94  O   UNL A   1      44.194  26.905  39.260  1.00  0.00    -0.237 OA
ATOM     95  O   UNL A   1      44.554  25.060  37.676  1.00  0.00    -0.744 OA
ENDBRANCH  89  92
ENDBRANCH  62  85
ENDBRANCH  36  37
ENDBRANCH  28  31
ENDBRANCH  26  27
ENDBRANCH  25  26
ENDBRANCH   1  25
TORSDOF 17
ENDMDL
MODEL 2
REMARK VINA RESULT:     -12.3      3.396      8.591
REMARK SMILES Cc1cccc(CS(=O)(=O)c2ccc(C(=O)NCCCCNC(=O)c3ccc(-c4c5nc(c(-c6cccc(S(=O)(=O)[O-])c6F)c6ccc([nH]6)c(-c6cccc(S(=O)(=O)[O-])c6F)c6nc(c(-c7cccc(S(=O)(=O)[O-])c7F)c7ccc4[nH]7)C=C6)C=C5)cc3)cc2F)n1
REMARK SMILES IDX 19 1 18 2 17 3 15 4 16 5 14 7 11 8 12 9 89 10 13 11 88 12
REMARK SMILES IDX 90 13 8 14 9 15 10 16 7 17 6 18 1 19 2 20 3 21 91 22 4 23
REMARK SMILES IDX 5 24 20 25 21 26 22 27 23 28 24 30 25 31 26 32 87 33 27 34
REMARK SMILES IDX 86 35 28 36 29 37 30 38 80 39 31 40 85 41 79 42 81 43 32 44
REMARK SMILES IDX 84 45 78 46 77 47 33 49 65 50 45 51 64 52 46 53 49 54 63 55
REMARK SMILES IDX 82 56 47 57 48 58 62 60 83 61 50 62 34 63 35 64 43 65 36 66
REMARK SMILES IDX 38 67 44 68 37 69 39 70 40 71 41 72 42 73 66 74 67 75 75 76
REMARK SMILES IDX 68 77 70 78 76 79 69 80 71 81 72 82 73 83 74 84 51 85 52 86
REMARK SMILES IDX 60 87 53 88 55 89 61 90 54 91 56 92 57 93 58 94 59 95
REMARK H PARENT 17 6 22 29 81 48 49 59
REMARK Flexibility Score: inf
ROOT
ATOM      1  C   UNL A   1      32.792  29.539  25.105  1.00  0.00     0.023 C 
ENDROOT
BRANCH   1   2
ATOM      2  C   UNL A   1      31.303  29.784  24.856  1.00  0.00     0.116 C 
BRANCH   2   3
ATOM      3  N   UNL A   1      30.926  29.306  23.540  1.00  0.00    -0.352 N 
ATOM      4  C   UNL A   1      30.721  28.041  23.057  1.00  0.00     0.251 C 
ATOM      5  O   UNL A   1      30.385  27.906  21.881  1.00  0.00    -0.269 OA
ATOM      6  H   UNL A   1      30.794  30.019  22.873  1.00  0.00     0.163 HD
BRANCH   4   7
ATOM      7  C   UNL A   1      30.828  26.826  23.903  1.00  0.00     0.042 A 
ATOM      8  C   UNL A   1      31.207  24.484  25.419  1.00  0.00     0.103 A 
ATOM      9  C   UNL A   1      32.103  24.813  24.399  1.00  0.00     0.024 A 
ATOM     10  C   UNL A   1      30.124  25.320  25.667  1.00  0.00     0.142 A 
ATOM     11  C   UNL A   1      31.930  25.990  23.668  1.00  0.00     0.015 A 
ATOM     12  C   UNL A   1      29.940  26.491  24.926  1.00  0.00     0.054 A 
ATOM     13  F   UNL A   1      29.215  25.045  26.610  1.00  0.00    -0.206 F 
BRANCH   8  14
ATOM     14  S   UNL A   1      31.405  22.960  26.309  1.00  0.00     0.186 S 
ATOM     15  O   UNL A   1      30.288  22.114  25.927  1.00  0.00    -0.223 OA
ATOM     16  O   UNL A   1      31.577  23.284  27.716  1.00  0.00    -0.223 OA
BRANCH  14  17
ATOM     17  C   UNL A   1      32.962  22.253  25.797  1.00  0.00     0.198 C 
BRANCH  17  18
ATOM     18  C   UNL A   1      32.776  21.028  24.958  1.00  0.00     0.056 A 
ATOM     19  C   UNL A   1      32.730  17.412  25.625  1.00  0.00     0.067 C 
ATOM     20  C   UNL A   1      32.690  18.697  24.856  1.00  0.00     0.038 A 
ATOM     21  C   UNL A   1      32.378  18.725  23.505  1.00  0.00     0.023 A 
ATOM     22  N   UNL A   1      32.909  19.828  25.567  1.00  0.00    -0.257 NA
ATOM     23  C   UNL A   1      32.297  19.958  22.868  1.00  0.00     0.004 A 
ATOM     24  C   UNL A   1      32.497  21.126  23.598  1.00  0.00     0.025 A 
ENDBRANCH  17  18
ENDBRANCH  14  17
ENDBRANCH   8  14
ENDBRANCH   4   7
ENDBRANCH   2   3
ENDBRANCH   1   2
BRANCH   1  25
ATOM     25  C   UNL A   1      33.090  28.354  26.029  1.00  0.00     0.023 C 
BRANCH  25  26
ATOM     26  C   UNL A   1      33.677  28.724  27.387  1.00  0.00     0.116 C 
BRANCH  26  27
ATOM     27  N   UNL A   1      33.639  30.153  27.653  1.00  0.00    -0.352 N 
ATOM     28  C   UNL A   1      34.594  30.945  28.244  1.00  0.00     0.251 C 
ATOM     29  H   UNL A   1      32.817  30.616  27.374  1.00  0.00     0.163 HD
ATOM     30  O   UNL A   1      34.346  32.117  28.496  1.00  0.00    -0.269 OA
BRANCH  28  31
ATOM     31  C   UNL A   1      35.906  30.364  28.602  1.00  0.00     0.039 A 
ATOM     32  C   UNL A   1      36.980  30.556  27.731  1.00  0.00     0.014 A 
ATOM     33  C   UNL A   1      36.077  29.640  29.785  1.00  0.00     0.014 A 
ATOM     34  C   UNL A   1      38.240  30.059  28.069  1.00  0.00     0.010 A 
ATOM     35  C   UNL A   1      37.347  29.209  30.154  1.00  0.00     0.010 A 
ATOM     36  C   UNL A   1      38.438  29.403  29.296  1.00  0.00    -0.014 A 
BRANCH  36  37
ATOM     37  C   UNL A   1      39.783  28.909  29.684  1.00  0.00     0.031 A 
ATOM     38  C   UNL A   1      40.556  29.592  30.778  1.00  0.00     0.074 A 
ATOM     39  C   UNL A   1      40.329  27.877  29.011  1.00  0.00     0.049 A 
ATOM     40  N   UNL A   1      41.737  29.299  31.253  1.00  0.00    -0.248 NA
ATOM     41  C   UNL A   1      39.936  30.773  31.405  1.00  0.00     0.031 C 
ATOM     42  C   UNL A   1      39.711  27.188  27.876  1.00  0.00     0.029 A 
ATOM     43  N   UNL A   1      41.532  27.236  29.172  1.00  0.00    -0.354 N 
ATOM     44  C   UNL A   1      42.013  30.268  32.210  1.00  0.00     0.074 A 
ATOM     45  C   UNL A   1      40.895  31.184  32.221  1.00  0.00     0.031 C 
ATOM     46  C   UNL A   1      40.528  26.209  27.458  1.00  0.00     0.029 A 
ATOM     47  C   UNL A   1      41.738  26.213  28.276  1.00  0.00     0.049 A 
ATOM     48  H   UNL A   1      42.186  27.485  29.864  1.00  0.00     0.167 HD
ATOM     49  C   UNL A   1      43.082  30.363  33.033  1.00  0.00     0.034 A 
ATOM     50  C   UNL A   1      42.779  25.368  28.134  1.00  0.00     0.034 A 
ATOM     51  C   UNL A   1      44.160  29.414  33.059  1.00  0.00     0.049 A 
ATOM     52  C   UNL A   1      43.934  25.465  29.093  1.00  0.00     0.074 A 
ATOM     53  C   UNL A   1      45.237  29.366  33.925  1.00  0.00     0.029 A 
ATOM     54  N   UNL A   1      44.300  28.350  32.183  1.00  0.00    -0.354 N 
ATOM     55  N   UNL A   1      44.099  26.288  30.101  1.00  0.00    -0.248 NA
ATOM     56  C   UNL A   1      45.032  24.502  28.921  1.00  0.00     0.031 C 
ATOM     57  C   UNL A   1      46.042  28.284  33.558  1.00  0.00     0.029 A 
ATOM     58  C   UNL A   1      45.453  27.645  32.478  1.00  0.00     0.049 A 
ATOM     59  H   UNL A   1      43.672  28.128  31.458  1.00  0.00     0.167 HD
ATOM     60  C   UNL A   1      45.300  25.925  30.699  1.00  0.00     0.074 A 
ATOM     61  C   UNL A   1      45.814  24.796  29.953  1.00  0.00     0.031 C 
ATOM     62  C   UNL A   1      45.926  26.489  31.761  1.00  0.00     0.034 A 
BRANCH  49  63
ATOM     63  C   UNL A   1      43.109  31.487  34.035  1.00  0.00     0.023 A 
ATOM     64  C   UNL A   1      43.690  32.719  33.674  1.00  0.00     0.012 A 
ATOM     65  C   UNL A   1      42.476  31.361  35.288  1.00  0.00     0.148 A 
ATOM     66  C   UNL A   1      43.663  33.802  34.550  1.00  0.00     0.002 A 
ATOM     67  C   UNL A   1      42.414  32.458  36.139  1.00  0.00     0.091 A 
ATOM     68  F   UNL A   1      41.946  30.176  35.619  1.00  0.00    -0.205 F 
ATOM     69  C   UNL A   1      43.015  33.676  35.774  1.00  0.00     0.022 A 
BRANCH  67  70
ATOM     70  S   UNL A   1      41.531  32.427  37.702  1.00  0.00     0.127 S 
ATOM     71  O   UNL A   1      40.220  31.927  37.289  1.00  0.00    -0.237 OA
ATOM     72  O   UNL A   1      42.325  31.480  38.485  1.00  0.00    -0.237 OA
ATOM     73  O   UNL A   1      41.545  33.794  38.201  1.00  0.00    -0.744 OA
ENDBRANCH  67  70
ENDBRANCH  49  63
BRANCH  50  74
ATOM     74  C   UNL A   1      42.721  24.300  27.096  1.00  0.00     0.023 A 
ATOM     75  C   UNL A   1      43.397  24.488  25.876  1.00  0.00     0.012 A 
ATOM     76  C   UNL A   1      42.066  23.076  27.337  1.00  0.00     0.148 A 
ATOM     77  C   UNL A   1      43.408  23.484  24.905  1.00  0.00     0.002 A 
ATOM     78  C   UNL A   1      42.127  22.060  26.389  1.00  0.00     0.091 A 
ATOM     79  F   UNL A   1      41.418  22.920  28.500  1.00  0.00    -0.205 F 
ATOM     80  C   UNL A   1      42.784  22.267  25.167  1.00  0.00     0.022 A 
BRANCH  78  81
ATOM     81  S   UNL A   1      41.477  20.413  26.697  1.00  0.00     0.127 S 
ATOM     82  O   UNL A   1      41.819  19.720  25.456  1.00  0.00    -0.237 OA
ATOM     83  O   UNL A   1      42.249  19.998  27.868  1.00  0.00    -0.237 OA
ATOM     84  O   UNL A   1      40.054  20.593  26.948  1.00  0.00    -0.744 OA
ENDBRANCH  78  81
ENDBRANCH  50  74
BRANCH  62  85
ATOM     85  C   UNL A   1      47.237  25.903  32.211  1.00  0.00     0.023 A 
ATOM     86  C   UNL A   1      48.438  26.407  31.676  1.00  0.00     0.012 A 
ATOM     87  C   UNL A   1      47.283  24.976  33.271  1.00  0.00     0.148 A 
ATOM     88  C   UNL A   1      49.667  25.990  32.183  1.00  0.00     0.002 A 
ATOM     89  C   UNL A   1      48.510  24.601  33.803  1.00  0.00     0.091 A 
ATOM     90  F   UNL A   1      46.126  24.504  33.756  1.00  0.00    -0.205 F 
ATOM     91  C   UNL A   1      49.703  25.101  33.256  1.00  0.00     0.022 A 
BRANCH  89  92
ATOM     92  S   UNL A   1      48.658  23.547  35.251  1.00  0.00     0.127 S 
ATOM     93  O   UNL A   1      47.870  24.284  36.237  1.00  0.00    -0.237 OA
ATOM     94  O   UNL A   1      48.048  22.300  34.789  1.00  0.00    -0.237 OA
ATOM     95  O   UNL A   1      50.084  23.455  35.541  1.00  0.00    -0.744 OA
ENDBRANCH  89  92
ENDBRANCH  62  85
ENDBRANCH  36  37
ENDBRANCH  28  31
ENDBRANCH  26  27
ENDBRANCH  25  26
ENDBRANCH   1  25
TORSDOF 17
ENDMDL
MODEL 3
REMARK VINA RESULT:     -12.3      2.621      8.190
REMARK SMILES Cc1cccc(CS(=O)(=O)c2ccc(C(=O)NCCCCNC(=O)c3ccc(-c4c5nc(c(-c6cccc(S(=O)(=O)[O-])c6F)c6ccc([nH]6)c(-c6cccc(S(=O)(=O)[O-])c6F)c6nc(c(-c7cccc(S(=O)(=O)[O-])c7F)c7ccc4[nH]7)C=C6)C=C5)cc3)cc2F)n1
REMARK SMILES IDX 19 1 18 2 17 3 15 4 16 5 14 7 11 8 12 9 89 10 13 11 88 12
REMARK SMILES IDX 90 13 8 14 9 15 10 16 7 17 6 18 1 19 2 20 3 21 91 22 4 23
REMARK SMILES IDX 5 24 20 25 21 26 22 27 23 28 24 30 25 31 26 32 87 33 27 34
REMARK SMILES IDX 86 35 28 36 29 37 30 38 80 39 31 40 85 41 79 42 81 43 32 44
REMARK SMILES IDX 84 45 78 46 77 47 33 49 65 50 45 51 64 52 46 53 49 54 63 55
REMARK SMILES IDX 82 56 47 57 48 58 62 60 83 61 50 62 34 63 35 64 43 65 36 66
REMARK SMILES IDX 38 67 44 68 37 69 39 70 40 71 41 72 42 73 66 74 67 75 75 76
REMARK SMILES IDX 68 77 70 78 76 79 69 80 71 81 72 82 73 83 74 84 51 85 52 86
REMARK SMILES IDX 60 87 53 88 55 89 61 90 54 91 56 92 57 93 58 94 59 95
REMARK H PARENT 17 6 22 29 81 48 49 59
REMARK Flexibility Score: inf
ROOT
ATOM      1  C   UNL A   1      31.241  29.369  24.635  1.00  0.00     0.023 C 
ENDROOT
BRANCH   1   2
ATOM      2  C   UNL A   1      31.189  28.314  23.529  1.00  0.00     0.116 C 
BRANCH   2   3
ATOM      3  N   UNL A   1      32.355  28.422  22.674  1.00  0.00    -0.352 N 
ATOM      4  C   UNL A   1      33.377  27.547  22.416  1.00  0.00     0.251 C 
ATOM      5  O   UNL A   1      34.255  27.883  21.622  1.00  0.00    -0.269 OA
ATOM      6  H   UNL A   1      32.426  29.279  22.192  1.00  0.00     0.163 HD
BRANCH   4   7
ATOM      7  C   UNL A   1      33.444  26.186  23.006  1.00  0.00     0.042 A 
ATOM      8  C   UNL A   1      33.624  23.691  24.297  1.00  0.00     0.103 A 
ATOM      9  C   UNL A   1      34.013  24.856  24.963  1.00  0.00     0.024 A 
ATOM     10  C   UNL A   1      33.158  23.780  22.990  1.00  0.00     0.142 A 
ATOM     11  C   UNL A   1      33.895  26.096  24.331  1.00  0.00     0.015 A 
ATOM     12  C   UNL A   1      33.054  25.017  22.350  1.00  0.00     0.054 A 
ATOM     13  F   UNL A   1      32.798  22.698  22.290  1.00  0.00    -0.206 F 
BRANCH   8  14
ATOM     14  S   UNL A   1      33.825  22.115  25.090  1.00  0.00     0.186 S 
ATOM     15  O   UNL A   1      34.059  22.391  26.497  1.00  0.00    -0.223 OA
ATOM     16  O   UNL A   1      34.836  21.372  24.354  1.00  0.00    -0.223 OA
BRANCH  14  17
ATOM     17  C   UNL A   1      32.308  21.208  24.848  1.00  0.00     0.198 C 
BRANCH  17  18
ATOM     18  C   UNL A   1      32.549  19.856  24.254  1.00  0.00     0.056 A 
ATOM     19  C   UNL A   1      33.864  16.664  25.523  1.00  0.00     0.067 C 
ATOM     20  C   UNL A   1      33.320  17.673  24.558  1.00  0.00     0.038 A 
ATOM     21  C   UNL A   1      32.962  17.320  23.266  1.00  0.00     0.023 A 
ATOM     22  N   UNL A   1      33.140  18.926  25.038  1.00  0.00    -0.257 NA
ATOM     23  C   UNL A   1      32.405  18.293  22.442  1.00  0.00     0.004 A 
ATOM     24  C   UNL A   1      32.194  19.577  22.937  1.00  0.00     0.025 A 
ENDBRANCH  17  18
ENDBRANCH  14  17
ENDBRANCH   8  14
ENDBRANCH   4   7
ENDBRANCH   2   3
ENDBRANCH   1   2
BRANCH   1  25
ATOM     25  C   UNL A   1      31.741  28.843  25.985  1.00  0.00     0.023 C 
BRANCH  25  26
ATOM     26  C   UNL A   1      33.024  29.489  26.495  1.00  0.00     0.116 C 
BRANCH  26  27
ATOM     27  N   UNL A   1      32.875  30.906  26.781  1.00  0.00    -0.352 N 
ATOM     28  C   UNL A   1      33.686  31.724  27.530  1.00  0.00     0.251 C 
ATOM     29  H   UNL A   1      32.086  31.339  26.384  1.00  0.00     0.163 HD
ATOM     30  O   UNL A   1      33.345  32.876  27.763  1.00  0.00    -0.269 OA
BRANCH  28  31
ATOM     31  C   UNL A   1      34.952  31.193  28.080  1.00  0.00     0.039 A 
ATOM     32  C   UNL A   1      36.068  32.032  28.112  1.00  0.00     0.014 A 
ATOM     33  C   UNL A   1      35.040  29.884  28.559  1.00  0.00     0.014 A 
ATOM     34  C   UNL A   1      37.262  31.571  28.669  1.00  0.00     0.010 A 
ATOM     35  C   UNL A   1      36.207  29.451  29.179  1.00  0.00     0.010 A 
ATOM     36  C   UNL A   1      37.333  30.284  29.230  1.00  0.00    -0.014 A 
BRANCH  36  37
ATOM     37  C   UNL A   1      38.585  29.800  29.863  1.00  0.00     0.031 A 
ATOM     38  C   UNL A   1      39.008  30.325  31.207  1.00  0.00     0.074 A 
ATOM     39  C   UNL A   1      39.368  28.927  29.200  1.00  0.00     0.049 A 
ATOM     40  N   UNL A   1      40.063  30.016  31.914  1.00  0.00    -0.248 NA
ATOM     41  C   UNL A   1      38.151  31.349  31.831  1.00  0.00     0.031 C 
ATOM     42  C   UNL A   1      39.105  28.411  27.855  1.00  0.00     0.029 A 
ATOM     43  N   UNL A   1      40.551  28.329  29.558  1.00  0.00    -0.354 N 
ATOM     44  C   UNL A   1      40.013  30.820  33.045  1.00  0.00     0.074 A 
ATOM     45  C   UNL A   1      38.846  31.663  32.914  1.00  0.00     0.031 C 
ATOM     46  C   UNL A   1      40.084  27.559  27.511  1.00  0.00     0.029 A 
ATOM     47  C   UNL A   1      41.057  27.485  28.597  1.00  0.00     0.049 A 
ATOM     48  H   UNL A   1      40.995  28.489  30.421  1.00  0.00     0.167 HD
ATOM     49  C   UNL A   1      40.840  30.827  34.115  1.00  0.00     0.034 A 
ATOM     50  C   UNL A   1      42.174  26.731  28.594  1.00  0.00     0.034 A 
ATOM     51  C   UNL A   1      41.963  29.944  34.265  1.00  0.00     0.049 A 
ATOM     52  C   UNL A   1      43.053  26.721  29.815  1.00  0.00     0.074 A 
ATOM     53  C   UNL A   1      42.801  29.804  35.357  1.00  0.00     0.029 A 
ATOM     54  N   UNL A   1      42.404  29.052  33.301  1.00  0.00    -0.354 N 
ATOM     55  N   UNL A   1      42.896  27.367  30.946  1.00  0.00    -0.248 NA
ATOM     56  C   UNL A   1      44.243  25.858  29.780  1.00  0.00     0.031 C 
ATOM     57  C   UNL A   1      43.765  28.842  35.043  1.00  0.00     0.029 A 
ATOM     58  C   UNL A   1      43.512  28.367  33.765  1.00  0.00     0.049 A 
ATOM     59  H   UNL A   1      41.991  28.925  32.416  1.00  0.00     0.167 HD
ATOM     60  C   UNL A   1      43.946  26.969  31.764  1.00  0.00     0.074 A 
ATOM     61  C   UNL A   1      44.725  26.011  31.008  1.00  0.00     0.031 C 
ATOM     62  C   UNL A   1      44.246  27.375  33.022  1.00  0.00     0.034 A 
BRANCH  49  63
ATOM     63  C   UNL A   1      40.524  31.764  35.251  1.00  0.00     0.023 A 
ATOM     64  C   UNL A   1      41.286  32.940  35.407  1.00  0.00     0.012 A 
ATOM     65  C   UNL A   1      39.420  31.537  36.096  1.00  0.00     0.148 A 
ATOM     66  C   UNL A   1      40.970  33.865  36.400  1.00  0.00     0.002 A 
ATOM     67  C   UNL A   1      39.085  32.485  37.056  1.00  0.00     0.091 A 
ATOM     68  F   UNL A   1      38.721  30.404  35.943  1.00  0.00    -0.205 F 
ATOM     69  C   UNL A   1      39.864  33.644  37.215  1.00  0.00     0.022 A 
BRANCH  67  70
ATOM     70  S   UNL A   1      37.631  32.337  38.100  1.00  0.00     0.127 S 
ATOM     71  O   UNL A   1      37.441  30.887  38.137  1.00  0.00    -0.237 OA
ATOM     72  O   UNL A   1      38.095  32.923  39.358  1.00  0.00    -0.237 OA
ATOM     73  O   UNL A   1      36.577  33.085  37.432  1.00  0.00    -0.744 OA
ENDBRANCH  67  70
ENDBRANCH  49  63
BRANCH  50  74
ATOM     74  C   UNL A   1      42.464  25.852  27.425  1.00  0.00     0.023 A 
ATOM     75  C   UNL A   1      43.236  26.356  26.360  1.00  0.00     0.012 A 
ATOM     76  C   UNL A   1      42.045  24.508  27.393  1.00  0.00     0.148 A 
ATOM     77  C   UNL A   1      43.571  25.543  25.276  1.00  0.00     0.002 A 
ATOM     78  C   UNL A   1      42.428  23.688  26.338  1.00  0.00     0.091 A 
ATOM     79  F   UNL A   1      41.301  24.050  28.410  1.00  0.00    -0.205 F 
ATOM     80  C   UNL A   1      43.178  24.206  25.272  1.00  0.00     0.022 A 
BRANCH  78  81
ATOM     81  S   UNL A   1      42.091  21.922  26.315  1.00  0.00     0.127 S 
ATOM     82  O   UNL A   1      42.451  21.531  27.676  1.00  0.00    -0.237 OA
ATOM     83  O   UNL A   1      40.657  21.894  26.024  1.00  0.00    -0.237 OA
ATOM     84  O   UNL A   1      42.929  21.376  25.257  1.00  0.00    -0.744 OA
ENDBRANCH  78  81
ENDBRANCH  50  74
BRANCH  62  85
ATOM     85  C   UNL A   1      45.459  26.788  33.693  1.00  0.00     0.023 A 
ATOM     86  C   UNL A   1      46.691  27.463  33.603  1.00  0.00     0.012 A 
ATOM     87  C   UNL A   1      45.341  25.665  34.535  1.00  0.00     0.148 A 
ATOM     88  C   UNL A   1      47.792  27.024  34.337  1.00  0.00     0.002 A 
ATOM     89  C   UNL A   1      46.429  25.262  35.299  1.00  0.00     0.091 A 
ATOM     90  F   UNL A   1      44.160  25.034  34.595  1.00  0.00    -0.205 F 
ATOM     91  C   UNL A   1      47.657  25.936  35.196  1.00  0.00     0.022 A 
BRANCH  89  92
ATOM     92  S   UNL A   1      46.325  23.940  36.513  1.00  0.00     0.127 S 
ATOM     93  O   UNL A   1      46.238  22.758  35.658  1.00  0.00    -0.237 OA
ATOM     94  O   UNL A   1      47.590  24.082  37.233  1.00  0.00    -0.237 OA
ATOM     95  O   UNL A   1      45.137  24.216  37.311  1.00  0.00    -0.744 OA
ENDBRANCH  89  92
ENDBRANCH  62  85
ENDBRANCH  36  37
ENDBRANCH  28  31
ENDBRANCH  26  27
ENDBRANCH  25  26
ENDBRANCH   1  25
TORSDOF 17
ENDMDL
