MODEL 1
REMARK VINA RESULT:     -12.0      0.000      0.000
REMARK SMILES C[C@H](C(=O)NCCCCNC(=O)c1ccc(-c2c3nc(c(-c4cccc(S(=O)(=O)[O-])c4F)c4ccc([nH]4)c(-c4cccc(S(=O)(=O)[O-])c4F)c4nc(c(-c5cccc(S(=O)(=O)[O-])c5F)c5ccc2[nH]5)C=C4)C=C3)cc1)[C@@H](C)Nc1ccccc1Oc1ccccc1
REMARK SMILES IDX 6 1 5 2 3 3 4 4 2 6 1 7 76 8 77 9 78 10 79 12 80 13 84 14
REMARK SMILES IDX 81 15 83 16 82 17 85 18 86 19 87 20 91 21 88 22 90 23 89 24
REMARK SMILES IDX 7 25 8 26 9 27 10 28 11 29 12 31 13 32 14 33 75 34 15 35
REMARK SMILES IDX 74 36 16 37 17 38 18 39 68 40 19 41 73 42 67 43 69 44 20 45
REMARK SMILES IDX 72 46 66 47 65 48 21 50 53 51 33 52 52 53 34 54 37 55 51 56
REMARK SMILES IDX 70 57 35 58 36 59 50 61 71 62 38 63 22 64 23 65 31 66 24 67
REMARK SMILES IDX 26 68 32 69 25 70 27 71 28 72 29 73 30 74 54 75 55 76 63 77
REMARK SMILES IDX 56 78 58 79 64 80 57 81 59 82 60 83 61 84 62 85 39 86 40 87
REMARK SMILES IDX 48 88 41 89 43 90 49 91 42 92 44 93 45 94 46 95 47 96
REMARK H PARENT 5 5 78 11 10 30 69 49 37 60
REMARK Flexibility Score: inf
ROOT
ATOM      1  C   UNL A   1      33.814  23.397  22.818  1.00  0.00     0.116 C 
ENDROOT
BRANCH   1   2
ATOM      2  N   UNL A   1      33.316  24.598  22.174  1.00  0.00    -0.356 N 
ATOM      3  C   UNL A   1      32.188  25.321  22.415  1.00  0.00     0.224 C 
ATOM      4  O   UNL A   1      32.073  26.414  21.853  1.00  0.00    -0.275 OA
ATOM      5  H   UNL A   1      33.884  24.945  21.447  1.00  0.00     0.163 HD
BRANCH   3   6
ATOM      6  C   UNL A   1      31.080  24.823  23.338  1.00  0.00     0.097 C 
ATOM      7  C   UNL A   1      30.946  23.303  23.243  1.00  0.00     0.020 C 
BRANCH   6   8
ATOM      8  C   UNL A   1      31.219  25.432  24.751  1.00  0.00     0.088 C 
ATOM      9  C   UNL A   1      31.628  24.328  25.742  1.00  0.00     0.031 C 
BRANCH   8  10
ATOM     10  N   UNL A   1      32.252  26.461  24.797  1.00  0.00    -0.379 N 
ATOM     11  H   UNL A   1      33.079  26.262  24.301  1.00  0.00     0.160 HD
BRANCH  10  12
ATOM     12  C   UNL A   1      32.218  27.683  25.450  1.00  0.00     0.078 A 
ATOM     13  C   UNL A   1      32.809  27.681  26.737  1.00  0.00     0.029 A 
ATOM     14  C   UNL A   1      31.750  28.926  24.980  1.00  0.00     0.150 A 
ATOM     15  C   UNL A   1      32.947  28.835  27.515  1.00  0.00     0.002 A 
ATOM     16  C   UNL A   1      31.876  30.084  25.779  1.00  0.00     0.049 A 
ATOM     17  C   UNL A   1      32.470  30.042  27.038  1.00  0.00     0.004 A 
BRANCH  14  18
ATOM     18  O   UNL A   1      31.285  29.233  23.721  1.00  0.00    -0.455 OA
BRANCH  18  19
ATOM     19  C   UNL A   1      29.955  29.399  23.435  1.00  0.00     0.127 A 
ATOM     20  C   UNL A   1      29.280  28.192  23.206  1.00  0.00     0.047 A 
ATOM     21  C   UNL A   1      29.251  30.597  23.396  1.00  0.00     0.047 A 
ATOM     22  C   UNL A   1      27.894  28.161  23.083  1.00  0.00     0.004 A 
ATOM     23  C   UNL A   1      27.858  30.569  23.240  1.00  0.00     0.004 A 
ATOM     24  C   UNL A   1      27.179  29.352  23.118  1.00  0.00     0.000 A 
ENDBRANCH  18  19
ENDBRANCH  14  18
ENDBRANCH  10  12
ENDBRANCH   8  10
ENDBRANCH   6   8
ENDBRANCH   3   6
ENDBRANCH   1   2
BRANCH   1  25
ATOM     25  C   UNL A   1      34.814  23.672  23.932  1.00  0.00     0.023 C 
BRANCH  25  26
ATOM     26  C   UNL A   1      35.961  22.667  24.033  1.00  0.00     0.023 C 
BRANCH  26  27
ATOM     27  C   UNL A   1      36.355  22.256  25.450  1.00  0.00     0.116 C 
BRANCH  27  28
ATOM     28  N   UNL A   1      37.350  21.192  25.488  1.00  0.00    -0.352 N 
ATOM     29  C   UNL A   1      38.670  21.229  25.884  1.00  0.00     0.251 C 
ATOM     30  H   UNL A   1      37.030  20.311  25.185  1.00  0.00     0.163 HD
ATOM     31  O   UNL A   1      39.385  20.251  25.725  1.00  0.00    -0.269 OA
BRANCH  29  32
ATOM     32  C   UNL A   1      39.229  22.470  26.469  1.00  0.00     0.039 A 
ATOM     33  C   UNL A   1      40.261  22.369  27.407  1.00  0.00     0.014 A 
ATOM     34  C   UNL A   1      38.760  23.725  26.078  1.00  0.00     0.014 A 
ATOM     35  C   UNL A   1      40.887  23.528  27.876  1.00  0.00     0.010 A 
ATOM     36  C   UNL A   1      39.436  24.873  26.484  1.00  0.00     0.010 A 
ATOM     37  C   UNL A   1      40.514  24.788  27.380  1.00  0.00    -0.014 A 
BRANCH  37  38
ATOM     38  C   UNL A   1      41.260  26.022  27.744  1.00  0.00     0.031 A 
ATOM     39  C   UNL A   1      40.572  27.139  28.482  1.00  0.00     0.074 A 
ATOM     40  C   UNL A   1      42.527  26.185  27.312  1.00  0.00     0.049 A 
ATOM     41  N   UNL A   1      41.031  28.321  28.802  1.00  0.00    -0.248 NA
ATOM     42  C   UNL A   1      39.176  26.909  28.888  1.00  0.00     0.031 C 
ATOM     43  C   UNL A   1      43.282  25.215  26.516  1.00  0.00     0.029 A 
ATOM     44  N   UNL A   1      43.394  27.242  27.453  1.00  0.00    -0.354 N 
ATOM     45  C   UNL A   1      39.974  28.989  29.408  1.00  0.00     0.074 A 
ATOM     46  C   UNL A   1      38.839  28.091  29.383  1.00  0.00     0.031 C 
ATOM     47  C   UNL A   1      44.496  25.719  26.241  1.00  0.00     0.029 A 
ATOM     48  C   UNL A   1      44.597  27.058  26.811  1.00  0.00     0.049 A 
ATOM     49  H   UNL A   1      43.175  28.053  27.965  1.00  0.00     0.167 HD
ATOM     50  C   UNL A   1      39.955  30.224  29.963  1.00  0.00     0.034 A 
ATOM     51  C   UNL A   1      45.661  27.877  26.686  1.00  0.00     0.034 A 
ATOM     52  C   UNL A   1      41.096  31.096  30.033  1.00  0.00     0.049 A 
ATOM     53  C   UNL A   1      45.628  29.228  27.350  1.00  0.00     0.074 A 
ATOM     54  C   UNL A   1      41.201  32.326  30.659  1.00  0.00     0.029 A 
ATOM     55  N   UNL A   1      42.329  30.835  29.455  1.00  0.00    -0.354 N 
ATOM     56  N   UNL A   1      44.673  29.775  28.062  1.00  0.00    -0.248 NA
ATOM     57  C   UNL A   1      46.833  30.062  27.222  1.00  0.00     0.031 C 
ATOM     58  C   UNL A   1      42.494  32.817  30.444  1.00  0.00     0.029 A 
ATOM     59  C   UNL A   1      43.198  31.884  29.701  1.00  0.00     0.049 A 
ATOM     60  H   UNL A   1      42.552  30.024  28.944  1.00  0.00     0.167 HD
ATOM     61  C   UNL A   1      45.172  30.998  28.495  1.00  0.00     0.074 A 
ATOM     62  C   UNL A   1      46.522  31.103  27.984  1.00  0.00     0.031 C 
ATOM     63  C   UNL A   1      44.560  31.953  29.237  1.00  0.00     0.034 A 
BRANCH  50  64
ATOM     64  C   UNL A   1      38.669  30.686  30.599  1.00  0.00     0.023 A 
ATOM     65  C   UNL A   1      38.445  30.435  31.968  1.00  0.00     0.012 A 
ATOM     66  C   UNL A   1      37.712  31.413  29.865  1.00  0.00     0.148 A 
ATOM     67  C   UNL A   1      37.277  30.871  32.590  1.00  0.00     0.002 A 
ATOM     68  C   UNL A   1      36.569  31.883  30.502  1.00  0.00     0.091 A 
ATOM     69  F   UNL A   1      37.931  31.624  28.559  1.00  0.00    -0.205 F 
ATOM     70  C   UNL A   1      36.344  31.603  31.861  1.00  0.00     0.022 A 
BRANCH  68  71
ATOM     71  S   UNL A   1      35.345  32.900  29.669  1.00  0.00     0.127 S 
ATOM     72  O   UNL A   1      34.440  33.233  30.769  1.00  0.00    -0.237 OA
ATOM     73  O   UNL A   1      36.153  34.020  29.185  1.00  0.00    -0.237 OA
ATOM     74  O   UNL A   1      34.776  32.065  28.621  1.00  0.00    -0.744 OA
ENDBRANCH  68  71
ENDBRANCH  50  64
BRANCH  51  75
ATOM     75  C   UNL A   1      46.876  27.414  25.959  1.00  0.00     0.023 A 
ATOM     76  C   UNL A   1      47.817  26.610  26.632  1.00  0.00     0.012 A 
ATOM     77  C   UNL A   1      47.094  27.737  24.605  1.00  0.00     0.148 A 
ATOM     78  C   UNL A   1      48.966  26.160  25.982  1.00  0.00     0.002 A 
ATOM     79  C   UNL A   1      48.214  27.240  23.947  1.00  0.00     0.091 A 
ATOM     80  F   UNL A   1      46.196  28.514  23.984  1.00  0.00    -0.205 F 
ATOM     81  C   UNL A   1      49.161  26.467  24.638  1.00  0.00     0.022 A 
BRANCH  79  82
ATOM     82  S   UNL A   1      48.478  27.474  22.185  1.00  0.00     0.127 S 
ATOM     83  O   UNL A   1      47.279  28.213  21.798  1.00  0.00    -0.237 OA
ATOM     84  O   UNL A   1      49.716  28.253  22.165  1.00  0.00    -0.237 OA
ATOM     85  O   UNL A   1      48.605  26.134  21.629  1.00  0.00    -0.744 OA
ENDBRANCH  79  82
ENDBRANCH  51  75
BRANCH  63  86
ATOM     86  C   UNL A   1      45.349  33.190  29.576  1.00  0.00     0.023 A 
ATOM     87  C   UNL A   1      46.178  33.200  30.716  1.00  0.00     0.012 A 
ATOM     88  C   UNL A   1      45.334  34.310  28.721  1.00  0.00     0.148 A 
ATOM     89  C   UNL A   1      46.958  34.316  31.014  1.00  0.00     0.002 A 
ATOM     90  C   UNL A   1      46.150  35.400  28.999  1.00  0.00     0.091 A 
ATOM     91  F   UNL A   1      44.524  34.288  27.653  1.00  0.00    -0.205 F 
ATOM     92  C   UNL A   1      46.955  35.409  30.151  1.00  0.00     0.022 A 
BRANCH  90  93
ATOM     93  S   UNL A   1      46.283  36.811  27.895  1.00  0.00     0.127 S 
ATOM     94  O   UNL A   1      47.233  37.661  28.611  1.00  0.00    -0.237 OA
ATOM     95  O   UNL A   1      46.810  36.203  26.673  1.00  0.00    -0.237 OA
ATOM     96  O   UNL A   1      44.935  37.349  27.769  1.00  0.00    -0.744 OA
ENDBRANCH  90  93
ENDBRANCH  63  86
ENDBRANCH  37  38
ENDBRANCH  29  32
ENDBRANCH  27  28
ENDBRANCH  26  27
ENDBRANCH  25  26
ENDBRANCH   1  25
TORSDOF 19
ENDMDL
MODEL 2
REMARK VINA RESULT:     -12.0      1.802      2.164
REMARK SMILES C[C@H](C(=O)NCCCCNC(=O)c1ccc(-c2c3nc(c(-c4cccc(S(=O)(=O)[O-])c4F)c4ccc([nH]4)c(-c4cccc(S(=O)(=O)[O-])c4F)c4nc(c(-c5cccc(S(=O)(=O)[O-])c5F)c5ccc2[nH]5)C=C4)C=C3)cc1)[C@@H](C)Nc1ccccc1Oc1ccccc1
REMARK SMILES IDX 6 1 5 2 3 3 4 4 2 6 1 7 76 8 77 9 78 10 79 12 80 13 84 14
REMARK SMILES IDX 81 15 83 16 82 17 85 18 86 19 87 20 91 21 88 22 90 23 89 24
REMARK SMILES IDX 7 25 8 26 9 27 10 28 11 29 12 31 13 32 14 33 75 34 15 35
REMARK SMILES IDX 74 36 16 37 17 38 18 39 68 40 19 41 73 42 67 43 69 44 20 45
REMARK SMILES IDX 72 46 66 47 65 48 21 50 53 51 33 52 52 53 34 54 37 55 51 56
REMARK SMILES IDX 70 57 35 58 36 59 50 61 71 62 38 63 22 64 23 65 31 66 24 67
REMARK SMILES IDX 26 68 32 69 25 70 27 71 28 72 29 73 30 74 54 75 55 76 63 77
REMARK SMILES IDX 56 78 58 79 64 80 57 81 59 82 60 83 61 84 62 85 39 86 40 87
REMARK SMILES IDX 48 88 41 89 43 90 49 91 42 92 44 93 45 94 46 95 47 96
REMARK H PARENT 5 5 78 11 10 30 69 49 37 60
REMARK Flexibility Score: inf
ROOT
ATOM      1  C   UNL A   1      33.273  21.553  24.858  1.00  0.00     0.116 C 
ENDROOT
BRANCH   1   2
ATOM      2  N   UNL A   1      33.164  22.181  26.162  1.00  0.00    -0.356 N 
ATOM      3  C   UNL A   1      32.117  22.837  26.737  1.00  0.00     0.224 C 
ATOM      4  O   UNL A   1      32.206  23.126  27.933  1.00  0.00    -0.275 OA
ATOM      5  H   UNL A   1      33.974  22.124  26.719  1.00  0.00     0.163 HD
BRANCH   3   6
ATOM      6  C   UNL A   1      30.866  23.221  25.953  1.00  0.00     0.097 C 
ATOM      7  C   UNL A   1      29.700  23.494  26.904  1.00  0.00     0.020 C 
BRANCH   6   8
ATOM      8  C   UNL A   1      31.182  24.301  24.896  1.00  0.00     0.088 C 
ATOM      9  C   UNL A   1      30.774  23.785  23.505  1.00  0.00     0.031 C 
BRANCH   8  10
ATOM     10  N   UNL A   1      30.434  25.530  25.139  1.00  0.00    -0.379 N 
ATOM     11  H   UNL A   1      29.460  25.474  25.007  1.00  0.00     0.160 HD
BRANCH  10  12
ATOM     12  C   UNL A   1      30.921  26.767  25.531  1.00  0.00     0.078 A 
ATOM     13  C   UNL A   1      31.309  26.845  26.891  1.00  0.00     0.029 A 
ATOM     14  C   UNL A   1      31.149  27.918  24.751  1.00  0.00     0.150 A 
ATOM     15  C   UNL A   1      31.901  27.980  27.453  1.00  0.00     0.002 A 
ATOM     16  C   UNL A   1      31.730  29.069  25.330  1.00  0.00     0.049 A 
ATOM     17  C   UNL A   1      32.105  29.102  26.670  1.00  0.00     0.004 A 
BRANCH  14  18
ATOM     18  O   UNL A   1      31.014  28.056  23.388  1.00  0.00    -0.455 OA
BRANCH  18  19
ATOM     19  C   UNL A   1      29.990  28.758  22.806  1.00  0.00     0.127 A 
ATOM     20  C   UNL A   1      28.719  28.319  23.199  1.00  0.00     0.047 A 
ATOM     21  C   UNL A   1      30.104  29.838  21.937  1.00  0.00     0.047 A 
ATOM     22  C   UNL A   1      27.576  29.032  22.849  1.00  0.00     0.004 A 
ATOM     23  C   UNL A   1      28.951  30.538  21.557  1.00  0.00     0.004 A 
ATOM     24  C   UNL A   1      27.695  30.156  22.040  1.00  0.00     0.000 A 
ENDBRANCH  18  19
ENDBRANCH  14  18
ENDBRANCH  10  12
ENDBRANCH   8  10
ENDBRANCH   6   8
ENDBRANCH   3   6
ENDBRANCH   1   2
BRANCH   1  25
ATOM     25  C   UNL A   1      34.702  21.475  24.338  1.00  0.00     0.023 C 
BRANCH  25  26
ATOM     26  C   UNL A   1      35.767  21.244  25.409  1.00  0.00     0.023 C 
BRANCH  26  27
ATOM     27  C   UNL A   1      37.205  21.539  24.984  1.00  0.00     0.116 C 
BRANCH  27  28
ATOM     28  N   UNL A   1      38.139  20.475  25.328  1.00  0.00    -0.352 N 
ATOM     29  C   UNL A   1      39.348  20.540  25.988  1.00  0.00     0.251 C 
ATOM     30  H   UNL A   1      37.866  19.572  25.047  1.00  0.00     0.163 HD
ATOM     31  O   UNL A   1      40.053  19.546  26.074  1.00  0.00    -0.269 OA
BRANCH  29  32
ATOM     32  C   UNL A   1      39.806  21.827  26.562  1.00  0.00     0.039 A 
ATOM     33  C   UNL A   1      40.804  21.812  27.541  1.00  0.00     0.014 A 
ATOM     34  C   UNL A   1      39.277  23.041  26.121  1.00  0.00     0.014 A 
ATOM     35  C   UNL A   1      41.340  23.019  28.003  1.00  0.00     0.010 A 
ATOM     36  C   UNL A   1      39.865  24.237  26.523  1.00  0.00     0.010 A 
ATOM     37  C   UNL A   1      40.910  24.241  27.460  1.00  0.00    -0.014 A 
BRANCH  37  38
ATOM     38  C   UNL A   1      41.564  25.527  27.821  1.00  0.00     0.031 A 
ATOM     39  C   UNL A   1      40.789  26.604  28.532  1.00  0.00     0.074 A 
ATOM     40  C   UNL A   1      42.825  25.771  27.408  1.00  0.00     0.049 A 
ATOM     41  N   UNL A   1      41.161  27.818  28.844  1.00  0.00    -0.248 NA
ATOM     42  C   UNL A   1      39.405  26.284  28.917  1.00  0.00     0.031 C 
ATOM     43  C   UNL A   1      43.658  24.845  26.638  1.00  0.00     0.029 A 
ATOM     44  N   UNL A   1      43.615  26.886  27.549  1.00  0.00    -0.354 N 
ATOM     45  C   UNL A   1      40.051  28.420  29.423  1.00  0.00     0.074 A 
ATOM     46  C   UNL A   1      38.980  27.446  29.391  1.00  0.00     0.031 C 
ATOM     47  C   UNL A   1      44.840  25.426  26.376  1.00  0.00     0.029 A 
ATOM     48  C   UNL A   1      44.840  26.776  26.930  1.00  0.00     0.049 A 
ATOM     49  H   UNL A   1      43.333  27.687  28.047  1.00  0.00     0.167 HD
ATOM     50  C   UNL A   1      39.938  29.658  29.961  1.00  0.00     0.034 A 
ATOM     51  C   UNL A   1      45.847  27.665  26.812  1.00  0.00     0.034 A 
ATOM     52  C   UNL A   1      41.016  30.606  30.039  1.00  0.00     0.049 A 
ATOM     53  C   UNL A   1      45.712  29.018  27.457  1.00  0.00     0.074 A 
ATOM     54  C   UNL A   1      41.027  31.847  30.650  1.00  0.00     0.029 A 
ATOM     55  N   UNL A   1      42.274  30.423  29.485  1.00  0.00    -0.354 N 
ATOM     56  N   UNL A   1      44.708  29.507  28.146  1.00  0.00    -0.248 NA
ATOM     57  C   UNL A   1      46.859  29.931  27.338  1.00  0.00     0.031 C 
ATOM     58  C   UNL A   1      42.287  32.423  30.450  1.00  0.00     0.029 A 
ATOM     59  C   UNL A   1      43.066  31.531  29.732  1.00  0.00     0.049 A 
ATOM     60  H   UNL A   1      42.561  29.622  28.988  1.00  0.00     0.167 HD
ATOM     61  C   UNL A   1      45.116  30.766  28.571  1.00  0.00     0.074 A 
ATOM     62  C   UNL A   1      46.465  30.957  28.081  1.00  0.00     0.031 C 
ATOM     63  C   UNL A   1      44.428  31.686  29.290  1.00  0.00     0.034 A 
BRANCH  50  64
ATOM     64  C   UNL A   1      38.613  30.038  30.569  1.00  0.00     0.023 A 
ATOM     65  C   UNL A   1      38.312  29.628  31.884  1.00  0.00     0.012 A 
ATOM     66  C   UNL A   1      37.694  30.845  29.870  1.00  0.00     0.148 A 
ATOM     67  C   UNL A   1      37.105  29.985  32.482  1.00  0.00     0.002 A 
ATOM     68  C   UNL A   1      36.511  31.234  30.489  1.00  0.00     0.091 A 
ATOM     69  F   UNL A   1      37.987  31.208  28.613  1.00  0.00    -0.205 F 
ATOM     70  C   UNL A   1      36.210  30.795  31.789  1.00  0.00     0.022 A 
BRANCH  68  71
ATOM     71  S   UNL A   1      35.329  32.339  29.710  1.00  0.00     0.127 S 
ATOM     72  O   UNL A   1      36.186  33.457  29.316  1.00  0.00    -0.237 OA
ATOM     73  O   UNL A   1      34.836  31.528  28.595  1.00  0.00    -0.237 OA
ATOM     74  O   UNL A   1      34.332  32.641  30.726  1.00  0.00    -0.744 OA
ENDBRANCH  68  71
ENDBRANCH  50  64
BRANCH  51  75
ATOM     75  C   UNL A   1      47.104  27.277  26.112  1.00  0.00     0.023 A 
ATOM     76  C   UNL A   1      47.268  27.614  24.753  1.00  0.00     0.012 A 
ATOM     77  C   UNL A   1      48.146  26.606  26.782  1.00  0.00     0.148 A 
ATOM     78  C   UNL A   1      48.431  27.265  24.067  1.00  0.00     0.002 A 
ATOM     79  C   UNL A   1      49.325  26.310  26.107  1.00  0.00     0.091 A 
ATOM     80  F   UNL A   1      47.968  26.282  28.070  1.00  0.00    -0.205 F 
ATOM     81  C   UNL A   1      49.463  26.622  24.745  1.00  0.00     0.022 A 
BRANCH  79  82
ATOM     82  S   UNL A   1      50.755  25.603  26.933  1.00  0.00     0.127 S 
ATOM     83  O   UNL A   1      51.694  25.445  25.825  1.00  0.00    -0.237 OA
ATOM     84  O   UNL A   1      51.102  26.653  27.890  1.00  0.00    -0.237 OA
ATOM     85  O   UNL A   1      50.282  24.368  27.544  1.00  0.00    -0.744 OA
ENDBRANCH  79  82
ENDBRANCH  51  75
BRANCH  63  86
ATOM     86  C   UNL A   1      45.125  32.979  29.626  1.00  0.00     0.023 A 
ATOM     87  C   UNL A   1      45.880  33.078  30.811  1.00  0.00     0.012 A 
ATOM     88  C   UNL A   1      45.101  34.064  28.727  1.00  0.00     0.148 A 
ATOM     89  C   UNL A   1      46.578  34.247  31.110  1.00  0.00     0.002 A 
ATOM     90  C   UNL A   1      45.837  35.208  29.009  1.00  0.00     0.091 A 
ATOM     91  F   UNL A   1      44.361  33.956  27.614  1.00  0.00    -0.205 F 
ATOM     92  C   UNL A   1      46.568  35.306  30.205  1.00  0.00     0.022 A 
BRANCH  90  93
ATOM     93  S   UNL A   1      45.960  36.583  27.860  1.00  0.00     0.127 S 
ATOM     94  O   UNL A   1      44.675  37.252  28.056  1.00  0.00    -0.237 OA
ATOM     95  O   UNL A   1      47.115  37.318  28.374  1.00  0.00    -0.237 OA
ATOM     96  O   UNL A   1      46.160  35.989  26.544  1.00  0.00    -0.744 OA
ENDBRANCH  90  93
ENDBRANCH  63  86
ENDBRANCH  37  38
ENDBRANCH  29  32
ENDBRANCH  27  28
ENDBRANCH  26  27
ENDBRANCH  25  26
ENDBRANCH   1  25
TORSDOF 19
ENDMDL
MODEL 3
REMARK VINA RESULT:     -11.9      1.552      2.192
REMARK SMILES C[C@H](C(=O)NCCCCNC(=O)c1ccc(-c2c3nc(c(-c4cccc(S(=O)(=O)[O-])c4F)c4ccc([nH]4)c(-c4cccc(S(=O)(=O)[O-])c4F)c4nc(c(-c5cccc(S(=O)(=O)[O-])c5F)c5ccc2[nH]5)C=C4)C=C3)cc1)[C@@H](C)Nc1ccccc1Oc1ccccc1
REMARK SMILES IDX 6 1 5 2 3 3 4 4 2 6 1 7 76 8 77 9 78 10 79 12 80 13 84 14
REMARK SMILES IDX 81 15 83 16 82 17 85 18 86 19 87 20 91 21 88 22 90 23 89 24
REMARK SMILES IDX 7 25 8 26 9 27 10 28 11 29 12 31 13 32 14 33 75 34 15 35
REMARK SMILES IDX 74 36 16 37 17 38 18 39 68 40 19 41 73 42 67 43 69 44 20 45
REMARK SMILES IDX 72 46 66 47 65 48 21 50 53 51 33 52 52 53 34 54 37 55 51 56
REMARK SMILES IDX 70 57 35 58 36 59 50 61 71 62 38 63 22 64 23 65 31 66 24 67
REMARK SMILES IDX 26 68 32 69 25 70 27 71 28 72 29 73 30 74 54 75 55 76 63 77
REMARK SMILES IDX 56 78 58 79 64 80 57 81 59 82 60 83 61 84 62 85 39 86 40 87
REMARK SMILES IDX 48 88 41 89 43 90 49 91 42 92 44 93 45 94 46 95 47 96
REMARK H PARENT 5 5 78 11 10 30 69 49 37 60
REMARK Flexibility Score: inf
ROOT
ATOM      1  C   UNL A   1      35.765  22.421  24.712  1.00  0.00     0.116 C 
ENDROOT
BRANCH   1   2
ATOM      2  N   UNL A   1      35.513  23.848  24.789  1.00  0.00    -0.356 N 
ATOM      3  C   UNL A   1      34.362  24.524  25.060  1.00  0.00     0.224 C 
ATOM      4  O   UNL A   1      34.440  25.741  25.249  1.00  0.00    -0.275 OA
ATOM      5  H   UNL A   1      36.298  24.418  24.619  1.00  0.00     0.163 HD
BRANCH   3   6
ATOM      6  C   UNL A   1      33.005  23.830  25.127  1.00  0.00     0.097 C 
ATOM      7  C   UNL A   1      32.682  23.419  26.564  1.00  0.00     0.020 C 
BRANCH   6   8
ATOM      8  C   UNL A   1      31.930  24.639  24.367  1.00  0.00     0.088 C 
ATOM      9  C   UNL A   1      30.969  23.667  23.661  1.00  0.00     0.031 C 
BRANCH   8  10
ATOM     10  N   UNL A   1      31.131  25.459  25.270  1.00  0.00    -0.379 N 
ATOM     11  H   UNL A   1      30.371  25.007  25.703  1.00  0.00     0.160 HD
BRANCH  10  12
ATOM     12  C   UNL A   1      31.306  26.794  25.598  1.00  0.00     0.078 A 
ATOM     13  C   UNL A   1      31.707  27.027  26.936  1.00  0.00     0.029 A 
ATOM     14  C   UNL A   1      31.215  27.930  24.769  1.00  0.00     0.150 A 
ATOM     15  C   UNL A   1      32.015  28.297  27.432  1.00  0.00     0.002 A 
ATOM     16  C   UNL A   1      31.509  29.214  25.281  1.00  0.00     0.049 A 
ATOM     17  C   UNL A   1      31.907  29.399  26.602  1.00  0.00     0.004 A 
BRANCH  14  18
ATOM     18  O   UNL A   1      31.005  27.969  23.409  1.00  0.00    -0.455 OA
BRANCH  18  19
ATOM     19  C   UNL A   1      29.994  28.691  22.829  1.00  0.00     0.127 A 
ATOM     20  C   UNL A   1      28.715  28.257  23.200  1.00  0.00     0.047 A 
ATOM     21  C   UNL A   1      30.128  29.785  21.982  1.00  0.00     0.047 A 
ATOM     22  C   UNL A   1      27.583  28.987  22.851  1.00  0.00     0.004 A 
ATOM     23  C   UNL A   1      28.985  30.503  21.603  1.00  0.00     0.004 A 
ATOM     24  C   UNL A   1      27.721  30.124  22.064  1.00  0.00     0.000 A 
ENDBRANCH  18  19
ENDBRANCH  14  18
ENDBRANCH  10  12
ENDBRANCH   8  10
ENDBRANCH   6   8
ENDBRANCH   3   6
ENDBRANCH   1   2
BRANCH   1  25
ATOM     25  C   UNL A   1      37.209  22.074  24.373  1.00  0.00     0.023 C 
BRANCH  25  26
ATOM     26  C   UNL A   1      37.682  20.713  24.882  1.00  0.00     0.023 C 
BRANCH  26  27
ATOM     27  C   UNL A   1      38.706  20.752  26.015  1.00  0.00     0.116 C 
BRANCH  27  28
ATOM     28  N   UNL A   1      39.667  19.658  25.963  1.00  0.00    -0.352 N 
ATOM     29  C   UNL A   1      41.040  19.682  26.080  1.00  0.00     0.251 C 
ATOM     30  H   UNL A   1      39.275  18.765  25.825  1.00  0.00     0.163 HD
ATOM     31  O   UNL A   1      41.689  18.666  25.884  1.00  0.00    -0.269 OA
BRANCH  29  32
ATOM     32  C   UNL A   1      41.730  20.952  26.408  1.00  0.00     0.039 A 
ATOM     33  C   UNL A   1      42.078  21.819  25.368  1.00  0.00     0.014 A 
ATOM     34  C   UNL A   1      42.005  21.300  27.731  1.00  0.00     0.014 A 
ATOM     35  C   UNL A   1      42.613  23.077  25.664  1.00  0.00     0.010 A 
ATOM     36  C   UNL A   1      42.463  22.582  28.027  1.00  0.00     0.010 A 
ATOM     37  C   UNL A   1      42.763  23.489  26.999  1.00  0.00    -0.014 A 
BRANCH  37  38
ATOM     38  C   UNL A   1      43.185  24.873  27.345  1.00  0.00     0.031 A 
ATOM     39  C   UNL A   1      42.208  25.837  27.961  1.00  0.00     0.074 A 
ATOM     40  C   UNL A   1      44.418  25.297  26.999  1.00  0.00     0.049 A 
ATOM     41  N   UNL A   1      42.367  27.104  28.244  1.00  0.00    -0.248 NA
ATOM     42  C   UNL A   1      40.867  25.317  28.273  1.00  0.00     0.031 C 
ATOM     43  C   UNL A   1      45.434  24.489  26.322  1.00  0.00     0.029 A 
ATOM     44  N   UNL A   1      45.016  26.526  27.142  1.00  0.00    -0.354 N 
ATOM     45  C   UNL A   1      41.140  27.543  28.727  1.00  0.00     0.074 A 
ATOM     46  C   UNL A   1      40.237  26.414  28.671  1.00  0.00     0.031 C 
ATOM     47  C   UNL A   1      46.527  25.239  26.109  1.00  0.00     0.029 A 
ATOM     48  C   UNL A   1      46.282  26.589  26.605  1.00  0.00     0.049 A 
ATOM     49  H   UNL A   1      44.581  27.288  27.588  1.00  0.00     0.167 HD
ATOM     50  C   UNL A   1      40.803  28.765  29.205  1.00  0.00     0.034 A 
ATOM     51  C   UNL A   1      47.146  27.620  26.511  1.00  0.00     0.034 A 
ATOM     52  C   UNL A   1      41.714  29.871  29.309  1.00  0.00     0.049 A 
ATOM     53  C   UNL A   1      46.761  28.955  27.089  1.00  0.00     0.074 A 
ATOM     54  C   UNL A   1      41.493  31.118  29.867  1.00  0.00     0.029 A 
ATOM     55  N   UNL A   1      43.019  29.870  28.842  1.00  0.00    -0.354 N 
ATOM     56  N   UNL A   1      45.651  29.303  27.694  1.00  0.00    -0.248 NA
ATOM     57  C   UNL A   1      47.760  30.032  27.003  1.00  0.00     0.031 C 
ATOM     58  C   UNL A   1      42.660  31.877  29.721  1.00  0.00     0.029 A 
ATOM     59  C   UNL A   1      43.613  31.095  29.090  1.00  0.00     0.049 A 
ATOM     60  H   UNL A   1      43.459  29.109  28.398  1.00  0.00     0.167 HD
ATOM     61  C   UNL A   1      45.830  30.624  28.090  1.00  0.00     0.074 A 
ATOM     62  C   UNL A   1      47.163  31.007  27.676  1.00  0.00     0.031 C 
ATOM     63  C   UNL A   1      44.962  31.448  28.726  1.00  0.00     0.034 A 
BRANCH  50  64
ATOM     64  C   UNL A   1      39.397  28.953  29.714  1.00  0.00     0.023 A 
ATOM     65  C   UNL A   1      39.071  28.529  31.019  1.00  0.00     0.012 A 
ATOM     66  C   UNL A   1      38.418  29.596  28.932  1.00  0.00     0.148 A 
ATOM     67  C   UNL A   1      37.786  28.712  31.527  1.00  0.00     0.002 A 
ATOM     68  C   UNL A   1      37.151  29.814  29.461  1.00  0.00     0.091 A 
ATOM     69  F   UNL A   1      38.739  29.973  27.686  1.00  0.00    -0.205 F 
ATOM     70  C   UNL A   1      36.830  29.362  30.752  1.00  0.00     0.022 A 
BRANCH  68  71
ATOM     71  S   UNL A   1      35.872  30.711  28.573  1.00  0.00     0.127 S 
ATOM     72  O   UNL A   1      36.665  31.672  27.806  1.00  0.00    -0.237 OA
ATOM     73  O   UNL A   1      35.254  29.654  27.771  1.00  0.00    -0.237 OA
ATOM     74  O   UNL A   1      35.005  31.285  29.591  1.00  0.00    -0.744 OA
ENDBRANCH  68  71
ENDBRANCH  50  64
BRANCH  51  75
ATOM     75  C   UNL A   1      48.492  27.411  25.907  1.00  0.00     0.023 A 
ATOM     76  C   UNL A   1      49.564  27.017  26.731  1.00  0.00     0.012 A 
ATOM     77  C   UNL A   1      48.712  27.569  24.524  1.00  0.00     0.148 A 
ATOM     78  C   UNL A   1      50.837  26.814  26.198  1.00  0.00     0.002 A 
ATOM     79  C   UNL A   1      49.970  27.311  23.991  1.00  0.00     0.091 A 
ATOM     80  F   UNL A   1      47.684  27.956  23.756  1.00  0.00    -0.205 F 
ATOM     81  C   UNL A   1      51.039  26.951  24.827  1.00  0.00     0.022 A 
BRANCH  79  82
ATOM     82  S   UNL A   1      50.289  27.335  22.222  1.00  0.00     0.127 S 
ATOM     83  O   UNL A   1      49.244  26.449  21.718  1.00  0.00    -0.237 OA
ATOM     84  O   UNL A   1      50.107  28.750  21.901  1.00  0.00    -0.237 OA
ATOM     85  O   UNL A   1      51.656  26.857  22.066  1.00  0.00    -0.744 OA
ENDBRANCH  79  82
ENDBRANCH  51  75
BRANCH  63  86
ATOM     86  C   UNL A   1      45.428  32.843  29.049  1.00  0.00     0.023 A 
ATOM     87  C   UNL A   1      46.034  33.107  30.293  1.00  0.00     0.012 A 
ATOM     88  C   UNL A   1      45.341  33.871  28.090  1.00  0.00     0.148 A 
ATOM     89  C   UNL A   1      46.522  34.379  30.588  1.00  0.00     0.002 A 
ATOM     90  C   UNL A   1      45.872  35.124  28.372  1.00  0.00     0.091 A 
ATOM     91  F   UNL A   1      44.743  33.605  26.919  1.00  0.00    -0.205 F 
ATOM     92  C   UNL A   1      46.453  35.383  29.625  1.00  0.00     0.022 A 
BRANCH  90  93
ATOM     93  S   UNL A   1      45.914  36.449  27.160  1.00  0.00     0.127 S 
ATOM     94  O   UNL A   1      44.508  36.846  27.103  1.00  0.00    -0.237 OA
ATOM     95  O   UNL A   1      46.799  37.425  27.795  1.00  0.00    -0.237 OA
ATOM     96  O   UNL A   1      46.446  35.857  25.938  1.00  0.00    -0.744 OA
ENDBRANCH  90  93
ENDBRANCH  63  86
ENDBRANCH  37  38
ENDBRANCH  29  32
ENDBRANCH  27  28
ENDBRANCH  26  27
ENDBRANCH  25  26
ENDBRANCH   1  25
TORSDOF 19
ENDMDL
