MODEL 1
REMARK VINA RESULT:     -12.4      0.000      0.000
REMARK SMILES CCOc1cnc(C(=O)c2[nH]c3cc(Cl)ccc3c2CC(=O)NCCCCNC(=O)c2ccc(-c3c4nc(c(-c5cccc(S(=O)(=O)[O-])c5F)c5ccc([nH]5)c(-c5cccc(S(=O)(=O)[O-])c5F)c5nc(c(-c6cccc(S(=O)(=O)[O-])c6F)c6ccc3[nH]6)C=C5)C=C4)cc2)cc1CC
REMARK SMILES IDX 24 1 23 2 21 3 22 4 20 6 19 7 10 8 11 9 12 10 18 12 13 13
REMARK SMILES IDX 17 14 14 15 16 16 15 17 8 18 9 19 7 20 4 21 5 22 95 23 6 24
REMARK SMILES IDX 94 25 3 26 2 27 1 28 96 29 97 30 25 31 26 32 27 33 28 34
REMARK SMILES IDX 29 35 30 37 31 38 32 39 93 40 33 41 92 42 34 43 35 44 36 45
REMARK SMILES IDX 86 46 37 47 91 48 85 49 87 50 38 51 90 52 84 53 83 54 39 56
REMARK SMILES IDX 71 57 51 58 70 59 52 60 55 61 69 62 88 63 53 64 54 65 68 67
REMARK SMILES IDX 89 68 56 69 40 70 41 71 49 72 42 73 44 74 50 75 43 76 45 77
REMARK SMILES IDX 46 78 47 79 48 80 72 81 73 82 81 83 74 84 76 85 82 86 75 87
REMARK SMILES IDX 77 88 78 89 79 90 80 91 57 92 58 93 66 94 59 95 61 96 67 97
REMARK SMILES IDX 60 98 62 99 63 100 64 101 65 102
REMARK H PARENT 23 5 11 11 28 36 87 55 55 66
REMARK Flexibility Score: inf
ROOT
ATOM      1  C   UNL A   1      32.072  29.978  25.697  1.00  0.00     0.116 C 
ENDROOT
BRANCH   1   2
ATOM      2  N   UNL A   1      31.600  28.758  26.315  1.00  0.00    -0.356 N 
ATOM      3  C   UNL A   1      32.260  27.577  26.517  1.00  0.00     0.224 C 
ATOM      4  O   UNL A   1      31.751  26.755  27.283  1.00  0.00    -0.275 OA
ATOM      5  H   UNL A   1      30.669  28.780  26.638  1.00  0.00     0.163 HD
BRANCH   3   6
ATOM      6  C   UNL A   1      33.649  27.340  25.938  1.00  0.00     0.138 C 
BRANCH   6   7
ATOM      7  C   UNL A   1      33.731  26.271  24.884  1.00  0.00    -0.002 A 
ATOM      8  C   UNL A   1      33.617  26.437  23.507  1.00  0.00     0.093 A 
ATOM      9  N   UNL A   1      33.937  25.228  22.929  1.00  0.00    -0.351 N 
ATOM     10  C   UNL A   1      33.982  24.237  23.879  1.00  0.00     0.048 A 
ATOM     11  H   UNL A   1      34.110  25.093  21.969  1.00  0.00     0.167 HD
ATOM     12  C   UNL A   1      33.850  24.859  25.119  1.00  0.00     0.004 A 
ATOM     13  C   UNL A   1      34.149  22.854  23.735  1.00  0.00     0.047 A 
ATOM     14  C   UNL A   1      33.879  24.054  26.279  1.00  0.00     0.012 A 
ATOM     15  C   UNL A   1      34.164  22.084  24.901  1.00  0.00     0.043 A 
ATOM     16  C   UNL A   1      34.032  22.669  26.157  1.00  0.00     0.021 A 
ATOM     17  Cl  UNL A   1      34.346  20.375  24.779  1.00  0.00    -0.084 Cl
BRANCH   8  18
ATOM     18  C   UNL A   1      33.290  27.642  22.754  1.00  0.00     0.227 C 
ATOM     19  O   UNL A   1      34.155  28.302  22.194  1.00  0.00    -0.285 OA
BRANCH  18  20
ATOM     20  C   UNL A   1      31.843  28.087  22.713  1.00  0.00     0.113 A 
ATOM     21  C   UNL A   1      29.235  28.948  22.562  1.00  0.00     0.140 A 
ATOM     22  C   UNL A   1      30.295  29.649  21.999  1.00  0.00     0.158 A 
ATOM     23  C   UNL A   1      29.493  27.729  23.190  1.00  0.00    -0.002 A 
ATOM     24  N   UNL A   1      31.583  29.242  22.054  1.00  0.00    -0.249 NA
ATOM     25  C   UNL A   1      30.832  27.340  23.321  1.00  0.00     0.040 A 
BRANCH  21  26
ATOM     26  O   UNL A   1      27.956  29.407  22.437  1.00  0.00    -0.492 OA
BRANCH  26  27
ATOM     27  C   UNL A   1      27.569  30.212  23.559  1.00  0.00     0.226 C 
ATOM     28  C   UNL A   1      27.725  31.681  23.202  1.00  0.00     0.049 C 
ENDBRANCH  26  27
ENDBRANCH  21  26
BRANCH  23  29
ATOM     29  C   UNL A   1      28.398  26.841  23.726  1.00  0.00     0.036 C 
ATOM     30  C   UNL A   1      28.881  25.904  24.829  1.00  0.00     0.009 C 
ENDBRANCH  23  29
ENDBRANCH  18  20
ENDBRANCH   8  18
ENDBRANCH   6   7
ENDBRANCH   3   6
ENDBRANCH   1   2
BRANCH   1  31
ATOM     31  C   UNL A   1      30.962  30.999  25.456  1.00  0.00     0.023 C 
BRANCH  31  32
ATOM     32  C   UNL A   1      31.069  32.287  26.272  1.00  0.00     0.023 C 
BRANCH  32  33
ATOM     33  C   UNL A   1      32.372  32.480  27.039  1.00  0.00     0.116 C 
BRANCH  33  34
ATOM     34  N   UNL A   1      32.588  33.852  27.481  1.00  0.00    -0.352 N 
ATOM     35  C   UNL A   1      33.615  34.357  28.244  1.00  0.00     0.251 C 
ATOM     36  H   UNL A   1      31.909  34.505  27.196  1.00  0.00     0.163 HD
ATOM     37  O   UNL A   1      33.600  35.532  28.602  1.00  0.00    -0.269 OA
BRANCH  35  38
ATOM     38  C   UNL A   1      34.717  33.465  28.666  1.00  0.00     0.039 A 
ATOM     39  C   UNL A   1      36.036  33.875  28.452  1.00  0.00     0.014 A 
ATOM     40  C   UNL A   1      34.448  32.256  29.312  1.00  0.00     0.014 A 
ATOM     41  C   UNL A   1      37.088  33.114  28.968  1.00  0.00     0.010 A 
ATOM     42  C   UNL A   1      35.494  31.530  29.876  1.00  0.00     0.010 A 
ATOM     43  C   UNL A   1      36.822  31.960  29.724  1.00  0.00    -0.014 A 
BRANCH  43  44
ATOM     44  C   UNL A   1      37.905  31.219  30.415  1.00  0.00     0.031 A 
ATOM     45  C   UNL A   1      38.269  31.550  31.834  1.00  0.00     0.074 A 
ATOM     46  C   UNL A   1      38.642  30.330  29.719  1.00  0.00     0.049 A 
ATOM     47  N   UNL A   1      39.246  31.079  32.564  1.00  0.00    -0.248 NA
ATOM     48  C   UNL A   1      37.442  32.561  32.514  1.00  0.00     0.031 C 
ATOM     49  C   UNL A   1      38.441  29.984  28.309  1.00  0.00     0.029 A 
ATOM     50  N   UNL A   1      39.733  29.584  30.090  1.00  0.00    -0.354 N 
ATOM     51  C   UNL A   1      39.177  31.759  33.774  1.00  0.00     0.074 A 
ATOM     52  C   UNL A   1      38.076  32.693  33.672  1.00  0.00     0.031 C 
ATOM     53  C   UNL A   1      39.381  29.102  27.934  1.00  0.00     0.029 A 
ATOM     54  C   UNL A   1      40.266  28.838  29.064  1.00  0.00     0.049 A 
ATOM     55  H   UNL A   1      40.100  29.583  31.004  1.00  0.00     0.167 HD
ATOM     56  C   UNL A   1      39.943  31.601  34.879  1.00  0.00     0.034 A 
ATOM     57  C   UNL A   1      41.351  28.039  29.033  1.00  0.00     0.034 A 
ATOM     58  C   UNL A   1      41.002  30.635  34.997  1.00  0.00     0.049 A 
ATOM     59  C   UNL A   1      42.158  27.851  30.288  1.00  0.00     0.074 A 
ATOM     60  C   UNL A   1      41.763  30.325  36.111  1.00  0.00     0.029 A 
ATOM     61  N   UNL A   1      41.454  29.828  33.966  1.00  0.00    -0.354 N 
ATOM     62  N   UNL A   1      41.967  28.371  31.476  1.00  0.00    -0.248 NA
ATOM     63  C   UNL A   1      43.310  26.941  30.208  1.00  0.00     0.031 C 
ATOM     64  C   UNL A   1      42.682  29.334  35.750  1.00  0.00     0.029 A 
ATOM     65  C   UNL A   1      42.491  29.025  34.413  1.00  0.00     0.049 A 
ATOM     66  H   UNL A   1      41.093  29.824  33.050  1.00  0.00     0.167 HD
ATOM     67  C   UNL A   1      42.958  27.834  32.291  1.00  0.00     0.074 A 
ATOM     68  C   UNL A   1      43.731  26.928  31.466  1.00  0.00     0.031 C 
ATOM     69  C   UNL A   1      43.217  28.087  33.597  1.00  0.00     0.034 A 
BRANCH  56  70
ATOM     70  C   UNL A   1      39.614  32.444  36.081  1.00  0.00     0.023 A 
ATOM     71  C   UNL A   1      40.243  33.696  36.233  1.00  0.00     0.012 A 
ATOM     72  C   UNL A   1      38.650  32.035  37.022  1.00  0.00     0.148 A 
ATOM     73  C   UNL A   1      39.937  34.517  37.318  1.00  0.00     0.002 A 
ATOM     74  C   UNL A   1      38.324  32.874  38.081  1.00  0.00     0.091 A 
ATOM     75  F   UNL A   1      38.082  30.829  36.875  1.00  0.00    -0.205 F 
ATOM     76  C   UNL A   1      38.972  34.112  38.234  1.00  0.00     0.022 A 
BRANCH  74  77
ATOM     77  S   UNL A   1      37.045  32.467  39.275  1.00  0.00     0.127 S 
ATOM     78  O   UNL A   1      35.831  32.645  38.480  1.00  0.00    -0.237 OA
ATOM     79  O   UNL A   1      37.358  31.076  39.606  1.00  0.00    -0.237 OA
ATOM     80  O   UNL A   1      37.219  33.403  40.377  1.00  0.00    -0.744 OA
ENDBRANCH  74  77
ENDBRANCH  56  70
BRANCH  57  81
ATOM     81  C   UNL A   1      41.691  27.298  27.786  1.00  0.00     0.023 A 
ATOM     82  C   UNL A   1      42.200  28.012  26.684  1.00  0.00     0.012 A 
ATOM     83  C   UNL A   1      41.553  25.899  27.695  1.00  0.00     0.148 A 
ATOM     84  C   UNL A   1      42.544  27.350  25.505  1.00  0.00     0.002 A 
ATOM     85  C   UNL A   1      41.945  25.240  26.535  1.00  0.00     0.091 A 
ATOM     86  F   UNL A   1      41.048  25.239  28.747  1.00  0.00    -0.205 F 
ATOM     87  C   UNL A   1      42.427  25.965  25.434  1.00  0.00     0.022 A 
BRANCH  85  88
ATOM     88  S   UNL A   1      41.951  23.449  26.411  1.00  0.00     0.127 S 
ATOM     89  O   UNL A   1      42.714  23.069  27.597  1.00  0.00    -0.237 OA
ATOM     90  O   UNL A   1      40.523  23.130  26.469  1.00  0.00    -0.237 OA
ATOM     91  O   UNL A   1      42.573  23.155  25.127  1.00  0.00    -0.744 OA
ENDBRANCH  85  88
ENDBRANCH  57  81
BRANCH  69  92
ATOM     92  C   UNL A   1      44.379  27.367  34.228  1.00  0.00     0.023 A 
ATOM     93  C   UNL A   1      45.669  27.926  34.137  1.00  0.00     0.012 A 
ATOM     94  C   UNL A   1      44.186  26.187  34.971  1.00  0.00     0.148 A 
ATOM     95  C   UNL A   1      46.754  27.308  34.757  1.00  0.00     0.002 A 
ATOM     96  C   UNL A   1      45.266  25.598  35.619  1.00  0.00     0.091 A 
ATOM     97  F   UNL A   1      42.955  25.657  35.026  1.00  0.00    -0.205 F 
ATOM     98  C   UNL A   1      46.551  26.153  35.507  1.00  0.00     0.022 A 
BRANCH  96  99
ATOM     99  S   UNL A   1      45.076  24.158  36.677  1.00  0.00     0.127 S 
ATOM    100  O   UNL A   1      44.508  23.180  35.752  1.00  0.00    -0.237 OA
ATOM    101  O   UNL A   1      46.454  23.882  37.086  1.00  0.00    -0.237 OA
ATOM    102  O   UNL A   1      44.201  24.578  37.764  1.00  0.00    -0.744 OA
ENDBRANCH  96  99
ENDBRANCH  69  92
ENDBRANCH  43  44
ENDBRANCH  35  38
ENDBRANCH  33  34
ENDBRANCH  32  33
ENDBRANCH  31  32
ENDBRANCH   1  31
TORSDOF 20
ENDMDL
MODEL 2
REMARK VINA RESULT:     -12.4      0.644      7.237
REMARK SMILES CCOc1cnc(C(=O)c2[nH]c3cc(Cl)ccc3c2CC(=O)NCCCCNC(=O)c2ccc(-c3c4nc(c(-c5cccc(S(=O)(=O)[O-])c5F)c5ccc([nH]5)c(-c5cccc(S(=O)(=O)[O-])c5F)c5nc(c(-c6cccc(S(=O)(=O)[O-])c6F)c6ccc3[nH]6)C=C5)C=C4)cc2)cc1CC
REMARK SMILES IDX 24 1 23 2 21 3 22 4 20 6 19 7 10 8 11 9 12 10 18 12 13 13
REMARK SMILES IDX 17 14 14 15 16 16 15 17 8 18 9 19 7 20 4 21 5 22 95 23 6 24
REMARK SMILES IDX 94 25 3 26 2 27 1 28 96 29 97 30 25 31 26 32 27 33 28 34
REMARK SMILES IDX 29 35 30 37 31 38 32 39 93 40 33 41 92 42 34 43 35 44 36 45
REMARK SMILES IDX 86 46 37 47 91 48 85 49 87 50 38 51 90 52 84 53 83 54 39 56
REMARK SMILES IDX 71 57 51 58 70 59 52 60 55 61 69 62 88 63 53 64 54 65 68 67
REMARK SMILES IDX 89 68 56 69 40 70 41 71 49 72 42 73 44 74 50 75 43 76 45 77
REMARK SMILES IDX 46 78 47 79 48 80 72 81 73 82 81 83 74 84 76 85 82 86 75 87
REMARK SMILES IDX 77 88 78 89 79 90 80 91 57 92 58 93 66 94 59 95 61 96 67 97
REMARK SMILES IDX 60 98 62 99 63 100 64 101 65 102
REMARK H PARENT 23 5 11 11 28 36 87 55 55 66
REMARK Flexibility Score: inf
ROOT
ATOM      1  C   UNL A   1      32.182  29.850  25.716  1.00  0.00     0.116 C 
ENDROOT
BRANCH   1   2
ATOM      2  N   UNL A   1      31.745  28.610  26.318  1.00  0.00    -0.356 N 
ATOM      3  C   UNL A   1      32.420  27.428  26.455  1.00  0.00     0.224 C 
ATOM      4  O   UNL A   1      31.950  26.580  27.219  1.00  0.00    -0.275 OA
ATOM      5  H   UNL A   1      30.830  28.616  26.682  1.00  0.00     0.163 HD
BRANCH   3   6
ATOM      6  C   UNL A   1      33.783  27.217  25.808  1.00  0.00     0.138 C 
BRANCH   6   7
ATOM      7  C   UNL A   1      33.841  26.126  24.775  1.00  0.00    -0.002 A 
ATOM      8  C   UNL A   1      33.661  26.258  23.401  1.00  0.00     0.093 A 
ATOM      9  N   UNL A   1      33.981  25.042  22.836  1.00  0.00    -0.351 N 
ATOM     10  C   UNL A   1      34.092  24.075  23.805  1.00  0.00     0.048 A 
ATOM     11  H   UNL A   1      34.114  24.889  21.873  1.00  0.00     0.167 HD
ATOM     12  C   UNL A   1      34.002  24.723  25.036  1.00  0.00     0.004 A 
ATOM     13  C   UNL A   1      34.283  22.693  23.685  1.00  0.00     0.047 A 
ATOM     14  C   UNL A   1      34.101  23.946  26.211  1.00  0.00     0.012 A 
ATOM     15  C   UNL A   1      34.368  21.951  24.866  1.00  0.00     0.043 A 
ATOM     16  C   UNL A   1      34.279  22.562  26.113  1.00  0.00     0.021 A 
ATOM     17  Cl  UNL A   1      34.582  20.244  24.774  1.00  0.00    -0.084 Cl
BRANCH   8  18
ATOM     18  C   UNL A   1      33.274  27.438  22.638  1.00  0.00     0.227 C 
ATOM     19  O   UNL A   1      34.091  28.079  21.991  1.00  0.00    -0.285 OA
BRANCH  18  20
ATOM     20  C   UNL A   1      31.827  27.880  22.695  1.00  0.00     0.113 A 
ATOM     21  C   UNL A   1      29.214  28.738  22.720  1.00  0.00     0.140 A 
ATOM     22  C   UNL A   1      30.234  29.447  22.097  1.00  0.00     0.158 A 
ATOM     23  C   UNL A   1      29.513  27.514  23.318  1.00  0.00    -0.002 A 
ATOM     24  N   UNL A   1      31.524  29.042  22.065  1.00  0.00    -0.249 NA
ATOM     25  C   UNL A   1      30.857  27.125  23.358  1.00  0.00     0.040 A 
BRANCH  21  26
ATOM     26  O   UNL A   1      27.929  29.197  22.682  1.00  0.00    -0.492 OA
BRANCH  26  27
ATOM     27  C   UNL A   1      27.873  30.595  22.369  1.00  0.00     0.226 C 
ATOM     28  C   UNL A   1      27.593  31.385  23.638  1.00  0.00     0.049 C 
ENDBRANCH  26  27
ENDBRANCH  21  26
BRANCH  23  29
ATOM     29  C   UNL A   1      28.455  26.619  23.915  1.00  0.00     0.036 C 
ATOM     30  C   UNL A   1      28.995  25.721  25.024  1.00  0.00     0.009 C 
ENDBRANCH  23  29
ENDBRANCH  18  20
ENDBRANCH   8  18
ENDBRANCH   6   7
ENDBRANCH   3   6
ENDBRANCH   1   2
BRANCH   1  31
ATOM     31  C   UNL A   1      31.033  30.808  25.406  1.00  0.00     0.023 C 
BRANCH  31  32
ATOM     32  C   UNL A   1      30.977  32.065  26.274  1.00  0.00     0.023 C 
BRANCH  32  33
ATOM     33  C   UNL A   1      32.298  32.501  26.895  1.00  0.00     0.116 C 
BRANCH  33  34
ATOM     34  N   UNL A   1      32.245  33.826  27.500  1.00  0.00    -0.352 N 
ATOM     35  C   UNL A   1      33.120  34.398  28.395  1.00  0.00     0.251 C 
ATOM     36  H   UNL A   1      31.482  34.388  27.234  1.00  0.00     0.163 HD
ATOM     37  O   UNL A   1      32.879  35.502  28.876  1.00  0.00    -0.269 OA
BRANCH  35  38
ATOM     38  C   UNL A   1      34.331  33.654  28.806  1.00  0.00     0.039 A 
ATOM     39  C   UNL A   1      35.585  34.212  28.543  1.00  0.00     0.014 A 
ATOM     40  C   UNL A   1      34.226  32.441  29.490  1.00  0.00     0.014 A 
ATOM     41  C   UNL A   1      36.734  33.596  29.046  1.00  0.00     0.010 A 
ATOM     42  C   UNL A   1      35.366  31.861  30.040  1.00  0.00     0.010 A 
ATOM     43  C   UNL A   1      36.628  32.441  29.838  1.00  0.00    -0.014 A 
BRANCH  43  44
ATOM     44  C   UNL A   1      37.810  31.853  30.515  1.00  0.00     0.031 A 
ATOM     45  C   UNL A   1      38.620  30.784  29.839  1.00  0.00     0.074 A 
ATOM     46  C   UNL A   1      38.077  32.198  31.790  1.00  0.00     0.049 A 
ATOM     47  N   UNL A   1      39.622  30.088  30.312  1.00  0.00    -0.248 NA
ATOM     48  C   UNL A   1      38.241  30.432  28.461  1.00  0.00     0.031 C 
ATOM     49  C   UNL A   1      37.311  33.163  32.584  1.00  0.00     0.029 A 
ATOM     50  N   UNL A   1      39.042  31.749  32.657  1.00  0.00    -0.354 N 
ATOM     51  C   UNL A   1      39.969  29.193  29.308  1.00  0.00     0.074 A 
ATOM     52  C   UNL A   1      39.057  29.418  28.207  1.00  0.00     0.031 C 
ATOM     53  C   UNL A   1      37.830  33.227  33.821  1.00  0.00     0.029 A 
ATOM     54  C   UNL A   1      38.947  32.292  33.918  1.00  0.00     0.049 A 
ATOM     55  H   UNL A   1      39.737  31.100  32.401  1.00  0.00     0.167 HD
ATOM     56  C   UNL A   1      40.974  28.286  29.293  1.00  0.00     0.034 A 
ATOM     57  C   UNL A   1      39.670  32.057  35.030  1.00  0.00     0.034 A 
ATOM     58  C   UNL A   1      41.913  28.101  30.366  1.00  0.00     0.049 A 
ATOM     59  C   UNL A   1      40.806  31.073  34.971  1.00  0.00     0.074 A 
ATOM     60  C   UNL A   1      43.030  27.285  30.401  1.00  0.00     0.029 A 
ATOM     61  N   UNL A   1      41.844  28.737  31.595  1.00  0.00    -0.354 N 
ATOM     62  N   UNL A   1      41.230  30.365  33.953  1.00  0.00    -0.248 NA
ATOM     63  C   UNL A   1      41.585  30.881  36.203  1.00  0.00     0.031 C 
ATOM     64  C   UNL A   1      43.631  27.421  31.657  1.00  0.00     0.029 A 
ATOM     65  C   UNL A   1      42.891  28.325  32.402  1.00  0.00     0.049 A 
ATOM     66  H   UNL A   1      41.151  29.386  31.858  1.00  0.00     0.167 HD
ATOM     67  C   UNL A   1      42.339  29.662  34.413  1.00  0.00     0.074 A 
ATOM     68  C   UNL A   1      42.535  30.051  35.795  1.00  0.00     0.031 C 
ATOM     69  C   UNL A   1      43.109  28.760  33.757  1.00  0.00     0.034 A 
BRANCH  56  70
ATOM     70  C   UNL A   1      41.158  27.471  28.041  1.00  0.00     0.023 A 
ATOM     71  C   UNL A   1      41.736  28.076  26.907  1.00  0.00     0.012 A 
ATOM     72  C   UNL A   1      40.820  26.105  28.000  1.00  0.00     0.148 A 
ATOM     73  C   UNL A   1      41.951  27.342  25.742  1.00  0.00     0.002 A 
ATOM     74  C   UNL A   1      41.070  25.370  26.847  1.00  0.00     0.091 A 
ATOM     75  F   UNL A   1      40.247  25.553  29.080  1.00  0.00    -0.205 F 
ATOM     76  C   UNL A   1      41.628  25.989  25.715  1.00  0.00     0.022 A 
BRANCH  74  77
ATOM     77  S   UNL A   1      40.749  23.605  26.739  1.00  0.00     0.127 S 
ATOM     78  O   UNL A   1      41.105  23.158  28.085  1.00  0.00    -0.237 OA
ATOM     79  O   UNL A   1      39.316  23.566  26.444  1.00  0.00    -0.237 OA
ATOM     80  O   UNL A   1      41.599  23.112  25.666  1.00  0.00    -0.744 OA
ENDBRANCH  74  77
ENDBRANCH  56  70
BRANCH  57  81
ATOM     81  C   UNL A   1      39.385  32.823  36.276  1.00  0.00     0.023 A 
ATOM     82  C   UNL A   1      39.951  34.103  36.436  1.00  0.00     0.012 A 
ATOM     83  C   UNL A   1      38.534  32.317  37.278  1.00  0.00     0.148 A 
ATOM     84  C   UNL A   1      39.694  34.856  37.582  1.00  0.00     0.002 A 
ATOM     85  C   UNL A   1      38.242  33.094  38.393  1.00  0.00     0.091 A 
ATOM     86  F   UNL A   1      38.020  31.090  37.117  1.00  0.00    -0.205 F 
ATOM     87  C   UNL A   1      38.832  34.357  38.554  1.00  0.00     0.022 A 
BRANCH  85  88
ATOM     88  S   UNL A   1      37.039  32.582  39.625  1.00  0.00     0.127 S 
ATOM     89  O   UNL A   1      35.798  32.592  38.854  1.00  0.00    -0.237 OA
ATOM     90  O   UNL A   1      37.523  31.250  39.994  1.00  0.00    -0.237 OA
ATOM     91  O   UNL A   1      37.139  33.568  40.692  1.00  0.00    -0.744 OA
ENDBRANCH  85  88
ENDBRANCH  57  81
BRANCH  69  92
ATOM     92  C   UNL A   1      44.247  28.133  34.517  1.00  0.00     0.023 A 
ATOM     93  C   UNL A   1      45.512  28.755  34.502  1.00  0.00     0.012 A 
ATOM     94  C   UNL A   1      44.050  26.982  35.303  1.00  0.00     0.148 A 
ATOM     95  C   UNL A   1      46.570  28.225  35.239  1.00  0.00     0.002 A 
ATOM     96  C   UNL A   1      45.099  26.483  36.068  1.00  0.00     0.091 A 
ATOM     97  F   UNL A   1      42.845  26.392  35.286  1.00  0.00    -0.205 F 
ATOM     98  C   UNL A   1      46.361  27.099  36.031  1.00  0.00     0.022 A 
BRANCH  96  99
ATOM     99  S   UNL A   1      44.891  25.089  37.182  1.00  0.00     0.127 S 
ATOM    100  O   UNL A   1      45.575  25.561  38.383  1.00  0.00    -0.237 OA
ATOM    101  O   UNL A   1      43.435  24.997  37.304  1.00  0.00    -0.237 OA
ATOM    102  O   UNL A   1      45.508  23.951  36.512  1.00  0.00    -0.744 OA
ENDBRANCH  96  99
ENDBRANCH  69  92
ENDBRANCH  43  44
ENDBRANCH  35  38
ENDBRANCH  33  34
ENDBRANCH  32  33
ENDBRANCH  31  32
ENDBRANCH   1  31
TORSDOF 20
ENDMDL
MODEL 3
REMARK VINA RESULT:     -11.9      2.344      4.282
REMARK SMILES CCOc1cnc(C(=O)c2[nH]c3cc(Cl)ccc3c2CC(=O)NCCCCNC(=O)c2ccc(-c3c4nc(c(-c5cccc(S(=O)(=O)[O-])c5F)c5ccc([nH]5)c(-c5cccc(S(=O)(=O)[O-])c5F)c5nc(c(-c6cccc(S(=O)(=O)[O-])c6F)c6ccc3[nH]6)C=C5)C=C4)cc2)cc1CC
REMARK SMILES IDX 24 1 23 2 21 3 22 4 20 6 19 7 10 8 11 9 12 10 18 12 13 13
REMARK SMILES IDX 17 14 14 15 16 16 15 17 8 18 9 19 7 20 4 21 5 22 95 23 6 24
REMARK SMILES IDX 94 25 3 26 2 27 1 28 96 29 97 30 25 31 26 32 27 33 28 34
REMARK SMILES IDX 29 35 30 37 31 38 32 39 93 40 33 41 92 42 34 43 35 44 36 45
REMARK SMILES IDX 86 46 37 47 91 48 85 49 87 50 38 51 90 52 84 53 83 54 39 56
REMARK SMILES IDX 71 57 51 58 70 59 52 60 55 61 69 62 88 63 53 64 54 65 68 67
REMARK SMILES IDX 89 68 56 69 40 70 41 71 49 72 42 73 44 74 50 75 43 76 45 77
REMARK SMILES IDX 46 78 47 79 48 80 72 81 73 82 81 83 74 84 76 85 82 86 75 87
REMARK SMILES IDX 77 88 78 89 79 90 80 91 57 92 58 93 66 94 59 95 61 96 67 97
REMARK SMILES IDX 60 98 62 99 63 100 64 101 65 102
REMARK H PARENT 23 5 11 11 28 36 87 55 55 66
REMARK Flexibility Score: inf
ROOT
ATOM      1  C   UNL A   1      34.773  29.556  27.304  1.00  0.00     0.116 C 
ENDROOT
BRANCH   1   2
ATOM      2  N   UNL A   1      33.615  28.696  27.411  1.00  0.00    -0.356 N 
ATOM      3  C   UNL A   1      33.020  27.921  26.454  1.00  0.00     0.224 C 
ATOM      4  O   UNL A   1      32.197  27.078  26.822  1.00  0.00    -0.275 OA
ATOM      5  H   UNL A   1      33.193  28.663  28.300  1.00  0.00     0.163 HD
BRANCH   3   6
ATOM      6  C   UNL A   1      33.463  27.986  24.997  1.00  0.00     0.138 C 
BRANCH   6   7
ATOM      7  C   UNL A   1      32.352  28.122  23.994  1.00  0.00    -0.002 A 
ATOM      8  C   UNL A   1      32.167  27.371  22.837  1.00  0.00     0.093 A 
ATOM      9  N   UNL A   1      30.934  27.716  22.327  1.00  0.00    -0.351 N 
ATOM     10  C   UNL A   1      30.452  28.841  22.953  1.00  0.00     0.048 A 
ATOM     11  H   UNL A   1      30.463  27.225  21.616  1.00  0.00     0.167 HD
ATOM     12  C   UNL A   1      31.324  29.126  24.002  1.00  0.00     0.004 A 
ATOM     13  C   UNL A   1      29.311  29.606  22.682  1.00  0.00     0.047 A 
ATOM     14  C   UNL A   1      31.045  30.241  24.821  1.00  0.00     0.012 A 
ATOM     15  C   UNL A   1      29.067  30.708  23.506  1.00  0.00     0.043 A 
ATOM     16  C   UNL A   1      29.916  31.026  24.560  1.00  0.00     0.021 A 
ATOM     17  Cl  UNL A   1      27.687  31.695  23.204  1.00  0.00    -0.084 Cl
BRANCH   8  18
ATOM     18  C   UNL A   1      33.036  26.355  22.256  1.00  0.00     0.227 C 
ATOM     19  O   UNL A   1      33.724  26.588  21.271  1.00  0.00    -0.285 OA
BRANCH  18  20
ATOM     20  C   UNL A   1      33.040  24.977  22.883  1.00  0.00     0.113 A 
ATOM     21  C   UNL A   1      32.965  22.454  23.976  1.00  0.00     0.140 A 
ATOM     22  C   UNL A   1      31.835  23.097  23.486  1.00  0.00     0.158 A 
ATOM     23  C   UNL A   1      34.201  23.090  23.868  1.00  0.00    -0.002 A 
ATOM     24  N   UNL A   1      31.848  24.333  22.938  1.00  0.00    -0.249 NA
ATOM     25  C   UNL A   1      34.213  24.401  23.375  1.00  0.00     0.040 A 
BRANCH  21  26
ATOM     26  O   UNL A   1      32.877  21.191  24.486  1.00  0.00    -0.492 OA
BRANCH  26  27
ATOM     27  C   UNL A   1      32.388  20.258  23.513  1.00  0.00     0.226 C 
ATOM     28  C   UNL A   1      32.634  18.841  24.006  1.00  0.00     0.049 C 
ENDBRANCH  26  27
ENDBRANCH  21  26
BRANCH  23  29
ATOM     29  C   UNL A   1      35.497  22.427  24.263  1.00  0.00     0.036 C 
ATOM     30  C   UNL A   1      36.632  22.711  23.284  1.00  0.00     0.009 C 
ENDBRANCH  23  29
ENDBRANCH  18  20
ENDBRANCH   8  18
ENDBRANCH   6   7
ENDBRANCH   3   6
ENDBRANCH   1   2
BRANCH   1  31
ATOM     31  C   UNL A   1      34.660  30.826  28.145  1.00  0.00     0.023 C 
BRANCH  31  32
ATOM     32  C   UNL A   1      33.467  31.724  27.817  1.00  0.00     0.023 C 
BRANCH  32  33
ATOM     33  C   UNL A   1      33.808  33.127  27.327  1.00  0.00     0.116 C 
BRANCH  33  34
ATOM     34  N   UNL A   1      33.093  34.179  28.037  1.00  0.00    -0.352 N 
ATOM     35  C   UNL A   1      33.318  34.667  29.304  1.00  0.00     0.251 C 
ATOM     36  H   UNL A   1      32.350  34.598  27.546  1.00  0.00     0.163 HD
ATOM     37  O   UNL A   1      32.560  35.505  29.788  1.00  0.00    -0.269 OA
BRANCH  35  38
ATOM     38  C   UNL A   1      34.453  34.144  30.095  1.00  0.00     0.039 A 
ATOM     39  C   UNL A   1      34.190  33.278  31.160  1.00  0.00     0.014 A 
ATOM     40  C   UNL A   1      35.769  34.468  29.755  1.00  0.00     0.014 A 
ATOM     41  C   UNL A   1      35.251  32.663  31.828  1.00  0.00     0.010 A 
ATOM     42  C   UNL A   1      36.823  33.810  30.384  1.00  0.00     0.010 A 
ATOM     43  C   UNL A   1      36.574  32.890  31.414  1.00  0.00    -0.014 A 
BRANCH  43  44
ATOM     44  C   UNL A   1      37.710  32.136  31.998  1.00  0.00     0.031 A 
ATOM     45  C   UNL A   1      38.314  32.562  33.306  1.00  0.00     0.074 A 
ATOM     46  C   UNL A   1      38.276  31.140  31.286  1.00  0.00     0.049 A 
ATOM     47  N   UNL A   1      39.367  32.087  33.920  1.00  0.00    -0.248 NA
ATOM     48  C   UNL A   1      37.666  33.684  34.005  1.00  0.00     0.031 C 
ATOM     49  C   UNL A   1      37.833  30.689  29.965  1.00  0.00     0.029 A 
ATOM     50  N   UNL A   1      39.369  30.354  31.555  1.00  0.00    -0.354 N 
ATOM     51  C   UNL A   1      39.531  32.872  35.054  1.00  0.00     0.074 A 
ATOM     52  C   UNL A   1      38.482  33.869  35.033  1.00  0.00     0.031 C 
ATOM     53  C   UNL A   1      38.650  29.713  29.536  1.00  0.00     0.029 A 
ATOM     54  C   UNL A   1      39.688  29.486  30.536  1.00  0.00     0.049 A 
ATOM     55  H   UNL A   1      39.875  30.406  32.397  1.00  0.00     0.167 HD
ATOM     56  C   UNL A   1      40.454  32.756  36.038  1.00  0.00     0.034 A 
ATOM     57  C   UNL A   1      40.706  28.612  30.416  1.00  0.00     0.034 A 
ATOM     58  C   UNL A   1      41.462  31.732  36.084  1.00  0.00     0.049 A 
ATOM     59  C   UNL A   1      41.692  28.477  31.544  1.00  0.00     0.074 A 
ATOM     60  C   UNL A   1      42.372  31.465  37.093  1.00  0.00     0.029 A 
ATOM     61  N   UNL A   1      41.698  30.808  35.079  1.00  0.00    -0.354 N 
ATOM     62  N   UNL A   1      41.723  29.110  32.691  1.00  0.00    -0.248 NA
ATOM     63  C   UNL A   1      42.764  27.484  31.376  1.00  0.00     0.031 C 
ATOM     64  C   UNL A   1      43.164  30.384  36.691  1.00  0.00     0.029 A 
ATOM     65  C   UNL A   1      42.745  29.976  35.436  1.00  0.00     0.049 A 
ATOM     66  H   UNL A   1      41.195  30.751  34.234  1.00  0.00     0.167 HD
ATOM     67  C   UNL A   1      42.800  28.576  33.392  1.00  0.00     0.074 A 
ATOM     68  C   UNL A   1      43.378  27.550  32.549  1.00  0.00     0.031 C 
ATOM     69  C   UNL A   1      43.278  28.922  34.612  1.00  0.00     0.034 A 
BRANCH  56  70
ATOM     70  C   UNL A   1      40.369  33.721  37.190  1.00  0.00     0.023 A 
ATOM     71  C   UNL A   1      41.035  34.960  37.097  1.00  0.00     0.012 A 
ATOM     72  C   UNL A   1      39.591  33.436  38.328  1.00  0.00     0.148 A 
ATOM     73  C   UNL A   1      40.950  35.891  38.131  1.00  0.00     0.002 A 
ATOM     74  C   UNL A   1      39.483  34.384  39.340  1.00  0.00     0.091 A 
ATOM     75  F   UNL A   1      38.987  32.242  38.410  1.00  0.00    -0.205 F 
ATOM     76  C   UNL A   1      40.168  35.608  39.246  1.00  0.00     0.022 A 
BRANCH  74  77
ATOM     77  S   UNL A   1      38.444  34.137  40.785  1.00  0.00     0.127 S 
ATOM     78  O   UNL A   1      39.289  33.276  41.611  1.00  0.00    -0.237 OA
ATOM     79  O   UNL A   1      38.286  35.502  41.292  1.00  0.00    -0.237 OA
ATOM     80  O   UNL A   1      37.216  33.531  40.292  1.00  0.00    -0.744 OA
ENDBRANCH  74  77
ENDBRANCH  56  70
BRANCH  57  81
ATOM     81  C   UNL A   1      40.801  27.745  29.209  1.00  0.00     0.023 A 
ATOM     82  C   UNL A   1      39.976  26.607  29.118  1.00  0.00     0.012 A 
ATOM     83  C   UNL A   1      41.664  28.055  28.140  1.00  0.00     0.148 A 
ATOM     84  C   UNL A   1      40.026  25.779  27.996  1.00  0.00     0.002 A 
ATOM     85  C   UNL A   1      41.671  27.254  27.003  1.00  0.00     0.091 A 
ATOM     86  F   UNL A   1      42.455  29.131  28.252  1.00  0.00    -0.205 F 
ATOM     87  C   UNL A   1      40.864  26.108  26.935  1.00  0.00     0.022 A 
BRANCH  85  88
ATOM     88  S   UNL A   1      42.622  27.683  25.540  1.00  0.00     0.127 S 
ATOM     89  O   UNL A   1      41.946  28.895  25.087  1.00  0.00    -0.237 OA
ATOM     90  O   UNL A   1      43.961  27.894  26.094  1.00  0.00    -0.237 OA
ATOM     91  O   UNL A   1      42.518  26.525  24.663  1.00  0.00    -0.744 OA
ENDBRANCH  85  88
ENDBRANCH  57  81
BRANCH  69  92
ATOM     92  C   UNL A   1      44.483  28.178  35.123  1.00  0.00     0.023 A 
ATOM     93  C   UNL A   1      45.768  28.713  34.902  1.00  0.00     0.012 A 
ATOM     94  C   UNL A   1      44.343  27.001  35.882  1.00  0.00     0.148 A 
ATOM     95  C   UNL A   1      46.898  28.073  35.410  1.00  0.00     0.002 A 
ATOM     96  C   UNL A   1      45.471  26.390  36.419  1.00  0.00     0.091 A 
ATOM     97  F   UNL A   1      43.114  26.495  36.062  1.00  0.00    -0.205 F 
ATOM     98  C   UNL A   1      46.749  26.920  36.178  1.00  0.00     0.022 A 
BRANCH  96  99
ATOM     99  S   UNL A   1      45.360  24.953  37.492  1.00  0.00     0.127 S 
ATOM    100  O   UNL A   1      46.764  24.724  37.831  1.00  0.00    -0.237 OA
ATOM    101  O   UNL A   1      44.539  25.447  38.598  1.00  0.00    -0.237 OA
ATOM    102  O   UNL A   1      44.728  23.911  36.694  1.00  0.00    -0.744 OA
ENDBRANCH  96  99
ENDBRANCH  69  92
ENDBRANCH  43  44
ENDBRANCH  35  38
ENDBRANCH  33  34
ENDBRANCH  32  33
ENDBRANCH  31  32
ENDBRANCH   1  31
TORSDOF 20
ENDMDL
