MODEL 1
REMARK VINA RESULT:     -12.0      0.000      0.000
REMARK SMILES C[C@@H]([NH2+][C@H]1CCOC2(CCOCC2)C1)C(=O)NCCCCNC(=O)c1ccc(-c2c3nc(c(-c4cccc(S(=O)(=O)[O-])c4F)c4ccc([nH]4)c(-c4cccc(S(=O)(=O)[O-])c4F)c4nc(c(-c5cccc(S(=O)(=O)[O-])c5F)c5ccc2[nH]5)C=C4)C=C3)cc1
REMARK SMILES IDX 20 1 19 2 18 3 17 4 15 5 16 6 2 8 1 9 3 10 4 13 5 14 14 15
REMARK SMILES IDX 6 16 8 17 7 18 9 19 13 20 10 21 12 22 11 23 21 24 22 25
REMARK SMILES IDX 23 26 24 28 25 29 26 30 87 31 27 32 86 33 28 34 29 35 30 36
REMARK SMILES IDX 80 37 31 38 85 39 79 40 81 41 32 42 84 43 78 44 77 45 33 47
REMARK SMILES IDX 65 48 45 49 64 50 46 51 49 52 63 53 82 54 47 55 48 56 62 58
REMARK SMILES IDX 83 59 50 60 34 61 35 62 43 63 36 64 38 65 44 66 37 67 39 68
REMARK SMILES IDX 40 69 41 70 42 71 66 72 67 73 75 74 68 75 70 76 76 77 69 78
REMARK SMILES IDX 71 79 72 80 73 81 74 82 51 83 52 84 60 85 53 86 55 87 61 88
REMARK SMILES IDX 54 89 56 90 57 91 58 92 59 93
REMARK H PARENT 17 7 3 11 3 12 22 27 81 46 49 57
REMARK Flexibility Score: inf
ROOT
ATOM      1  C   UNL A   1      31.521  29.263  26.372  1.00  0.00     0.023 C 
ENDROOT
BRANCH   1   2
ATOM      2  C   UNL A   1      31.889  28.062  27.252  1.00  0.00     0.023 C 
BRANCH   2   3
ATOM      3  C   UNL A   1      32.419  26.856  26.475  1.00  0.00     0.116 C 
BRANCH   3   4
ATOM      4  N   UNL A   1      31.574  25.706  26.713  1.00  0.00    -0.351 N 
ATOM      5  C   UNL A   1      30.649  25.128  25.902  1.00  0.00     0.277 C 
ATOM      6  O   UNL A   1      29.883  24.306  26.416  1.00  0.00    -0.268 OA
ATOM      7  H   UNL A   1      31.687  25.278  27.592  1.00  0.00     0.163 HD
BRANCH   5   8
ATOM      8  C   UNL A   1      30.555  25.442  24.396  1.00  0.00     0.269 C 
ATOM      9  C   UNL A   1      30.554  24.176  23.542  1.00  0.00     0.086 C 
BRANCH   8  10
ATOM     10  N   UNL A   1      29.412  26.324  24.046  1.00  0.00    -0.334 N 
ATOM     11  H   UNL A   1      28.797  26.379  24.858  1.00  0.00     0.347 HD
ATOM     12  H   UNL A   1      28.973  25.902  23.226  1.00  0.00     0.347 HD
BRANCH  10  13
ATOM     13  C   UNL A   1      29.768  27.706  23.648  1.00  0.00     0.188 C 
ATOM     14  C   UNL A   1      31.018  27.839  22.769  1.00  0.00     0.093 C 
ATOM     15  C   UNL A   1      28.573  28.331  22.895  1.00  0.00     0.100 C 
ATOM     16  C   UNL A   1      31.234  29.287  22.380  1.00  0.00     0.167 C 
ATOM     17  C   UNL A   1      28.866  29.758  22.373  1.00  0.00     0.078 C 
ATOM     18  O   UNL A   1      30.113  29.776  21.659  1.00  0.00    -0.374 OA
ATOM     19  C   UNL A   1      28.842  30.807  23.501  1.00  0.00     0.064 C 
ATOM     20  C   UNL A   1      27.805  30.164  21.331  1.00  0.00     0.064 C 
ATOM     21  C   UNL A   1      29.009  32.213  22.933  1.00  0.00     0.163 C 
ATOM     22  C   UNL A   1      28.033  31.600  20.869  1.00  0.00     0.163 C 
ATOM     23  O   UNL A   1      27.983  32.494  21.981  1.00  0.00    -0.381 OA
ENDBRANCH  10  13
ENDBRANCH   8  10
ENDBRANCH   5   8
ENDBRANCH   3   4
ENDBRANCH   2   3
ENDBRANCH   1   2
BRANCH   1  24
ATOM     24  C   UNL A   1      32.695  30.151  25.968  1.00  0.00     0.116 C 
BRANCH  24  25
ATOM     25  N   UNL A   1      32.510  31.536  26.372  1.00  0.00    -0.352 N 
ATOM     26  C   UNL A   1      33.225  32.266  27.289  1.00  0.00     0.251 C 
ATOM     27  H   UNL A   1      31.773  32.014  25.928  1.00  0.00     0.163 HD
ATOM     28  O   UNL A   1      32.835  33.382  27.625  1.00  0.00    -0.269 OA
BRANCH  26  29
ATOM     29  C   UNL A   1      34.447  31.691  27.886  1.00  0.00     0.039 A 
ATOM     30  C   UNL A   1      35.574  32.503  28.033  1.00  0.00     0.014 A 
ATOM     31  C   UNL A   1      34.475  30.361  28.313  1.00  0.00     0.014 A 
ATOM     32  C   UNL A   1      36.713  31.996  28.663  1.00  0.00     0.010 A 
ATOM     33  C   UNL A   1      35.586  29.878  28.999  1.00  0.00     0.010 A 
ATOM     34  C   UNL A   1      36.717  30.689  29.178  1.00  0.00    -0.014 A 
BRANCH  34  35
ATOM     35  C   UNL A   1      37.887  30.156  29.921  1.00  0.00     0.031 A 
ATOM     36  C   UNL A   1      38.177  30.627  31.320  1.00  0.00     0.074 A 
ATOM     37  C   UNL A   1      38.741  29.318  29.300  1.00  0.00     0.049 A 
ATOM     38  N   UNL A   1      39.180  30.321  32.100  1.00  0.00    -0.248 NA
ATOM     39  C   UNL A   1      37.231  31.591  31.909  1.00  0.00     0.031 C 
ATOM     40  C   UNL A   1      38.615  28.854  27.917  1.00  0.00     0.029 A 
ATOM     41  N   UNL A   1      39.900  28.731  29.742  1.00  0.00    -0.354 N 
ATOM     42  C   UNL A   1      39.009  31.078  33.253  1.00  0.00     0.074 A 
ATOM     43  C   UNL A   1      37.823  31.883  33.058  1.00  0.00     0.031 C 
ATOM     44  C   UNL A   1      39.651  28.052  27.626  1.00  0.00     0.029 A 
ATOM     45  C   UNL A   1      40.530  27.966  28.788  1.00  0.00     0.049 A 
ATOM     46  H   UNL A   1      40.248  28.847  30.656  1.00  0.00     0.167 HD
ATOM     47  C   UNL A   1      39.755  31.083  34.384  1.00  0.00     0.034 A 
ATOM     48  C   UNL A   1      41.686  27.276  28.843  1.00  0.00     0.034 A 
ATOM     49  C   UNL A   1      40.903  30.244  34.594  1.00  0.00     0.049 A 
ATOM     50  C   UNL A   1      42.466  27.257  30.129  1.00  0.00     0.074 A 
ATOM     51  C   UNL A   1      41.666  30.102  35.739  1.00  0.00     0.029 A 
ATOM     52  N   UNL A   1      41.457  29.407  33.638  1.00  0.00    -0.354 N 
ATOM     53  N   UNL A   1      42.195  27.850  31.267  1.00  0.00    -0.248 NA
ATOM     54  C   UNL A   1      43.692  26.445  30.152  1.00  0.00     0.031 C 
ATOM     55  C   UNL A   1      42.693  29.192  35.470  1.00  0.00     0.029 A 
ATOM     56  C   UNL A   1      42.558  28.752  34.162  1.00  0.00     0.049 A 
ATOM     57  H   UNL A   1      41.119  29.296  32.720  1.00  0.00     0.167 HD
ATOM     58  C   UNL A   1      43.194  27.454  32.150  1.00  0.00     0.074 A 
ATOM     59  C   UNL A   1      44.064  26.555  31.420  1.00  0.00     0.031 C 
ATOM     60  C   UNL A   1      43.381  27.815  33.443  1.00  0.00     0.034 A 
BRANCH  47  61
ATOM     61  C   UNL A   1      39.313  31.982  35.509  1.00  0.00     0.023 A 
ATOM     62  C   UNL A   1      38.417  31.490  36.479  1.00  0.00     0.012 A 
ATOM     63  C   UNL A   1      39.828  33.287  35.643  1.00  0.00     0.148 A 
ATOM     64  C   UNL A   1      38.012  32.292  37.545  1.00  0.00     0.002 A 
ATOM     65  C   UNL A   1      39.453  34.065  36.732  1.00  0.00     0.091 A 
ATOM     66  F   UNL A   1      40.662  33.745  34.699  1.00  0.00    -0.205 F 
ATOM     67  C   UNL A   1      38.537  33.573  37.677  1.00  0.00     0.022 A 
BRANCH  65  68
ATOM     68  S   UNL A   1      40.133  35.700  37.034  1.00  0.00     0.127 S 
ATOM     69  O   UNL A   1      41.570  35.428  37.030  1.00  0.00    -0.237 OA
ATOM     70  O   UNL A   1      39.652  36.453  35.873  1.00  0.00    -0.237 OA
ATOM     71  O   UNL A   1      39.580  36.135  38.309  1.00  0.00    -0.744 OA
ENDBRANCH  65  68
ENDBRANCH  47  61
BRANCH  48  72
ATOM     72  C   UNL A   1      42.134  26.481  27.665  1.00  0.00     0.023 A 
ATOM     73  C   UNL A   1      42.932  27.100  26.681  1.00  0.00     0.012 A 
ATOM     74  C   UNL A   1      41.806  25.119  27.525  1.00  0.00     0.148 A 
ATOM     75  C   UNL A   1      43.369  26.385  25.566  1.00  0.00     0.002 A 
ATOM     76  C   UNL A   1      42.289  24.399  26.439  1.00  0.00     0.091 A 
ATOM     77  F   UNL A   1      41.036  24.553  28.464  1.00  0.00    -0.205 F 
ATOM     78  C   UNL A   1      43.056  25.034  25.450  1.00  0.00     0.022 A 
BRANCH  76  79
ATOM     79  S   UNL A   1      42.047  22.626  26.276  1.00  0.00     0.127 S 
ATOM     80  O   UNL A   1      40.590  22.525  26.248  1.00  0.00    -0.237 OA
ATOM     81  O   UNL A   1      42.709  22.345  25.001  1.00  0.00    -0.237 OA
ATOM     82  O   UNL A   1      42.704  22.034  27.434  1.00  0.00    -0.744 OA
ENDBRANCH  76  79
ENDBRANCH  48  72
BRANCH  60  83
ATOM     83  C   UNL A   1      44.555  27.215  34.174  1.00  0.00     0.023 A 
ATOM     84  C   UNL A   1      45.792  27.888  34.179  1.00  0.00     0.012 A 
ATOM     85  C   UNL A   1      44.407  26.029  34.919  1.00  0.00     0.148 A 
ATOM     86  C   UNL A   1      46.875  27.373  34.891  1.00  0.00     0.002 A 
ATOM     87  C   UNL A   1      45.477  25.548  35.665  1.00  0.00     0.091 A 
ATOM     88  F   UNL A   1      43.227  25.393  34.886  1.00  0.00    -0.205 F 
ATOM     89  C   UNL A   1      46.715  26.211  35.643  1.00  0.00     0.022 A 
BRANCH  87  90
ATOM     90  S   UNL A   1      45.331  24.113  36.737  1.00  0.00     0.127 S 
ATOM     91  O   UNL A   1      44.807  23.105  35.818  1.00  0.00    -0.237 OA
ATOM     92  O   UNL A   1      46.717  23.895  37.156  1.00  0.00    -0.237 OA
ATOM     93  O   UNL A   1      44.432  24.508  37.813  1.00  0.00    -0.744 OA
ENDBRANCH  87  90
ENDBRANCH  60  83
ENDBRANCH  34  35
ENDBRANCH  26  29
ENDBRANCH  24  25
ENDBRANCH   1  24
TORSDOF 16
ENDMDL
MODEL 2
REMARK VINA RESULT:     -11.9      1.267      1.536
REMARK SMILES C[C@@H]([NH2+][C@H]1CCOC2(CCOCC2)C1)C(=O)NCCCCNC(=O)c1ccc(-c2c3nc(c(-c4cccc(S(=O)(=O)[O-])c4F)c4ccc([nH]4)c(-c4cccc(S(=O)(=O)[O-])c4F)c4nc(c(-c5cccc(S(=O)(=O)[O-])c5F)c5ccc2[nH]5)C=C4)C=C3)cc1
REMARK SMILES IDX 20 1 19 2 18 3 17 4 15 5 16 6 2 8 1 9 3 10 4 13 5 14 14 15
REMARK SMILES IDX 6 16 8 17 7 18 9 19 13 20 10 21 12 22 11 23 21 24 22 25
REMARK SMILES IDX 23 26 24 28 25 29 26 30 87 31 27 32 86 33 28 34 29 35 30 36
REMARK SMILES IDX 80 37 31 38 85 39 79 40 81 41 32 42 84 43 78 44 77 45 33 47
REMARK SMILES IDX 65 48 45 49 64 50 46 51 49 52 63 53 82 54 47 55 48 56 62 58
REMARK SMILES IDX 83 59 50 60 34 61 35 62 43 63 36 64 38 65 44 66 37 67 39 68
REMARK SMILES IDX 40 69 41 70 42 71 66 72 67 73 75 74 68 75 70 76 76 77 69 78
REMARK SMILES IDX 71 79 72 80 73 81 74 82 51 83 52 84 60 85 53 86 55 87 61 88
REMARK SMILES IDX 54 89 56 90 57 91 58 92 59 93
REMARK H PARENT 17 7 3 11 3 12 22 27 81 46 49 57
REMARK Flexibility Score: inf
ROOT
ATOM      1  C   UNL A   1      31.590  29.792  26.765  1.00  0.00     0.023 C 
ENDROOT
BRANCH   1   2
ATOM      2  C   UNL A   1      31.638  28.410  27.428  1.00  0.00     0.023 C 
BRANCH   2   3
ATOM      3  C   UNL A   1      32.133  27.291  26.509  1.00  0.00     0.116 C 
BRANCH   3   4
ATOM      4  N   UNL A   1      31.409  26.070  26.785  1.00  0.00    -0.351 N 
ATOM      5  C   UNL A   1      30.604  25.337  25.972  1.00  0.00     0.277 C 
ATOM      6  O   UNL A   1      29.905  24.467  26.504  1.00  0.00    -0.268 OA
ATOM      7  H   UNL A   1      31.517  25.716  27.697  1.00  0.00     0.163 HD
BRANCH   5   8
ATOM      8  C   UNL A   1      30.564  25.538  24.444  1.00  0.00     0.269 C 
ATOM      9  C   UNL A   1      30.602  24.213  23.686  1.00  0.00     0.086 C 
BRANCH   8  10
ATOM     10  N   UNL A   1      29.430  26.382  23.988  1.00  0.00    -0.334 N 
ATOM     11  H   UNL A   1      28.745  26.423  24.742  1.00  0.00     0.347 HD
ATOM     12  H   UNL A   1      29.079  25.943  23.136  1.00  0.00     0.347 HD
BRANCH  10  13
ATOM     13  C   UNL A   1      29.778  27.773  23.613  1.00  0.00     0.188 C 
ATOM     14  C   UNL A   1      31.033  27.929  22.745  1.00  0.00     0.093 C 
ATOM     15  C   UNL A   1      28.583  28.399  22.859  1.00  0.00     0.100 C 
ATOM     16  C   UNL A   1      31.240  29.384  22.378  1.00  0.00     0.167 C 
ATOM     17  C   UNL A   1      28.868  29.834  22.359  1.00  0.00     0.078 C 
ATOM     18  O   UNL A   1      30.121  29.873  21.655  1.00  0.00    -0.374 OA
ATOM     19  C   UNL A   1      28.826  30.868  23.501  1.00  0.00     0.064 C 
ATOM     20  C   UNL A   1      27.812  30.246  21.313  1.00  0.00     0.064 C 
ATOM     21  C   UNL A   1      28.985  32.283  22.954  1.00  0.00     0.163 C 
ATOM     22  C   UNL A   1      28.031  31.691  20.873  1.00  0.00     0.163 C 
ATOM     23  O   UNL A   1      27.964  32.569  21.997  1.00  0.00    -0.381 OA
ENDBRANCH  10  13
ENDBRANCH   8  10
ENDBRANCH   5   8
ENDBRANCH   3   4
ENDBRANCH   2   3
ENDBRANCH   1   2
BRANCH   1  24
ATOM     24  C   UNL A   1      32.949  30.450  26.544  1.00  0.00     0.116 C 
BRANCH  24  25
ATOM     25  N   UNL A   1      32.941  31.866  26.874  1.00  0.00    -0.352 N 
ATOM     26  C   UNL A   1      33.804  32.564  27.684  1.00  0.00     0.251 C 
ATOM     27  H   UNL A   1      32.221  32.396  26.462  1.00  0.00     0.163 HD
ATOM     28  O   UNL A   1      33.560  33.732  27.980  1.00  0.00    -0.269 OA
BRANCH  26  29
ATOM     29  C   UNL A   1      35.008  31.895  28.216  1.00  0.00     0.039 A 
ATOM     30  C   UNL A   1      36.223  32.583  28.207  1.00  0.00     0.014 A 
ATOM     31  C   UNL A   1      34.934  30.599  28.735  1.00  0.00     0.014 A 
ATOM     32  C   UNL A   1      37.356  31.992  28.773  1.00  0.00     0.010 A 
ATOM     33  C   UNL A   1      36.046  30.040  29.358  1.00  0.00     0.010 A 
ATOM     34  C   UNL A   1      37.268  30.729  29.381  1.00  0.00    -0.014 A 
BRANCH  34  35
ATOM     35  C   UNL A   1      38.439  30.116  30.058  1.00  0.00     0.031 A 
ATOM     36  C   UNL A   1      38.831  30.557  31.443  1.00  0.00     0.074 A 
ATOM     37  C   UNL A   1      39.203  29.230  29.390  1.00  0.00     0.049 A 
ATOM     38  N   UNL A   1      39.851  30.181  32.168  1.00  0.00    -0.248 NA
ATOM     39  C   UNL A   1      37.981  31.575  32.084  1.00  0.00     0.031 C 
ATOM     40  C   UNL A   1      38.975  28.785  28.014  1.00  0.00     0.029 A 
ATOM     41  N   UNL A   1      40.344  28.566  29.768  1.00  0.00    -0.354 N 
ATOM     42  C   UNL A   1      39.791  30.939  33.331  1.00  0.00     0.074 A 
ATOM     43  C   UNL A   1      38.650  31.819  33.202  1.00  0.00     0.031 C 
ATOM     44  C   UNL A   1      39.941  27.921  27.665  1.00  0.00     0.029 A 
ATOM     45  C   UNL A   1      40.872  27.770  28.779  1.00  0.00     0.049 A 
ATOM     46  H   UNL A   1      40.746  28.653  30.663  1.00  0.00     0.167 HD
ATOM     47  C   UNL A   1      40.593  30.887  34.421  1.00  0.00     0.034 A 
ATOM     48  C   UNL A   1      41.982  27.007  28.770  1.00  0.00     0.034 A 
ATOM     49  C   UNL A   1      41.693  29.974  34.567  1.00  0.00     0.049 A 
ATOM     50  C   UNL A   1      42.826  26.928  30.013  1.00  0.00     0.074 A 
ATOM     51  C   UNL A   1      42.505  29.775  35.670  1.00  0.00     0.029 A 
ATOM     52  N   UNL A   1      42.143  29.112  33.580  1.00  0.00    -0.354 N 
ATOM     53  N   UNL A   1      42.654  27.528  31.166  1.00  0.00    -0.248 NA
ATOM     54  C   UNL A   1      43.996  26.039  29.968  1.00  0.00     0.031 C 
ATOM     55  C   UNL A   1      43.456  28.803  35.343  1.00  0.00     0.029 A 
ATOM     56  C   UNL A   1      43.225  28.383  34.043  1.00  0.00     0.049 A 
ATOM     57  H   UNL A   1      41.750  29.030  32.680  1.00  0.00     0.167 HD
ATOM     58  C   UNL A   1      43.670  27.062  31.994  1.00  0.00     0.074 A 
ATOM     59  C   UNL A   1      44.440  26.114  31.216  1.00  0.00     0.031 C 
ATOM     60  C   UNL A   1      43.947  27.400  33.277  1.00  0.00     0.034 A 
BRANCH  47  61
ATOM     61  C   UNL A   1      40.270  31.804  35.572  1.00  0.00     0.023 A 
ATOM     62  C   UNL A   1      41.056  32.955  35.783  1.00  0.00     0.012 A 
ATOM     63  C   UNL A   1      39.158  31.564  36.404  1.00  0.00     0.148 A 
ATOM     64  C   UNL A   1      40.763  33.834  36.825  1.00  0.00     0.002 A 
ATOM     65  C   UNL A   1      38.847  32.468  37.413  1.00  0.00     0.091 A 
ATOM     66  F   UNL A   1      38.436  30.453  36.202  1.00  0.00    -0.205 F 
ATOM     67  C   UNL A   1      39.655  33.597  37.631  1.00  0.00     0.022 A 
BRANCH  65  68
ATOM     68  S   UNL A   1      37.396  32.293  38.457  1.00  0.00     0.127 S 
ATOM     69  O   UNL A   1      36.406  33.077  37.721  1.00  0.00    -0.237 OA
ATOM     70  O   UNL A   1      37.171  30.846  38.431  1.00  0.00    -0.237 OA
ATOM     71  O   UNL A   1      37.774  32.823  39.760  1.00  0.00    -0.744 OA
ENDBRANCH  65  68
ENDBRANCH  47  61
BRANCH  48  72
ATOM     72  C   UNL A   1      42.316  26.194  27.566  1.00  0.00     0.023 A 
ATOM     73  C   UNL A   1      43.055  26.784  26.521  1.00  0.00     0.012 A 
ATOM     74  C   UNL A   1      41.940  24.841  27.462  1.00  0.00     0.148 A 
ATOM     75  C   UNL A   1      43.384  26.051  25.381  1.00  0.00     0.002 A 
ATOM     76  C   UNL A   1      42.318  24.102  26.347  1.00  0.00     0.091 A 
ATOM     77  F   UNL A   1      41.228  24.301  28.461  1.00  0.00    -0.205 F 
ATOM     78  C   UNL A   1      43.025  24.709  25.298  1.00  0.00     0.022 A 
BRANCH  76  79
ATOM     79  S   UNL A   1      42.013  22.337  26.215  1.00  0.00     0.127 S 
ATOM     80  O   UNL A   1      42.753  21.994  25.003  1.00  0.00    -0.237 OA
ATOM     81  O   UNL A   1      42.599  21.833  27.458  1.00  0.00    -0.237 OA
ATOM     82  O   UNL A   1      40.565  22.194  26.137  1.00  0.00    -0.744 OA
ENDBRANCH  76  79
ENDBRANCH  48  72
BRANCH  60  83
ATOM     83  C   UNL A   1      45.116  26.721  33.942  1.00  0.00     0.023 A 
ATOM     84  C   UNL A   1      46.409  27.264  33.808  1.00  0.00     0.012 A 
ATOM     85  C   UNL A   1      44.920  25.594  34.764  1.00  0.00     0.148 A 
ATOM     86  C   UNL A   1      47.494  26.677  34.458  1.00  0.00     0.002 A 
ATOM     87  C   UNL A   1      45.998  25.043  35.446  1.00  0.00     0.091 A 
ATOM     88  F   UNL A   1      43.684  25.080  34.863  1.00  0.00    -0.205 F 
ATOM     89  C   UNL A   1      47.288  25.576  35.285  1.00  0.00     0.022 A 
BRANCH  87  90
ATOM     90  S   UNL A   1      45.808  23.684  36.607  1.00  0.00     0.127 S 
ATOM     91  O   UNL A   1      45.300  22.622  35.741  1.00  0.00    -0.237 OA
ATOM     92  O   UNL A   1      47.179  23.484  37.079  1.00  0.00    -0.237 OA
ATOM     93  O   UNL A   1      44.883  24.157  37.627  1.00  0.00    -0.744 OA
ENDBRANCH  87  90
ENDBRANCH  60  83
ENDBRANCH  34  35
ENDBRANCH  26  29
ENDBRANCH  24  25
ENDBRANCH   1  24
TORSDOF 16
ENDMDL
MODEL 3
REMARK VINA RESULT:     -11.7      2.462      8.076
REMARK SMILES C[C@@H]([NH2+][C@H]1CCOC2(CCOCC2)C1)C(=O)NCCCCNC(=O)c1ccc(-c2c3nc(c(-c4cccc(S(=O)(=O)[O-])c4F)c4ccc([nH]4)c(-c4cccc(S(=O)(=O)[O-])c4F)c4nc(c(-c5cccc(S(=O)(=O)[O-])c5F)c5ccc2[nH]5)C=C4)C=C3)cc1
REMARK SMILES IDX 20 1 19 2 18 3 17 4 15 5 16 6 2 8 1 9 3 10 4 13 5 14 14 15
REMARK SMILES IDX 6 16 8 17 7 18 9 19 13 20 10 21 12 22 11 23 21 24 22 25
REMARK SMILES IDX 23 26 24 28 25 29 26 30 87 31 27 32 86 33 28 34 29 35 30 36
REMARK SMILES IDX 80 37 31 38 85 39 79 40 81 41 32 42 84 43 78 44 77 45 33 47
REMARK SMILES IDX 65 48 45 49 64 50 46 51 49 52 63 53 82 54 47 55 48 56 62 58
REMARK SMILES IDX 83 59 50 60 34 61 35 62 43 63 36 64 38 65 44 66 37 67 39 68
REMARK SMILES IDX 40 69 41 70 42 71 66 72 67 73 75 74 68 75 70 76 76 77 69 78
REMARK SMILES IDX 71 79 72 80 73 81 74 82 51 83 52 84 60 85 53 86 55 87 61 88
REMARK SMILES IDX 54 89 56 90 57 91 58 92 59 93
REMARK H PARENT 17 7 3 11 3 12 22 27 81 46 49 57
REMARK Flexibility Score: inf
ROOT
ATOM      1  C   UNL A   1      31.578  31.969  26.868  1.00  0.00     0.023 C 
ENDROOT
BRANCH   1   2
ATOM      2  C   UNL A   1      31.782  30.468  26.629  1.00  0.00     0.023 C 
BRANCH   2   3
ATOM      3  C   UNL A   1      33.184  30.096  26.143  1.00  0.00     0.116 C 
BRANCH   3   4
ATOM      4  N   UNL A   1      33.387  28.670  26.266  1.00  0.00    -0.351 N 
ATOM      5  C   UNL A   1      32.997  27.664  25.440  1.00  0.00     0.277 C 
ATOM      6  O   UNL A   1      33.073  26.511  25.878  1.00  0.00    -0.268 OA
ATOM      7  H   UNL A   1      33.883  28.386  27.068  1.00  0.00     0.163 HD
BRANCH   5   8
ATOM      8  C   UNL A   1      32.504  27.917  24.002  1.00  0.00     0.269 C 
ATOM      9  C   UNL A   1      33.619  27.755  22.972  1.00  0.00     0.086 C 
BRANCH   8  10
ATOM     10  N   UNL A   1      31.315  27.106  23.633  1.00  0.00    -0.334 N 
ATOM     11  H   UNL A   1      30.995  26.619  24.470  1.00  0.00     0.347 HD
ATOM     12  H   UNL A   1      31.621  26.482  22.886  1.00  0.00     0.347 HD
BRANCH  10  13
ATOM     13  C   UNL A   1      30.168  27.866  23.081  1.00  0.00     0.188 C 
ATOM     14  C   UNL A   1      28.782  27.386  23.527  1.00  0.00     0.093 C 
ATOM     15  C   UNL A   1      30.320  29.353  23.476  1.00  0.00     0.100 C 
ATOM     16  C   UNL A   1      27.705  28.282  22.949  1.00  0.00     0.167 C 
ATOM     17  C   UNL A   1      29.134  30.227  23.006  1.00  0.00     0.078 C 
ATOM     18  O   UNL A   1      27.889  29.619  23.389  1.00  0.00    -0.374 OA
ATOM     19  C   UNL A   1      29.185  30.513  21.493  1.00  0.00     0.064 C 
ATOM     20  C   UNL A   1      29.158  31.582  23.742  1.00  0.00     0.064 C 
ATOM     21  C   UNL A   1      28.075  31.479  21.089  1.00  0.00     0.163 C 
ATOM     22  C   UNL A   1      28.042  32.488  23.227  1.00  0.00     0.163 C 
ATOM     23  O   UNL A   1      28.182  32.700  21.822  1.00  0.00    -0.381 OA
ENDBRANCH  10  13
ENDBRANCH   8  10
ENDBRANCH   5   8
ENDBRANCH   3   4
ENDBRANCH   2   3
ENDBRANCH   1   2
BRANCH   1  24
ATOM     24  C   UNL A   1      32.818  32.722  27.338  1.00  0.00     0.116 C 
BRANCH  24  25
ATOM     25  N   UNL A   1      32.537  34.115  27.653  1.00  0.00    -0.352 N 
ATOM     26  C   UNL A   1      33.101  34.907  28.623  1.00  0.00     0.251 C 
ATOM     27  H   UNL A   1      31.850  34.547  27.097  1.00  0.00     0.163 HD
ATOM     28  O   UNL A   1      32.635  36.020  28.856  1.00  0.00    -0.269 OA
BRANCH  26  29
ATOM     29  C   UNL A   1      34.251  34.402  29.399  1.00  0.00     0.039 A 
ATOM     30  C   UNL A   1      34.013  33.706  30.587  1.00  0.00     0.014 A 
ATOM     31  C   UNL A   1      35.559  34.602  28.949  1.00  0.00     0.014 A 
ATOM     32  C   UNL A   1      35.086  33.159  31.294  1.00  0.00     0.010 A 
ATOM     33  C   UNL A   1      36.620  33.999  29.618  1.00  0.00     0.010 A 
ATOM     34  C   UNL A   1      36.395  33.274  30.798  1.00  0.00    -0.014 A 
BRANCH  34  35
ATOM     35  C   UNL A   1      37.542  32.633  31.491  1.00  0.00     0.031 A 
ATOM     36  C   UNL A   1      38.265  31.478  30.851  1.00  0.00     0.074 A 
ATOM     37  C   UNL A   1      37.871  33.029  32.736  1.00  0.00     0.049 A 
ATOM     38  N   UNL A   1      39.246  30.757  31.327  1.00  0.00    -0.248 NA
ATOM     39  C   UNL A   1      37.807  31.062  29.515  1.00  0.00     0.031 C 
ATOM     40  C   UNL A   1      37.192  34.081  33.496  1.00  0.00     0.029 A 
ATOM     41  N   UNL A   1      38.842  32.576  33.594  1.00  0.00    -0.354 N 
ATOM     42  C   UNL A   1      39.498  29.781  30.370  1.00  0.00     0.074 A 
ATOM     43  C   UNL A   1      38.546  29.983  29.300  1.00  0.00     0.031 C 
ATOM     44  C   UNL A   1      37.768  34.194  34.703  1.00  0.00     0.029 A 
ATOM     45  C   UNL A   1      38.838  33.207  34.815  1.00  0.00     0.049 A 
ATOM     46  H   UNL A   1      39.481  31.864  33.356  1.00  0.00     0.167 HD
ATOM     47  C   UNL A   1      40.454  28.822  30.367  1.00  0.00     0.034 A 
ATOM     48  C   UNL A   1      39.608  33.011  35.904  1.00  0.00     0.034 A 
ATOM     49  C   UNL A   1      41.431  28.657  31.408  1.00  0.00     0.049 A 
ATOM     50  C   UNL A   1      40.696  31.974  35.853  1.00  0.00     0.074 A 
ATOM     51  C   UNL A   1      42.501  27.780  31.453  1.00  0.00     0.029 A 
ATOM     52  N   UNL A   1      41.458  29.379  32.591  1.00  0.00    -0.354 N 
ATOM     53  N   UNL A   1      41.027  31.173  34.869  1.00  0.00    -0.248 NA
ATOM     54  C   UNL A   1      41.542  31.838  37.049  1.00  0.00     0.031 C 
ATOM     55  C   UNL A   1      43.164  27.961  32.671  1.00  0.00     0.029 A 
ATOM     56  C   UNL A   1      42.519  28.965  33.377  1.00  0.00     0.049 A 
ATOM     57  H   UNL A   1      40.815  30.084  32.837  1.00  0.00     0.167 HD
ATOM     58  C   UNL A   1      42.139  30.465  35.312  1.00  0.00     0.074 A 
ATOM     59  C   UNL A   1      42.438  30.947  36.644  1.00  0.00     0.031 C 
ATOM     60  C   UNL A   1      42.840  29.493  34.677  1.00  0.00     0.034 A 
BRANCH  47  61
ATOM     61  C   UNL A   1      40.529  27.912  29.169  1.00  0.00     0.023 A 
ATOM     62  C   UNL A   1      39.644  26.819  29.071  1.00  0.00     0.012 A 
ATOM     63  C   UNL A   1      41.427  28.170  28.114  1.00  0.00     0.148 A 
ATOM     64  C   UNL A   1      39.674  25.976  27.961  1.00  0.00     0.002 A 
ATOM     65  C   UNL A   1      41.421  27.351  26.990  1.00  0.00     0.091 A 
ATOM     66  F   UNL A   1      42.276  29.201  28.234  1.00  0.00    -0.205 F 
ATOM     67  C   UNL A   1      40.554  26.248  26.918  1.00  0.00     0.022 A 
BRANCH  65  68
ATOM     68  S   UNL A   1      42.463  27.662  25.560  1.00  0.00     0.127 S 
ATOM     69  O   UNL A   1      42.227  26.464  24.757  1.00  0.00    -0.237 OA
ATOM     70  O   UNL A   1      41.878  28.889  25.014  1.00  0.00    -0.237 OA
ATOM     71  O   UNL A   1      43.816  27.816  26.076  1.00  0.00    -0.744 OA
ENDBRANCH  65  68
ENDBRANCH  47  61
BRANCH  48  72
ATOM     72  C   UNL A   1      39.426  33.872  37.107  1.00  0.00     0.023 A 
ATOM     73  C   UNL A   1      39.863  35.211  37.067  1.00  0.00     0.012 A 
ATOM     74  C   UNL A   1      38.800  33.388  38.272  1.00  0.00     0.148 A 
ATOM     75  C   UNL A   1      39.708  36.043  38.176  1.00  0.00     0.002 A 
ATOM     76  C   UNL A   1      38.601  34.239  39.354  1.00  0.00     0.091 A 
ATOM     77  F   UNL A   1      38.403  32.109  38.295  1.00  0.00    -0.205 F 
ATOM     78  C   UNL A   1      39.069  35.561  39.314  1.00  0.00     0.022 A 
BRANCH  76  79
ATOM     79  S   UNL A   1      37.672  33.742  40.809  1.00  0.00     0.127 S 
ATOM     80  O   UNL A   1      37.486  35.018  41.495  1.00  0.00    -0.237 OA
ATOM     81  O   UNL A   1      36.459  33.178  40.216  1.00  0.00    -0.237 OA
ATOM     82  O   UNL A   1      38.510  32.767  41.495  1.00  0.00    -0.744 OA
ENDBRANCH  76  79
ENDBRANCH  48  72
BRANCH  60  83
ATOM     83  C   UNL A   1      44.024  28.901  35.396  1.00  0.00     0.023 A 
ATOM     84  C   UNL A   1      45.297  29.485  35.247  1.00  0.00     0.012 A 
ATOM     85  C   UNL A   1      43.858  27.817  36.281  1.00  0.00     0.148 A 
ATOM     86  C   UNL A   1      46.394  28.980  35.944  1.00  0.00     0.002 A 
ATOM     87  C   UNL A   1      44.947  27.351  37.008  1.00  0.00     0.091 A 
ATOM     88  F   UNL A   1      42.642  27.263  36.395  1.00  0.00    -0.205 F 
ATOM     89  C   UNL A   1      46.217  27.923  36.832  1.00  0.00     0.022 A 
BRANCH  87  90
ATOM     90  S   UNL A   1      44.791  26.056  38.246  1.00  0.00     0.127 S 
ATOM     91  O   UNL A   1      46.186  25.671  38.451  1.00  0.00    -0.237 OA
ATOM     92  O   UNL A   1      44.184  26.771  39.369  1.00  0.00    -0.237 OA
ATOM     93  O   UNL A   1      43.940  25.035  37.650  1.00  0.00    -0.744 OA
ENDBRANCH  87  90
ENDBRANCH  60  83
ENDBRANCH  34  35
ENDBRANCH  26  29
ENDBRANCH  24  25
ENDBRANCH   1  24
TORSDOF 16
ENDMDL
