MODEL 1
REMARK VINA RESULT:     -12.8      0.000      0.000
REMARK SMILES COc1ccc(NC(=O)[C@@H]2[C@@H](C(=O)NCCCCNC(=O)c3ccc(-c4c5nc(c(-c6cccc(S(=O)(=O)[O-])c6F)c6ccc([nH]6)c(-c6cccc(S(=O)(=O)[O-])c6F)c6nc(c(-c7cccc(S(=O)(=O)[O-])c7F)c7ccc4[nH]7)C=C6)C=C5)cc3)[C@@H]3CC[C@H]2C3=C(C)C)cc1
REMARK SMILES IDX 16 1 15 2 14 3 12 4 13 5 11 7 10 8 88 9 85 10 87 11 89 12
REMARK SMILES IDX 86 13 90 14 91 15 92 16 8 17 7 18 9 20 6 21 3 22 4 23 94 24
REMARK SMILES IDX 5 25 93 26 2 27 1 28 17 29 18 30 19 31 20 32 21 34 22 35
REMARK SMILES IDX 23 36 84 37 24 38 83 39 25 40 26 41 27 42 77 43 28 44 82 45
REMARK SMILES IDX 76 46 78 47 29 48 81 49 75 50 74 51 30 53 62 54 42 55 61 56
REMARK SMILES IDX 43 57 46 58 60 59 79 60 44 61 45 62 59 64 80 65 47 66 31 67
REMARK SMILES IDX 32 68 40 69 33 70 35 71 41 72 34 73 36 74 37 75 38 76 39 77
REMARK SMILES IDX 63 78 64 79 72 80 65 81 67 82 73 83 66 84 68 85 69 86 70 87
REMARK SMILES IDX 71 88 48 89 49 90 57 91 50 92 52 93 58 94 51 95 53 96 54 97
REMARK SMILES IDX 55 98 56 99
REMARK H PARENT 14 6 7 19 19 33 78 52 46 63
REMARK Flexibility Score: inf
ROOT
ATOM      1  C   UNL A   1      32.309  30.124  27.076  1.00  0.00     0.023 C 
ENDROOT
BRANCH   1   2
ATOM      2  C   UNL A   1      32.207  29.271  25.814  1.00  0.00     0.116 C 
BRANCH   2   3
ATOM      3  N   UNL A   1      31.371  28.106  25.978  1.00  0.00    -0.356 N 
ATOM      4  C   UNL A   1      31.546  26.795  25.734  1.00  0.00     0.224 C 
ATOM      5  O   UNL A   1      30.711  26.054  26.278  1.00  0.00    -0.275 OA
ATOM      6  H   UNL A   1      30.484  28.315  26.347  1.00  0.00     0.163 HD
BRANCH   4   7
ATOM      7  C   UNL A   1      32.620  26.137  24.867  1.00  0.00     0.098 C 
ATOM      8  C   UNL A   1      32.364  25.240  23.612  1.00  0.00     0.099 C 
ATOM      9  C   UNL A   1      33.189  23.996  23.936  1.00  0.00     0.028 C 
ATOM     10  C   UNL A   1      33.400  25.185  25.842  1.00  0.00     0.028 C 
ATOM     11  C   UNL A   1      34.702  24.262  24.088  1.00  0.00     0.009 C 
ATOM     12  C   UNL A   1      32.890  23.845  25.399  1.00  0.00    -0.064 C 
ATOM     13  C   UNL A   1      34.844  25.062  25.382  1.00  0.00     0.009 C 
ATOM     14  C   UNL A   1      32.421  22.780  26.067  1.00  0.00    -0.077 C 
ATOM     15  C   UNL A   1      32.486  22.663  27.564  1.00  0.00     0.039 C 
ATOM     16  C   UNL A   1      31.861  21.580  25.351  1.00  0.00     0.039 C 
BRANCH   8  17
ATOM     17  C   UNL A   1      32.558  26.033  22.306  1.00  0.00     0.228 C 
ATOM     18  N   UNL A   1      31.897  27.140  21.868  1.00  0.00    -0.326 N 
ATOM     19  H   UNL A   1      32.233  27.473  21.004  1.00  0.00     0.169 HD
ATOM     20  O   UNL A   1      33.406  25.606  21.503  1.00  0.00    -0.274 OA
BRANCH  18  21
ATOM     21  C   UNL A   1      30.843  27.905  22.377  1.00  0.00     0.041 A 
ATOM     22  C   UNL A   1      28.587  29.513  22.741  1.00  0.00     0.119 A 
ATOM     23  C   UNL A   1      28.567  28.172  23.128  1.00  0.00     0.048 A 
ATOM     24  C   UNL A   1      29.793  30.092  22.353  1.00  0.00     0.048 A 
ATOM     25  C   UNL A   1      29.703  27.370  22.964  1.00  0.00     0.030 A 
ATOM     26  C   UNL A   1      30.928  29.291  22.194  1.00  0.00     0.030 A 
BRANCH  22  27
ATOM     27  O   UNL A   1      27.388  30.171  22.771  1.00  0.00    -0.497 OA
ATOM     28  C   UNL A   1      27.234  31.085  23.857  1.00  0.00     0.278 C 
ENDBRANCH  22  27
ENDBRANCH  18  21
ENDBRANCH   8  17
ENDBRANCH   4   7
ENDBRANCH   2   3
ENDBRANCH   1   2
BRANCH   1  29
ATOM     29  C   UNL A   1      31.937  31.601  26.915  1.00  0.00     0.023 C 
BRANCH  29  30
ATOM     30  C   UNL A   1      33.071  32.607  27.073  1.00  0.00     0.116 C 
BRANCH  30  31
ATOM     31  N   UNL A   1      32.630  33.908  27.552  1.00  0.00    -0.352 N 
ATOM     32  C   UNL A   1      33.106  34.648  28.609  1.00  0.00     0.251 C 
ATOM     33  H   UNL A   1      31.887  34.315  27.050  1.00  0.00     0.163 HD
ATOM     34  O   UNL A   1      32.542  35.692  28.926  1.00  0.00    -0.269 OA
BRANCH  32  35
ATOM     35  C   UNL A   1      34.274  34.172  29.384  1.00  0.00     0.039 A 
ATOM     36  C   UNL A   1      34.054  33.351  30.494  1.00  0.00     0.014 A 
ATOM     37  C   UNL A   1      35.576  34.518  29.016  1.00  0.00     0.014 A 
ATOM     38  C   UNL A   1      35.143  32.823  31.194  1.00  0.00     0.010 A 
ATOM     39  C   UNL A   1      36.659  33.937  29.672  1.00  0.00     0.010 A 
ATOM     40  C   UNL A   1      36.455  33.084  30.767  1.00  0.00    -0.014 A 
BRANCH  40  41
ATOM     41  C   UNL A   1      37.624  32.454  31.437  1.00  0.00     0.031 A 
ATOM     42  C   UNL A   1      38.353  31.312  30.786  1.00  0.00     0.074 A 
ATOM     43  C   UNL A   1      37.969  32.850  32.679  1.00  0.00     0.049 A 
ATOM     44  N   UNL A   1      39.355  30.606  31.242  1.00  0.00    -0.248 NA
ATOM     45  C   UNL A   1      37.876  30.885  29.460  1.00  0.00     0.031 C 
ATOM     46  C   UNL A   1      37.284  33.884  33.458  1.00  0.00     0.029 A 
ATOM     47  N   UNL A   1      38.959  32.405  33.520  1.00  0.00    -0.354 N 
ATOM     48  C   UNL A   1      39.603  29.630  30.284  1.00  0.00     0.074 A 
ATOM     49  C   UNL A   1      38.626  29.817  29.232  1.00  0.00     0.031 C 
ATOM     50  C   UNL A   1      37.872  33.992  34.661  1.00  0.00     0.029 A 
ATOM     51  C   UNL A   1      38.956  33.018  34.752  1.00  0.00     0.049 A 
ATOM     52  H   UNL A   1      39.612  31.712  33.265  1.00  0.00     0.167 HD
ATOM     53  C   UNL A   1      40.570  28.683  30.265  1.00  0.00     0.034 A 
ATOM     54  C   UNL A   1      39.727  32.813  35.837  1.00  0.00     0.034 A 
ATOM     55  C   UNL A   1      41.567  28.528  31.291  1.00  0.00     0.049 A 
ATOM     56  C   UNL A   1      40.831  31.792  35.770  1.00  0.00     0.074 A 
ATOM     57  C   UNL A   1      42.653  27.671  31.313  1.00  0.00     0.029 A 
ATOM     58  N   UNL A   1      41.594  29.237  32.482  1.00  0.00    -0.354 N 
ATOM     59  N   UNL A   1      41.163  31.002  34.779  1.00  0.00    -0.248 NA
ATOM     60  C   UNL A   1      41.691  31.662  36.955  1.00  0.00     0.031 C 
ATOM     61  C   UNL A   1      43.321  27.842  32.530  1.00  0.00     0.029 A 
ATOM     62  C   UNL A   1      42.668  28.828  33.253  1.00  0.00     0.049 A 
ATOM     63  H   UNL A   1      40.944  29.930  32.741  1.00  0.00     0.167 HD
ATOM     64  C   UNL A   1      42.287  30.305  35.205  1.00  0.00     0.074 A 
ATOM     65  C   UNL A   1      42.594  30.784  36.538  1.00  0.00     0.031 C 
ATOM     66  C   UNL A   1      42.994  29.345  34.557  1.00  0.00     0.034 A 
BRANCH  53  67
ATOM     67  C   UNL A   1      40.629  27.764  29.072  1.00  0.00     0.023 A 
ATOM     68  C   UNL A   1      39.728  26.682  28.982  1.00  0.00     0.012 A 
ATOM     69  C   UNL A   1      41.531  28.002  28.016  1.00  0.00     0.148 A 
ATOM     70  C   UNL A   1      39.751  25.828  27.879  1.00  0.00     0.002 A 
ATOM     71  C   UNL A   1      41.515  27.174  26.899  1.00  0.00     0.091 A 
ATOM     72  F   UNL A   1      42.392  29.021  28.128  1.00  0.00    -0.205 F 
ATOM     73  C   UNL A   1      40.635  26.080  26.835  1.00  0.00     0.022 A 
BRANCH  71  74
ATOM     74  S   UNL A   1      42.558  27.463  25.465  1.00  0.00     0.127 S 
ATOM     75  O   UNL A   1      41.959  28.672  24.904  1.00  0.00    -0.237 OA
ATOM     76  O   UNL A   1      43.873  27.662  26.076  1.00  0.00    -0.237 OA
ATOM     77  O   UNL A   1      42.447  26.268  24.642  1.00  0.00    -0.744 OA
ENDBRANCH  71  74
ENDBRANCH  53  67
BRANCH  54  78
ATOM     78  C   UNL A   1      39.520  33.639  37.060  1.00  0.00     0.023 A 
ATOM     79  C   UNL A   1      40.004  34.960  37.096  1.00  0.00     0.012 A 
ATOM     80  C   UNL A   1      38.815  33.136  38.172  1.00  0.00     0.148 A 
ATOM     81  C   UNL A   1      39.818  35.757  38.226  1.00  0.00     0.002 A 
ATOM     82  C   UNL A   1      38.584  33.953  39.272  1.00  0.00     0.091 A 
ATOM     83  F   UNL A   1      38.371  31.872  38.123  1.00  0.00    -0.205 F 
ATOM     84  C   UNL A   1      39.099  35.258  39.308  1.00  0.00     0.022 A 
BRANCH  82  85
ATOM     85  S   UNL A   1      37.555  33.442  40.653  1.00  0.00     0.127 S 
ATOM     86  O   UNL A   1      38.340  32.351  41.224  1.00  0.00    -0.237 OA
ATOM     87  O   UNL A   1      37.512  34.660  41.464  1.00  0.00    -0.237 OA
ATOM     88  O   UNL A   1      36.274  33.065  40.071  1.00  0.00    -0.744 OA
ENDBRANCH  82  85
ENDBRANCH  54  78
BRANCH  66  89
ATOM     89  C   UNL A   1      44.193  28.764  35.260  1.00  0.00     0.023 A 
ATOM     90  C   UNL A   1      45.467  29.332  35.062  1.00  0.00     0.012 A 
ATOM     91  C   UNL A   1      44.043  27.705  36.177  1.00  0.00     0.148 A 
ATOM     92  C   UNL A   1      46.578  28.834  35.741  1.00  0.00     0.002 A 
ATOM     93  C   UNL A   1      45.147  27.247  36.889  1.00  0.00     0.091 A 
ATOM     94  F   UNL A   1      42.826  27.166  36.339  1.00  0.00    -0.205 F 
ATOM     95  C   UNL A   1      46.417  27.801  36.663  1.00  0.00     0.022 A 
BRANCH  93  96
ATOM     96  S   UNL A   1      45.016  25.990  38.165  1.00  0.00     0.127 S 
ATOM     97  O   UNL A   1      46.313  26.104  38.831  1.00  0.00    -0.237 OA
ATOM     98  O   UNL A   1      43.881  26.466  38.955  1.00  0.00    -0.237 OA
ATOM     99  O   UNL A   1      44.780  24.733  37.467  1.00  0.00    -0.744 OA
ENDBRANCH  93  96
ENDBRANCH  66  89
ENDBRANCH  40  41
ENDBRANCH  32  35
ENDBRANCH  30  31
ENDBRANCH  29  30
ENDBRANCH   1  29
TORSDOF 17
ENDMDL
MODEL 2
REMARK VINA RESULT:     -12.7      5.803     11.759
REMARK SMILES COc1ccc(NC(=O)[C@@H]2[C@@H](C(=O)NCCCCNC(=O)c3ccc(-c4c5nc(c(-c6cccc(S(=O)(=O)[O-])c6F)c6ccc([nH]6)c(-c6cccc(S(=O)(=O)[O-])c6F)c6nc(c(-c7cccc(S(=O)(=O)[O-])c7F)c7ccc4[nH]7)C=C6)C=C5)cc3)[C@@H]3CC[C@H]2C3=C(C)C)cc1
REMARK SMILES IDX 16 1 15 2 14 3 12 4 13 5 11 7 10 8 88 9 85 10 87 11 89 12
REMARK SMILES IDX 86 13 90 14 91 15 92 16 8 17 7 18 9 20 6 21 3 22 4 23 94 24
REMARK SMILES IDX 5 25 93 26 2 27 1 28 17 29 18 30 19 31 20 32 21 34 22 35
REMARK SMILES IDX 23 36 84 37 24 38 83 39 25 40 26 41 27 42 77 43 28 44 82 45
REMARK SMILES IDX 76 46 78 47 29 48 81 49 75 50 74 51 30 53 62 54 42 55 61 56
REMARK SMILES IDX 43 57 46 58 60 59 79 60 44 61 45 62 59 64 80 65 47 66 31 67
REMARK SMILES IDX 32 68 40 69 33 70 35 71 41 72 34 73 36 74 37 75 38 76 39 77
REMARK SMILES IDX 63 78 64 79 72 80 65 81 67 82 73 83 66 84 68 85 69 86 70 87
REMARK SMILES IDX 71 88 48 89 49 90 57 91 50 92 52 93 58 94 51 95 53 96 54 97
REMARK SMILES IDX 55 98 56 99
REMARK H PARENT 14 6 7 19 19 33 78 52 46 63
REMARK Flexibility Score: inf
ROOT
ATOM      1  C   UNL A   1      37.552  22.115  24.760  1.00  0.00     0.023 C 
ENDROOT
BRANCH   1   2
ATOM      2  C   UNL A   1      36.057  22.279  25.022  1.00  0.00     0.116 C 
BRANCH   2   3
ATOM      3  N   UNL A   1      35.339  22.838  23.903  1.00  0.00    -0.356 N 
ATOM      4  C   UNL A   1      34.453  23.843  23.775  1.00  0.00     0.224 C 
ATOM      5  O   UNL A   1      34.274  24.225  22.607  1.00  0.00    -0.275 OA
ATOM      6  H   UNL A   1      35.539  22.389  23.051  1.00  0.00     0.163 HD
BRANCH   4   7
ATOM      7  C   UNL A   1      33.651  24.532  24.878  1.00  0.00     0.098 C 
ATOM      8  C   UNL A   1      32.101  24.452  25.074  1.00  0.00     0.099 C 
ATOM      9  C   UNL A   1      31.714  25.926  25.161  1.00  0.00     0.028 C 
ATOM     10  C   UNL A   1      33.912  26.067  24.671  1.00  0.00     0.028 C 
ATOM     11  C   UNL A   1      32.351  26.680  26.348  1.00  0.00     0.009 C 
ATOM     12  C   UNL A   1      32.597  26.503  24.093  1.00  0.00    -0.064 C 
ATOM     13  C   UNL A   1      33.838  26.779  26.012  1.00  0.00     0.009 C 
ATOM     14  C   UNL A   1      32.271  27.261  23.035  1.00  0.00    -0.077 C 
ATOM     15  C   UNL A   1      33.286  28.038  22.246  1.00  0.00     0.039 C 
ATOM     16  C   UNL A   1      30.841  27.452  22.609  1.00  0.00     0.039 C 
BRANCH   8  17
ATOM     17  C   UNL A   1      31.727  23.442  26.175  1.00  0.00     0.228 C 
ATOM     18  N   UNL A   1      31.885  22.089  26.188  1.00  0.00    -0.326 N 
ATOM     19  H   UNL A   1      31.586  21.674  27.030  1.00  0.00     0.169 HD
ATOM     20  O   UNL A   1      31.165  23.890  27.190  1.00  0.00    -0.274 OA
BRANCH  18  21
ATOM     21  C   UNL A   1      32.380  21.161  25.267  1.00  0.00     0.041 A 
ATOM     22  C   UNL A   1      32.934  18.892  23.733  1.00  0.00     0.119 A 
ATOM     23  C   UNL A   1      32.294  19.992  23.159  1.00  0.00     0.048 A 
ATOM     24  C   UNL A   1      33.464  19.006  25.016  1.00  0.00     0.048 A 
ATOM     25  C   UNL A   1      32.032  21.137  23.922  1.00  0.00     0.030 A 
ATOM     26  C   UNL A   1      33.208  20.152  25.774  1.00  0.00     0.030 A 
BRANCH  22  27
ATOM     27  O   UNL A   1      32.987  17.757  22.972  1.00  0.00    -0.497 OA
ATOM     28  C   UNL A   1      33.476  16.601  23.654  1.00  0.00     0.278 C 
ENDBRANCH  22  27
ENDBRANCH  18  21
ENDBRANCH   8  17
ENDBRANCH   4   7
ENDBRANCH   2   3
ENDBRANCH   1   2
BRANCH   1  29
ATOM     29  C   UNL A   1      38.126  20.720  25.022  1.00  0.00     0.023 C 
BRANCH  29  30
ATOM     30  C   UNL A   1      39.095  20.595  26.193  1.00  0.00     0.116 C 
BRANCH  30  31
ATOM     31  N   UNL A   1      40.072  19.530  26.026  1.00  0.00    -0.352 N 
ATOM     32  C   UNL A   1      41.445  19.603  26.058  1.00  0.00     0.251 C 
ATOM     33  H   UNL A   1      39.699  18.633  25.868  1.00  0.00     0.163 HD
ATOM     34  O   UNL A   1      42.115  18.605  25.800  1.00  0.00    -0.269 OA
BRANCH  32  35
ATOM     35  C   UNL A   1      42.115  20.885  26.368  1.00  0.00     0.039 A 
ATOM     36  C   UNL A   1      42.411  21.760  25.320  1.00  0.00     0.014 A 
ATOM     37  C   UNL A   1      42.440  21.232  27.682  1.00  0.00     0.014 A 
ATOM     38  C   UNL A   1      42.971  23.011  25.595  1.00  0.00     0.010 A 
ATOM     39  C   UNL A   1      42.933  22.505  27.961  1.00  0.00     0.010 A 
ATOM     40  C   UNL A   1      43.204  23.408  26.922  1.00  0.00    -0.014 A 
BRANCH  40  41
ATOM     41  C   UNL A   1      43.706  24.770  27.242  1.00  0.00     0.031 A 
ATOM     42  C   UNL A   1      42.772  25.824  27.770  1.00  0.00     0.074 A 
ATOM     43  C   UNL A   1      44.987  25.087  26.967  1.00  0.00     0.049 A 
ATOM     44  N   UNL A   1      43.017  27.077  28.053  1.00  0.00    -0.248 NA
ATOM     45  C   UNL A   1      41.369  25.428  27.979  1.00  0.00     0.031 C 
ATOM     46  C   UNL A   1      45.971  24.183  26.368  1.00  0.00     0.029 A 
ATOM     47  N   UNL A   1      45.673  26.267  27.120  1.00  0.00    -0.354 N 
ATOM     48  C   UNL A   1      41.799  27.628  28.434  1.00  0.00     0.074 A 
ATOM     49  C   UNL A   1      40.809  26.580  28.318  1.00  0.00     0.031 C 
ATOM     50  C   UNL A   1      47.130  24.841  26.202  1.00  0.00     0.029 A 
ATOM     51  C   UNL A   1      46.967  26.218  26.656  1.00  0.00     0.049 A 
ATOM     52  H   UNL A   1      45.276  27.072  27.526  1.00  0.00     0.167 HD
ATOM     53  C   UNL A   1      41.532  28.883  28.867  1.00  0.00     0.034 A 
ATOM     54  C   UNL A   1      47.913  27.176  26.590  1.00  0.00     0.034 A 
ATOM     55  C   UNL A   1      42.527  29.910  29.023  1.00  0.00     0.049 A 
ATOM     56  C   UNL A   1      47.607  28.547  27.129  1.00  0.00     0.074 A 
ATOM     57  C   UNL A   1      42.377  31.179  29.556  1.00  0.00     0.029 A 
ATOM     58  N   UNL A   1      43.853  29.795  28.637  1.00  0.00    -0.354 N 
ATOM     59  N   UNL A   1      46.494  28.996  27.655  1.00  0.00    -0.248 NA
ATOM     60  C   UNL A   1      48.698  29.532  27.102  1.00  0.00     0.031 C 
ATOM     61  C   UNL A   1      43.607  31.839  29.465  1.00  0.00     0.029 A 
ATOM     62  C   UNL A   1      44.530  30.971  28.904  1.00  0.00     0.049 A 
ATOM     63  H   UNL A   1      44.254  28.992  28.231  1.00  0.00     0.167 HD
ATOM     64  C   UNL A   1      46.758  30.302  28.051  1.00  0.00     0.074 A 
ATOM     65  C   UNL A   1      48.145  30.564  27.725  1.00  0.00     0.031 C 
ATOM     66  C   UNL A   1      45.923  31.206  28.622  1.00  0.00     0.034 A 
BRANCH  53  67
ATOM     67  C   UNL A   1      40.110  29.206  29.249  1.00  0.00     0.023 A 
ATOM     68  C   UNL A   1      39.168  29.502  28.242  1.00  0.00     0.012 A 
ATOM     69  C   UNL A   1      39.692  29.159  30.593  1.00  0.00     0.148 A 
ATOM     70  C   UNL A   1      37.843  29.786  28.569  1.00  0.00     0.002 A 
ATOM     71  C   UNL A   1      38.358  29.397  30.907  1.00  0.00     0.091 A 
ATOM     72  F   UNL A   1      40.604  28.896  31.539  1.00  0.00    -0.205 F 
ATOM     73  C   UNL A   1      37.436  29.723  29.898  1.00  0.00     0.022 A 
BRANCH  71  74
ATOM     74  S   UNL A   1      37.717  29.259  32.580  1.00  0.00     0.127 S 
ATOM     75  O   UNL A   1      36.360  29.778  32.419  1.00  0.00    -0.237 OA
ATOM     76  O   UNL A   1      37.794  27.818  32.821  1.00  0.00    -0.237 OA
ATOM     77  O   UNL A   1      38.601  30.061  33.414  1.00  0.00    -0.744 OA
ENDBRANCH  71  74
ENDBRANCH  53  67
BRANCH  54  78
ATOM     78  C   UNL A   1      49.261  26.849  26.046  1.00  0.00     0.023 A 
ATOM     79  C   UNL A   1      50.157  26.087  26.820  1.00  0.00     0.012 A 
ATOM     80  C   UNL A   1      49.647  27.256  24.753  1.00  0.00     0.148 A 
ATOM     81  C   UNL A   1      51.423  25.762  26.332  1.00  0.00     0.002 A 
ATOM     82  C   UNL A   1      50.887  26.880  24.250  1.00  0.00     0.091 A 
ATOM     83  F   UNL A   1      48.785  27.989  24.035  1.00  0.00    -0.205 F 
ATOM     84  C   UNL A   1      51.783  26.149  25.045  1.00  0.00     0.022 A 
BRANCH  82  85
ATOM     85  S   UNL A   1      51.383  27.217  22.557  1.00  0.00     0.127 S 
ATOM     86  O   UNL A   1      51.478  28.674  22.556  1.00  0.00    -0.237 OA
ATOM     87  O   UNL A   1      52.665  26.516  22.473  1.00  0.00    -0.237 OA
ATOM     88  O   UNL A   1      50.335  26.650  21.719  1.00  0.00    -0.744 OA
ENDBRANCH  82  85
ENDBRANCH  54  78
BRANCH  66  89
ATOM     89  C   UNL A   1      46.487  32.561  28.965  1.00  0.00     0.023 A 
ATOM     90  C   UNL A   1      47.168  32.750  30.183  1.00  0.00     0.012 A 
ATOM     91  C   UNL A   1      46.409  33.624  28.043  1.00  0.00     0.148 A 
ATOM     92  C   UNL A   1      47.736  33.985  30.493  1.00  0.00     0.002 A 
ATOM     93  C   UNL A   1      47.020  34.838  28.337  1.00  0.00     0.091 A 
ATOM     94  F   UNL A   1      45.741  33.430  26.897  1.00  0.00    -0.205 F 
ATOM     95  C   UNL A   1      47.673  35.024  29.567  1.00  0.00     0.022 A 
BRANCH  93  96
ATOM     96  S   UNL A   1      47.075  36.198  27.165  1.00  0.00     0.127 S 
ATOM     97  O   UNL A   1      47.725  35.572  26.013  1.00  0.00    -0.237 OA
ATOM     98  O   UNL A   1      45.658  36.502  26.975  1.00  0.00    -0.237 OA
ATOM     99  O   UNL A   1      47.838  37.256  27.814  1.00  0.00    -0.744 OA
ENDBRANCH  93  96
ENDBRANCH  66  89
ENDBRANCH  40  41
ENDBRANCH  32  35
ENDBRANCH  30  31
ENDBRANCH  29  30
ENDBRANCH   1  29
TORSDOF 17
ENDMDL
MODEL 3
REMARK VINA RESULT:     -12.5      5.395      8.366
REMARK SMILES COc1ccc(NC(=O)[C@@H]2[C@@H](C(=O)NCCCCNC(=O)c3ccc(-c4c5nc(c(-c6cccc(S(=O)(=O)[O-])c6F)c6ccc([nH]6)c(-c6cccc(S(=O)(=O)[O-])c6F)c6nc(c(-c7cccc(S(=O)(=O)[O-])c7F)c7ccc4[nH]7)C=C6)C=C5)cc3)[C@@H]3CC[C@H]2C3=C(C)C)cc1
REMARK SMILES IDX 16 1 15 2 14 3 12 4 13 5 11 7 10 8 88 9 85 10 87 11 89 12
REMARK SMILES IDX 86 13 90 14 91 15 92 16 8 17 7 18 9 20 6 21 3 22 4 23 94 24
REMARK SMILES IDX 5 25 93 26 2 27 1 28 17 29 18 30 19 31 20 32 21 34 22 35
REMARK SMILES IDX 23 36 84 37 24 38 83 39 25 40 26 41 27 42 77 43 28 44 82 45
REMARK SMILES IDX 76 46 78 47 29 48 81 49 75 50 74 51 30 53 62 54 42 55 61 56
REMARK SMILES IDX 43 57 46 58 60 59 79 60 44 61 45 62 59 64 80 65 47 66 31 67
REMARK SMILES IDX 32 68 40 69 33 70 35 71 41 72 34 73 36 74 37 75 38 76 39 77
REMARK SMILES IDX 63 78 64 79 72 80 65 81 67 82 73 83 66 84 68 85 69 86 70 87
REMARK SMILES IDX 71 88 48 89 49 90 57 91 50 92 52 93 58 94 51 95 53 96 54 97
REMARK SMILES IDX 55 98 56 99
REMARK H PARENT 14 6 7 19 19 33 78 52 46 63
REMARK Flexibility Score: inf
ROOT
ATOM      1  C   UNL A   1      35.911  22.884  23.470  1.00  0.00     0.023 C 
ENDROOT
BRANCH   1   2
ATOM      2  C   UNL A   1      34.800  23.805  23.968  1.00  0.00     0.116 C 
BRANCH   2   3
ATOM      3  N   UNL A   1      34.218  24.614  22.924  1.00  0.00    -0.356 N 
ATOM      4  C   UNL A   1      33.499  25.751  22.921  1.00  0.00     0.224 C 
ATOM      5  O   UNL A   1      33.426  26.311  21.815  1.00  0.00    -0.275 OA
ATOM      6  H   UNL A   1      34.383  24.259  22.022  1.00  0.00     0.163 HD
BRANCH   4   7
ATOM      7  C   UNL A   1      32.764  26.399  24.094  1.00  0.00     0.098 C 
ATOM      8  C   UNL A   1      33.344  26.624  25.529  1.00  0.00     0.099 C 
ATOM      9  C   UNL A   1      32.263  26.001  26.410  1.00  0.00     0.028 C 
ATOM     10  C   UNL A   1      31.514  25.483  24.346  1.00  0.00     0.028 C 
ATOM     11  C   UNL A   1      30.881  26.680  26.293  1.00  0.00     0.009 C 
ATOM     12  C   UNL A   1      31.927  24.779  25.605  1.00  0.00    -0.064 C 
ATOM     13  C   UNL A   1      30.373  26.323  24.897  1.00  0.00     0.009 C 
ATOM     14  C   UNL A   1      31.908  23.491  25.980  1.00  0.00    -0.077 C 
ATOM     15  C   UNL A   1      31.235  22.417  25.172  1.00  0.00     0.039 C 
ATOM     16  C   UNL A   1      32.497  23.039  27.288  1.00  0.00     0.039 C 
BRANCH   8  17
ATOM     17  C   UNL A   1      33.818  28.076  25.722  1.00  0.00     0.228 C 
ATOM     18  N   UNL A   1      33.307  29.223  25.194  1.00  0.00    -0.326 N 
ATOM     19  H   UNL A   1      33.781  30.032  25.497  1.00  0.00     0.169 HD
ATOM     20  O   UNL A   1      34.830  28.255  26.422  1.00  0.00    -0.274 OA
BRANCH  18  21
ATOM     21  C   UNL A   1      32.256  29.502  24.314  1.00  0.00     0.041 A 
ATOM     22  C   UNL A   1      30.132  29.386  22.503  1.00  0.00     0.119 A 
ATOM     23  C   UNL A   1      29.918  29.817  23.813  1.00  0.00     0.048 A 
ATOM     24  C   UNL A   1      31.437  29.199  22.051  1.00  0.00     0.048 A 
ATOM     25  C   UNL A   1      30.986  29.893  24.717  1.00  0.00     0.030 A 
ATOM     26  C   UNL A   1      32.502  29.281  22.953  1.00  0.00     0.030 A 
BRANCH  22  27
ATOM     27  O   UNL A   1      29.013  29.172  21.746  1.00  0.00    -0.497 OA
ATOM     28  C   UNL A   1      28.150  30.303  21.620  1.00  0.00     0.278 C 
ENDBRANCH  22  27
ENDBRANCH  18  21
ENDBRANCH   8  17
ENDBRANCH   4   7
ENDBRANCH   2   3
ENDBRANCH   1   2
BRANCH   1  29
ATOM     29  C   UNL A   1      36.136  21.609  24.288  1.00  0.00     0.023 C 
BRANCH  29  30
ATOM     30  C   UNL A   1      36.919  21.766  25.588  1.00  0.00     0.116 C 
BRANCH  30  31
ATOM     31  N   UNL A   1      37.982  20.786  25.746  1.00  0.00    -0.352 N 
ATOM     32  C   UNL A   1      39.279  20.976  26.162  1.00  0.00     0.251 C 
ATOM     33  H   UNL A   1      37.739  19.858  25.526  1.00  0.00     0.163 HD
ATOM     34  O   UNL A   1      40.070  20.035  26.144  1.00  0.00    -0.269 OA
BRANCH  32  35
ATOM     35  C   UNL A   1      39.732  22.316  26.597  1.00  0.00     0.039 A 
ATOM     36  C   UNL A   1      40.809  22.407  27.483  1.00  0.00     0.014 A 
ATOM     37  C   UNL A   1      39.113  23.477  26.127  1.00  0.00     0.014 A 
ATOM     38  C   UNL A   1      41.307  23.661  27.846  1.00  0.00     0.010 A 
ATOM     39  C   UNL A   1      39.653  24.723  26.434  1.00  0.00     0.010 A 
ATOM     40  C   UNL A   1      40.756  24.830  27.296  1.00  0.00    -0.014 A 
BRANCH  40  41
ATOM     41  C   UNL A   1      41.333  26.168  27.591  1.00  0.00     0.031 A 
ATOM     42  C   UNL A   1      42.735  26.506  27.165  1.00  0.00     0.074 A 
ATOM     43  C   UNL A   1      40.626  27.048  28.329  1.00  0.00     0.049 A 
ATOM     44  N   UNL A   1      43.422  27.598  27.380  1.00  0.00    -0.248 NA
ATOM     45  C   UNL A   1      43.474  25.471  26.424  1.00  0.00     0.031 C 
ATOM     46  C   UNL A   1      39.291  26.806  28.882  1.00  0.00     0.029 A 
ATOM     47  N   UNL A   1      40.945  28.308  28.773  1.00  0.00    -0.354 N 
ATOM     48  C   UNL A   1      44.683  27.368  26.841  1.00  0.00     0.074 A 
ATOM     49  C   UNL A   1      44.674  26.021  26.312  1.00  0.00     0.031 C 
ATOM     50  C   UNL A   1      38.908  27.880  29.592  1.00  0.00     0.029 A 
ATOM     51  C   UNL A   1      39.977  28.874  29.569  1.00  0.00     0.049 A 
ATOM     52  H   UNL A   1      41.787  28.763  28.542  1.00  0.00     0.167 HD
ATOM     53  C   UNL A   1      45.741  28.210  26.766  1.00  0.00     0.034 A 
ATOM     54  C   UNL A   1      39.954  30.054  30.220  1.00  0.00     0.034 A 
ATOM     55  C   UNL A   1      45.731  29.563  27.253  1.00  0.00     0.049 A 
ATOM     56  C   UNL A   1      41.121  30.993  30.074  1.00  0.00     0.074 A 
ATOM     57  C   UNL A   1      46.715  30.529  27.129  1.00  0.00     0.029 A 
ATOM     58  N   UNL A   1      44.693  30.140  27.968  1.00  0.00    -0.354 N 
ATOM     59  N   UNL A   1      42.235  30.826  29.404  1.00  0.00    -0.248 NA
ATOM     60  C   UNL A   1      41.013  32.299  30.742  1.00  0.00     0.031 C 
ATOM     61  C   UNL A   1      46.281  31.681  27.794  1.00  0.00     0.029 A 
ATOM     62  C   UNL A   1      45.015  31.443  28.305  1.00  0.00     0.049 A 
ATOM     63  H   UNL A   1      43.850  29.688  28.202  1.00  0.00     0.167 HD
ATOM     64  C   UNL A   1      42.945  32.013  29.540  1.00  0.00     0.074 A 
ATOM     65  C   UNL A   1      42.124  32.901  30.339  1.00  0.00     0.031 C 
ATOM     66  C   UNL A   1      44.172  32.335  29.058  1.00  0.00     0.034 A 
BRANCH  53  67
ATOM     67  C   UNL A   1      46.991  27.706  26.091  1.00  0.00     0.023 A 
ATOM     68  C   UNL A   1      47.940  26.977  26.837  1.00  0.00     0.012 A 
ATOM     69  C   UNL A   1      47.200  27.901  24.712  1.00  0.00     0.148 A 
ATOM     70  C   UNL A   1      49.096  26.485  26.231  1.00  0.00     0.002 A 
ATOM     71  C   UNL A   1      48.331  27.367  24.105  1.00  0.00     0.091 A 
ATOM     72  F   UNL A   1      46.298  28.613  24.023  1.00  0.00    -0.205 F 
ATOM     73  C   UNL A   1      49.286  26.670  24.865  1.00  0.00     0.022 A 
BRANCH  71  74
ATOM     74  S   UNL A   1      48.626  27.480  22.336  1.00  0.00     0.127 S 
ATOM     75  O   UNL A   1      49.886  28.220  22.294  1.00  0.00    -0.237 OA
ATOM     76  O   UNL A   1      48.733  26.072  21.951  1.00  0.00    -0.237 OA
ATOM     77  O   UNL A   1      47.473  28.174  21.782  1.00  0.00    -0.744 OA
ENDBRANCH  71  74
ENDBRANCH  53  67
BRANCH  54  78
ATOM     78  C   UNL A   1      38.755  30.439  31.017  1.00  0.00     0.023 A 
ATOM     79  C   UNL A   1      38.708  30.135  32.390  1.00  0.00     0.012 A 
ATOM     80  C   UNL A   1      37.680  31.137  30.431  1.00  0.00     0.148 A 
ATOM     81  C   UNL A   1      37.600  30.489  33.161  1.00  0.00     0.002 A 
ATOM     82  C   UNL A   1      36.606  31.538  31.215  1.00  0.00     0.091 A 
ATOM     83  F   UNL A   1      37.740  31.409  29.119  1.00  0.00    -0.205 F 
ATOM     84  C   UNL A   1      36.555  31.200  32.577  1.00  0.00     0.022 A 
BRANCH  82  85
ATOM     85  S   UNL A   1      35.281  32.571  30.580  1.00  0.00     0.127 S 
ATOM     86  O   UNL A   1      34.358  32.606  31.711  1.00  0.00    -0.237 OA
ATOM     87  O   UNL A   1      35.981  33.830  30.317  1.00  0.00    -0.237 OA
ATOM     88  O   UNL A   1      34.794  31.897  29.385  1.00  0.00    -0.744 OA
ENDBRANCH  82  85
ENDBRANCH  54  78
BRANCH  66  89
ATOM     89  C   UNL A   1      44.699  33.716  29.350  1.00  0.00     0.023 A 
ATOM     90  C   UNL A   1      45.502  33.936  30.486  1.00  0.00     0.012 A 
ATOM     91  C   UNL A   1      44.461  34.778  28.454  1.00  0.00     0.148 A 
ATOM     92  C   UNL A   1      46.035  35.199  30.743  1.00  0.00     0.002 A 
ATOM     93  C   UNL A   1      45.037  36.021  28.690  1.00  0.00     0.091 A 
ATOM     94  F   UNL A   1      43.680  34.554  27.388  1.00  0.00    -0.205 F 
ATOM     95  C   UNL A   1      45.813  36.237  29.840  1.00  0.00     0.022 A 
BRANCH  93  96
ATOM     96  S   UNL A   1      44.888  37.387  27.533  1.00  0.00     0.127 S 
ATOM     97  O   UNL A   1      45.148  38.539  28.396  1.00  0.00    -0.237 OA
ATOM     98  O   UNL A   1      45.948  37.095  26.569  1.00  0.00    -0.237 OA
ATOM     99  O   UNL A   1      43.538  37.306  26.990  1.00  0.00    -0.744 OA
ENDBRANCH  93  96
ENDBRANCH  66  89
ENDBRANCH  40  41
ENDBRANCH  32  35
ENDBRANCH  30  31
ENDBRANCH  29  30
ENDBRANCH   1  29
TORSDOF 17
ENDMDL
