MODEL 1
REMARK VINA RESULT:     -12.2      0.000      0.000
REMARK SMILES C[C@@H]1[C@H](C(=O)NCCCCNC(=O)c2ccc(-c3c4nc(c(-c5cccc(S(=O)(=O)[O-])c5F)c5ccc([nH]5)c(-c5cccc(S(=O)(=O)[O-])c5F)c5nc(c(-c6cccc(S(=O)(=O)[O-])c6F)c6ccc3[nH]6)C=C5)C=C4)cc2)CCN1C(=O)[C@H]1CC[C@@H](C(C)(C)C)CC1
REMARK SMILES IDX 8 1 7 2 6 3 4 4 5 5 3 7 1 8 2 9 79 10 77 11 78 12 80 13
REMARK SMILES IDX 81 14 82 15 83 16 91 17 84 18 90 19 85 20 86 21 87 22 88 23
REMARK SMILES IDX 89 24 9 25 10 26 11 27 12 28 13 30 14 31 15 32 76 33 16 34
REMARK SMILES IDX 75 35 17 36 18 37 19 38 69 39 20 40 74 41 68 42 70 43 21 44
REMARK SMILES IDX 73 45 67 46 66 47 22 49 54 50 34 51 53 52 35 53 38 54 52 55
REMARK SMILES IDX 71 56 36 57 37 58 51 60 72 61 39 62 23 63 24 64 32 65 25 66
REMARK SMILES IDX 27 67 33 68 26 69 28 70 29 71 30 72 31 73 55 74 56 75 64 76
REMARK SMILES IDX 57 77 59 78 65 79 58 80 60 81 61 82 62 83 63 84 40 85 41 86
REMARK SMILES IDX 49 87 42 88 44 89 50 90 43 91 45 92 46 93 47 94 48 95
REMARK H PARENT 6 6 11 29 70 48 38 59
REMARK Flexibility Score: inf
ROOT
ATOM      1  C   UNL A   1      31.637  30.517  26.825  1.00  0.00     0.023 C 
ENDROOT
BRANCH   1   2
ATOM      2  C   UNL A   1      31.949  29.621  25.612  1.00  0.00     0.116 C 
BRANCH   2   3
ATOM      3  N   UNL A   1      31.071  29.901  24.485  1.00  0.00    -0.356 N 
ATOM      4  C   UNL A   1      30.560  29.180  23.458  1.00  0.00     0.225 C 
ATOM      5  O   UNL A   1      29.835  29.824  22.684  1.00  0.00    -0.275 OA
ATOM      6  H   UNL A   1      30.778  30.839  24.463  1.00  0.00     0.163 HD
BRANCH   4   7
ATOM      7  C   UNL A   1      30.805  27.703  23.136  1.00  0.00     0.102 C 
ATOM      8  C   UNL A   1      33.348  27.804  23.096  1.00  0.00     0.032 C 
ATOM      9  C   UNL A   1      32.098  27.336  22.403  1.00  0.00     0.094 C 
ATOM     10  N   UNL A   1      32.109  25.882  22.383  1.00  0.00    -0.339 N 
ATOM     11  C   UNL A   1      30.690  26.614  24.187  1.00  0.00     0.037 C 
ATOM     12  C   UNL A   1      31.199  25.378  23.418  1.00  0.00     0.120 C 
BRANCH  10  13
ATOM     13  C   UNL A   1      32.853  25.021  21.602  1.00  0.00     0.225 C 
ATOM     14  O   UNL A   1      32.930  25.232  20.383  1.00  0.00    -0.275 OA
BRANCH  13  15
ATOM     15  C   UNL A   1      33.593  23.766  22.167  1.00  0.00     0.078 C 
ATOM     16  C   UNL A   1      34.661  24.026  23.223  1.00  0.00     0.014 C 
ATOM     17  C   UNL A   1      32.707  22.532  22.383  1.00  0.00     0.014 C 
ATOM     18  C   UNL A   1      35.151  22.763  23.926  1.00  0.00     0.005 C 
ATOM     19  C   UNL A   1      32.867  21.684  23.661  1.00  0.00     0.005 C 
ATOM     20  C   UNL A   1      34.062  21.924  24.616  1.00  0.00    -0.006 C 
BRANCH  20  21
ATOM     21  C   UNL A   1      33.710  22.303  26.124  1.00  0.00    -0.035 C 
ATOM     22  C   UNL A   1      34.740  23.297  26.717  1.00  0.00     0.011 C 
ATOM     23  C   UNL A   1      32.328  22.990  26.211  1.00  0.00     0.011 C 
ATOM     24  C   UNL A   1      33.653  21.101  27.059  1.00  0.00     0.011 C 
ENDBRANCH  20  21
ENDBRANCH  13  15
ENDBRANCH  10  13
ENDBRANCH   4   7
ENDBRANCH   2   3
ENDBRANCH   1   2
BRANCH   1  25
ATOM     25  C   UNL A   1      31.463  32.003  26.597  1.00  0.00     0.023 C 
BRANCH  25  26
ATOM     26  C   UNL A   1      32.675  32.853  26.884  1.00  0.00     0.116 C 
BRANCH  26  27
ATOM     27  N   UNL A   1      32.405  34.084  27.614  1.00  0.00    -0.352 N 
ATOM     28  C   UNL A   1      33.145  34.614  28.655  1.00  0.00     0.251 C 
ATOM     29  H   UNL A   1      31.610  34.594  27.335  1.00  0.00     0.163 HD
ATOM     30  O   UNL A   1      32.798  35.640  29.218  1.00  0.00    -0.269 OA
BRANCH  28  31
ATOM     31  C   UNL A   1      34.339  33.864  29.102  1.00  0.00     0.039 A 
ATOM     32  C   UNL A   1      35.607  34.403  28.874  1.00  0.00     0.014 A 
ATOM     33  C   UNL A   1      34.182  32.720  29.886  1.00  0.00     0.014 A 
ATOM     34  C   UNL A   1      36.713  33.839  29.514  1.00  0.00     0.010 A 
ATOM     35  C   UNL A   1      35.257  32.249  30.621  1.00  0.00     0.010 A 
ATOM     36  C   UNL A   1      36.539  32.788  30.430  1.00  0.00    -0.014 A 
BRANCH  36  37
ATOM     37  C   UNL A   1      37.675  32.193  31.178  1.00  0.00     0.031 A 
ATOM     38  C   UNL A   1      38.461  31.074  30.547  1.00  0.00     0.074 A 
ATOM     39  C   UNL A   1      37.927  32.571  32.447  1.00  0.00     0.049 A 
ATOM     40  N   UNL A   1      39.406  30.334  31.063  1.00  0.00    -0.248 NA
ATOM     41  C   UNL A   1      38.096  30.698  29.168  1.00  0.00     0.031 C 
ATOM     42  C   UNL A   1      37.172  33.570  33.207  1.00  0.00     0.029 A 
ATOM     43  N   UNL A   1      38.880  32.134  33.335  1.00  0.00    -0.354 N 
ATOM     44  C   UNL A   1      39.701  29.375  30.102  1.00  0.00     0.074 A 
ATOM     45  C   UNL A   1      38.798  29.590  28.994  1.00  0.00     0.031 C 
ATOM     46  C   UNL A   1      37.700  33.683  34.437  1.00  0.00     0.029 A 
ATOM     47  C   UNL A   1      38.817  32.751  34.563  1.00  0.00     0.049 A 
ATOM     48  H   UNL A   1      39.546  31.444  33.113  1.00  0.00     0.167 HD
ATOM     49  C   UNL A   1      40.669  28.430  30.113  1.00  0.00     0.034 A 
ATOM     50  C   UNL A   1      39.583  32.588  35.660  1.00  0.00     0.034 A 
ATOM     51  C   UNL A   1      41.626  28.289  31.172  1.00  0.00     0.049 A 
ATOM     52  C   UNL A   1      40.727  31.612  35.605  1.00  0.00     0.074 A 
ATOM     53  C   UNL A   1      42.717  27.441  31.239  1.00  0.00     0.029 A 
ATOM     54  N   UNL A   1      41.619  29.033  32.342  1.00  0.00    -0.354 N 
ATOM     55  N   UNL A   1      41.091  30.821  34.623  1.00  0.00    -0.248 NA
ATOM     56  C   UNL A   1      41.595  31.534  36.790  1.00  0.00     0.031 C 
ATOM     57  C   UNL A   1      43.373  27.678  32.453  1.00  0.00     0.029 A 
ATOM     58  C   UNL A   1      42.693  28.675  33.135  1.00  0.00     0.049 A 
ATOM     59  H   UNL A   1      40.947  29.714  32.574  1.00  0.00     0.167 HD
ATOM     60  C   UNL A   1      42.249  30.184  35.054  1.00  0.00     0.074 A 
ATOM     61  C   UNL A   1      42.536  30.693  36.380  1.00  0.00     0.031 C 
ATOM     62  C   UNL A   1      42.998  29.250  34.419  1.00  0.00     0.034 A 
BRANCH  49  63
ATOM     63  C   UNL A   1      40.785  27.543  28.903  1.00  0.00     0.023 A 
ATOM     64  C   UNL A   1      39.885  26.467  28.744  1.00  0.00     0.012 A 
ATOM     65  C   UNL A   1      41.761  27.776  27.916  1.00  0.00     0.148 A 
ATOM     66  C   UNL A   1      39.985  25.611  27.650  1.00  0.00     0.002 A 
ATOM     67  C   UNL A   1      41.824  26.947  26.803  1.00  0.00     0.091 A 
ATOM     68  F   UNL A   1      42.627  28.785  28.096  1.00  0.00    -0.205 F 
ATOM     69  C   UNL A   1      40.946  25.857  26.675  1.00  0.00     0.022 A 
BRANCH  67  70
ATOM     70  S   UNL A   1      42.978  27.229  25.456  1.00  0.00     0.127 S 
ATOM     71  O   UNL A   1      42.274  28.239  24.668  1.00  0.00    -0.237 OA
ATOM     72  O   UNL A   1      44.162  27.723  26.161  1.00  0.00    -0.237 OA
ATOM     73  O   UNL A   1      43.158  25.937  24.809  1.00  0.00    -0.744 OA
ENDBRANCH  67  70
ENDBRANCH  49  63
BRANCH  50  74
ATOM     74  C   UNL A   1      39.363  33.449  36.858  1.00  0.00     0.023 A 
ATOM     75  C   UNL A   1      39.818  34.783  36.832  1.00  0.00     0.012 A 
ATOM     76  C   UNL A   1      38.685  32.979  37.998  1.00  0.00     0.148 A 
ATOM     77  C   UNL A   1      39.628  35.624  37.929  1.00  0.00     0.002 A 
ATOM     78  C   UNL A   1      38.455  33.838  39.070  1.00  0.00     0.091 A 
ATOM     79  F   UNL A   1      38.270  31.705  38.011  1.00  0.00    -0.205 F 
ATOM     80  C   UNL A   1      38.938  35.155  39.043  1.00  0.00     0.022 A 
BRANCH  78  81
ATOM     81  S   UNL A   1      37.466  33.357  40.490  1.00  0.00     0.127 S 
ATOM     82  O   UNL A   1      38.285  32.303  41.084  1.00  0.00    -0.237 OA
ATOM     83  O   UNL A   1      37.410  34.601  41.259  1.00  0.00    -0.237 OA
ATOM     84  O   UNL A   1      36.182  32.934  39.945  1.00  0.00    -0.744 OA
ENDBRANCH  78  81
ENDBRANCH  50  74
BRANCH  62  85
ATOM     85  C   UNL A   1      44.227  28.742  35.122  1.00  0.00     0.023 A 
ATOM     86  C   UNL A   1      45.475  29.340  34.863  1.00  0.00     0.012 A 
ATOM     87  C   UNL A   1      44.127  27.740  36.107  1.00  0.00     0.148 A 
ATOM     88  C   UNL A   1      46.612  28.931  35.558  1.00  0.00     0.002 A 
ATOM     89  C   UNL A   1      45.257  27.369  36.826  1.00  0.00     0.091 A 
ATOM     90  F   UNL A   1      42.933  27.168  36.321  1.00  0.00    -0.205 F 
ATOM     91  C   UNL A   1      46.501  27.958  36.547  1.00  0.00     0.022 A 
BRANCH  89  92
ATOM     92  S   UNL A   1      45.178  26.193  38.182  1.00  0.00     0.127 S 
ATOM     93  O   UNL A   1      44.392  26.929  39.170  1.00  0.00    -0.237 OA
ATOM     94  O   UNL A   1      44.485  25.056  37.574  1.00  0.00    -0.237 OA
ATOM     95  O   UNL A   1      46.562  25.923  38.551  1.00  0.00    -0.744 OA
ENDBRANCH  89  92
ENDBRANCH  62  85
ENDBRANCH  36  37
ENDBRANCH  28  31
ENDBRANCH  26  27
ENDBRANCH  25  26
ENDBRANCH   1  25
TORSDOF 17
ENDMDL
MODEL 2
REMARK VINA RESULT:     -12.0      5.722     11.663
REMARK SMILES C[C@@H]1[C@H](C(=O)NCCCCNC(=O)c2ccc(-c3c4nc(c(-c5cccc(S(=O)(=O)[O-])c5F)c5ccc([nH]5)c(-c5cccc(S(=O)(=O)[O-])c5F)c5nc(c(-c6cccc(S(=O)(=O)[O-])c6F)c6ccc3[nH]6)C=C5)C=C4)cc2)CCN1C(=O)[C@H]1CC[C@@H](C(C)(C)C)CC1
REMARK SMILES IDX 8 1 7 2 6 3 4 4 5 5 3 7 1 8 2 9 79 10 77 11 78 12 80 13
REMARK SMILES IDX 81 14 82 15 83 16 91 17 84 18 90 19 85 20 86 21 87 22 88 23
REMARK SMILES IDX 89 24 9 25 10 26 11 27 12 28 13 30 14 31 15 32 76 33 16 34
REMARK SMILES IDX 75 35 17 36 18 37 19 38 69 39 20 40 74 41 68 42 70 43 21 44
REMARK SMILES IDX 73 45 67 46 66 47 22 49 54 50 34 51 53 52 35 53 38 54 52 55
REMARK SMILES IDX 71 56 36 57 37 58 51 60 72 61 39 62 23 63 24 64 32 65 25 66
REMARK SMILES IDX 27 67 33 68 26 69 28 70 29 71 30 72 31 73 55 74 56 75 64 76
REMARK SMILES IDX 57 77 59 78 65 79 58 80 60 81 61 82 62 83 63 84 40 85 41 86
REMARK SMILES IDX 49 87 42 88 44 89 50 90 43 91 45 92 46 93 47 94 48 95
REMARK H PARENT 6 6 11 29 70 48 38 59
REMARK Flexibility Score: inf
ROOT
ATOM      1  C   UNL A   1      37.764  22.801  25.019  1.00  0.00     0.023 C 
ENDROOT
BRANCH   1   2
ATOM      2  C   UNL A   1      36.793  23.423  26.039  1.00  0.00     0.116 C 
BRANCH   2   3
ATOM      3  N   UNL A   1      35.908  22.428  26.630  1.00  0.00    -0.356 N 
ATOM      4  C   UNL A   1      34.571  22.314  26.813  1.00  0.00     0.225 C 
ATOM      5  O   UNL A   1      34.214  21.274  27.388  1.00  0.00    -0.275 OA
ATOM      6  H   UNL A   1      36.400  21.651  26.979  1.00  0.00     0.163 HD
BRANCH   4   7
ATOM      7  C   UNL A   1      33.483  23.321  26.432  1.00  0.00     0.102 C 
ATOM      8  C   UNL A   1      32.817  22.248  24.222  1.00  0.00     0.032 C 
ATOM      9  C   UNL A   1      33.178  23.517  24.944  1.00  0.00     0.094 C 
ATOM     10  N   UNL A   1      32.022  24.398  24.918  1.00  0.00    -0.339 N 
ATOM     11  C   UNL A   1      32.101  23.298  27.060  1.00  0.00     0.037 C 
ATOM     12  C   UNL A   1      31.357  24.361  26.225  1.00  0.00     0.120 C 
BRANCH  10  13
ATOM     13  C   UNL A   1      31.514  25.147  23.877  1.00  0.00     0.225 C 
ATOM     14  O   UNL A   1      30.785  24.595  23.040  1.00  0.00    -0.275 OA
BRANCH  13  15
ATOM     15  C   UNL A   1      31.827  26.665  23.675  1.00  0.00     0.078 C 
ATOM     16  C   UNL A   1      30.921  27.649  24.408  1.00  0.00     0.014 C 
ATOM     17  C   UNL A   1      33.318  27.020  23.624  1.00  0.00     0.014 C 
ATOM     18  C   UNL A   1      31.434  29.085  24.393  1.00  0.00     0.005 C 
ATOM     19  C   UNL A   1      33.838  28.267  24.367  1.00  0.00     0.005 C 
ATOM     20  C   UNL A   1      32.845  29.291  24.969  1.00  0.00    -0.006 C 
BRANCH  20  21
ATOM     21  C   UNL A   1      32.949  29.555  26.538  1.00  0.00    -0.035 C 
ATOM     22  C   UNL A   1      32.449  28.338  27.355  1.00  0.00     0.011 C 
ATOM     23  C   UNL A   1      34.416  29.800  26.960  1.00  0.00     0.011 C 
ATOM     24  C   UNL A   1      32.157  30.769  27.008  1.00  0.00     0.011 C 
ENDBRANCH  20  21
ENDBRANCH  13  15
ENDBRANCH  10  13
ENDBRANCH   4   7
ENDBRANCH   2   3
ENDBRANCH   1   2
BRANCH   1  25
ATOM     25  C   UNL A   1      38.195  21.364  25.219  1.00  0.00     0.023 C 
BRANCH  25  26
ATOM     26  C   UNL A   1      39.308  21.150  26.215  1.00  0.00     0.116 C 
BRANCH  26  27
ATOM     27  N   UNL A   1      40.035  19.897  26.067  1.00  0.00    -0.352 N 
ATOM     28  C   UNL A   1      41.405  19.718  26.121  1.00  0.00     0.251 C 
ATOM     29  H   UNL A   1      39.493  19.090  25.912  1.00  0.00     0.163 HD
ATOM     30  O   UNL A   1      41.906  18.620  25.944  1.00  0.00    -0.269 OA
BRANCH  28  31
ATOM     31  C   UNL A   1      42.247  20.915  26.343  1.00  0.00     0.039 A 
ATOM     32  C   UNL A   1      42.547  21.747  25.263  1.00  0.00     0.014 A 
ATOM     33  C   UNL A   1      42.587  21.287  27.645  1.00  0.00     0.014 A 
ATOM     34  C   UNL A   1      43.112  23.001  25.505  1.00  0.00     0.010 A 
ATOM     35  C   UNL A   1      43.022  22.579  27.889  1.00  0.00     0.010 A 
ATOM     36  C   UNL A   1      43.309  23.445  26.822  1.00  0.00    -0.014 A 
BRANCH  36  37
ATOM     37  C   UNL A   1      43.853  24.791  27.132  1.00  0.00     0.031 A 
ATOM     38  C   UNL A   1      42.939  25.830  27.728  1.00  0.00     0.074 A 
ATOM     39  C   UNL A   1      45.114  25.115  26.781  1.00  0.00     0.049 A 
ATOM     40  N   UNL A   1      43.168  27.094  27.964  1.00  0.00    -0.248 NA
ATOM     41  C   UNL A   1      41.564  25.403  28.049  1.00  0.00     0.031 C 
ATOM     42  C   UNL A   1      46.064  24.230  26.103  1.00  0.00     0.029 A 
ATOM     43  N   UNL A   1      45.805  26.293  26.924  1.00  0.00    -0.354 N 
ATOM     44  C   UNL A   1      41.958  27.621  28.399  1.00  0.00     0.074 A 
ATOM     45  C   UNL A   1      40.984  26.556  28.341  1.00  0.00     0.031 C 
ATOM     46  C   UNL A   1      47.219  24.889  25.906  1.00  0.00     0.029 A 
ATOM     47  C   UNL A   1      47.085  26.249  26.422  1.00  0.00     0.049 A 
ATOM     48  H   UNL A   1      45.420  27.094  27.346  1.00  0.00     0.167 HD
ATOM     49  C   UNL A   1      41.687  28.866  28.854  1.00  0.00     0.034 A 
ATOM     50  C   UNL A   1      48.043  27.196  26.394  1.00  0.00     0.034 A 
ATOM     51  C   UNL A   1      42.682  29.888  29.005  1.00  0.00     0.049 A 
ATOM     52  C   UNL A   1      47.754  28.537  27.014  1.00  0.00     0.074 A 
ATOM     53  C   UNL A   1      42.546  31.148  29.558  1.00  0.00     0.029 A 
ATOM     54  N   UNL A   1      44.007  29.758  28.618  1.00  0.00    -0.354 N 
ATOM     55  N   UNL A   1      46.644  28.967  27.567  1.00  0.00    -0.248 NA
ATOM     56  C   UNL A   1      48.856  29.509  27.048  1.00  0.00     0.031 C 
ATOM     57  C   UNL A   1      43.794  31.779  29.510  1.00  0.00     0.029 A 
ATOM     58  C   UNL A   1      44.705  30.909  28.931  1.00  0.00     0.049 A 
ATOM     59  H   UNL A   1      44.394  28.963  28.184  1.00  0.00     0.167 HD
ATOM     60  C   UNL A   1      46.927  30.241  28.049  1.00  0.00     0.074 A 
ATOM     61  C   UNL A   1      48.317  30.505  27.737  1.00  0.00     0.031 C 
ATOM     62  C   UNL A   1      46.107  31.119  28.677  1.00  0.00     0.034 A 
BRANCH  49  63
ATOM     63  C   UNL A   1      40.279  29.149  29.302  1.00  0.00     0.023 A 
ATOM     64  C   UNL A   1      39.330  29.599  28.359  1.00  0.00     0.012 A 
ATOM     65  C   UNL A   1      39.884  28.956  30.639  1.00  0.00     0.148 A 
ATOM     66  C   UNL A   1      38.026  29.896  28.748  1.00  0.00     0.002 A 
ATOM     67  C   UNL A   1      38.568  29.209  31.010  1.00  0.00     0.091 A 
ATOM     68  F   UNL A   1      40.805  28.556  31.529  1.00  0.00    -0.205 F 
ATOM     69  C   UNL A   1      37.643  29.692  30.070  1.00  0.00     0.022 A 
BRANCH  67  70
ATOM     70  S   UNL A   1      37.961  28.903  32.672  1.00  0.00     0.127 S 
ATOM     71  O   UNL A   1      36.590  29.403  32.584  1.00  0.00    -0.237 OA
ATOM     72  O   UNL A   1      38.072  27.447  32.780  1.00  0.00    -0.237 OA
ATOM     73  O   UNL A   1      38.846  29.642  33.561  1.00  0.00    -0.744 OA
ENDBRANCH  67  70
ENDBRANCH  49  63
BRANCH  50  74
ATOM     74  C   UNL A   1      49.399  26.871  25.864  1.00  0.00     0.023 A 
ATOM     75  C   UNL A   1      50.290  26.137  26.671  1.00  0.00     0.012 A 
ATOM     76  C   UNL A   1      49.799  27.246  24.568  1.00  0.00     0.148 A 
ATOM     77  C   UNL A   1      51.565  25.807  26.210  1.00  0.00     0.002 A 
ATOM     78  C   UNL A   1      51.055  26.871  24.095  1.00  0.00     0.091 A 
ATOM     79  F   UNL A   1      48.944  27.954  23.818  1.00  0.00    -0.205 F 
ATOM     80  C   UNL A   1      51.943  26.165  24.920  1.00  0.00     0.022 A 
BRANCH  78  81
ATOM     81  S   UNL A   1      51.576  27.179  22.404  1.00  0.00     0.127 S 
ATOM     82  O   UNL A   1      51.778  28.625  22.411  1.00  0.00    -0.237 OA
ATOM     83  O   UNL A   1      52.802  26.385  22.312  1.00  0.00    -0.237 OA
ATOM     84  O   UNL A   1      50.486  26.693  21.566  1.00  0.00    -0.744 OA
ENDBRANCH  78  81
ENDBRANCH  50  74
BRANCH  62  85
ATOM     85  C   UNL A   1      46.693  32.435  29.112  1.00  0.00     0.023 A 
ATOM     86  C   UNL A   1      47.324  32.535  30.366  1.00  0.00     0.012 A 
ATOM     87  C   UNL A   1      46.700  33.540  28.239  1.00  0.00     0.148 A 
ATOM     88  C   UNL A   1      47.936  33.726  30.755  1.00  0.00     0.002 A 
ATOM     89  C   UNL A   1      47.350  34.709  28.616  1.00  0.00     0.091 A 
ATOM     90  F   UNL A   1      46.073  33.429  27.058  1.00  0.00    -0.205 F 
ATOM     91  C   UNL A   1      47.960  34.806  29.877  1.00  0.00     0.022 A 
BRANCH  89  92
ATOM     92  S   UNL A   1      47.510  36.111  27.504  1.00  0.00     0.127 S 
ATOM     93  O   UNL A   1      48.260  37.059  28.326  1.00  0.00    -0.237 OA
ATOM     94  O   UNL A   1      48.266  35.542  26.387  1.00  0.00    -0.237 OA
ATOM     95  O   UNL A   1      46.149  36.506  27.168  1.00  0.00    -0.744 OA
ENDBRANCH  89  92
ENDBRANCH  62  85
ENDBRANCH  36  37
ENDBRANCH  28  31
ENDBRANCH  26  27
ENDBRANCH  25  26
ENDBRANCH   1  25
TORSDOF 17
ENDMDL
MODEL 3
REMARK VINA RESULT:     -11.9      1.426      7.627
REMARK SMILES C[C@@H]1[C@H](C(=O)NCCCCNC(=O)c2ccc(-c3c4nc(c(-c5cccc(S(=O)(=O)[O-])c5F)c5ccc([nH]5)c(-c5cccc(S(=O)(=O)[O-])c5F)c5nc(c(-c6cccc(S(=O)(=O)[O-])c6F)c6ccc3[nH]6)C=C5)C=C4)cc2)CCN1C(=O)[C@H]1CC[C@@H](C(C)(C)C)CC1
REMARK SMILES IDX 8 1 7 2 6 3 4 4 5 5 3 7 1 8 2 9 79 10 77 11 78 12 80 13
REMARK SMILES IDX 81 14 82 15 83 16 91 17 84 18 90 19 85 20 86 21 87 22 88 23
REMARK SMILES IDX 89 24 9 25 10 26 11 27 12 28 13 30 14 31 15 32 76 33 16 34
REMARK SMILES IDX 75 35 17 36 18 37 19 38 69 39 20 40 74 41 68 42 70 43 21 44
REMARK SMILES IDX 73 45 67 46 66 47 22 49 54 50 34 51 53 52 35 53 38 54 52 55
REMARK SMILES IDX 71 56 36 57 37 58 51 60 72 61 39 62 23 63 24 64 32 65 25 66
REMARK SMILES IDX 27 67 33 68 26 69 28 70 29 71 30 72 31 73 55 74 56 75 64 76
REMARK SMILES IDX 57 77 59 78 65 79 58 80 60 81 61 82 62 83 63 84 40 85 41 86
REMARK SMILES IDX 49 87 42 88 44 89 50 90 43 91 45 92 46 93 47 94 48 95
REMARK H PARENT 6 6 11 29 70 48 38 59
REMARK Flexibility Score: inf
ROOT
ATOM      1  C   UNL A   1      32.443  30.308  25.892  1.00  0.00     0.023 C 
ENDROOT
BRANCH   1   2
ATOM      2  C   UNL A   1      31.375  29.340  25.349  1.00  0.00     0.116 C 
BRANCH   2   3
ATOM      3  N   UNL A   1      30.942  29.699  24.007  1.00  0.00    -0.356 N 
ATOM      4  C   UNL A   1      30.718  29.026  22.853  1.00  0.00     0.225 C 
ATOM      5  O   UNL A   1      30.352  29.735  21.902  1.00  0.00    -0.275 OA
ATOM      6  H   UNL A   1      30.770  30.664  23.915  1.00  0.00     0.163 HD
BRANCH   4   7
ATOM      7  C   UNL A   1      30.898  27.529  22.591  1.00  0.00     0.102 C 
ATOM      8  C   UNL A   1      33.409  27.435  23.004  1.00  0.00     0.032 C 
ATOM      9  C   UNL A   1      32.269  27.048  22.103  1.00  0.00     0.094 C 
ATOM     10  N   UNL A   1      32.168  25.598  22.097  1.00  0.00    -0.339 N 
ATOM     11  C   UNL A   1      30.514  26.474  23.614  1.00  0.00     0.037 C 
ATOM     12  C   UNL A   1      31.053  25.187  22.957  1.00  0.00     0.120 C 
BRANCH  10  13
ATOM     13  C   UNL A   1      32.968  24.667  21.467  1.00  0.00     0.225 C 
ATOM     14  O   UNL A   1      33.183  24.784  20.252  1.00  0.00    -0.275 OA
BRANCH  13  15
ATOM     15  C   UNL A   1      33.607  23.443  22.200  1.00  0.00     0.078 C 
ATOM     16  C   UNL A   1      34.612  23.760  23.302  1.00  0.00     0.014 C 
ATOM     17  C   UNL A   1      32.652  22.273  22.465  1.00  0.00     0.014 C 
ATOM     18  C   UNL A   1      34.992  22.553  24.154  1.00  0.00     0.005 C 
ATOM     19  C   UNL A   1      32.683  21.547  23.826  1.00  0.00     0.005 C 
ATOM     20  C   UNL A   1      33.819  21.830  24.839  1.00  0.00    -0.006 C 
BRANCH  20  21
ATOM     21  C   UNL A   1      33.382  22.368  26.274  1.00  0.00    -0.035 C 
ATOM     22  C   UNL A   1      33.987  23.763  26.569  1.00  0.00     0.011 C 
ATOM     23  C   UNL A   1      31.847  22.521  26.362  1.00  0.00     0.011 C 
ATOM     24  C   UNL A   1      33.790  21.449  27.421  1.00  0.00     0.011 C 
ENDBRANCH  20  21
ENDBRANCH  13  15
ENDBRANCH  10  13
ENDBRANCH   4   7
ENDBRANCH   2   3
ENDBRANCH   1   2
BRANCH   1  25
ATOM     25  C   UNL A   1      31.998  31.437  26.796  1.00  0.00     0.023 C 
BRANCH  25  26
ATOM     26  C   UNL A   1      33.097  32.337  27.304  1.00  0.00     0.116 C 
BRANCH  26  27
ATOM     27  N   UNL A   1      32.681  33.695  27.628  1.00  0.00    -0.352 N 
ATOM     28  C   UNL A   1      33.245  34.537  28.569  1.00  0.00     0.251 C 
ATOM     29  H   UNL A   1      31.915  34.052  27.122  1.00  0.00     0.163 HD
ATOM     30  O   UNL A   1      32.784  35.647  28.780  1.00  0.00    -0.269 OA
BRANCH  28  31
ATOM     31  C   UNL A   1      34.391  34.023  29.352  1.00  0.00     0.039 A 
ATOM     32  C   UNL A   1      34.162  33.086  30.361  1.00  0.00     0.014 A 
ATOM     33  C   UNL A   1      35.692  34.350  28.965  1.00  0.00     0.014 A 
ATOM     34  C   UNL A   1      35.247  32.408  30.921  1.00  0.00     0.010 A 
ATOM     35  C   UNL A   1      36.749  33.584  29.427  1.00  0.00     0.010 A 
ATOM     36  C   UNL A   1      36.544  32.618  30.424  1.00  0.00    -0.014 A 
BRANCH  36  37
ATOM     37  C   UNL A   1      37.722  31.881  30.947  1.00  0.00     0.031 A 
ATOM     38  C   UNL A   1      38.284  32.259  32.292  1.00  0.00     0.074 A 
ATOM     39  C   UNL A   1      38.348  30.965  30.180  1.00  0.00     0.049 A 
ATOM     40  N   UNL A   1      39.368  31.834  32.883  1.00  0.00    -0.248 NA
ATOM     41  C   UNL A   1      37.559  33.296  33.050  1.00  0.00     0.031 C 
ATOM     42  C   UNL A   1      37.964  30.586  28.819  1.00  0.00     0.029 A 
ATOM     43  N   UNL A   1      39.463  30.204  30.432  1.00  0.00    -0.354 N 
ATOM     44  C   UNL A   1      39.486  32.591  34.043  1.00  0.00     0.074 A 
ATOM     45  C   UNL A   1      38.395  33.539  34.046  1.00  0.00     0.031 C 
ATOM     46  C   UNL A   1      38.816  29.652  28.363  1.00  0.00     0.029 A 
ATOM     47  C   UNL A   1      39.819  29.382  29.388  1.00  0.00     0.049 A 
ATOM     48  H   UNL A   1      39.961  30.244  31.280  1.00  0.00     0.167 HD
ATOM     49  C   UNL A   1      40.389  32.479  35.044  1.00  0.00     0.034 A 
ATOM     50  C   UNL A   1      40.835  28.502  29.280  1.00  0.00     0.034 A 
ATOM     51  C   UNL A   1      41.407  31.469  35.083  1.00  0.00     0.049 A 
ATOM     52  C   UNL A   1      41.756  28.312  30.455  1.00  0.00     0.074 A 
ATOM     53  C   UNL A   1      42.305  31.190  36.096  1.00  0.00     0.029 A 
ATOM     54  N   UNL A   1      41.646  30.555  34.067  1.00  0.00    -0.354 N 
ATOM     55  N   UNL A   1      41.755  28.930  31.612  1.00  0.00    -0.248 NA
ATOM     56  C   UNL A   1      42.791  27.275  30.330  1.00  0.00     0.031 C 
ATOM     57  C   UNL A   1      43.087  30.101  35.693  1.00  0.00     0.029 A 
ATOM     58  C   UNL A   1      42.670  29.702  34.433  1.00  0.00     0.049 A 
ATOM     59  H   UNL A   1      41.160  30.521  33.212  1.00  0.00     0.167 HD
ATOM     60  C   UNL A   1      42.758  28.331  32.366  1.00  0.00     0.074 A 
ATOM     61  C   UNL A   1      43.335  27.290  31.539  1.00  0.00     0.031 C 
ATOM     62  C   UNL A   1      43.177  28.626  33.621  1.00  0.00     0.034 A 
BRANCH  49  63
ATOM     63  C   UNL A   1      40.251  33.418  36.211  1.00  0.00     0.023 A 
ATOM     64  C   UNL A   1      40.810  34.711  36.130  1.00  0.00     0.012 A 
ATOM     65  C   UNL A   1      39.557  33.039  37.376  1.00  0.00     0.148 A 
ATOM     66  C   UNL A   1      40.722  35.594  37.204  1.00  0.00     0.002 A 
ATOM     67  C   UNL A   1      39.433  33.942  38.426  1.00  0.00     0.091 A 
ATOM     68  F   UNL A   1      39.057  31.796  37.449  1.00  0.00    -0.205 F 
ATOM     69  C   UNL A   1      40.026  35.213  38.347  1.00  0.00     0.022 A 
BRANCH  67  70
ATOM     70  S   UNL A   1      38.489  33.571  39.908  1.00  0.00     0.127 S 
ATOM     71  O   UNL A   1      39.291  32.507  40.511  1.00  0.00    -0.237 OA
ATOM     72  O   UNL A   1      38.529  34.845  40.628  1.00  0.00    -0.237 OA
ATOM     73  O   UNL A   1      37.165  33.179  39.448  1.00  0.00    -0.744 OA
ENDBRANCH  67  70
ENDBRANCH  49  63
BRANCH  50  74
ATOM     74  C   UNL A   1      40.960  27.654  28.059  1.00  0.00     0.023 A 
ATOM     75  C   UNL A   1      41.586  28.192  26.916  1.00  0.00     0.012 A 
ATOM     76  C   UNL A   1      40.503  26.324  28.027  1.00  0.00     0.148 A 
ATOM     77  C   UNL A   1      41.729  27.430  25.755  1.00  0.00     0.002 A 
ATOM     78  C   UNL A   1      40.692  25.554  26.882  1.00  0.00     0.091 A 
ATOM     79  F   UNL A   1      39.899  25.833  29.118  1.00  0.00    -0.205 F 
ATOM     80  C   UNL A   1      41.291  26.109  25.742  1.00  0.00     0.022 A 
BRANCH  78  81
ATOM     81  S   UNL A   1      40.276  23.807  26.820  1.00  0.00     0.127 S 
ATOM     82  O   UNL A   1      40.617  23.369  28.171  1.00  0.00    -0.237 OA
ATOM     83  O   UNL A   1      38.842  23.845  26.527  1.00  0.00    -0.237 OA
ATOM     84  O   UNL A   1      41.089  23.251  25.746  1.00  0.00    -0.744 OA
ENDBRANCH  78  81
ENDBRANCH  50  74
BRANCH  62  85
ATOM     85  C   UNL A   1      44.284  27.791  34.204  1.00  0.00     0.023 A 
ATOM     86  C   UNL A   1      45.616  28.236  34.109  1.00  0.00     0.012 A 
ATOM     87  C   UNL A   1      43.992  26.618  34.927  1.00  0.00     0.148 A 
ATOM     88  C   UNL A   1      46.646  27.512  34.707  1.00  0.00     0.002 A 
ATOM     89  C   UNL A   1      45.019  25.926  35.557  1.00  0.00     0.091 A 
ATOM     90  F   UNL A   1      42.719  26.200  34.985  1.00  0.00    -0.205 F 
ATOM     91  C   UNL A   1      46.348  26.367  35.441  1.00  0.00     0.022 A 
BRANCH  89  92
ATOM     92  S   UNL A   1      44.705  24.498  36.601  1.00  0.00     0.127 S 
ATOM     93  O   UNL A   1      46.052  24.164  37.062  1.00  0.00    -0.237 OA
ATOM     94  O   UNL A   1      43.826  25.049  37.633  1.00  0.00    -0.237 OA
ATOM     95  O   UNL A   1      44.072  23.510  35.738  1.00  0.00    -0.744 OA
ENDBRANCH  89  92
ENDBRANCH  62  85
ENDBRANCH  36  37
ENDBRANCH  28  31
ENDBRANCH  26  27
ENDBRANCH  25  26
ENDBRANCH   1  25
TORSDOF 17
ENDMDL
