MODEL 1
REMARK VINA RESULT:     -12.1      0.000      0.000
REMARK SMILES O=C(Cn1c(=O)c2c3c(sc2n(Cc2ccc(Cl)cc2Cl)c1=O)CCCC3)NCCCCNC(=O)c1ccc(-c2c3nc(c(-c4cccc(S(=O)(=O)[O-])c4F)c4ccc([nH]4)c(-c4cccc(S(=O)(=O)[O-])c4F)c4nc(c(-c5cccc(S(=O)(=O)[O-])c5F)c5ccc2[nH]5)C=C4)C=C3)cc1
REMARK SMILES IDX 30 1 29 2 28 3 1 4 2 5 3 7 4 8 5 9 22 10 6 11 7 12 12 13
REMARK SMILES IDX 23 14 8 15 11 16 9 17 27 18 10 19 24 20 26 21 25 22 13 23
REMARK SMILES IDX 14 24 15 25 20 26 16 27 19 28 21 29 17 30 18 31 31 32 32 33
REMARK SMILES IDX 33 34 34 35 35 37 36 38 37 39 98 40 38 41 97 42 39 43 40 44
REMARK SMILES IDX 41 45 91 46 42 47 96 48 90 49 92 50 43 51 95 52 89 53 88 54
REMARK SMILES IDX 44 56 76 57 56 58 75 59 57 60 60 61 74 62 93 63 58 64 59 65
REMARK SMILES IDX 73 67 94 68 61 69 45 70 46 71 54 72 47 73 49 74 55 75 48 76
REMARK SMILES IDX 50 77 51 78 52 79 53 80 77 81 78 82 86 83 79 84 81 85 87 86
REMARK SMILES IDX 80 87 82 88 83 89 84 90 85 91 62 92 63 93 71 94 64 95 66 96
REMARK SMILES IDX 72 97 65 98 67 99 68 100 69 101 70 102
REMARK H PARENT 28 6 33 36 92 55 60 66
REMARK Flexibility Score: inf
ROOT
ATOM      1  C   UNL A   1      35.942  33.910  29.535  1.00  0.00     0.023 C 
ENDROOT
BRANCH   1   2
ATOM      2  C   UNL A   1      35.064  34.142  28.312  1.00  0.00     0.116 C 
BRANCH   2   3
ATOM      3  N   UNL A   1      34.072  33.103  28.117  1.00  0.00    -0.355 N 
ATOM      4  O   UNL A   1      35.506  31.572  27.181  1.00  0.00    -0.273 OA
ATOM      5  C   UNL A   1      34.437  31.830  27.736  1.00  0.00     0.240 C 
ATOM      6  H   UNL A   1      33.120  33.312  28.258  1.00  0.00     0.163 HD
BRANCH   5   7
ATOM      7  C   UNL A   1      33.356  30.755  27.891  1.00  0.00     0.230 C 
BRANCH   7   8
ATOM      8  N   UNL A   1      32.807  30.014  26.748  1.00  0.00    -0.250 N 
ATOM      9  C   UNL A   1      31.685  30.629  26.170  1.00  0.00     0.265 A 
ATOM     10  C   UNL A   1      33.513  28.932  26.190  1.00  0.00     0.332 A 
ATOM     11  O   UNL A   1      31.110  31.600  26.674  1.00  0.00    -0.268 OA
ATOM     12  C   UNL A   1      31.283  30.095  24.894  1.00  0.00     0.079 A 
ATOM     13  N   UNL A   1      33.048  28.388  24.991  1.00  0.00    -0.280 N 
ATOM     14  O   UNL A   1      34.512  28.460  26.734  1.00  0.00    -0.247 OA
ATOM     15  C   UNL A   1      30.185  30.452  24.028  1.00  0.00    -0.019 A 
ATOM     16  C   UNL A   1      32.004  29.054  24.370  1.00  0.00     0.113 A 
ATOM     17  C   UNL A   1      30.143  29.612  22.930  1.00  0.00     0.011 A 
ATOM     18  C   UNL A   1      29.126  31.495  24.232  1.00  0.00     0.037 C 
ATOM     19  S   UNL A   1      31.545  28.689  22.793  1.00  0.00    -0.122 S 
ATOM     20  C   UNL A   1      29.059  29.524  21.908  1.00  0.00     0.047 C 
ATOM     21  C   UNL A   1      28.310  31.716  22.940  1.00  0.00     0.005 C 
ATOM     22  C   UNL A   1      27.860  30.383  22.323  1.00  0.00     0.006 C 
BRANCH  13  23
ATOM     23  C   UNL A   1      33.657  27.123  24.485  1.00  0.00     0.165 C 
BRANCH  23  24
ATOM     24  C   UNL A   1      33.049  25.894  25.143  1.00  0.00    -0.009 A 
ATOM     25  C   UNL A   1      31.784  26.016  25.747  1.00  0.00     0.008 A 
ATOM     26  C   UNL A   1      33.638  24.615  25.100  1.00  0.00     0.047 A 
ATOM     27  C   UNL A   1      31.080  24.884  26.150  1.00  0.00     0.021 A 
ATOM     28  C   UNL A   1      32.888  23.478  25.384  1.00  0.00     0.041 A 
ATOM     29  Cl  UNL A   1      35.332  24.367  24.852  1.00  0.00    -0.084 Cl
ATOM     30  C   UNL A   1      31.604  23.626  25.885  1.00  0.00     0.042 A 
ATOM     31  Cl  UNL A   1      30.659  22.248  26.186  1.00  0.00    -0.084 Cl
ENDBRANCH  23  24
ENDBRANCH  13  23
ENDBRANCH   7   8
ENDBRANCH   5   7
ENDBRANCH   2   3
ENDBRANCH   1   2
BRANCH   1  32
ATOM     32  C   UNL A   1      37.418  33.587  29.240  1.00  0.00     0.023 C 
BRANCH  32  33
ATOM     33  C   UNL A   1      38.066  32.509  30.127  1.00  0.00     0.116 C 
BRANCH  33  34
ATOM     34  N   UNL A   1      37.259  31.304  30.137  1.00  0.00    -0.352 N 
ATOM     35  C   UNL A   1      37.446  30.076  29.560  1.00  0.00     0.251 C 
ATOM     36  H   UNL A   1      36.423  31.383  30.652  1.00  0.00     0.163 HD
ATOM     37  O   UNL A   1      36.439  29.395  29.348  1.00  0.00    -0.269 OA
BRANCH  35  38
ATOM     38  C   UNL A   1      38.778  29.519  29.211  1.00  0.00     0.039 A 
ATOM     39  C   UNL A   1      38.978  29.155  27.871  1.00  0.00     0.014 A 
ATOM     40  C   UNL A   1      39.741  29.169  30.163  1.00  0.00     0.014 A 
ATOM     41  C   UNL A   1      40.126  28.459  27.485  1.00  0.00     0.010 A 
ATOM     42  C   UNL A   1      40.900  28.476  29.771  1.00  0.00     0.010 A 
ATOM     43  C   UNL A   1      41.101  28.116  28.430  1.00  0.00    -0.014 A 
BRANCH  43  44
ATOM     44  C   UNL A   1      42.350  27.500  27.922  1.00  0.00     0.031 A 
ATOM     45  C   UNL A   1      43.490  28.451  27.691  1.00  0.00     0.074 A 
ATOM     46  C   UNL A   1      42.610  26.186  28.115  1.00  0.00     0.049 A 
ATOM     47  N   UNL A   1      44.314  28.841  28.621  1.00  0.00    -0.248 NA
ATOM     48  C   UNL A   1      43.611  29.216  26.450  1.00  0.00     0.031 C 
ATOM     49  C   UNL A   1      42.402  25.506  29.401  1.00  0.00     0.029 A 
ATOM     50  N   UNL A   1      43.328  25.276  27.363  1.00  0.00    -0.354 N 
ATOM     51  C   UNL A   1      45.047  29.910  28.114  1.00  0.00     0.074 A 
ATOM     52  C   UNL A   1      44.563  30.110  26.767  1.00  0.00     0.031 C 
ATOM     53  C   UNL A   1      43.117  24.361  29.406  1.00  0.00     0.029 A 
ATOM     54  C   UNL A   1      43.731  24.156  28.093  1.00  0.00     0.049 A 
ATOM     55  H   UNL A   1      43.535  25.405  26.410  1.00  0.00     0.167 HD
ATOM     56  C   UNL A   1      46.027  30.542  28.824  1.00  0.00     0.034 A 
ATOM     57  C   UNL A   1      44.886  23.460  27.864  1.00  0.00     0.034 A 
ATOM     58  C   UNL A   1      46.273  29.972  30.130  1.00  0.00     0.049 A 
ATOM     59  C   UNL A   1      45.888  24.392  28.496  1.00  0.00     0.074 A 
ATOM     60  C   UNL A   1      46.013  30.247  31.457  1.00  0.00     0.029 A 
ATOM     61  N   UNL A   1      46.967  28.788  30.183  1.00  0.00    -0.354 N 
ATOM     62  N   UNL A   1      46.073  24.556  29.781  1.00  0.00    -0.248 NA
ATOM     63  C   UNL A   1      46.383  25.486  27.662  1.00  0.00     0.031 C 
ATOM     64  C   UNL A   1      46.120  28.996  32.146  1.00  0.00     0.029 A 
ATOM     65  C   UNL A   1      46.444  28.031  31.198  1.00  0.00     0.049 A 
ATOM     66  H   UNL A   1      47.711  28.528  29.593  1.00  0.00     0.167 HD
ATOM     67  C   UNL A   1      46.399  25.906  29.933  1.00  0.00     0.074 A 
ATOM     68  C   UNL A   1      46.583  26.412  28.586  1.00  0.00     0.031 C 
ATOM     69  C   UNL A   1      46.327  26.591  31.114  1.00  0.00     0.034 A 
BRANCH  56  70
ATOM     70  C   UNL A   1      46.959  31.600  28.313  1.00  0.00     0.023 A 
ATOM     71  C   UNL A   1      46.351  32.824  27.957  1.00  0.00     0.012 A 
ATOM     72  C   UNL A   1      48.308  31.402  27.962  1.00  0.00     0.148 A 
ATOM     73  C   UNL A   1      47.013  33.780  27.193  1.00  0.00     0.002 A 
ATOM     74  C   UNL A   1      48.950  32.334  27.138  1.00  0.00     0.091 A 
ATOM     75  F   UNL A   1      48.950  30.322  28.427  1.00  0.00    -0.205 F 
ATOM     76  C   UNL A   1      48.301  33.518  26.752  1.00  0.00     0.022 A 
BRANCH  74  77
ATOM     77  S   UNL A   1      50.572  32.064  26.402  1.00  0.00     0.127 S 
ATOM     78  O   UNL A   1      50.499  30.657  26.003  1.00  0.00    -0.237 OA
ATOM     79  O   UNL A   1      50.561  33.012  25.288  1.00  0.00    -0.237 OA
ATOM     80  O   UNL A   1      51.547  32.349  27.446  1.00  0.00    -0.744 OA
ENDBRANCH  74  77
ENDBRANCH  56  70
BRANCH  57  81
ATOM     81  C   UNL A   1      45.033  22.876  26.485  1.00  0.00     0.023 A 
ATOM     82  C   UNL A   1      45.887  23.576  25.600  1.00  0.00     0.012 A 
ATOM     83  C   UNL A   1      44.434  21.696  26.001  1.00  0.00     0.148 A 
ATOM     84  C   UNL A   1      46.246  23.058  24.354  1.00  0.00     0.002 A 
ATOM     85  C   UNL A   1      44.853  21.141  24.792  1.00  0.00     0.091 A 
ATOM     86  F   UNL A   1      43.457  21.119  26.709  1.00  0.00    -0.205 F 
ATOM     87  C   UNL A   1      45.763  21.817  23.968  1.00  0.00     0.022 A 
BRANCH  85  88
ATOM     88  S   UNL A   1      44.365  19.492  24.260  1.00  0.00     0.127 S 
ATOM     89  O   UNL A   1      44.491  19.591  22.807  1.00  0.00    -0.237 OA
ATOM     90  O   UNL A   1      45.381  18.667  24.912  1.00  0.00    -0.237 OA
ATOM     91  O   UNL A   1      43.009  19.303  24.754  1.00  0.00    -0.744 OA
ENDBRANCH  85  88
ENDBRANCH  57  81
BRANCH  69  92
ATOM     92  C   UNL A   1      45.947  25.806  32.338  1.00  0.00     0.023 A 
ATOM     93  C   UNL A   1      44.587  25.538  32.576  1.00  0.00     0.012 A 
ATOM     94  C   UNL A   1      46.912  25.263  33.216  1.00  0.00     0.148 A 
ATOM     95  C   UNL A   1      44.190  24.734  33.644  1.00  0.00     0.002 A 
ATOM     96  C   UNL A   1      46.514  24.424  34.254  1.00  0.00     0.091 A 
ATOM     97  F   UNL A   1      48.206  25.561  33.024  1.00  0.00    -0.205 F 
ATOM     98  C   UNL A   1      45.153  24.164  34.471  1.00  0.00     0.022 A 
BRANCH  96  99
ATOM     99  S   UNL A   1      47.674  23.569  35.330  1.00  0.00     0.127 S 
ATOM    100  O   UNL A   1      48.306  24.679  36.042  1.00  0.00    -0.237 OA
ATOM    101  O   UNL A   1      46.779  22.752  36.150  1.00  0.00    -0.237 OA
ATOM    102  O   UNL A   1      48.563  22.810  34.459  1.00  0.00    -0.744 OA
ENDBRANCH  96  99
ENDBRANCH  69  92
ENDBRANCH  43  44
ENDBRANCH  35  38
ENDBRANCH  33  34
ENDBRANCH  32  33
ENDBRANCH   1  32
TORSDOF 17
ENDMDL
MODEL 2
REMARK VINA RESULT:     -12.1      7.621     16.295
REMARK SMILES O=C(Cn1c(=O)c2c3c(sc2n(Cc2ccc(Cl)cc2Cl)c1=O)CCCC3)NCCCCNC(=O)c1ccc(-c2c3nc(c(-c4cccc(S(=O)(=O)[O-])c4F)c4ccc([nH]4)c(-c4cccc(S(=O)(=O)[O-])c4F)c4nc(c(-c5cccc(S(=O)(=O)[O-])c5F)c5ccc2[nH]5)C=C4)C=C3)cc1
REMARK SMILES IDX 30 1 29 2 28 3 1 4 2 5 3 7 4 8 5 9 22 10 6 11 7 12 12 13
REMARK SMILES IDX 23 14 8 15 11 16 9 17 27 18 10 19 24 20 26 21 25 22 13 23
REMARK SMILES IDX 14 24 15 25 20 26 16 27 19 28 21 29 17 30 18 31 31 32 32 33
REMARK SMILES IDX 33 34 34 35 35 37 36 38 37 39 98 40 38 41 97 42 39 43 40 44
REMARK SMILES IDX 41 45 91 46 42 47 96 48 90 49 92 50 43 51 95 52 89 53 88 54
REMARK SMILES IDX 44 56 76 57 56 58 75 59 57 60 60 61 74 62 93 63 58 64 59 65
REMARK SMILES IDX 73 67 94 68 61 69 45 70 46 71 54 72 47 73 49 74 55 75 48 76
REMARK SMILES IDX 50 77 51 78 52 79 53 80 77 81 78 82 86 83 79 84 81 85 87 86
REMARK SMILES IDX 80 87 82 88 83 89 84 90 85 91 62 92 63 93 71 94 64 95 66 96
REMARK SMILES IDX 72 97 65 98 67 99 68 100 69 101 70 102
REMARK H PARENT 28 6 33 36 92 55 60 66
REMARK Flexibility Score: inf
ROOT
ATOM      1  C   UNL A   1      46.078  21.726  39.163  1.00  0.00     0.023 C 
ENDROOT
BRANCH   1   2
ATOM      2  C   UNL A   1      46.431  20.463  38.387  1.00  0.00     0.116 C 
BRANCH   2   3
ATOM      3  N   UNL A   1      46.478  19.277  39.220  1.00  0.00    -0.355 N 
ATOM      4  O   UNL A   1      44.917  18.084  38.031  1.00  0.00    -0.273 OA
ATOM      5  C   UNL A   1      45.842  18.114  38.844  1.00  0.00     0.240 C 
ATOM      6  H   UNL A   1      46.972  19.305  40.071  1.00  0.00     0.163 HD
BRANCH   5   7
ATOM      7  C   UNL A   1      46.240  16.858  39.624  1.00  0.00     0.230 C 
BRANCH   7   8
ATOM      8  N   UNL A   1      45.812  16.616  41.009  1.00  0.00    -0.250 N 
ATOM      9  C   UNL A   1      46.765  17.006  41.964  1.00  0.00     0.265 A 
ATOM     10  C   UNL A   1      44.484  16.251  41.294  1.00  0.00     0.332 A 
ATOM     11  O   UNL A   1      47.915  17.353  41.671  1.00  0.00    -0.268 OA
ATOM     12  C   UNL A   1      46.289  17.046  43.322  1.00  0.00     0.079 A 
ATOM     13  N   UNL A   1      44.079  16.225  42.631  1.00  0.00    -0.280 N 
ATOM     14  O   UNL A   1      43.688  15.951  40.404  1.00  0.00    -0.247 OA
ATOM     15  C   UNL A   1      46.974  17.373  44.550  1.00  0.00    -0.019 A 
ATOM     16  C   UNL A   1      44.984  16.703  43.564  1.00  0.00     0.113 A 
ATOM     17  C   UNL A   1      46.130  17.205  45.633  1.00  0.00     0.011 A 
ATOM     18  C   UNL A   1      48.410  17.756  44.754  1.00  0.00     0.037 C 
ATOM     19  S   UNL A   1      44.528  17.005  45.154  1.00  0.00    -0.122 S 
ATOM     20  C   UNL A   1      46.503  17.251  47.078  1.00  0.00     0.047 C 
ATOM     21  C   UNL A   1      48.647  18.273  46.189  1.00  0.00     0.005 C 
ATOM     22  C   UNL A   1      48.025  17.337  47.235  1.00  0.00     0.006 C 
BRANCH  13  23
ATOM     23  C   UNL A   1      42.744  15.653  42.972  1.00  0.00     0.165 C 
BRANCH  23  24
ATOM     24  C   UNL A   1      42.756  14.132  42.967  1.00  0.00    -0.009 A 
ATOM     25  C   UNL A   1      43.552  13.467  43.918  1.00  0.00     0.008 A 
ATOM     26  C   UNL A   1      41.943  13.348  42.124  1.00  0.00     0.047 A 
ATOM     27  C   UNL A   1      43.421  12.095  44.115  1.00  0.00     0.021 A 
ATOM     28  C   UNL A   1      41.718  12.004  42.404  1.00  0.00     0.041 A 
ATOM     29  Cl  UNL A   1      41.300  13.932  40.629  1.00  0.00    -0.084 Cl
ATOM     30  C   UNL A   1      42.445  11.397  43.416  1.00  0.00     0.042 A 
ATOM     31  Cl  UNL A   1      42.143   9.771  43.803  1.00  0.00    -0.084 Cl
ENDBRANCH  23  24
ENDBRANCH  13  23
ENDBRANCH   7   8
ENDBRANCH   5   7
ENDBRANCH   2   3
ENDBRANCH   1   2
BRANCH   1  32
ATOM     32  C   UNL A   1      46.495  23.050  38.498  1.00  0.00     0.023 C 
BRANCH  32  33
ATOM     33  C   UNL A   1      45.844  23.359  37.137  1.00  0.00     0.116 C 
BRANCH  33  34
ATOM     34  N   UNL A   1      44.494  23.856  37.319  1.00  0.00    -0.352 N 
ATOM     35  C   UNL A   1      43.769  24.799  36.641  1.00  0.00     0.251 C 
ATOM     36  H   UNL A   1      44.009  23.438  38.068  1.00  0.00     0.163 HD
ATOM     37  O   UNL A   1      42.843  25.341  37.249  1.00  0.00    -0.269 OA
BRANCH  35  38
ATOM     38  C   UNL A   1      44.017  25.174  35.225  1.00  0.00     0.039 A 
ATOM     39  C   UNL A   1      44.323  26.520  34.972  1.00  0.00     0.014 A 
ATOM     40  C   UNL A   1      43.775  24.316  34.147  1.00  0.00     0.014 A 
ATOM     41  C   UNL A   1      44.393  27.001  33.663  1.00  0.00     0.010 A 
ATOM     42  C   UNL A   1      43.855  24.802  32.829  1.00  0.00     0.010 A 
ATOM     43  C   UNL A   1      44.164  26.146  32.578  1.00  0.00    -0.014 A 
BRANCH  43  44
ATOM     44  C   UNL A   1      44.390  26.699  31.221  1.00  0.00     0.031 A 
ATOM     45  C   UNL A   1      44.255  25.716  30.094  1.00  0.00     0.074 A 
ATOM     46  C   UNL A   1      44.241  28.021  30.971  1.00  0.00     0.049 A 
ATOM     47  N   UNL A   1      43.121  25.393  29.540  1.00  0.00    -0.248 NA
ATOM     48  C   UNL A   1      45.363  24.847  29.695  1.00  0.00     0.031 C 
ATOM     49  C   UNL A   1      43.105  28.810  31.467  1.00  0.00     0.029 A 
ATOM     50  N   UNL A   1      44.858  28.854  30.058  1.00  0.00    -0.354 N 
ATOM     51  C   UNL A   1      43.344  24.275  28.742  1.00  0.00     0.074 A 
ATOM     52  C   UNL A   1      44.750  23.970  28.884  1.00  0.00     0.031 C 
ATOM     53  C   UNL A   1      43.010  29.940  30.736  1.00  0.00     0.029 A 
ATOM     54  C   UNL A   1      44.139  30.026  29.809  1.00  0.00     0.049 A 
ATOM     55  H   UNL A   1      45.716  28.642  29.625  1.00  0.00     0.167 HD
ATOM     56  C   UNL A   1      42.365  23.690  27.991  1.00  0.00     0.034 A 
ATOM     57  C   UNL A   1      44.126  30.682  28.610  1.00  0.00     0.034 A 
ATOM     58  C   UNL A   1      41.087  24.364  28.057  1.00  0.00     0.049 A 
ATOM     59  C   UNL A   1      43.193  29.792  27.829  1.00  0.00     0.074 A 
ATOM     60  C   UNL A   1      39.850  24.206  28.647  1.00  0.00     0.029 A 
ATOM     61  N   UNL A   1      40.954  25.539  27.357  1.00  0.00    -0.354 N 
ATOM     62  N   UNL A   1      41.894  29.735  27.974  1.00  0.00    -0.248 NA
ATOM     63  C   UNL A   1      43.790  28.625  27.181  1.00  0.00     0.031 C 
ATOM     64  C   UNL A   1      39.255  25.509  28.670  1.00  0.00     0.029 A 
ATOM     65  C   UNL A   1      40.164  26.386  28.088  1.00  0.00     0.049 A 
ATOM     66  H   UNL A   1      41.358  25.738  26.481  1.00  0.00     0.167 HD
ATOM     67  C   UNL A   1      41.561  28.397  27.744  1.00  0.00     0.074 A 
ATOM     68  C   UNL A   1      42.776  27.778  27.249  1.00  0.00     0.031 C 
ATOM     69  C   UNL A   1      40.386  27.815  28.130  1.00  0.00     0.034 A 
BRANCH  56  70
ATOM     70  C   UNL A   1      42.543  22.580  26.999  1.00  0.00     0.023 A 
ATOM     71  C   UNL A   1      41.878  21.375  27.312  1.00  0.00     0.012 A 
ATOM     72  C   UNL A   1      43.466  22.572  25.936  1.00  0.00     0.148 A 
ATOM     73  C   UNL A   1      42.183  20.178  26.671  1.00  0.00     0.002 A 
ATOM     74  C   UNL A   1      43.819  21.357  25.338  1.00  0.00     0.091 A 
ATOM     75  F   UNL A   1      43.986  23.734  25.517  1.00  0.00    -0.205 F 
ATOM     76  C   UNL A   1      43.180  20.162  25.710  1.00  0.00     0.022 A 
BRANCH  74  77
ATOM     77  S   UNL A   1      45.174  21.179  24.164  1.00  0.00     0.127 S 
ATOM     78  O   UNL A   1      44.786  22.109  23.103  1.00  0.00    -0.237 OA
ATOM     79  O   UNL A   1      46.322  21.613  24.960  1.00  0.00    -0.237 OA
ATOM     80  O   UNL A   1      45.191  19.778  23.769  1.00  0.00    -0.744 OA
ENDBRANCH  74  77
ENDBRANCH  56  70
BRANCH  57  81
ATOM     81  C   UNL A   1      45.466  31.147  28.106  1.00  0.00     0.023 A 
ATOM     82  C   UNL A   1      46.493  30.174  28.082  1.00  0.00     0.012 A 
ATOM     83  C   UNL A   1      45.788  32.433  27.632  1.00  0.00     0.148 A 
ATOM     84  C   UNL A   1      47.731  30.420  27.484  1.00  0.00     0.002 A 
ATOM     85  C   UNL A   1      46.993  32.655  26.964  1.00  0.00     0.091 A 
ATOM     86  F   UNL A   1      44.931  33.440  27.833  1.00  0.00    -0.205 F 
ATOM     87  C   UNL A   1      47.965  31.648  26.884  1.00  0.00     0.022 A 
BRANCH  85  88
ATOM     88  S   UNL A   1      47.342  34.176  26.067  1.00  0.00     0.127 S 
ATOM     89  O   UNL A   1      47.451  35.151  27.150  1.00  0.00    -0.237 OA
ATOM     90  O   UNL A   1      48.606  33.839  25.412  1.00  0.00    -0.237 OA
ATOM     91  O   UNL A   1      46.215  34.370  25.167  1.00  0.00    -0.744 OA
ENDBRANCH  85  88
ENDBRANCH  57  81
BRANCH  69  92
ATOM     92  C   UNL A   1      39.361  28.706  28.774  1.00  0.00     0.023 A 
ATOM     93  C   UNL A   1      38.494  29.446  27.952  1.00  0.00     0.012 A 
ATOM     94  C   UNL A   1      39.188  28.766  30.176  1.00  0.00     0.148 A 
ATOM     95  C   UNL A   1      37.465  30.212  28.500  1.00  0.00     0.002 A 
ATOM     96  C   UNL A   1      38.133  29.495  30.716  1.00  0.00     0.091 A 
ATOM     97  F   UNL A   1      40.048  28.104  30.965  1.00  0.00    -0.205 F 
ATOM     98  C   UNL A   1      37.274  30.223  29.878  1.00  0.00     0.022 A 
BRANCH  96  99
ATOM     99  S   UNL A   1      37.743  29.513  32.471  1.00  0.00     0.127 S 
ATOM    100  O   UNL A   1      36.506  30.294  32.503  1.00  0.00    -0.237 OA
ATOM    101  O   UNL A   1      37.568  28.088  32.756  1.00  0.00    -0.237 OA
ATOM    102  O   UNL A   1      38.879  30.132  33.140  1.00  0.00    -0.744 OA
ENDBRANCH  96  99
ENDBRANCH  69  92
ENDBRANCH  43  44
ENDBRANCH  35  38
ENDBRANCH  33  34
ENDBRANCH  32  33
ENDBRANCH   1  32
TORSDOF 17
ENDMDL
MODEL 3
REMARK VINA RESULT:     -11.7      1.874      2.282
REMARK SMILES O=C(Cn1c(=O)c2c3c(sc2n(Cc2ccc(Cl)cc2Cl)c1=O)CCCC3)NCCCCNC(=O)c1ccc(-c2c3nc(c(-c4cccc(S(=O)(=O)[O-])c4F)c4ccc([nH]4)c(-c4cccc(S(=O)(=O)[O-])c4F)c4nc(c(-c5cccc(S(=O)(=O)[O-])c5F)c5ccc2[nH]5)C=C4)C=C3)cc1
REMARK SMILES IDX 30 1 29 2 28 3 1 4 2 5 3 7 4 8 5 9 22 10 6 11 7 12 12 13
REMARK SMILES IDX 23 14 8 15 11 16 9 17 27 18 10 19 24 20 26 21 25 22 13 23
REMARK SMILES IDX 14 24 15 25 20 26 16 27 19 28 21 29 17 30 18 31 31 32 32 33
REMARK SMILES IDX 33 34 34 35 35 37 36 38 37 39 98 40 38 41 97 42 39 43 40 44
REMARK SMILES IDX 41 45 91 46 42 47 96 48 90 49 92 50 43 51 95 52 89 53 88 54
REMARK SMILES IDX 44 56 76 57 56 58 75 59 57 60 60 61 74 62 93 63 58 64 59 65
REMARK SMILES IDX 73 67 94 68 61 69 45 70 46 71 54 72 47 73 49 74 55 75 48 76
REMARK SMILES IDX 50 77 51 78 52 79 53 80 77 81 78 82 86 83 79 84 81 85 87 86
REMARK SMILES IDX 80 87 82 88 83 89 84 90 85 91 62 92 63 93 71 94 64 95 66 96
REMARK SMILES IDX 72 97 65 98 67 99 68 100 69 101 70 102
REMARK H PARENT 28 6 33 36 92 55 60 66
REMARK Flexibility Score: inf
ROOT
ATOM      1  C   UNL A   1      35.909  32.797  29.454  1.00  0.00     0.023 C 
ENDROOT
BRANCH   1   2
ATOM      2  C   UNL A   1      35.459  32.802  27.998  1.00  0.00     0.116 C 
BRANCH   2   3
ATOM      3  N   UNL A   1      34.400  31.850  27.726  1.00  0.00    -0.355 N 
ATOM      4  O   UNL A   1      35.781  30.075  27.260  1.00  0.00    -0.273 OA
ATOM      5  C   UNL A   1      34.669  30.508  27.564  1.00  0.00     0.240 C 
ATOM      6  H   UNL A   1      33.471  32.170  27.655  1.00  0.00     0.163 HD
BRANCH   5   7
ATOM      7  C   UNL A   1      33.454  29.577  27.620  1.00  0.00     0.230 C 
BRANCH   7   8
ATOM      8  N   UNL A   1      32.761  29.106  26.414  1.00  0.00    -0.250 N 
ATOM      9  C   UNL A   1      31.760  29.984  25.966  1.00  0.00     0.265 A 
ATOM     10  C   UNL A   1      33.249  28.001  25.692  1.00  0.00     0.332 A 
ATOM     11  O   UNL A   1      31.380  30.965  26.615  1.00  0.00    -0.268 OA
ATOM     12  C   UNL A   1      31.248  29.707  24.649  1.00  0.00     0.079 A 
ATOM     13  N   UNL A   1      32.674  27.716  24.452  1.00  0.00    -0.280 N 
ATOM     14  O   UNL A   1      34.154  27.290  26.129  1.00  0.00    -0.247 OA
ATOM     15  C   UNL A   1      30.219  30.368  23.881  1.00  0.00    -0.019 A 
ATOM     16  C   UNL A   1      31.759  28.635  23.965  1.00  0.00     0.113 A 
ATOM     17  C   UNL A   1      30.007  29.705  22.686  1.00  0.00     0.011 A 
ATOM     18  C   UNL A   1      29.371  31.545  24.261  1.00  0.00     0.037 C 
ATOM     19  S   UNL A   1      31.216  28.574  22.374  1.00  0.00    -0.122 S 
ATOM     20  C   UNL A   1      28.909  29.951  21.705  1.00  0.00     0.047 C 
ATOM     21  C   UNL A   1      28.589  32.081  23.043  1.00  0.00     0.005 C 
ATOM     22  C   UNL A   1      27.894  30.946  22.276  1.00  0.00     0.006 C 
BRANCH  13  23
ATOM     23  C   UNL A   1      33.034  26.443  23.762  1.00  0.00     0.165 C 
BRANCH  23  24
ATOM     24  C   UNL A   1      32.858  25.233  24.666  1.00  0.00    -0.009 A 
ATOM     25  C   UNL A   1      33.951  24.365  24.841  1.00  0.00     0.008 A 
ATOM     26  C   UNL A   1      31.691  24.982  25.415  1.00  0.00     0.047 A 
ATOM     27  C   UNL A   1      33.926  23.386  25.832  1.00  0.00     0.021 A 
ATOM     28  C   UNL A   1      31.711  24.094  26.484  1.00  0.00     0.041 A 
ATOM     29  Cl  UNL A   1      30.142  25.620  24.984  1.00  0.00    -0.084 Cl
ATOM     30  C   UNL A   1      32.842  23.320  26.696  1.00  0.00     0.042 A 
ATOM     31  Cl  UNL A   1      32.900  22.270  28.029  1.00  0.00    -0.084 Cl
ENDBRANCH  23  24
ENDBRANCH  13  23
ENDBRANCH   7   8
ENDBRANCH   5   7
ENDBRANCH   2   3
ENDBRANCH   1   2
BRANCH   1  32
ATOM     32  C   UNL A   1      37.428  32.903  29.679  1.00  0.00     0.023 C 
BRANCH  32  33
ATOM     33  C   UNL A   1      37.966  32.273  30.977  1.00  0.00     0.116 C 
BRANCH  33  34
ATOM     34  N   UNL A   1      37.331  30.993  31.223  1.00  0.00    -0.352 N 
ATOM     35  C   UNL A   1      37.549  29.749  30.693  1.00  0.00     0.251 C 
ATOM     36  H   UNL A   1      36.610  31.023  31.894  1.00  0.00     0.163 HD
ATOM     37  O   UNL A   1      36.612  28.948  30.733  1.00  0.00    -0.269 OA
BRANCH  35  38
ATOM     38  C   UNL A   1      38.844  29.313  30.111  1.00  0.00     0.039 A 
ATOM     39  C   UNL A   1      38.819  28.863  28.782  1.00  0.00     0.014 A 
ATOM     40  C   UNL A   1      40.012  29.149  30.863  1.00  0.00     0.014 A 
ATOM     41  C   UNL A   1      39.945  28.266  28.210  1.00  0.00     0.010 A 
ATOM     42  C   UNL A   1      41.147  28.556  30.282  1.00  0.00     0.010 A 
ATOM     43  C   UNL A   1      41.122  28.110  28.953  1.00  0.00    -0.014 A 
BRANCH  43  44
ATOM     44  C   UNL A   1      42.312  27.593  28.236  1.00  0.00     0.031 A 
ATOM     45  C   UNL A   1      43.266  28.639  27.733  1.00  0.00     0.074 A 
ATOM     46  C   UNL A   1      42.757  26.331  28.438  1.00  0.00     0.049 A 
ATOM     47  N   UNL A   1      44.203  29.179  28.458  1.00  0.00    -0.248 NA
ATOM     48  C   UNL A   1      43.054  29.321  26.456  1.00  0.00     0.031 C 
ATOM     49  C   UNL A   1      42.883  25.727  29.772  1.00  0.00     0.029 A 
ATOM     50  N   UNL A   1      43.416  25.449  27.604  1.00  0.00    -0.354 N 
ATOM     51  C   UNL A   1      44.694  30.280  27.762  1.00  0.00     0.074 A 
ATOM     52  C   UNL A   1      43.938  30.330  26.530  1.00  0.00     0.031 C 
ATOM     53  C   UNL A   1      43.714  24.667  29.691  1.00  0.00     0.029 A 
ATOM     54  C   UNL A   1      44.082  24.433  28.293  1.00  0.00     0.049 A 
ATOM     55  H   UNL A   1      43.418  25.530  26.623  1.00  0.00     0.167 HD
ATOM     56  C   UNL A   1      45.712  31.060  28.227  1.00  0.00     0.034 A 
ATOM     57  C   UNL A   1      45.243  23.847  27.872  1.00  0.00     0.034 A 
ATOM     58  C   UNL A   1      46.272  30.615  29.485  1.00  0.00     0.049 A 
ATOM     59  C   UNL A   1      46.233  24.923  28.243  1.00  0.00     0.074 A 
ATOM     60  C   UNL A   1      46.244  30.957  30.821  1.00  0.00     0.029 A 
ATOM     61  N   UNL A   1      47.097  29.517  29.457  1.00  0.00    -0.354 N 
ATOM     62  N   UNL A   1      46.643  25.197  29.455  1.00  0.00    -0.248 NA
ATOM     63  C   UNL A   1      46.426  25.999  27.272  1.00  0.00     0.031 C 
ATOM     64  C   UNL A   1      46.628  29.776  31.537  1.00  0.00     0.029 A 
ATOM     65  C   UNL A   1      46.873  28.785  30.593  1.00  0.00     0.049 A 
ATOM     66  H   UNL A   1      47.737  29.294  28.743  1.00  0.00     0.167 HD
ATOM     67  C   UNL A   1      46.832  26.581  29.471  1.00  0.00     0.074 A 
ATOM     68  C   UNL A   1      46.691  27.005  28.090  1.00  0.00     0.031 C 
ATOM     69  C   UNL A   1      46.911  27.339  30.606  1.00  0.00     0.034 A 
BRANCH  56  70
ATOM     70  C   UNL A   1      46.398  32.170  27.487  1.00  0.00     0.023 A 
ATOM     71  C   UNL A   1      47.660  31.845  26.942  1.00  0.00     0.012 A 
ATOM     72  C   UNL A   1      46.001  33.521  27.485  1.00  0.00     0.148 A 
ATOM     73  C   UNL A   1      48.545  32.825  26.503  1.00  0.00     0.002 A 
ATOM     74  C   UNL A   1      46.918  34.508  27.105  1.00  0.00     0.091 A 
ATOM     75  F   UNL A   1      44.749  33.832  27.847  1.00  0.00    -0.205 F 
ATOM     76  C   UNL A   1      48.189  34.159  26.619  1.00  0.00     0.022 A 
BRANCH  74  77
ATOM     77  S   UNL A   1      46.626  36.273  27.315  1.00  0.00     0.127 S 
ATOM     78  O   UNL A   1      46.409  36.379  28.759  1.00  0.00    -0.237 OA
ATOM     79  O   UNL A   1      47.889  36.846  26.849  1.00  0.00    -0.237 OA
ATOM     80  O   UNL A   1      45.464  36.595  26.500  1.00  0.00    -0.744 OA
ENDBRANCH  74  77
ENDBRANCH  56  70
BRANCH  57  81
ATOM     81  C   UNL A   1      45.187  23.183  26.523  1.00  0.00     0.023 A 
ATOM     82  C   UNL A   1      45.875  23.842  25.476  1.00  0.00     0.012 A 
ATOM     83  C   UNL A   1      44.550  21.968  26.207  1.00  0.00     0.148 A 
ATOM     84  C   UNL A   1      46.048  23.256  24.220  1.00  0.00     0.002 A 
ATOM     85  C   UNL A   1      44.788  21.347  24.981  1.00  0.00     0.091 A 
ATOM     86  F   UNL A   1      43.709  21.419  27.091  1.00  0.00    -0.205 F 
ATOM     87  C   UNL A   1      45.541  21.986  23.987  1.00  0.00     0.022 A 
BRANCH  85  88
ATOM     88  S   UNL A   1      44.263  19.662  24.627  1.00  0.00     0.127 S 
ATOM     89  O   UNL A   1      42.852  19.697  25.003  1.00  0.00    -0.237 OA
ATOM     90  O   UNL A   1      44.516  19.579  23.188  1.00  0.00    -0.237 OA
ATOM     91  O   UNL A   1      45.105  18.805  25.449  1.00  0.00    -0.744 OA
ENDBRANCH  85  88
ENDBRANCH  57  81
BRANCH  69  92
ATOM     92  C   UNL A   1      46.870  26.608  31.919  1.00  0.00     0.023 A 
ATOM     93  C   UNL A   1      48.069  26.106  32.454  1.00  0.00     0.012 A 
ATOM     94  C   UNL A   1      45.680  26.476  32.671  1.00  0.00     0.148 A 
ATOM     95  C   UNL A   1      48.098  25.506  33.712  1.00  0.00     0.002 A 
ATOM     96  C   UNL A   1      45.722  25.917  33.945  1.00  0.00     0.091 A 
ATOM     97  F   UNL A   1      44.525  26.905  32.140  1.00  0.00    -0.205 F 
ATOM     98  C   UNL A   1      46.930  25.427  34.464  1.00  0.00     0.022 A 
BRANCH  96  99
ATOM     99  S   UNL A   1      44.293  25.839  35.035  1.00  0.00     0.127 S 
ATOM    100  O   UNL A   1      43.409  24.921  34.316  1.00  0.00    -0.237 OA
ATOM    101  O   UNL A   1      44.876  25.287  36.259  1.00  0.00    -0.237 OA
ATOM    102  O   UNL A   1      43.795  27.202  35.160  1.00  0.00    -0.744 OA
ENDBRANCH  96  99
ENDBRANCH  69  92
ENDBRANCH  43  44
ENDBRANCH  35  38
ENDBRANCH  33  34
ENDBRANCH  32  33
ENDBRANCH   1  32
TORSDOF 17
ENDMDL
