MODEL 1
REMARK VINA RESULT:     -12.8      0.000      0.000
REMARK SMILES Cc1ccc(-c2cc(Cl)ccc2Cl)c(C(=O)NCCCCNC(=O)c2ccc(-c3c4nc(c(-c5cccc(S(=O)(=O)[O-])c5F)c5ccc([nH]5)c(-c5cccc(S(=O)(=O)[O-])c5F)c5nc(c(-c6cccc(S(=O)(=O)[O-])c6F)c6ccc3[nH]6)C=C5)C=C4)cc2)c1
REMARK SMILES IDX 20 1 19 2 18 3 17 4 15 5 16 6 14 8 1 9 2 10 3 11 88 12 4 13
REMARK SMILES IDX 5 14 6 15 7 16 12 17 8 18 11 19 13 20 9 21 10 22 21 23 22 24
REMARK SMILES IDX 23 25 24 27 25 28 26 29 87 30 27 31 86 32 28 33 29 34 30 35
REMARK SMILES IDX 80 36 31 37 85 38 79 39 81 40 32 41 84 42 78 43 77 44 33 46
REMARK SMILES IDX 65 47 45 48 64 49 46 50 49 51 63 52 82 53 47 54 48 55 62 57
REMARK SMILES IDX 83 58 50 59 34 60 35 61 43 62 36 63 38 64 44 65 37 66 39 67
REMARK SMILES IDX 40 68 41 69 42 70 66 71 67 72 75 73 68 74 70 75 76 76 69 77
REMARK SMILES IDX 71 78 72 79 73 80 74 81 51 82 52 83 60 84 53 85 55 86 61 87
REMARK SMILES IDX 54 88 56 89 57 90 58 91 59 92
REMARK H PARENT 17 7 22 26 81 45 49 56
REMARK Flexibility Score: inf
ROOT
ATOM      1  C   UNL A   1      37.271  22.229  26.017  1.00  0.00     0.023 C 
ENDROOT
BRANCH   1   2
ATOM      2  C   UNL A   1      36.323  22.213  24.806  1.00  0.00     0.023 C 
BRANCH   2   3
ATOM      3  C   UNL A   1      35.842  23.593  24.326  1.00  0.00     0.116 C 
BRANCH   3   4
ATOM      4  N   UNL A   1      35.110  23.503  23.076  1.00  0.00    -0.352 N 
ATOM      5  C   UNL A   1      33.814  23.716  22.674  1.00  0.00     0.251 C 
ATOM      6  O   UNL A   1      33.631  23.527  21.471  1.00  0.00    -0.269 OA
ATOM      7  H   UNL A   1      35.685  23.219  22.330  1.00  0.00     0.163 HD
BRANCH   5   8
ATOM      8  C   UNL A   1      32.675  24.167  23.563  1.00  0.00     0.047 A 
ATOM      9  C   UNL A   1      30.533  27.308  24.022  1.00  0.00     0.044 C 
ATOM     10  C   UNL A   1      31.043  25.907  24.203  1.00  0.00    -0.050 A 
ATOM     11  C   UNL A   1      30.377  25.002  25.013  1.00  0.00     0.004 A 
ATOM     12  C   UNL A   1      32.202  25.490  23.534  1.00  0.00     0.018 A 
ATOM     13  C   UNL A   1      30.871  23.706  25.147  1.00  0.00     0.010 A 
ATOM     14  C   UNL A   1      32.007  23.253  24.428  1.00  0.00    -0.004 A 
BRANCH  14  15
ATOM     15  C   UNL A   1      32.433  21.852  24.669  1.00  0.00     0.003 A 
ATOM     16  C   UNL A   1      32.220  20.886  23.663  1.00  0.00     0.030 A 
ATOM     17  C   UNL A   1      33.064  21.427  25.858  1.00  0.00     0.049 A 
ATOM     18  C   UNL A   1      32.570  19.548  23.859  1.00  0.00     0.041 A 
ATOM     19  C   UNL A   1      33.442  20.089  26.035  1.00  0.00     0.023 A 
ATOM     20  Cl  UNL A   1      33.411  22.516  27.159  1.00  0.00    -0.084 Cl
ATOM     21  Cl  UNL A   1      32.236  18.386  22.634  1.00  0.00    -0.084 Cl
ATOM     22  C   UNL A   1      33.185  19.147  25.040  1.00  0.00     0.022 A 
ENDBRANCH  14  15
ENDBRANCH   5   8
ENDBRANCH   3   4
ENDBRANCH   2   3
ENDBRANCH   1   2
BRANCH   1  23
ATOM     23  C   UNL A   1      38.700  21.868  25.661  1.00  0.00     0.116 C 
BRANCH  23  24
ATOM     24  N   UNL A   1      39.592  21.910  26.799  1.00  0.00    -0.352 N 
ATOM     25  C   UNL A   1      40.436  22.927  27.193  1.00  0.00     0.251 C 
ATOM     26  H   UNL A   1      39.598  21.106  27.366  1.00  0.00     0.163 HD
ATOM     27  O   UNL A   1      41.514  22.591  27.692  1.00  0.00    -0.269 OA
BRANCH  25  28
ATOM     28  C   UNL A   1      39.991  24.347  27.220  1.00  0.00     0.039 A 
ATOM     29  C   UNL A   1      40.670  25.246  26.380  1.00  0.00     0.014 A 
ATOM     30  C   UNL A   1      39.187  24.848  28.234  1.00  0.00     0.014 A 
ATOM     31  C   UNL A   1      40.813  26.578  26.755  1.00  0.00     0.010 A 
ATOM     32  C   UNL A   1      39.370  26.137  28.647  1.00  0.00     0.010 A 
ATOM     33  C   UNL A   1      40.280  26.952  27.973  1.00  0.00    -0.014 A 
BRANCH  33  34
ATOM     34  C   UNL A   1      40.584  28.150  28.719  1.00  0.00     0.031 A 
ATOM     35  C   UNL A   1      39.647  29.282  28.615  1.00  0.00     0.074 A 
ATOM     36  C   UNL A   1      41.373  27.930  29.800  1.00  0.00     0.049 A 
ATOM     37  N   UNL A   1      39.765  30.368  29.289  1.00  0.00    -0.248 NA
ATOM     38  C   UNL A   1      38.473  29.270  27.741  1.00  0.00     0.031 C 
ATOM     39  C   UNL A   1      41.315  28.606  31.090  1.00  0.00     0.029 A 
ATOM     40  N   UNL A   1      42.412  27.007  29.991  1.00  0.00    -0.354 N 
ATOM     41  C   UNL A   1      38.556  31.023  29.209  1.00  0.00     0.074 A 
ATOM     42  C   UNL A   1      37.856  30.396  28.118  1.00  0.00     0.031 C 
ATOM     43  C   UNL A   1      42.418  28.297  31.793  1.00  0.00     0.029 A 
ATOM     44  C   UNL A   1      43.313  27.611  30.879  1.00  0.00     0.049 A 
ATOM     45  H   UNL A   1      42.491  26.114  29.585  1.00  0.00     0.167 HD
ATOM     46  C   UNL A   1      38.245  31.911  30.192  1.00  0.00     0.034 A 
ATOM     47  C   UNL A   1      44.532  28.104  30.487  1.00  0.00     0.034 A 
ATOM     48  C   UNL A   1      39.415  32.132  31.061  1.00  0.00     0.049 A 
ATOM     49  C   UNL A   1      44.624  29.626  30.612  1.00  0.00     0.074 A 
ATOM     50  C   UNL A   1      39.759  31.685  32.324  1.00  0.00     0.029 A 
ATOM     51  N   UNL A   1      40.585  32.636  30.494  1.00  0.00    -0.354 N 
ATOM     52  N   UNL A   1      43.621  30.400  30.936  1.00  0.00    -0.248 NA
ATOM     53  C   UNL A   1      45.843  30.399  30.382  1.00  0.00     0.031 C 
ATOM     54  C   UNL A   1      41.177  31.796  32.450  1.00  0.00     0.029 A 
ATOM     55  C   UNL A   1      41.688  32.364  31.292  1.00  0.00     0.049 A 
ATOM     56  H   UNL A   1      40.624  33.122  29.639  1.00  0.00     0.167 HD
ATOM     57  C   UNL A   1      43.966  31.717  30.802  1.00  0.00     0.074 A 
ATOM     58  C   UNL A   1      45.398  31.659  30.554  1.00  0.00     0.031 C 
ATOM     59  C   UNL A   1      43.037  32.728  30.838  1.00  0.00     0.034 A 
BRANCH  46  60
ATOM     60  C   UNL A   1      36.866  32.470  30.503  1.00  0.00     0.023 A 
ATOM     61  C   UNL A   1      36.354  32.211  31.794  1.00  0.00     0.012 A 
ATOM     62  C   UNL A   1      35.991  33.152  29.616  1.00  0.00     0.148 A 
ATOM     63  C   UNL A   1      35.065  32.596  32.185  1.00  0.00     0.002 A 
ATOM     64  C   UNL A   1      34.729  33.595  30.028  1.00  0.00     0.091 A 
ATOM     65  F   UNL A   1      36.319  33.303  28.331  1.00  0.00    -0.205 F 
ATOM     66  C   UNL A   1      34.256  33.304  31.309  1.00  0.00     0.022 A 
BRANCH  64  67
ATOM     67  S   UNL A   1      33.641  34.568  28.963  1.00  0.00     0.127 S 
ATOM     68  O   UNL A   1      33.208  33.578  27.978  1.00  0.00    -0.237 OA
ATOM     69  O   UNL A   1      32.593  34.997  29.891  1.00  0.00    -0.237 OA
ATOM     70  O   UNL A   1      34.454  35.655  28.432  1.00  0.00    -0.744 OA
ENDBRANCH  64  67
ENDBRANCH  46  60
BRANCH  47  71
ATOM     71  C   UNL A   1      45.184  27.266  29.432  1.00  0.00     0.023 A 
ATOM     72  C   UNL A   1      45.481  25.929  29.791  1.00  0.00     0.012 A 
ATOM     73  C   UNL A   1      45.043  27.588  28.071  1.00  0.00     0.148 A 
ATOM     74  C   UNL A   1      45.431  24.907  28.842  1.00  0.00     0.002 A 
ATOM     75  C   UNL A   1      44.984  26.560  27.130  1.00  0.00     0.091 A 
ATOM     76  F   UNL A   1      44.881  28.872  27.730  1.00  0.00    -0.205 F 
ATOM     77  C   UNL A   1      45.126  25.218  27.521  1.00  0.00     0.022 A 
BRANCH  75  78
ATOM     78  S   UNL A   1      44.557  26.878  25.411  1.00  0.00     0.127 S 
ATOM     79  O   UNL A   1      43.643  28.009  25.537  1.00  0.00    -0.237 OA
ATOM     80  O   UNL A   1      45.854  27.204  24.820  1.00  0.00    -0.237 OA
ATOM     81  O   UNL A   1      43.977  25.634  24.928  1.00  0.00    -0.744 OA
ENDBRANCH  75  78
ENDBRANCH  47  71
BRANCH  59  82
ATOM     82  C   UNL A   1      43.311  34.169  30.421  1.00  0.00     0.023 A 
ATOM     83  C   UNL A   1      43.582  35.188  31.356  1.00  0.00     0.012 A 
ATOM     84  C   UNL A   1      43.444  34.527  29.053  1.00  0.00     0.148 A 
ATOM     85  C   UNL A   1      43.870  36.502  30.968  1.00  0.00     0.002 A 
ATOM     86  C   UNL A   1      43.869  35.798  28.675  1.00  0.00     0.091 A 
ATOM     87  F   UNL A   1      43.135  33.642  28.094  1.00  0.00    -0.205 F 
ATOM     88  C   UNL A   1      44.037  36.803  29.627  1.00  0.00     0.022 A 
BRANCH  86  89
ATOM     89  S   UNL A   1      44.384  36.141  26.985  1.00  0.00     0.127 S 
ATOM     90  O   UNL A   1      45.531  35.251  26.831  1.00  0.00    -0.237 OA
ATOM     91  O   UNL A   1      43.202  35.750  26.213  1.00  0.00    -0.237 OA
ATOM     92  O   UNL A   1      44.666  37.569  26.958  1.00  0.00    -0.744 OA
ENDBRANCH  86  89
ENDBRANCH  59  82
ENDBRANCH  33  34
ENDBRANCH  25  28
ENDBRANCH  23  24
ENDBRANCH   1  23
TORSDOF 15
ENDMDL
MODEL 2
REMARK VINA RESULT:     -12.7      4.284      9.491
REMARK SMILES Cc1ccc(-c2cc(Cl)ccc2Cl)c(C(=O)NCCCCNC(=O)c2ccc(-c3c4nc(c(-c5cccc(S(=O)(=O)[O-])c5F)c5ccc([nH]5)c(-c5cccc(S(=O)(=O)[O-])c5F)c5nc(c(-c6cccc(S(=O)(=O)[O-])c6F)c6ccc3[nH]6)C=C5)C=C4)cc2)c1
REMARK SMILES IDX 20 1 19 2 18 3 17 4 15 5 16 6 14 8 1 9 2 10 3 11 88 12 4 13
REMARK SMILES IDX 5 14 6 15 7 16 12 17 8 18 11 19 13 20 9 21 10 22 21 23 22 24
REMARK SMILES IDX 23 25 24 27 25 28 26 29 87 30 27 31 86 32 28 33 29 34 30 35
REMARK SMILES IDX 80 36 31 37 85 38 79 39 81 40 32 41 84 42 78 43 77 44 33 46
REMARK SMILES IDX 65 47 45 48 64 49 46 50 49 51 63 52 82 53 47 54 48 55 62 57
REMARK SMILES IDX 83 58 50 59 34 60 35 61 43 62 36 63 38 64 44 65 37 66 39 67
REMARK SMILES IDX 40 68 41 69 42 70 66 71 67 72 75 73 68 74 70 75 76 76 69 77
REMARK SMILES IDX 71 78 72 79 73 80 74 81 51 82 52 83 60 84 53 85 55 86 61 87
REMARK SMILES IDX 54 88 56 89 57 90 58 91 59 92
REMARK H PARENT 17 7 22 26 81 45 49 56
REMARK Flexibility Score: inf
ROOT
ATOM      1  C   UNL A   1      33.861  30.184  26.839  1.00  0.00     0.023 C 
ENDROOT
BRANCH   1   2
ATOM      2  C   UNL A   1      32.843  29.143  27.333  1.00  0.00     0.023 C 
BRANCH   2   3
ATOM      3  C   UNL A   1      32.532  28.003  26.349  1.00  0.00     0.116 C 
BRANCH   3   4
ATOM      4  N   UNL A   1      32.868  28.364  24.983  1.00  0.00    -0.352 N 
ATOM      5  C   UNL A   1      32.167  28.638  23.835  1.00  0.00     0.251 C 
ATOM      6  O   UNL A   1      32.883  28.922  22.874  1.00  0.00    -0.269 OA
ATOM      7  H   UNL A   1      33.840  28.428  24.846  1.00  0.00     0.163 HD
BRANCH   5   8
ATOM      8  C   UNL A   1      30.660  28.639  23.697  1.00  0.00     0.047 A 
ATOM      9  C   UNL A   1      27.890  31.204  23.057  1.00  0.00     0.044 C 
ATOM     10  C   UNL A   1      28.567  29.883  23.281  1.00  0.00    -0.050 A 
ATOM     11  C   UNL A   1      27.866  28.692  23.176  1.00  0.00     0.004 A 
ATOM     12  C   UNL A   1      29.934  29.837  23.587  1.00  0.00     0.018 A 
ATOM     13  C   UNL A   1      28.530  27.484  23.377  1.00  0.00     0.010 A 
ATOM     14  C   UNL A   1      29.924  27.420  23.626  1.00  0.00    -0.004 A 
BRANCH  14  15
ATOM     15  C   UNL A   1      30.505  26.070  23.830  1.00  0.00     0.003 A 
ATOM     16  C   UNL A   1      30.281  25.402  25.052  1.00  0.00     0.030 A 
ATOM     17  C   UNL A   1      31.267  25.397  22.850  1.00  0.00     0.049 A 
ATOM     18  C   UNL A   1      30.839  24.147  25.303  1.00  0.00     0.041 A 
ATOM     19  C   UNL A   1      31.797  24.124  23.097  1.00  0.00     0.023 A 
ATOM     20  Cl  UNL A   1      31.592  26.091  21.296  1.00  0.00    -0.084 Cl
ATOM     21  Cl  UNL A   1      30.596  23.391  26.831  1.00  0.00    -0.084 Cl
ATOM     22  C   UNL A   1      31.593  23.503  24.328  1.00  0.00     0.022 A 
ENDBRANCH  14  15
ENDBRANCH   5   8
ENDBRANCH   3   4
ENDBRANCH   2   3
ENDBRANCH   1   2
BRANCH   1  23
ATOM     23  C   UNL A   1      34.559  30.917  27.968  1.00  0.00     0.116 C 
BRANCH  23  24
ATOM     24  N   UNL A   1      34.178  32.311  28.056  1.00  0.00    -0.352 N 
ATOM     25  C   UNL A   1      34.347  33.184  29.109  1.00  0.00     0.251 C 
ATOM     26  H   UNL A   1      33.740  32.684  27.257  1.00  0.00     0.163 HD
ATOM     27  O   UNL A   1      33.453  34.016  29.288  1.00  0.00    -0.269 OA
BRANCH  25  28
ATOM     28  C   UNL A   1      35.630  33.268  29.858  1.00  0.00     0.039 A 
ATOM     29  C   UNL A   1      36.784  33.577  29.117  1.00  0.00     0.014 A 
ATOM     30  C   UNL A   1      35.770  32.757  31.140  1.00  0.00     0.014 A 
ATOM     31  C   UNL A   1      38.020  33.074  29.510  1.00  0.00     0.010 A 
ATOM     32  C   UNL A   1      36.964  32.202  31.505  1.00  0.00     0.010 A 
ATOM     33  C   UNL A   1      38.045  32.261  30.626  1.00  0.00    -0.014 A 
BRANCH  33  34
ATOM     34  C   UNL A   1      39.109  31.367  31.021  1.00  0.00     0.031 A 
ATOM     35  C   UNL A   1      39.209  30.069  30.331  1.00  0.00     0.074 A 
ATOM     36  C   UNL A   1      40.170  32.001  31.580  1.00  0.00     0.049 A 
ATOM     37  N   UNL A   1      40.153  29.226  30.537  1.00  0.00    -0.248 NA
ATOM     38  C   UNL A   1      38.245  29.623  29.325  1.00  0.00     0.031 C 
ATOM     39  C   UNL A   1      41.579  31.653  31.445  1.00  0.00     0.029 A 
ATOM     40  N   UNL A   1      40.219  33.144  32.392  1.00  0.00    -0.354 N 
ATOM     41  C   UNL A   1      40.123  28.327  29.493  1.00  0.00     0.074 A 
ATOM     42  C   UNL A   1      38.838  28.513  28.871  1.00  0.00     0.031 C 
ATOM     43  C   UNL A   1      42.287  32.349  32.351  1.00  0.00     0.029 A 
ATOM     44  C   UNL A   1      41.323  32.974  33.239  1.00  0.00     0.049 A 
ATOM     45  H   UNL A   1      39.602  33.910  32.372  1.00  0.00     0.167 HD
ATOM     46  C   UNL A   1      41.268  27.652  29.198  1.00  0.00     0.034 A 
ATOM     47  C   UNL A   1      41.205  32.675  34.573  1.00  0.00     0.034 A 
ATOM     48  C   UNL A   1      42.281  27.899  30.239  1.00  0.00     0.049 A 
ATOM     49  C   UNL A   1      41.735  31.281  34.917  1.00  0.00     0.074 A 
ATOM     50  C   UNL A   1      43.411  28.696  30.297  1.00  0.00     0.029 A 
ATOM     51  N   UNL A   1      41.993  27.537  31.555  1.00  0.00    -0.354 N 
ATOM     52  N   UNL A   1      42.145  30.411  34.032  1.00  0.00    -0.248 NA
ATOM     53  C   UNL A   1      41.847  30.755  36.276  1.00  0.00     0.031 C 
ATOM     54  C   UNL A   1      43.709  28.924  31.674  1.00  0.00     0.029 A 
ATOM     55  C   UNL A   1      42.803  28.220  32.453  1.00  0.00     0.049 A 
ATOM     56  H   UNL A   1      41.306  26.882  31.813  1.00  0.00     0.167 HD
ATOM     57  C   UNL A   1      42.401  29.205  34.625  1.00  0.00     0.074 A 
ATOM     58  C   UNL A   1      42.297  29.507  36.044  1.00  0.00     0.031 C 
ATOM     59  C   UNL A   1      42.604  28.056  33.899  1.00  0.00     0.034 A 
BRANCH  46  60
ATOM     60  C   UNL A   1      41.568  26.902  27.911  1.00  0.00     0.023 A 
ATOM     61  C   UNL A   1      41.675  27.678  26.736  1.00  0.00     0.012 A 
ATOM     62  C   UNL A   1      41.670  25.496  27.735  1.00  0.00     0.148 A 
ATOM     63  C   UNL A   1      41.868  27.108  25.471  1.00  0.00     0.002 A 
ATOM     64  C   UNL A   1      41.929  24.930  26.481  1.00  0.00     0.091 A 
ATOM     65  F   UNL A   1      41.426  24.671  28.756  1.00  0.00    -0.205 F 
ATOM     66  C   UNL A   1      42.013  25.734  25.343  1.00  0.00     0.022 A 
BRANCH  64  67
ATOM     67  S   UNL A   1      42.183  23.158  26.244  1.00  0.00     0.127 S 
ATOM     68  O   UNL A   1      43.110  22.832  27.326  1.00  0.00    -0.237 OA
ATOM     69  O   UNL A   1      40.833  22.620  26.419  1.00  0.00    -0.237 OA
ATOM     70  O   UNL A   1      42.722  22.998  24.899  1.00  0.00    -0.744 OA
ENDBRANCH  64  67
ENDBRANCH  46  60
BRANCH  47  71
ATOM     71  C   UNL A   1      40.041  33.358  35.219  1.00  0.00     0.023 A 
ATOM     72  C   UNL A   1      38.833  32.621  35.270  1.00  0.00     0.012 A 
ATOM     73  C   UNL A   1      40.242  34.396  36.145  1.00  0.00     0.148 A 
ATOM     74  C   UNL A   1      37.948  32.773  36.338  1.00  0.00     0.002 A 
ATOM     75  C   UNL A   1      39.358  34.536  37.216  1.00  0.00     0.091 A 
ATOM     76  F   UNL A   1      41.329  35.167  36.018  1.00  0.00    -0.205 F 
ATOM     77  C   UNL A   1      38.242  33.692  37.340  1.00  0.00     0.022 A 
BRANCH  75  78
ATOM     78  S   UNL A   1      39.688  35.675  38.569  1.00  0.00     0.127 S 
ATOM     79  O   UNL A   1      38.650  35.304  39.526  1.00  0.00    -0.237 OA
ATOM     80  O   UNL A   1      41.045  35.306  38.967  1.00  0.00    -0.237 OA
ATOM     81  O   UNL A   1      39.576  37.003  37.983  1.00  0.00    -0.744 OA
ENDBRANCH  75  78
ENDBRANCH  47  71
BRANCH  59  82
ATOM     82  C   UNL A   1      42.613  26.650  34.490  1.00  0.00     0.023 A 
ATOM     83  C   UNL A   1      41.526  26.131  35.221  1.00  0.00     0.012 A 
ATOM     84  C   UNL A   1      43.669  25.742  34.212  1.00  0.00     0.148 A 
ATOM     85  C   UNL A   1      41.523  24.827  35.731  1.00  0.00     0.002 A 
ATOM     86  C   UNL A   1      43.596  24.406  34.600  1.00  0.00     0.091 A 
ATOM     87  F   UNL A   1      44.776  26.168  33.586  1.00  0.00    -0.205 F 
ATOM     88  C   UNL A   1      42.547  23.955  35.401  1.00  0.00     0.022 A 
BRANCH  86  89
ATOM     89  S   UNL A   1      44.742  23.184  33.943  1.00  0.00     0.127 S 
ATOM     90  O   UNL A   1      44.540  23.320  32.504  1.00  0.00    -0.237 OA
ATOM     91  O   UNL A   1      46.034  23.677  34.426  1.00  0.00    -0.237 OA
ATOM     92  O   UNL A   1      44.329  21.920  34.537  1.00  0.00    -0.744 OA
ENDBRANCH  86  89
ENDBRANCH  59  82
ENDBRANCH  33  34
ENDBRANCH  25  28
ENDBRANCH  23  24
ENDBRANCH   1  23
TORSDOF 15
ENDMDL
MODEL 3
REMARK VINA RESULT:     -12.6      1.282      2.711
REMARK SMILES Cc1ccc(-c2cc(Cl)ccc2Cl)c(C(=O)NCCCCNC(=O)c2ccc(-c3c4nc(c(-c5cccc(S(=O)(=O)[O-])c5F)c5ccc([nH]5)c(-c5cccc(S(=O)(=O)[O-])c5F)c5nc(c(-c6cccc(S(=O)(=O)[O-])c6F)c6ccc3[nH]6)C=C5)C=C4)cc2)c1
REMARK SMILES IDX 20 1 19 2 18 3 17 4 15 5 16 6 14 8 1 9 2 10 3 11 88 12 4 13
REMARK SMILES IDX 5 14 6 15 7 16 12 17 8 18 11 19 13 20 9 21 10 22 21 23 22 24
REMARK SMILES IDX 23 25 24 27 25 28 26 29 87 30 27 31 86 32 28 33 29 34 30 35
REMARK SMILES IDX 80 36 31 37 85 38 79 39 81 40 32 41 84 42 78 43 77 44 33 46
REMARK SMILES IDX 65 47 45 48 64 49 46 50 49 51 63 52 82 53 47 54 48 55 62 57
REMARK SMILES IDX 83 58 50 59 34 60 35 61 43 62 36 63 38 64 44 65 37 66 39 67
REMARK SMILES IDX 40 68 41 69 42 70 66 71 67 72 75 73 68 74 70 75 76 76 69 77
REMARK SMILES IDX 71 78 72 79 73 80 74 81 51 82 52 83 60 84 53 85 55 86 61 87
REMARK SMILES IDX 54 88 56 89 57 90 58 91 59 92
REMARK H PARENT 17 7 22 26 81 45 49 56
REMARK Flexibility Score: inf
ROOT
ATOM      1  C   UNL A   1      38.539  20.886  25.447  1.00  0.00     0.023 C 
ENDROOT
BRANCH   1   2
ATOM      2  C   UNL A   1      37.249  20.945  24.612  1.00  0.00     0.023 C 
BRANCH   2   3
ATOM      3  C   UNL A   1      36.354  22.170  24.864  1.00  0.00     0.116 C 
BRANCH   3   4
ATOM      4  N   UNL A   1      35.331  21.896  25.857  1.00  0.00    -0.352 N 
ATOM      5  C   UNL A   1      34.167  21.170  25.899  1.00  0.00     0.251 C 
ATOM      6  O   UNL A   1      33.600  21.205  26.992  1.00  0.00    -0.269 OA
ATOM      7  H   UNL A   1      35.519  22.341  26.714  1.00  0.00     0.163 HD
BRANCH   5   8
ATOM      8  C   UNL A   1      33.589  20.357  24.760  1.00  0.00     0.047 A 
ATOM      9  C   UNL A   1      33.614  16.705  23.607  1.00  0.00     0.044 C 
ATOM     10  C   UNL A   1      33.286  18.170  23.654  1.00  0.00    -0.050 A 
ATOM     11  C   UNL A   1      32.339  18.718  22.802  1.00  0.00     0.004 A 
ATOM     12  C   UNL A   1      33.926  19.005  24.580  1.00  0.00     0.018 A 
ATOM     13  C   UNL A   1      32.049  20.079  22.883  1.00  0.00     0.010 A 
ATOM     14  C   UNL A   1      32.644  20.922  23.855  1.00  0.00    -0.004 A 
BRANCH  14  15
ATOM     15  C   UNL A   1      32.253  22.353  23.826  1.00  0.00     0.003 A 
ATOM     16  C   UNL A   1      32.796  23.195  22.833  1.00  0.00     0.030 A 
ATOM     17  C   UNL A   1      31.342  22.927  24.740  1.00  0.00     0.049 A 
ATOM     18  C   UNL A   1      32.487  24.556  22.790  1.00  0.00     0.041 A 
ATOM     19  C   UNL A   1      31.012  24.287  24.671  1.00  0.00     0.023 A 
ATOM     20  Cl  UNL A   1      30.581  22.000  25.990  1.00  0.00    -0.084 Cl
ATOM     21  Cl  UNL A   1      33.219  25.564  21.602  1.00  0.00    -0.084 Cl
ATOM     22  C   UNL A   1      31.593  25.104  23.703  1.00  0.00     0.022 A 
ENDBRANCH  14  15
ENDBRANCH   5   8
ENDBRANCH   3   4
ENDBRANCH   2   3
ENDBRANCH   1   2
BRANCH   1  23
ATOM     23  C   UNL A   1      39.098  22.256  25.777  1.00  0.00     0.116 C 
BRANCH  23  24
ATOM     24  N   UNL A   1      39.820  22.284  27.031  1.00  0.00    -0.352 N 
ATOM     25  C   UNL A   1      40.575  23.305  27.567  1.00  0.00     0.251 C 
ATOM     26  H   UNL A   1      39.764  21.464  27.573  1.00  0.00     0.163 HD
ATOM     27  O   UNL A   1      41.580  22.976  28.204  1.00  0.00    -0.269 OA
BRANCH  25  28
ATOM     28  C   UNL A   1      40.099  24.714  27.566  1.00  0.00     0.039 A 
ATOM     29  C   UNL A   1      40.751  25.610  26.702  1.00  0.00     0.014 A 
ATOM     30  C   UNL A   1      39.291  25.220  28.575  1.00  0.00     0.014 A 
ATOM     31  C   UNL A   1      40.866  26.953  27.046  1.00  0.00     0.010 A 
ATOM     32  C   UNL A   1      39.449  26.522  28.959  1.00  0.00     0.010 A 
ATOM     33  C   UNL A   1      40.334  27.341  28.260  1.00  0.00    -0.014 A 
BRANCH  33  34
ATOM     34  C   UNL A   1      40.617  28.563  28.977  1.00  0.00     0.031 A 
ATOM     35  C   UNL A   1      39.643  29.663  28.874  1.00  0.00     0.074 A 
ATOM     36  C   UNL A   1      41.437  28.387  30.044  1.00  0.00     0.049 A 
ATOM     37  N   UNL A   1      39.741  30.764  29.525  1.00  0.00    -0.248 NA
ATOM     38  C   UNL A   1      38.451  29.597  28.028  1.00  0.00     0.031 C 
ATOM     39  C   UNL A   1      41.386  29.085  31.322  1.00  0.00     0.029 A 
ATOM     40  N   UNL A   1      42.508  27.500  30.228  1.00  0.00    -0.354 N 
ATOM     41  C   UNL A   1      38.511  31.379  29.462  1.00  0.00     0.074 A 
ATOM     42  C   UNL A   1      37.808  30.711  28.398  1.00  0.00     0.031 C 
ATOM     43  C   UNL A   1      42.513  28.823  32.005  1.00  0.00     0.029 A 
ATOM     44  C   UNL A   1      43.409  28.149  31.084  1.00  0.00     0.049 A 
ATOM     45  H   UNL A   1      42.607  26.603  29.835  1.00  0.00     0.167 HD
ATOM     46  C   UNL A   1      38.194  32.276  30.435  1.00  0.00     0.034 A 
ATOM     47  C   UNL A   1      44.603  28.672  30.655  1.00  0.00     0.034 A 
ATOM     48  C   UNL A   1      39.376  32.549  31.273  1.00  0.00     0.049 A 
ATOM     49  C   UNL A   1      44.650  30.199  30.750  1.00  0.00     0.074 A 
ATOM     50  C   UNL A   1      39.762  32.137  32.536  1.00  0.00     0.029 A 
ATOM     51  N   UNL A   1      40.516  33.078  30.671  1.00  0.00    -0.354 N 
ATOM     52  N   UNL A   1      43.631  30.946  31.083  1.00  0.00    -0.248 NA
ATOM     53  C   UNL A   1      45.838  31.004  30.479  1.00  0.00     0.031 C 
ATOM     54  C   UNL A   1      41.178  32.294  32.627  1.00  0.00     0.029 A 
ATOM     55  C   UNL A   1      41.645  32.856  31.448  1.00  0.00     0.049 A 
ATOM     56  H   UNL A   1      40.521  33.550  29.807  1.00  0.00     0.167 HD
ATOM     57  C   UNL A   1      43.930  32.271  30.918  1.00  0.00     0.074 A 
ATOM     58  C   UNL A   1      45.358  32.253  30.638  1.00  0.00     0.031 C 
ATOM     59  C   UNL A   1      42.971  33.253  30.957  1.00  0.00     0.034 A 
BRANCH  46  60
ATOM     60  C   UNL A   1      36.805  32.797  30.767  1.00  0.00     0.023 A 
ATOM     61  C   UNL A   1      36.324  32.531  32.069  1.00  0.00     0.012 A 
ATOM     62  C   UNL A   1      35.896  33.448  29.892  1.00  0.00     0.148 A 
ATOM     63  C   UNL A   1      35.031  32.882  32.480  1.00  0.00     0.002 A 
ATOM     64  C   UNL A   1      34.629  33.858  30.324  1.00  0.00     0.091 A 
ATOM     65  F   UNL A   1      36.197  33.601  28.601  1.00  0.00    -0.205 F 
ATOM     66  C   UNL A   1      34.188  33.562  31.615  1.00  0.00     0.022 A 
BRANCH  64  67
ATOM     67  S   UNL A   1      33.496  34.793  29.273  1.00  0.00     0.127 S 
ATOM     68  O   UNL A   1      32.475  35.224  30.228  1.00  0.00    -0.237 OA
ATOM     69  O   UNL A   1      34.349  35.871  28.770  1.00  0.00    -0.237 OA
ATOM     70  O   UNL A   1      33.031  33.868  28.247  1.00  0.00    -0.744 OA
ENDBRANCH  64  67
ENDBRANCH  46  60
BRANCH  47  71
ATOM     71  C   UNL A   1      45.257  27.835  29.601  1.00  0.00     0.023 A 
ATOM     72  C   UNL A   1      45.577  26.505  29.967  1.00  0.00     0.012 A 
ATOM     73  C   UNL A   1      45.100  28.145  28.239  1.00  0.00     0.148 A 
ATOM     74  C   UNL A   1      45.533  25.475  29.026  1.00  0.00     0.002 A 
ATOM     75  C   UNL A   1      45.047  27.109  27.306  1.00  0.00     0.091 A 
ATOM     76  F   UNL A   1      44.917  29.424  27.890  1.00  0.00    -0.205 F 
ATOM     77  C   UNL A   1      45.212  25.772  27.705  1.00  0.00     0.022 A 
BRANCH  75  78
ATOM     78  S   UNL A   1      44.601  27.407  25.588  1.00  0.00     0.127 S 
ATOM     79  O   UNL A   1      44.217  26.071  25.146  1.00  0.00    -0.237 OA
ATOM     80  O   UNL A   1      43.493  28.352  25.711  1.00  0.00    -0.237 OA
ATOM     81  O   UNL A   1      45.798  27.967  24.977  1.00  0.00    -0.744 OA
ENDBRANCH  75  78
ENDBRANCH  47  71
BRANCH  59  82
ATOM     82  C   UNL A   1      43.191  34.694  30.508  1.00  0.00     0.023 A 
ATOM     83  C   UNL A   1      43.622  35.704  31.392  1.00  0.00     0.012 A 
ATOM     84  C   UNL A   1      43.103  35.059  29.138  1.00  0.00     0.148 A 
ATOM     85  C   UNL A   1      43.858  37.017  30.968  1.00  0.00     0.002 A 
ATOM     86  C   UNL A   1      43.476  36.328  28.703  1.00  0.00     0.091 A 
ATOM     87  F   UNL A   1      42.633  34.185  28.237  1.00  0.00    -0.205 F 
ATOM     88  C   UNL A   1      43.808  37.325  29.619  1.00  0.00     0.022 A 
BRANCH  86  89
ATOM     89  S   UNL A   1      43.713  36.677  26.953  1.00  0.00     0.127 S 
ATOM     90  O   UNL A   1      42.395  37.166  26.559  1.00  0.00    -0.237 OA
ATOM     91  O   UNL A   1      44.760  37.701  26.978  1.00  0.00    -0.237 OA
ATOM     92  O   UNL A   1      44.134  35.411  26.369  1.00  0.00    -0.744 OA
ENDBRANCH  86  89
ENDBRANCH  59  82
ENDBRANCH  33  34
ENDBRANCH  25  28
ENDBRANCH  23  24
ENDBRANCH   1  23
TORSDOF 15
ENDMDL
