MODEL 1
REMARK VINA RESULT:     -11.4      0.000      0.000
REMARK SMILES C=CC[N@H+](CC(=O)NCCCCNC(=O)c1ccc(-c2c3nc(c(-c4cccc(S(=O)(=O)[O-])c4F)c4ccc([nH]4)c(-c4cccc(S(=O)(=O)[O-])c4F)c4nc(c(-c5cccc(S(=O)(=O)[O-])c5F)c5ccc2[nH]5)C=C4)C=C3)cc1)[C@H](C)c1ccc(F)cc1O
REMARK SMILES IDX 10 1 9 2 8 3 6 4 7 5 5 7 4 8 3 10 2 11 1 12 79 13 80 14
REMARK SMILES IDX 81 15 82 16 87 17 83 18 86 19 84 20 85 21 88 22 11 24 12 25
REMARK SMILES IDX 13 26 14 27 15 29 16 30 17 31 78 32 18 33 77 34 19 35 20 36
REMARK SMILES IDX 21 37 71 38 22 39 76 40 70 41 72 42 23 43 75 44 69 45 68 46
REMARK SMILES IDX 24 48 56 49 36 50 55 51 37 52 40 53 54 54 73 55 38 56 39 57
REMARK SMILES IDX 53 59 74 60 41 61 25 62 26 63 34 64 27 65 29 66 35 67 28 68
REMARK SMILES IDX 30 69 31 70 32 71 33 72 57 73 58 74 66 75 59 76 61 77 67 78
REMARK SMILES IDX 60 79 62 80 63 81 64 82 65 83 42 84 43 85 51 86 44 87 46 88
REMARK SMILES IDX 52 89 45 90 47 91 48 92 49 93 50 94
REMARK H PARENT 8 6 4 9 88 23 13 28 72 47 40 58
REMARK Flexibility Score: inf
ROOT
ATOM      1  C   UNL A   1      32.231  27.239  26.493  1.00  0.00     0.023 C 
ENDROOT
BRANCH   1   2
ATOM      2  C   UNL A   1      31.607  26.070  25.717  1.00  0.00     0.116 C 
BRANCH   2   3
ATOM      3  N   UNL A   1      31.271  24.953  26.591  1.00  0.00    -0.351 N 
ATOM      4  C   UNL A   1      31.962  23.806  26.895  1.00  0.00     0.275 C 
ATOM      5  O   UNL A   1      31.406  22.972  27.616  1.00  0.00    -0.269 OA
ATOM      6  H   UNL A   1      30.399  25.035  27.040  1.00  0.00     0.163 HD
BRANCH   4   7
ATOM      7  C   UNL A   1      33.403  23.585  26.394  1.00  0.00     0.364 C 
BRANCH   7   8
ATOM      8  N   UNL A   1      33.527  22.606  25.259  1.00  0.00    -0.318 N 
ATOM      9  H   UNL A   1      32.664  22.085  25.108  1.00  0.00     0.349 HD
BRANCH   8  10
ATOM     10  C   UNL A   1      33.732  23.346  24.019  1.00  0.00     0.291 C 
BRANCH  10  11
ATOM     11  C   UNL A   1      32.735  23.395  22.899  1.00  0.00     0.025 C 
ATOM     12  C   UNL A   1      31.404  23.336  23.063  1.00  0.00     0.010 C 
ENDBRANCH  10  11
ENDBRANCH   8  10
BRANCH   8  13
ATOM     13  C   UNL A   1      34.484  21.515  25.585  1.00  0.00     0.216 C 
ATOM     14  C   UNL A   1      35.964  21.849  25.322  1.00  0.00     0.081 C 
BRANCH  13  15
ATOM     15  C   UNL A   1      34.011  20.141  25.097  1.00  0.00     0.051 A 
ATOM     16  C   UNL A   1      35.017  19.230  24.692  1.00  0.00     0.017 A 
ATOM     17  C   UNL A   1      32.686  19.672  25.100  1.00  0.00     0.127 A 
ATOM     18  C   UNL A   1      34.710  17.911  24.351  1.00  0.00     0.040 A 
ATOM     19  C   UNL A   1      32.371  18.366  24.726  1.00  0.00     0.085 A 
ATOM     20  C   UNL A   1      33.389  17.491  24.374  1.00  0.00     0.126 A 
ATOM     21  F   UNL A   1      33.093  16.217  24.087  1.00  0.00    -0.207 F 
BRANCH  17  22
ATOM     22  O   UNL A   1      31.631  20.406  25.562  1.00  0.00    -0.507 OA
ATOM     23  H   UNL A   1      31.506  21.285  25.265  1.00  0.00     0.293 HD
ENDBRANCH  17  22
ENDBRANCH  13  15
ENDBRANCH   8  13
ENDBRANCH   7   8
ENDBRANCH   4   7
ENDBRANCH   2   3
ENDBRANCH   1   2
BRANCH   1  24
ATOM     24  C   UNL A   1      31.747  28.621  26.097  1.00  0.00     0.023 C 
BRANCH  24  25
ATOM     25  C   UNL A   1      32.863  29.619  25.881  1.00  0.00     0.116 C 
BRANCH  25  26
ATOM     26  N   UNL A   1      32.572  30.945  26.425  1.00  0.00    -0.352 N 
ATOM     27  C   UNL A   1      33.343  31.703  27.279  1.00  0.00     0.251 C 
ATOM     28  H   UNL A   1      31.718  31.347  26.145  1.00  0.00     0.163 HD
ATOM     29  O   UNL A   1      32.935  32.770  27.723  1.00  0.00    -0.269 OA
BRANCH  27  30
ATOM     30  C   UNL A   1      34.658  31.168  27.679  1.00  0.00     0.039 A 
ATOM     31  C   UNL A   1      35.717  32.050  27.908  1.00  0.00     0.014 A 
ATOM     32  C   UNL A   1      34.773  29.812  27.990  1.00  0.00     0.014 A 
ATOM     33  C   UNL A   1      36.863  31.584  28.555  1.00  0.00     0.010 A 
ATOM     34  C   UNL A   1      35.860  29.384  28.734  1.00  0.00     0.010 A 
ATOM     35  C   UNL A   1      36.917  30.262  29.024  1.00  0.00    -0.014 A 
BRANCH  35  36
ATOM     36  C   UNL A   1      38.060  29.736  29.812  1.00  0.00     0.031 A 
ATOM     37  C   UNL A   1      38.264  30.244  31.214  1.00  0.00     0.074 A 
ATOM     38  C   UNL A   1      38.985  28.945  29.231  1.00  0.00     0.049 A 
ATOM     39  N   UNL A   1      39.305  30.120  31.994  1.00  0.00    -0.248 NA
ATOM     40  C   UNL A   1      37.174  31.052  31.789  1.00  0.00     0.031 C 
ATOM     41  C   UNL A   1      38.944  28.452  27.852  1.00  0.00     0.029 A 
ATOM     42  N   UNL A   1      40.167  28.448  29.723  1.00  0.00    -0.354 N 
ATOM     43  C   UNL A   1      39.027  30.898  33.111  1.00  0.00     0.074 A 
ATOM     44  C   UNL A   1      37.736  31.513  32.895  1.00  0.00     0.031 C 
ATOM     45  C   UNL A   1      40.045  27.719  27.612  1.00  0.00     0.029 A 
ATOM     46  C   UNL A   1      40.888  27.720  28.803  1.00  0.00     0.049 A 
ATOM     47  H   UNL A   1      40.471  28.597  30.647  1.00  0.00     0.167 HD
ATOM     48  C   UNL A   1      39.764  31.060  34.234  1.00  0.00     0.034 A 
ATOM     49  C   UNL A   1      42.096  27.129  28.909  1.00  0.00     0.034 A 
ATOM     50  C   UNL A   1      40.987  30.356  34.489  1.00  0.00     0.049 A 
ATOM     51  C   UNL A   1      42.840  27.227  30.214  1.00  0.00     0.074 A 
ATOM     52  C   UNL A   1      41.756  30.356  35.638  1.00  0.00     0.029 A 
ATOM     53  N   UNL A   1      41.605  29.502  33.589  1.00  0.00    -0.354 N 
ATOM     54  N   UNL A   1      42.500  27.862  31.310  1.00  0.00    -0.248 NA
ATOM     55  C   UNL A   1      44.117  26.505  30.311  1.00  0.00     0.031 C 
ATOM     56  C   UNL A   1      42.836  29.490  35.436  1.00  0.00     0.029 A 
ATOM     57  C   UNL A   1      42.737  28.955  34.161  1.00  0.00     0.049 A 
ATOM     58  H   UNL A   1      41.285  29.314  32.677  1.00  0.00     0.167 HD
ATOM     59  C   UNL A   1      43.496  27.582  32.238  1.00  0.00     0.074 A 
ATOM     60  C   UNL A   1      44.449  26.712  31.580  1.00  0.00     0.031 C 
ATOM     61  C   UNL A   1      43.622  28.022  33.514  1.00  0.00     0.034 A 
BRANCH  48  62
ATOM     62  C   UNL A   1      39.217  31.967  35.300  1.00  0.00     0.023 A 
ATOM     63  C   UNL A   1      39.340  33.363  35.150  1.00  0.00     0.012 A 
ATOM     64  C   UNL A   1      38.555  31.449  36.430  1.00  0.00     0.148 A 
ATOM     65  C   UNL A   1      38.848  34.229  36.125  1.00  0.00     0.002 A 
ATOM     66  C   UNL A   1      38.030  32.320  37.378  1.00  0.00     0.091 A 
ATOM     67  F   UNL A   1      38.473  30.118  36.571  1.00  0.00    -0.205 F 
ATOM     68  C   UNL A   1      38.185  33.708  37.233  1.00  0.00     0.022 A 
BRANCH  66  69
ATOM     69  S   UNL A   1      37.094  31.743  38.799  1.00  0.00     0.127 S 
ATOM     70  O   UNL A   1      38.060  31.922  39.880  1.00  0.00    -0.237 OA
ATOM     71  O   UNL A   1      35.966  32.675  38.829  1.00  0.00    -0.237 OA
ATOM     72  O   UNL A   1      36.729  30.366  38.499  1.00  0.00    -0.744 OA
ENDBRANCH  66  69
ENDBRANCH  48  62
BRANCH  49  73
ATOM     73  C   UNL A   1      42.630  26.315  27.780  1.00  0.00     0.023 A 
ATOM     74  C   UNL A   1      43.444  26.942  26.816  1.00  0.00     0.012 A 
ATOM     75  C   UNL A   1      42.373  24.936  27.669  1.00  0.00     0.148 A 
ATOM     76  C   UNL A   1      43.970  26.216  25.746  1.00  0.00     0.002 A 
ATOM     77  C   UNL A   1      42.942  24.208  26.627  1.00  0.00     0.091 A 
ATOM     78  F   UNL A   1      41.584  24.357  28.585  1.00  0.00    -0.205 F 
ATOM     79  C   UNL A   1      43.728  24.849  25.658  1.00  0.00     0.022 A 
BRANCH  77  80
ATOM     80  S   UNL A   1      42.785  22.422  26.512  1.00  0.00     0.127 S 
ATOM     81  O   UNL A   1      41.554  22.278  25.738  1.00  0.00    -0.237 OA
ATOM     82  O   UNL A   1      44.008  22.049  25.800  1.00  0.00    -0.237 OA
ATOM     83  O   UNL A   1      42.732  21.951  27.890  1.00  0.00    -0.744 OA
ENDBRANCH  77  80
ENDBRANCH  49  73
BRANCH  61  84
ATOM     84  C   UNL A   1      44.798  27.537  34.315  1.00  0.00     0.023 A 
ATOM     85  C   UNL A   1      45.980  28.300  34.341  1.00  0.00     0.012 A 
ATOM     86  C   UNL A   1      44.682  26.399  35.137  1.00  0.00     0.148 A 
ATOM     87  C   UNL A   1      47.038  27.931  35.171  1.00  0.00     0.002 A 
ATOM     88  C   UNL A   1      45.724  26.061  35.991  1.00  0.00     0.091 A 
ATOM     89  F   UNL A   1      43.551  25.681  35.079  1.00  0.00    -0.205 F 
ATOM     90  C   UNL A   1      46.904  26.822  36.006  1.00  0.00     0.022 A 
BRANCH  88  91
ATOM     91  S   UNL A   1      45.602  24.708  37.166  1.00  0.00     0.127 S 
ATOM     92  O   UNL A   1      44.317  24.984  37.805  1.00  0.00    -0.237 OA
ATOM     93  O   UNL A   1      45.610  23.535  36.292  1.00  0.00    -0.237 OA
ATOM     94  O   UNL A   1      46.768  24.822  38.031  1.00  0.00    -0.744 OA
ENDBRANCH  88  91
ENDBRANCH  61  84
ENDBRANCH  35  36
ENDBRANCH  27  30
ENDBRANCH  25  26
ENDBRANCH  24  25
ENDBRANCH   1  24
TORSDOF 20
ENDMDL
MODEL 2
REMARK VINA RESULT:     -11.3      1.853      2.314
REMARK SMILES C=CC[N@H+](CC(=O)NCCCCNC(=O)c1ccc(-c2c3nc(c(-c4cccc(S(=O)(=O)[O-])c4F)c4ccc([nH]4)c(-c4cccc(S(=O)(=O)[O-])c4F)c4nc(c(-c5cccc(S(=O)(=O)[O-])c5F)c5ccc2[nH]5)C=C4)C=C3)cc1)[C@H](C)c1ccc(F)cc1O
REMARK SMILES IDX 10 1 9 2 8 3 6 4 7 5 5 7 4 8 3 10 2 11 1 12 79 13 80 14
REMARK SMILES IDX 81 15 82 16 87 17 83 18 86 19 84 20 85 21 88 22 11 24 12 25
REMARK SMILES IDX 13 26 14 27 15 29 16 30 17 31 78 32 18 33 77 34 19 35 20 36
REMARK SMILES IDX 21 37 71 38 22 39 76 40 70 41 72 42 23 43 75 44 69 45 68 46
REMARK SMILES IDX 24 48 56 49 36 50 55 51 37 52 40 53 54 54 73 55 38 56 39 57
REMARK SMILES IDX 53 59 74 60 41 61 25 62 26 63 34 64 27 65 29 66 35 67 28 68
REMARK SMILES IDX 30 69 31 70 32 71 33 72 57 73 58 74 66 75 59 76 61 77 67 78
REMARK SMILES IDX 60 79 62 80 63 81 64 82 65 83 42 84 43 85 51 86 44 87 46 88
REMARK SMILES IDX 52 89 45 90 47 91 48 92 49 93 50 94
REMARK H PARENT 8 6 4 9 88 23 13 28 72 47 40 58
REMARK Flexibility Score: inf
ROOT
ATOM      1  C   UNL A   1      32.240  28.830  23.880  1.00  0.00     0.023 C 
ENDROOT
BRANCH   1   2
ATOM      2  C   UNL A   1      31.388  27.673  23.337  1.00  0.00     0.116 C 
BRANCH   2   3
ATOM      3  N   UNL A   1      32.012  27.025  22.192  1.00  0.00    -0.351 N 
ATOM      4  C   UNL A   1      32.814  25.913  22.111  1.00  0.00     0.275 C 
ATOM      5  O   UNL A   1      33.282  25.619  21.007  1.00  0.00    -0.269 OA
ATOM      6  H   UNL A   1      31.829  27.459  21.328  1.00  0.00     0.163 HD
BRANCH   4   7
ATOM      7  C   UNL A   1      33.083  25.031  23.347  1.00  0.00     0.364 C 
BRANCH   7   8
ATOM      8  N   UNL A   1      33.144  23.556  23.061  1.00  0.00    -0.318 N 
ATOM      9  H   UNL A   1      32.827  23.336  22.117  1.00  0.00     0.349 HD
BRANCH   8  10
ATOM     10  C   UNL A   1      34.539  23.128  23.089  1.00  0.00     0.291 C 
BRANCH  10  11
ATOM     11  C   UNL A   1      35.356  23.025  24.342  1.00  0.00     0.025 C 
ATOM     12  C   UNL A   1      36.538  23.631  24.531  1.00  0.00     0.010 C 
ENDBRANCH  10  11
ENDBRANCH   8  10
BRANCH   8  13
ATOM     13  C   UNL A   1      32.167  22.801  23.890  1.00  0.00     0.216 C 
ATOM     14  C   UNL A   1      31.942  23.367  25.304  1.00  0.00     0.081 C 
BRANCH  13  15
ATOM     15  C   UNL A   1      32.353  21.283  23.798  1.00  0.00     0.051 A 
ATOM     16  C   UNL A   1      32.667  20.608  25.003  1.00  0.00     0.017 A 
ATOM     17  C   UNL A   1      32.154  20.492  22.654  1.00  0.00     0.127 A 
ATOM     18  C   UNL A   1      32.733  19.214  25.061  1.00  0.00     0.040 A 
ATOM     19  C   UNL A   1      32.255  19.101  22.699  1.00  0.00     0.085 A 
ATOM     20  C   UNL A   1      32.524  18.474  23.907  1.00  0.00     0.126 A 
ATOM     21  F   UNL A   1      32.547  17.136  23.964  1.00  0.00    -0.207 F 
BRANCH  17  22
ATOM     22  O   UNL A   1      31.749  20.998  21.452  1.00  0.00    -0.507 OA
ATOM     23  H   UNL A   1      32.191  20.748  20.666  1.00  0.00     0.293 HD
ENDBRANCH  17  22
ENDBRANCH  13  15
ENDBRANCH   8  13
ENDBRANCH   7   8
ENDBRANCH   4   7
ENDBRANCH   2   3
ENDBRANCH   1   2
BRANCH   1  24
ATOM     24  C   UNL A   1      31.647  29.588  25.051  1.00  0.00     0.023 C 
BRANCH  24  25
ATOM     25  C   UNL A   1      32.667  30.000  26.090  1.00  0.00     0.116 C 
BRANCH  25  26
ATOM     26  N   UNL A   1      32.484  31.366  26.577  1.00  0.00    -0.352 N 
ATOM     27  C   UNL A   1      33.335  32.111  27.363  1.00  0.00     0.251 C 
ATOM     28  H   UNL A   1      31.647  31.811  26.308  1.00  0.00     0.163 HD
ATOM     29  O   UNL A   1      33.015  33.224  27.768  1.00  0.00    -0.269 OA
BRANCH  27  30
ATOM     30  C   UNL A   1      34.628  31.510  27.741  1.00  0.00     0.039 A 
ATOM     31  C   UNL A   1      35.720  32.340  28.002  1.00  0.00     0.014 A 
ATOM     32  C   UNL A   1      34.688  30.140  28.001  1.00  0.00     0.014 A 
ATOM     33  C   UNL A   1      36.847  31.804  28.629  1.00  0.00     0.010 A 
ATOM     34  C   UNL A   1      35.757  29.642  28.728  1.00  0.00     0.010 A 
ATOM     35  C   UNL A   1      36.848  30.465  29.050  1.00  0.00    -0.014 A 
BRANCH  35  36
ATOM     36  C   UNL A   1      37.969  29.865  29.816  1.00  0.00     0.031 A 
ATOM     37  C   UNL A   1      38.205  30.326  31.228  1.00  0.00     0.074 A 
ATOM     38  C   UNL A   1      38.851  29.046  29.208  1.00  0.00     0.049 A 
ATOM     39  N   UNL A   1      39.243  30.133  31.998  1.00  0.00    -0.248 NA
ATOM     40  C   UNL A   1      37.159  31.171  31.832  1.00  0.00     0.031 C 
ATOM     41  C   UNL A   1      38.779  28.591  27.818  1.00  0.00     0.029 A 
ATOM     42  N   UNL A   1      40.011  28.480  29.679  1.00  0.00    -0.354 N 
ATOM     43  C   UNL A   1      39.010  30.895  33.136  1.00  0.00     0.074 A 
ATOM     44  C   UNL A   1      37.748  31.576  32.945  1.00  0.00     0.031 C 
ATOM     45  C   UNL A   1      39.841  27.812  27.552  1.00  0.00     0.029 A 
ATOM     46  C   UNL A   1      40.691  27.742  28.737  1.00  0.00     0.049 A 
ATOM     47  H   UNL A   1      40.327  28.591  30.605  1.00  0.00     0.167 HD
ATOM     48  C   UNL A   1      39.759  30.992  34.257  1.00  0.00     0.034 A 
ATOM     49  C   UNL A   1      41.869  27.091  28.819  1.00  0.00     0.034 A 
ATOM     50  C   UNL A   1      40.949  30.224  34.486  1.00  0.00     0.049 A 
ATOM     51  C   UNL A   1      42.625  27.120  30.122  1.00  0.00     0.074 A 
ATOM     52  C   UNL A   1      41.723  30.158  35.630  1.00  0.00     0.029 A 
ATOM     53  N   UNL A   1      41.520  29.365  33.561  1.00  0.00    -0.354 N 
ATOM     54  N   UNL A   1      42.321  27.742  31.235  1.00  0.00    -0.248 NA
ATOM     55  C   UNL A   1      43.866  26.335  30.192  1.00  0.00     0.031 C 
ATOM     56  C   UNL A   1      42.759  29.247  35.399  1.00  0.00     0.029 A 
ATOM     57  C   UNL A   1      42.627  28.749  34.111  1.00  0.00     0.049 A 
ATOM     58  H   UNL A   1      41.186  29.216  32.646  1.00  0.00     0.167 HD
ATOM     59  C   UNL A   1      43.308  27.392  32.149  1.00  0.00     0.074 A 
ATOM     60  C   UNL A   1      44.214  26.494  31.463  1.00  0.00     0.031 C 
ATOM     61  C   UNL A   1      43.463  27.792  33.435  1.00  0.00     0.034 A 
BRANCH  48  62
ATOM     62  C   UNL A   1      39.263  31.897  35.350  1.00  0.00     0.023 A 
ATOM     63  C   UNL A   1      38.256  31.439  36.225  1.00  0.00     0.012 A 
ATOM     64  C   UNL A   1      39.808  33.182  35.536  1.00  0.00     0.148 A 
ATOM     65  C   UNL A   1      37.772  32.258  37.242  1.00  0.00     0.002 A 
ATOM     66  C   UNL A   1      39.349  33.978  36.581  1.00  0.00     0.091 A 
ATOM     67  F   UNL A   1      40.743  33.613  34.677  1.00  0.00    -0.205 F 
ATOM     68  C   UNL A   1      38.325  33.523  37.426  1.00  0.00     0.022 A 
BRANCH  66  69
ATOM     69  S   UNL A   1      40.054  35.590  36.941  1.00  0.00     0.127 S 
ATOM     70  O   UNL A   1      39.448  35.895  38.235  1.00  0.00    -0.237 OA
ATOM     71  O   UNL A   1      41.488  35.299  36.993  1.00  0.00    -0.237 OA
ATOM     72  O   UNL A   1      39.655  36.452  35.837  1.00  0.00    -0.744 OA
ENDBRANCH  66  69
ENDBRANCH  48  62
BRANCH  49  73
ATOM     73  C   UNL A   1      42.357  26.282  27.667  1.00  0.00     0.023 A 
ATOM     74  C   UNL A   1      43.249  26.873  26.750  1.00  0.00     0.012 A 
ATOM     75  C   UNL A   1      41.981  24.937  27.488  1.00  0.00     0.148 A 
ATOM     76  C   UNL A   1      43.735  26.150  25.660  1.00  0.00     0.002 A 
ATOM     77  C   UNL A   1      42.509  24.207  26.426  1.00  0.00     0.091 A 
ATOM     78  F   UNL A   1      41.120  24.394  28.360  1.00  0.00    -0.205 F 
ATOM     79  C   UNL A   1      43.374  24.815  25.504  1.00  0.00     0.022 A 
BRANCH  77  80
ATOM     80  S   UNL A   1      42.195  22.449  26.227  1.00  0.00     0.127 S 
ATOM     81  O   UNL A   1      40.741  22.416  26.096  1.00  0.00    -0.237 OA
ATOM     82  O   UNL A   1      42.932  22.141  25.000  1.00  0.00    -0.237 OA
ATOM     83  O   UNL A   1      42.744  21.823  27.423  1.00  0.00    -0.744 OA
ENDBRANCH  77  80
ENDBRANCH  49  73
BRANCH  61  84
ATOM     84  C   UNL A   1      44.618  27.231  34.215  1.00  0.00     0.023 A 
ATOM     85  C   UNL A   1      45.857  27.899  34.197  1.00  0.00     0.012 A 
ATOM     86  C   UNL A   1      44.436  26.120  35.062  1.00  0.00     0.148 A 
ATOM     87  C   UNL A   1      46.904  27.464  35.007  1.00  0.00     0.002 A 
ATOM     88  C   UNL A   1      45.471  25.716  35.896  1.00  0.00     0.091 A 
ATOM     89  F   UNL A   1      43.252  25.491  35.046  1.00  0.00    -0.205 F 
ATOM     90  C   UNL A   1      46.707  26.383  35.866  1.00  0.00     0.022 A 
BRANCH  88  91
ATOM     91  S   UNL A   1      45.277  24.397  37.099  1.00  0.00     0.127 S 
ATOM     92  O   UNL A   1      44.940  23.261  36.243  1.00  0.00    -0.237 OA
ATOM     93  O   UNL A   1      46.606  24.331  37.706  1.00  0.00    -0.237 OA
ATOM     94  O   UNL A   1      44.222  24.833  38.004  1.00  0.00    -0.744 OA
ENDBRANCH  88  91
ENDBRANCH  61  84
ENDBRANCH  35  36
ENDBRANCH  27  30
ENDBRANCH  25  26
ENDBRANCH  24  25
ENDBRANCH   1  24
TORSDOF 20
ENDMDL
MODEL 3
REMARK VINA RESULT:     -11.0      5.206     10.504
REMARK SMILES C=CC[N@H+](CC(=O)NCCCCNC(=O)c1ccc(-c2c3nc(c(-c4cccc(S(=O)(=O)[O-])c4F)c4ccc([nH]4)c(-c4cccc(S(=O)(=O)[O-])c4F)c4nc(c(-c5cccc(S(=O)(=O)[O-])c5F)c5ccc2[nH]5)C=C4)C=C3)cc1)[C@H](C)c1ccc(F)cc1O
REMARK SMILES IDX 10 1 9 2 8 3 6 4 7 5 5 7 4 8 3 10 2 11 1 12 79 13 80 14
REMARK SMILES IDX 81 15 82 16 87 17 83 18 86 19 84 20 85 21 88 22 11 24 12 25
REMARK SMILES IDX 13 26 14 27 15 29 16 30 17 31 78 32 18 33 77 34 19 35 20 36
REMARK SMILES IDX 21 37 71 38 22 39 76 40 70 41 72 42 23 43 75 44 69 45 68 46
REMARK SMILES IDX 24 48 56 49 36 50 55 51 37 52 40 53 54 54 73 55 38 56 39 57
REMARK SMILES IDX 53 59 74 60 41 61 25 62 26 63 34 64 27 65 29 66 35 67 28 68
REMARK SMILES IDX 30 69 31 70 32 71 33 72 57 73 58 74 66 75 59 76 61 77 67 78
REMARK SMILES IDX 60 79 62 80 63 81 64 82 65 83 42 84 43 85 51 86 44 87 46 88
REMARK SMILES IDX 52 89 45 90 47 91 48 92 49 93 50 94
REMARK H PARENT 8 6 4 9 88 23 13 28 72 47 40 58
REMARK Flexibility Score: inf
ROOT
ATOM      1  C   UNL A   1      34.876  21.847  25.301  1.00  0.00     0.023 C 
ENDROOT
BRANCH   1   2
ATOM      2  C   UNL A   1      33.796  21.581  24.242  1.00  0.00     0.116 C 
BRANCH   2   3
ATOM      3  N   UNL A   1      33.943  22.452  23.083  1.00  0.00    -0.351 N 
ATOM      4  C   UNL A   1      33.224  23.554  22.685  1.00  0.00     0.275 C 
ATOM      5  O   UNL A   1      33.513  24.070  21.603  1.00  0.00    -0.269 OA
ATOM      6  H   UNL A   1      34.683  22.210  22.482  1.00  0.00     0.163 HD
BRANCH   4   7
ATOM      7  C   UNL A   1      32.124  24.156  23.583  1.00  0.00     0.364 C 
BRANCH   7   8
ATOM      8  N   UNL A   1      32.302  25.616  23.894  1.00  0.00    -0.318 N 
ATOM      9  H   UNL A   1      33.132  26.004  23.447  1.00  0.00     0.349 HD
BRANCH   8  10
ATOM     10  C   UNL A   1      31.190  26.361  23.314  1.00  0.00     0.291 C 
BRANCH  10  11
ATOM     11  C   UNL A   1      29.750  25.971  23.471  1.00  0.00     0.025 C 
ATOM     12  C   UNL A   1      28.967  26.350  24.493  1.00  0.00     0.010 C 
ENDBRANCH  10  11
ENDBRANCH   8  10
BRANCH   8  13
ATOM     13  C   UNL A   1      32.609  25.831  25.334  1.00  0.00     0.216 C 
ATOM     14  C   UNL A   1      31.955  24.821  26.295  1.00  0.00     0.081 C 
BRANCH  13  15
ATOM     15  C   UNL A   1      32.520  27.303  25.750  1.00  0.00     0.051 A 
ATOM     16  C   UNL A   1      31.724  27.596  26.884  1.00  0.00     0.017 A 
ATOM     17  C   UNL A   1      33.223  28.372  25.168  1.00  0.00     0.127 A 
ATOM     18  C   UNL A   1      31.674  28.883  27.427  1.00  0.00     0.040 A 
ATOM     19  C   UNL A   1      33.148  29.666  25.685  1.00  0.00     0.085 A 
ATOM     20  C   UNL A   1      32.390  29.905  26.822  1.00  0.00     0.126 A 
ATOM     21  F   UNL A   1      32.378  31.130  27.360  1.00  0.00    -0.207 F 
BRANCH  17  22
ATOM     22  O   UNL A   1      34.104  28.218  24.136  1.00  0.00    -0.507 OA
ATOM     23  H   UNL A   1      33.795  28.219  23.252  1.00  0.00     0.293 HD
ENDBRANCH  17  22
ENDBRANCH  13  15
ENDBRANCH   8  13
ENDBRANCH   7   8
ENDBRANCH   4   7
ENDBRANCH   2   3
ENDBRANCH   1   2
BRANCH   1  24
ATOM     24  C   UNL A   1      35.984  20.815  25.380  1.00  0.00     0.023 C 
BRANCH  24  25
ATOM     25  C   UNL A   1      37.373  21.404  25.269  1.00  0.00     0.116 C 
BRANCH  25  26
ATOM     26  N   UNL A   1      38.438  20.439  25.536  1.00  0.00    -0.352 N 
ATOM     27  C   UNL A   1      39.631  20.647  26.193  1.00  0.00     0.251 C 
ATOM     28  H   UNL A   1      38.284  19.524  25.205  1.00  0.00     0.163 HD
ATOM     29  O   UNL A   1      40.475  19.760  26.273  1.00  0.00    -0.269 OA
BRANCH  27  30
ATOM     30  C   UNL A   1      39.882  21.985  26.759  1.00  0.00     0.039 A 
ATOM     31  C   UNL A   1      40.871  22.144  27.733  1.00  0.00     0.014 A 
ATOM     32  C   UNL A   1      39.251  23.092  26.189  1.00  0.00     0.014 A 
ATOM     33  C   UNL A   1      41.305  23.431  28.058  1.00  0.00     0.010 A 
ATOM     34  C   UNL A   1      39.767  24.355  26.429  1.00  0.00     0.010 A 
ATOM     35  C   UNL A   1      40.797  24.540  27.365  1.00  0.00    -0.014 A 
BRANCH  35  36
ATOM     36  C   UNL A   1      41.292  25.922  27.588  1.00  0.00     0.031 A 
ATOM     37  C   UNL A   1      42.683  26.272  27.131  1.00  0.00     0.074 A 
ATOM     38  C   UNL A   1      40.576  26.795  28.325  1.00  0.00     0.049 A 
ATOM     39  N   UNL A   1      43.411  27.316  27.424  1.00  0.00    -0.248 NA
ATOM     40  C   UNL A   1      43.367  25.281  26.280  1.00  0.00     0.031 C 
ATOM     41  C   UNL A   1      39.251  26.547  28.896  1.00  0.00     0.029 A 
ATOM     42  N   UNL A   1      40.887  28.063  28.753  1.00  0.00    -0.354 N 
ATOM     43  C   UNL A   1      44.658  27.069  26.863  1.00  0.00     0.074 A 
ATOM     44  C   UNL A   1      44.598  25.766  26.240  1.00  0.00     0.031 C 
ATOM     45  C   UNL A   1      38.860  27.628  29.592  1.00  0.00     0.029 A 
ATOM     46  C   UNL A   1      39.919  28.631  29.551  1.00  0.00     0.049 A 
ATOM     47  H   UNL A   1      41.723  28.523  28.512  1.00  0.00     0.167 HD
ATOM     48  C   UNL A   1      45.747  27.870  26.837  1.00  0.00     0.034 A 
ATOM     49  C   UNL A   1      39.896  29.822  30.183  1.00  0.00     0.034 A 
ATOM     50  C   UNL A   1      45.762  29.207  27.356  1.00  0.00     0.049 A 
ATOM     51  C   UNL A   1      41.078  30.744  30.037  1.00  0.00     0.074 A 
ATOM     52  C   UNL A   1      46.773  30.148  27.283  1.00  0.00     0.029 A 
ATOM     53  N   UNL A   1      44.702  29.804  28.022  1.00  0.00    -0.354 N 
ATOM     54  N   UNL A   1      42.201  30.547  29.391  1.00  0.00    -0.248 NA
ATOM     55  C   UNL A   1      40.979  32.064  30.679  1.00  0.00     0.031 C 
ATOM     56  C   UNL A   1      46.319  31.320  27.895  1.00  0.00     0.029 A 
ATOM     57  C   UNL A   1      45.026  31.106  28.350  1.00  0.00     0.049 A 
ATOM     58  H   UNL A   1      43.846  29.364  28.230  1.00  0.00     0.167 HD
ATOM     59  C   UNL A   1      42.924  31.727  29.512  1.00  0.00     0.074 A 
ATOM     60  C   UNL A   1      42.108  32.641  30.285  1.00  0.00     0.031 C 
ATOM     61  C   UNL A   1      44.161  32.024  29.044  1.00  0.00     0.034 A 
BRANCH  48  62
ATOM     62  C   UNL A   1      46.979  27.349  26.150  1.00  0.00     0.023 A 
ATOM     63  C   UNL A   1      47.134  27.549  24.764  1.00  0.00     0.012 A 
ATOM     64  C   UNL A   1      47.994  26.694  26.873  1.00  0.00     0.148 A 
ATOM     65  C   UNL A   1      48.262  27.071  24.099  1.00  0.00     0.002 A 
ATOM     66  C   UNL A   1      49.136  26.257  26.210  1.00  0.00     0.091 A 
ATOM     67  F   UNL A   1      47.816  26.486  28.186  1.00  0.00    -0.205 F 
ATOM     68  C   UNL A   1      49.266  26.434  24.823  1.00  0.00     0.022 A 
BRANCH  66  69
ATOM     69  S   UNL A   1      50.515  25.495  27.072  1.00  0.00     0.127 S 
ATOM     70  O   UNL A   1      49.882  24.313  27.655  1.00  0.00    -0.237 OA
ATOM     71  O   UNL A   1      51.448  25.211  25.981  1.00  0.00    -0.237 OA
ATOM     72  O   UNL A   1      50.986  26.492  28.023  1.00  0.00    -0.744 OA
ENDBRANCH  66  69
ENDBRANCH  48  62
BRANCH  49  73
ATOM     73  C   UNL A   1      38.678  30.248  30.928  1.00  0.00     0.023 A 
ATOM     74  C   UNL A   1      38.568  29.922  32.295  1.00  0.00     0.012 A 
ATOM     75  C   UNL A   1      37.652  30.993  30.317  1.00  0.00     0.148 A 
ATOM     76  C   UNL A   1      37.448  30.306  33.033  1.00  0.00     0.002 A 
ATOM     77  C   UNL A   1      36.560  31.415  31.071  1.00  0.00     0.091 A 
ATOM     78  F   UNL A   1      37.763  31.282  29.013  1.00  0.00    -0.205 F 
ATOM     79  C   UNL A   1      36.450  31.062  32.424  1.00  0.00     0.022 A 
BRANCH  77  80
ATOM     80  S   UNL A   1      35.294  32.498  30.396  1.00  0.00     0.127 S 
ATOM     81  O   UNL A   1      34.368  32.613  31.520  1.00  0.00    -0.237 OA
ATOM     82  O   UNL A   1      36.054  33.713  30.098  1.00  0.00    -0.237 OA
ATOM     83  O   UNL A   1      34.788  31.809  29.217  1.00  0.00    -0.744 OA
ENDBRANCH  77  80
ENDBRANCH  49  73
BRANCH  61  84
ATOM     84  C   UNL A   1      44.701  33.403  29.298  1.00  0.00     0.023 A 
ATOM     85  C   UNL A   1      45.392  33.667  30.495  1.00  0.00     0.012 A 
ATOM     86  C   UNL A   1      44.633  34.392  28.297  1.00  0.00     0.148 A 
ATOM     87  C   UNL A   1      46.003  34.904  30.697  1.00  0.00     0.002 A 
ATOM     88  C   UNL A   1      45.279  35.607  28.488  1.00  0.00     0.091 A 
ATOM     89  F   UNL A   1      43.953  34.120  27.173  1.00  0.00    -0.205 F 
ATOM     90  C   UNL A   1      45.959  35.867  29.689  1.00  0.00     0.022 A 
BRANCH  88  91
ATOM     91  S   UNL A   1      45.355  36.867  27.211  1.00  0.00     0.127 S 
ATOM     92  O   UNL A   1      46.166  37.897  27.856  1.00  0.00    -0.237 OA
ATOM     93  O   UNL A   1      46.022  36.161  26.117  1.00  0.00    -0.237 OA
ATOM     94  O   UNL A   1      43.975  37.240  26.933  1.00  0.00    -0.744 OA
ENDBRANCH  88  91
ENDBRANCH  61  84
ENDBRANCH  35  36
ENDBRANCH  27  30
ENDBRANCH  25  26
ENDBRANCH  24  25
ENDBRANCH   1  24
TORSDOF 20
ENDMDL
