MODEL 1
REMARK VINA RESULT:     -11.4      0.000      0.000
REMARK SMILES CN(CC(C)(C)O)C(=O)N[C@H]1CC[C@H](C(=O)NCCCCNC(=O)c2ccc(-c3c4nc(c(-c5cccc(S(=O)(=O)[O-])c5F)c5ccc([nH]5)c(-c5cccc(S(=O)(=O)[O-])c5F)c5nc(c(-c6cccc(S(=O)(=O)[O-])c6F)c6ccc3[nH]6)C=C5)C=C4)cc2)C1
REMARK SMILES IDX 18 1 17 2 15 3 16 4 14 6 11 7 12 8 88 9 13 10 10 11 8 12
REMARK SMILES IDX 9 13 2 15 1 16 3 17 4 18 5 19 6 20 7 21 19 23 20 24 21 25
REMARK SMILES IDX 22 26 23 27 24 29 25 30 26 31 87 32 27 33 86 34 28 35 29 36
REMARK SMILES IDX 30 37 80 38 31 39 85 40 79 41 81 42 32 43 84 44 78 45 77 46
REMARK SMILES IDX 33 48 65 49 45 50 64 51 46 52 49 53 63 54 82 55 47 56 48 57
REMARK SMILES IDX 62 59 83 60 50 61 34 62 35 63 43 64 36 65 38 66 44 67 37 68
REMARK SMILES IDX 39 69 40 70 41 71 42 72 66 73 67 74 75 75 68 76 70 77 76 78
REMARK SMILES IDX 69 79 71 80 72 81 73 82 74 83 51 84 52 85 60 86 53 87 55 88
REMARK SMILES IDX 61 89 54 90 56 91 57 92 58 93 59 94
REMARK H PARENT 17 5 10 14 7 22 22 28 81 47 49 58
REMARK Flexibility Score: inf
ROOT
ATOM      1  C   UNL A   1      31.470  29.908  25.362  1.00  0.00     0.116 C 
ENDROOT
BRANCH   1   2
ATOM      2  N   UNL A   1      32.533  29.256  24.617  1.00  0.00    -0.356 N 
ATOM      3  C   UNL A   1      33.044  27.996  24.683  1.00  0.00     0.223 C 
ATOM      4  O   UNL A   1      34.007  27.725  23.963  1.00  0.00    -0.275 OA
ATOM      5  H   UNL A   1      32.961  29.830  23.941  1.00  0.00     0.163 HD
BRANCH   3   6
ATOM      6  C   UNL A   1      32.383  26.908  25.514  1.00  0.00     0.080 C 
ATOM      7  C   UNL A   1      32.572  24.457  25.449  1.00  0.00     0.084 C 
ATOM      8  C   UNL A   1      31.145  24.842  25.043  1.00  0.00     0.026 C 
ATOM      9  C   UNL A   1      33.346  25.749  25.646  1.00  0.00     0.038 C 
ATOM     10  C   UNL A   1      31.062  26.365  24.997  1.00  0.00     0.015 C 
BRANCH   7  11
ATOM     11  N   UNL A   1      32.599  23.598  26.614  1.00  0.00    -0.335 N 
ATOM     12  C   UNL A   1      33.347  22.536  26.972  1.00  0.00     0.317 C 
ATOM     13  O   UNL A   1      33.254  22.206  28.160  1.00  0.00    -0.249 OA
ATOM     14  H   UNL A   1      31.927  23.843  27.290  1.00  0.00     0.165 HD
BRANCH  12  15
ATOM     15  N   UNL A   1      34.210  21.910  26.115  1.00  0.00    -0.325 N 
ATOM     16  C   UNL A   1      35.543  22.500  26.059  1.00  0.00     0.148 C 
BRANCH  15  17
ATOM     17  C   UNL A   1      33.991  20.768  25.213  1.00  0.00     0.155 C 
BRANCH  17  18
ATOM     18  C   UNL A   1      32.655  20.597  24.436  1.00  0.00     0.077 C 
ATOM     19  C   UNL A   1      32.397  21.514  23.239  1.00  0.00     0.043 C 
ATOM     20  C   UNL A   1      32.598  19.129  23.963  1.00  0.00     0.043 C 
BRANCH  18  21
ATOM     21  O   UNL A   1      31.579  20.793  25.366  1.00  0.00    -0.389 OA
ATOM     22  H   UNL A   1      31.937  21.091  26.216  1.00  0.00     0.211 HD
ENDBRANCH  18  21
ENDBRANCH  17  18
ENDBRANCH  15  17
ENDBRANCH  12  15
ENDBRANCH   7  11
ENDBRANCH   3   6
ENDBRANCH   1   2
BRANCH   1  23
ATOM     23  C   UNL A   1      31.984  30.451  26.692  1.00  0.00     0.023 C 
BRANCH  23  24
ATOM     24  C   UNL A   1      31.741  31.948  26.882  1.00  0.00     0.023 C 
BRANCH  24  25
ATOM     25  C   UNL A   1      32.941  32.726  27.407  1.00  0.00     0.116 C 
BRANCH  25  26
ATOM     26  N   UNL A   1      32.616  34.113  27.710  1.00  0.00    -0.352 N 
ATOM     27  C   UNL A   1      33.137  34.926  28.688  1.00  0.00     0.251 C 
ATOM     28  H   UNL A   1      31.931  34.525  27.135  1.00  0.00     0.163 HD
ATOM     29  O   UNL A   1      32.626  36.020  28.915  1.00  0.00    -0.269 OA
BRANCH  27  30
ATOM     30  C   UNL A   1      34.296  34.462  29.478  1.00  0.00     0.039 A 
ATOM     31  C   UNL A   1      34.079  33.883  30.729  1.00  0.00     0.014 A 
ATOM     32  C   UNL A   1      35.591  34.563  28.960  1.00  0.00     0.014 A 
ATOM     33  C   UNL A   1      35.156  33.340  31.432  1.00  0.00     0.010 A 
ATOM     34  C   UNL A   1      36.647  33.945  29.623  1.00  0.00     0.010 A 
ATOM     35  C   UNL A   1      36.443  33.330  30.867  1.00  0.00    -0.014 A 
BRANCH  35  36
ATOM     36  C   UNL A   1      37.586  32.674  31.555  1.00  0.00     0.031 A 
ATOM     37  C   UNL A   1      38.289  31.509  30.913  1.00  0.00     0.074 A 
ATOM     38  C   UNL A   1      37.932  33.068  32.797  1.00  0.00     0.049 A 
ATOM     39  N   UNL A   1      39.255  30.767  31.387  1.00  0.00    -0.248 NA
ATOM     40  C   UNL A   1      37.829  31.109  29.572  1.00  0.00     0.031 C 
ATOM     41  C   UNL A   1      37.273  34.128  33.564  1.00  0.00     0.029 A 
ATOM     42  N   UNL A   1      38.904  32.602  33.647  1.00  0.00    -0.354 N 
ATOM     43  C   UNL A   1      39.497  29.796  30.421  1.00  0.00     0.074 A 
ATOM     44  C   UNL A   1      38.547  30.017  29.354  1.00  0.00     0.031 C 
ATOM     45  C   UNL A   1      37.858  34.230  34.768  1.00  0.00     0.029 A 
ATOM     46  C   UNL A   1      38.909  33.223  34.875  1.00  0.00     0.049 A 
ATOM     47  H   UNL A   1      39.537  31.889  33.401  1.00  0.00     0.167 HD
ATOM     48  C   UNL A   1      40.444  28.828  30.407  1.00  0.00     0.034 A 
ATOM     49  C   UNL A   1      39.662  32.997  35.970  1.00  0.00     0.034 A 
ATOM     50  C   UNL A   1      41.408  28.631  31.456  1.00  0.00     0.049 A 
ATOM     51  C   UNL A   1      40.727  31.935  35.918  1.00  0.00     0.074 A 
ATOM     52  C   UNL A   1      42.456  27.727  31.501  1.00  0.00     0.029 A 
ATOM     53  N   UNL A   1      41.440  29.340  32.647  1.00  0.00    -0.354 N 
ATOM     54  N   UNL A   1      41.040  31.128  34.933  1.00  0.00    -0.248 NA
ATOM     55  C   UNL A   1      41.569  31.777  37.113  1.00  0.00     0.031 C 
ATOM     56  C   UNL A   1      43.103  27.871  32.733  1.00  0.00     0.029 A 
ATOM     57  C   UNL A   1      42.483  28.890  33.438  1.00  0.00     0.049 A 
ATOM     58  H   UNL A   1      40.813  30.058  32.894  1.00  0.00     0.167 HD
ATOM     59  C   UNL A   1      42.135  30.393  35.376  1.00  0.00     0.074 A 
ATOM     60  C   UNL A   1      42.445  30.868  36.708  1.00  0.00     0.031 C 
ATOM     61  C   UNL A   1      42.814  29.406  34.741  1.00  0.00     0.034 A 
BRANCH  48  62
ATOM     62  C   UNL A   1      40.520  27.942  29.191  1.00  0.00     0.023 A 
ATOM     63  C   UNL A   1      39.633  26.853  29.067  1.00  0.00     0.012 A 
ATOM     64  C   UNL A   1      41.427  28.214  28.147  1.00  0.00     0.148 A 
ATOM     65  C   UNL A   1      39.670  26.027  27.946  1.00  0.00     0.002 A 
ATOM     66  C   UNL A   1      41.426  27.415  27.010  1.00  0.00     0.091 A 
ATOM     67  F   UNL A   1      42.277  29.241  28.290  1.00  0.00    -0.205 F 
ATOM     68  C   UNL A   1      40.558  26.314  26.913  1.00  0.00     0.022 A 
BRANCH  66  69
ATOM     69  S   UNL A   1      42.473  27.746  25.589  1.00  0.00     0.127 S 
ATOM     70  O   UNL A   1      41.955  29.035  25.135  1.00  0.00    -0.237 OA
ATOM     71  O   UNL A   1      43.803  27.803  26.196  1.00  0.00    -0.237 OA
ATOM     72  O   UNL A   1      42.271  26.633  24.672  1.00  0.00    -0.744 OA
ENDBRANCH  66  69
ENDBRANCH  48  62
BRANCH  49  73
ATOM     73  C   UNL A   1      39.467  33.826  37.194  1.00  0.00     0.023 A 
ATOM     74  C   UNL A   1      39.981  35.137  37.238  1.00  0.00     0.012 A 
ATOM     75  C   UNL A   1      38.760  33.327  38.304  1.00  0.00     0.148 A 
ATOM     76  C   UNL A   1      39.827  35.923  38.382  1.00  0.00     0.002 A 
ATOM     77  C   UNL A   1      38.559  34.136  39.418  1.00  0.00     0.091 A 
ATOM     78  F   UNL A   1      38.287  32.074  38.247  1.00  0.00    -0.205 F 
ATOM     79  C   UNL A   1      39.110  35.426  39.466  1.00  0.00     0.022 A 
BRANCH  77  80
ATOM     80  S   UNL A   1      37.532  33.630  40.802  1.00  0.00     0.127 S 
ATOM     81  O   UNL A   1      38.363  32.606  41.431  1.00  0.00    -0.237 OA
ATOM     82  O   UNL A   1      37.412  34.878  41.558  1.00  0.00    -0.237 OA
ATOM     83  O   UNL A   1      36.285  33.162  40.214  1.00  0.00    -0.744 OA
ENDBRANCH  77  80
ENDBRANCH  49  73
BRANCH  61  84
ATOM     84  C   UNL A   1      43.992  28.796  35.455  1.00  0.00     0.023 A 
ATOM     85  C   UNL A   1      45.285  29.320  35.260  1.00  0.00     0.012 A 
ATOM     86  C   UNL A   1      43.802  27.749  36.379  1.00  0.00     0.148 A 
ATOM     87  C   UNL A   1      46.375  28.790  35.947  1.00  0.00     0.002 A 
ATOM     88  C   UNL A   1      44.885  27.261  37.100  1.00  0.00     0.091 A 
ATOM     89  F   UNL A   1      42.567  27.253  36.539  1.00  0.00    -0.205 F 
ATOM     90  C   UNL A   1      46.175  27.770  36.875  1.00  0.00     0.022 A 
BRANCH  88  91
ATOM     91  S   UNL A   1      44.708  26.019  38.385  1.00  0.00     0.127 S 
ATOM     92  O   UNL A   1      43.860  26.711  39.353  1.00  0.00    -0.237 OA
ATOM     93  O   UNL A   1      44.051  24.926  37.668  1.00  0.00    -0.237 OA
ATOM     94  O   UNL A   1      46.058  25.717  38.842  1.00  0.00    -0.744 OA
ENDBRANCH  88  91
ENDBRANCH  61  84
ENDBRANCH  35  36
ENDBRANCH  27  30
ENDBRANCH  25  26
ENDBRANCH  24  25
ENDBRANCH  23  24
ENDBRANCH   1  23
TORSDOF 19
ENDMDL
MODEL 2
REMARK VINA RESULT:     -11.0      6.282     11.711
REMARK SMILES CN(CC(C)(C)O)C(=O)N[C@H]1CC[C@H](C(=O)NCCCCNC(=O)c2ccc(-c3c4nc(c(-c5cccc(S(=O)(=O)[O-])c5F)c5ccc([nH]5)c(-c5cccc(S(=O)(=O)[O-])c5F)c5nc(c(-c6cccc(S(=O)(=O)[O-])c6F)c6ccc3[nH]6)C=C5)C=C4)cc2)C1
REMARK SMILES IDX 18 1 17 2 15 3 16 4 14 6 11 7 12 8 88 9 13 10 10 11 8 12
REMARK SMILES IDX 9 13 2 15 1 16 3 17 4 18 5 19 6 20 7 21 19 23 20 24 21 25
REMARK SMILES IDX 22 26 23 27 24 29 25 30 26 31 87 32 27 33 86 34 28 35 29 36
REMARK SMILES IDX 30 37 80 38 31 39 85 40 79 41 81 42 32 43 84 44 78 45 77 46
REMARK SMILES IDX 33 48 65 49 45 50 64 51 46 52 49 53 63 54 82 55 47 56 48 57
REMARK SMILES IDX 62 59 83 60 50 61 34 62 35 63 43 64 36 65 38 66 44 67 37 68
REMARK SMILES IDX 39 69 40 70 41 71 42 72 66 73 67 74 75 75 68 76 70 77 76 78
REMARK SMILES IDX 69 79 71 80 72 81 73 82 74 83 51 84 52 85 60 86 53 87 55 88
REMARK SMILES IDX 61 89 54 90 56 91 57 92 58 93 59 94
REMARK H PARENT 17 5 10 14 7 22 22 28 81 47 49 58
REMARK Flexibility Score: inf
ROOT
ATOM      1  C   UNL A   1      34.494  21.589  24.668  1.00  0.00     0.116 C 
ENDROOT
BRANCH   1   2
ATOM      2  N   UNL A   1      33.255  21.679  25.422  1.00  0.00    -0.356 N 
ATOM      3  C   UNL A   1      32.209  22.547  25.345  1.00  0.00     0.223 C 
ATOM      4  O   UNL A   1      31.299  22.429  26.167  1.00  0.00    -0.275 OA
ATOM      5  H   UNL A   1      33.154  20.986  26.114  1.00  0.00     0.163 HD
BRANCH   3   6
ATOM      6  C   UNL A   1      32.088  23.553  24.211  1.00  0.00     0.080 C 
ATOM      7  C   UNL A   1      31.532  25.948  24.203  1.00  0.00     0.084 C 
ATOM      8  C   UNL A   1      30.410  25.190  23.484  1.00  0.00     0.026 C 
ATOM      9  C   UNL A   1      32.511  24.912  24.724  1.00  0.00     0.038 C 
ATOM     10  C   UNL A   1      30.716  23.698  23.575  1.00  0.00     0.015 C 
BRANCH   7  11
ATOM     11  N   UNL A   1      32.156  26.940  23.352  1.00  0.00    -0.335 N 
ATOM     12  C   UNL A   1      32.033  28.276  23.232  1.00  0.00     0.317 C 
ATOM     13  O   UNL A   1      32.916  28.827  22.564  1.00  0.00    -0.249 OA
ATOM     14  H   UNL A   1      32.814  26.555  22.728  1.00  0.00     0.165 HD
BRANCH  12  15
ATOM     15  N   UNL A   1      31.053  28.993  23.862  1.00  0.00    -0.325 N 
ATOM     16  C   UNL A   1      31.474  29.634  25.103  1.00  0.00     0.148 C 
BRANCH  15  17
ATOM     17  C   UNL A   1      29.637  29.181  23.509  1.00  0.00     0.155 C 
BRANCH  17  18
ATOM     18  C   UNL A   1      29.182  30.346  22.586  1.00  0.00     0.077 C 
ATOM     19  C   UNL A   1      28.032  30.086  21.612  1.00  0.00     0.043 C 
ATOM     20  C   UNL A   1      28.801  31.524  23.508  1.00  0.00     0.043 C 
BRANCH  18  21
ATOM     21  O   UNL A   1      30.318  30.758  21.809  1.00  0.00    -0.389 OA
ATOM     22  H   UNL A   1      30.611  31.634  22.104  1.00  0.00     0.211 HD
ENDBRANCH  18  21
ENDBRANCH  17  18
ENDBRANCH  15  17
ENDBRANCH  12  15
ENDBRANCH   7  11
ENDBRANCH   3   6
ENDBRANCH   1   2
BRANCH   1  23
ATOM     23  C   UNL A   1      35.691  21.411  25.596  1.00  0.00     0.023 C 
BRANCH  23  24
ATOM     24  C   UNL A   1      36.876  20.699  24.944  1.00  0.00     0.023 C 
BRANCH  24  25
ATOM     25  C   UNL A   1      38.240  21.097  25.494  1.00  0.00     0.116 C 
BRANCH  25  26
ATOM     26  N   UNL A   1      39.091  19.945  25.760  1.00  0.00    -0.352 N 
ATOM     27  C   UNL A   1      40.412  19.919  26.140  1.00  0.00     0.251 C 
ATOM     28  H   UNL A   1      38.662  19.065  25.655  1.00  0.00     0.163 HD
ATOM     29  O   UNL A   1      41.026  18.855  26.157  1.00  0.00    -0.269 OA
BRANCH  27  30
ATOM     30  C   UNL A   1      41.088  21.182  26.502  1.00  0.00     0.039 A 
ATOM     31  C   UNL A   1      41.781  21.888  25.518  1.00  0.00     0.014 A 
ATOM     32  C   UNL A   1      41.001  21.684  27.804  1.00  0.00     0.014 A 
ATOM     33  C   UNL A   1      42.327  23.137  25.823  1.00  0.00     0.010 A 
ATOM     34  C   UNL A   1      41.470  22.964  28.081  1.00  0.00     0.010 A 
ATOM     35  C   UNL A   1      42.142  23.703  27.096  1.00  0.00    -0.014 A 
BRANCH  35  36
ATOM     36  C   UNL A   1      42.633  25.070  27.414  1.00  0.00     0.031 A 
ATOM     37  C   UNL A   1      41.708  26.081  28.035  1.00  0.00     0.074 A 
ATOM     38  C   UNL A   1      43.884  25.428  27.062  1.00  0.00     0.049 A 
ATOM     39  N   UNL A   1      41.931  27.337  28.318  1.00  0.00    -0.248 NA
ATOM     40  C   UNL A   1      40.343  25.630  28.355  1.00  0.00     0.031 C 
ATOM     41  C   UNL A   1      44.850  24.567  26.377  1.00  0.00     0.029 A 
ATOM     42  N   UNL A   1      44.547  26.622  27.202  1.00  0.00    -0.354 N 
ATOM     43  C   UNL A   1      40.733  27.833  28.819  1.00  0.00     0.074 A 
ATOM     44  C   UNL A   1      39.773  26.754  28.760  1.00  0.00     0.031 C 
ATOM     45  C   UNL A   1      45.980  25.259  26.157  1.00  0.00     0.029 A 
ATOM     46  C   UNL A   1      45.808  26.621  26.652  1.00  0.00     0.049 A 
ATOM     47  H   UNL A   1      44.157  27.405  27.654  1.00  0.00     0.167 HD
ATOM     48  C   UNL A   1      40.463  29.065  29.314  1.00  0.00     0.034 A 
ATOM     49  C   UNL A   1      46.718  27.609  26.543  1.00  0.00     0.034 A 
ATOM     50  C   UNL A   1      41.429  30.126  29.402  1.00  0.00     0.049 A 
ATOM     51  C   UNL A   1      46.405  28.960  27.127  1.00  0.00     0.074 A 
ATOM     52  C   UNL A   1      41.275  31.385  29.956  1.00  0.00     0.029 A 
ATOM     53  N   UNL A   1      42.725  30.060  28.916  1.00  0.00    -0.354 N 
ATOM     54  N   UNL A   1      45.315  29.364  27.735  1.00  0.00    -0.248 NA
ATOM     55  C   UNL A   1      47.458  29.983  27.044  1.00  0.00     0.031 C 
ATOM     56  C   UNL A   1      42.471  32.090  29.779  1.00  0.00     0.029 A 
ATOM     57  C   UNL A   1      43.381  31.256  29.150  1.00  0.00     0.049 A 
ATOM     58  H   UNL A   1      43.122  29.277  28.470  1.00  0.00     0.167 HD
ATOM     59  C   UNL A   1      45.565  30.671  28.138  1.00  0.00     0.074 A 
ATOM     60  C   UNL A   1      46.918  30.983  27.726  1.00  0.00     0.031 C 
ATOM     61  C   UNL A   1      44.744  31.538  28.781  1.00  0.00     0.034 A 
BRANCH  48  62
ATOM     62  C   UNL A   1      39.078  29.313  29.854  1.00  0.00     0.023 A 
ATOM     63  C   UNL A   1      38.763  28.917  31.170  1.00  0.00     0.012 A 
ATOM     64  C   UNL A   1      38.106  29.983  29.084  1.00  0.00     0.148 A 
ATOM     65  C   UNL A   1      37.495  29.148  31.700  1.00  0.00     0.002 A 
ATOM     66  C   UNL A   1      36.859  30.254  29.636  1.00  0.00     0.091 A 
ATOM     67  F   UNL A   1      38.416  30.334  27.828  1.00  0.00    -0.205 F 
ATOM     68  C   UNL A   1      36.548  29.826  30.937  1.00  0.00     0.022 A 
BRANCH  66  69
ATOM     69  S   UNL A   1      35.596  31.189  28.768  1.00  0.00     0.127 S 
ATOM     70  O   UNL A   1      36.401  32.182  28.057  1.00  0.00    -0.237 OA
ATOM     71  O   UNL A   1      34.991  30.169  27.913  1.00  0.00    -0.237 OA
ATOM     72  O   UNL A   1      34.713  31.723  29.796  1.00  0.00    -0.744 OA
ENDBRANCH  66  69
ENDBRANCH  48  62
BRANCH  49  73
ATOM     73  C   UNL A   1      48.033  27.344  25.892  1.00  0.00     0.023 A 
ATOM     74  C   UNL A   1      49.111  26.869  26.665  1.00  0.00     0.012 A 
ATOM     75  C   UNL A   1      48.215  27.543  24.511  1.00  0.00     0.148 A 
ATOM     76  C   UNL A   1      50.357  26.633  26.081  1.00  0.00     0.002 A 
ATOM     77  C   UNL A   1      49.441  27.250  23.923  1.00  0.00     0.091 A 
ATOM     78  F   UNL A   1      47.180  28.005  23.793  1.00  0.00    -0.205 F 
ATOM     79  C   UNL A   1      50.519  26.815  24.710  1.00  0.00     0.022 A 
BRANCH  77  80
ATOM     80  S   UNL A   1      49.699  27.323  22.147  1.00  0.00     0.127 S 
ATOM     81  O   UNL A   1      51.100  26.926  22.034  1.00  0.00    -0.237 OA
ATOM     82  O   UNL A   1      48.736  26.333  21.663  1.00  0.00    -0.237 OA
ATOM     83  O   UNL A   1      49.395  28.694  21.762  1.00  0.00    -0.744 OA
ENDBRANCH  77  80
ENDBRANCH  49  73
BRANCH  61  84
ATOM     84  C   UNL A   1      45.294  32.898  29.124  1.00  0.00     0.023 A 
ATOM     85  C   UNL A   1      46.025  33.085  30.312  1.00  0.00     0.012 A 
ATOM     86  C   UNL A   1      45.147  33.974  28.224  1.00  0.00     0.148 A 
ATOM     87  C   UNL A   1      46.573  34.331  30.618  1.00  0.00     0.002 A 
ATOM     88  C   UNL A   1      45.741  35.197  28.511  1.00  0.00     0.091 A 
ATOM     89  F   UNL A   1      44.433  33.779  27.106  1.00  0.00    -0.205 F 
ATOM     90  C   UNL A   1      46.441  35.382  29.713  1.00  0.00     0.022 A 
BRANCH  88  91
ATOM     91  S   UNL A   1      45.708  36.577  27.362  1.00  0.00     0.127 S 
ATOM     92  O   UNL A   1      44.278  36.701  27.086  1.00  0.00    -0.237 OA
ATOM     93  O   UNL A   1      46.271  37.661  28.166  1.00  0.00    -0.237 OA
ATOM     94  O   UNL A   1      46.528  36.176  26.227  1.00  0.00    -0.744 OA
ENDBRANCH  88  91
ENDBRANCH  61  84
ENDBRANCH  35  36
ENDBRANCH  27  30
ENDBRANCH  25  26
ENDBRANCH  24  25
ENDBRANCH  23  24
ENDBRANCH   1  23
TORSDOF 19
ENDMDL
MODEL 3
REMARK VINA RESULT:     -10.7      4.716     11.008
REMARK SMILES CN(CC(C)(C)O)C(=O)N[C@H]1CC[C@H](C(=O)NCCCCNC(=O)c2ccc(-c3c4nc(c(-c5cccc(S(=O)(=O)[O-])c5F)c5ccc([nH]5)c(-c5cccc(S(=O)(=O)[O-])c5F)c5nc(c(-c6cccc(S(=O)(=O)[O-])c6F)c6ccc3[nH]6)C=C5)C=C4)cc2)C1
REMARK SMILES IDX 18 1 17 2 15 3 16 4 14 6 11 7 12 8 88 9 13 10 10 11 8 12
REMARK SMILES IDX 9 13 2 15 1 16 3 17 4 18 5 19 6 20 7 21 19 23 20 24 21 25
REMARK SMILES IDX 22 26 23 27 24 29 25 30 26 31 87 32 27 33 86 34 28 35 29 36
REMARK SMILES IDX 30 37 80 38 31 39 85 40 79 41 81 42 32 43 84 44 78 45 77 46
REMARK SMILES IDX 33 48 65 49 45 50 64 51 46 52 49 53 63 54 82 55 47 56 48 57
REMARK SMILES IDX 62 59 83 60 50 61 34 62 35 63 43 64 36 65 38 66 44 67 37 68
REMARK SMILES IDX 39 69 40 70 41 71 42 72 66 73 67 74 75 75 68 76 70 77 76 78
REMARK SMILES IDX 69 79 71 80 72 81 73 82 74 83 51 84 52 85 60 86 53 87 55 88
REMARK SMILES IDX 61 89 54 90 56 91 57 92 58 93 59 94
REMARK H PARENT 17 5 10 14 7 22 22 28 81 47 49 58
REMARK Flexibility Score: inf
ROOT
ATOM      1  C   UNL A   1      33.229  35.560  29.801  1.00  0.00     0.116 C 
ENDROOT
BRANCH   1   2
ATOM      2  N   UNL A   1      33.284  36.879  30.407  1.00  0.00    -0.356 N 
ATOM      3  C   UNL A   1      33.210  37.282  31.706  1.00  0.00     0.223 C 
ATOM      4  O   UNL A   1      33.220  38.492  31.936  1.00  0.00    -0.275 OA
ATOM      5  H   UNL A   1      33.397  37.614  29.762  1.00  0.00     0.163 HD
BRANCH   3   6
ATOM      6  C   UNL A   1      33.243  36.286  32.855  1.00  0.00     0.080 C 
ATOM      7  C   UNL A   1      34.708  34.365  33.312  1.00  0.00     0.084 C 
ATOM      8  C   UNL A   1      33.289  33.841  33.063  1.00  0.00     0.026 C 
ATOM      9  C   UNL A   1      34.678  35.866  33.088  1.00  0.00     0.038 C 
ATOM     10  C   UNL A   1      32.407  35.029  32.690  1.00  0.00     0.015 C 
BRANCH   7  11
ATOM     11  N   UNL A   1      35.207  33.997  34.621  1.00  0.00    -0.335 N 
ATOM     12  C   UNL A   1      36.391  33.538  35.072  1.00  0.00     0.317 C 
ATOM     13  O   UNL A   1      36.532  33.572  36.300  1.00  0.00    -0.249 OA
ATOM     14  H   UNL A   1      34.538  34.108  35.334  1.00  0.00     0.165 HD
BRANCH  12  15
ATOM     15  N   UNL A   1      37.399  33.136  34.241  1.00  0.00    -0.325 N 
ATOM     16  C   UNL A   1      37.423  31.704  33.963  1.00  0.00     0.148 C 
BRANCH  15  17
ATOM     17  C   UNL A   1      38.485  33.912  33.620  1.00  0.00     0.155 C 
BRANCH  17  18
ATOM     18  C   UNL A   1      39.660  34.476  34.468  1.00  0.00     0.077 C 
ATOM     19  C   UNL A   1      40.225  33.600  35.587  1.00  0.00     0.043 C 
ATOM     20  C   UNL A   1      40.796  34.824  33.483  1.00  0.00     0.043 C 
BRANCH  18  21
ATOM     21  O   UNL A   1      39.219  35.705  35.067  1.00  0.00    -0.389 OA
ATOM     22  H   UNL A   1      38.268  35.651  35.251  1.00  0.00     0.211 HD
ENDBRANCH  18  21
ENDBRANCH  17  18
ENDBRANCH  15  17
ENDBRANCH  12  15
ENDBRANCH   7  11
ENDBRANCH   3   6
ENDBRANCH   1   2
BRANCH   1  23
ATOM     23  C   UNL A   1      34.182  35.460  28.613  1.00  0.00     0.023 C 
BRANCH  23  24
ATOM     24  C   UNL A   1      35.368  34.526  28.851  1.00  0.00     0.023 C 
BRANCH  24  25
ATOM     25  C   UNL A   1      35.064  33.322  29.735  1.00  0.00     0.116 C 
BRANCH  25  26
ATOM     26  N   UNL A   1      34.422  32.240  29.000  1.00  0.00    -0.352 N 
ATOM     27  C   UNL A   1      34.950  31.032  28.611  1.00  0.00     0.251 C 
ATOM     28  H   UNL A   1      33.484  32.395  28.747  1.00  0.00     0.163 HD
ATOM     29  O   UNL A   1      34.322  30.304  27.847  1.00  0.00    -0.269 OA
BRANCH  27  30
ATOM     30  C   UNL A   1      36.286  30.631  29.101  1.00  0.00     0.039 A 
ATOM     31  C   UNL A   1      36.378  29.706  30.142  1.00  0.00     0.014 A 
ATOM     32  C   UNL A   1      37.442  31.140  28.502  1.00  0.00     0.014 A 
ATOM     33  C   UNL A   1      37.633  29.237  30.535  1.00  0.00     0.010 A 
ATOM     34  C   UNL A   1      38.682  30.608  28.837  1.00  0.00     0.010 A 
ATOM     35  C   UNL A   1      38.793  29.653  29.860  1.00  0.00    -0.014 A 
BRANCH  35  36
ATOM     36  C   UNL A   1      40.129  29.096  30.199  1.00  0.00     0.031 A 
ATOM     37  C   UNL A   1      40.966  29.736  31.273  1.00  0.00     0.074 A 
ATOM     38  C   UNL A   1      40.626  28.070  29.479  1.00  0.00     0.049 A 
ATOM     39  N   UNL A   1      42.178  29.438  31.660  1.00  0.00    -0.248 NA
ATOM     40  C   UNL A   1      40.373  30.878  31.989  1.00  0.00     0.031 C 
ATOM     41  C   UNL A   1      39.950  27.417  28.356  1.00  0.00     0.029 A 
ATOM     42  N   UNL A   1      41.830  27.416  29.564  1.00  0.00    -0.354 N 
ATOM     43  C   UNL A   1      42.505  30.370  32.638  1.00  0.00     0.074 A 
ATOM     44  C   UNL A   1      41.380  31.271  32.755  1.00  0.00     0.031 C 
ATOM     45  C   UNL A   1      40.748  26.459  27.857  1.00  0.00     0.029 A 
ATOM     46  C   UNL A   1      42.004  26.451  28.600  1.00  0.00     0.049 A 
ATOM     47  H   UNL A   1      42.507  27.620  30.251  1.00  0.00     0.167 HD
ATOM     48  C   UNL A   1      43.626  30.451  33.395  1.00  0.00     0.034 A 
ATOM     49  C   UNL A   1      43.061  25.658  28.332  1.00  0.00     0.034 A 
ATOM     50  C   UNL A   1      44.729  29.535  33.299  1.00  0.00     0.049 A 
ATOM     51  C   UNL A   1      44.283  25.748  29.205  1.00  0.00     0.074 A 
ATOM     52  C   UNL A   1      45.876  29.487  34.072  1.00  0.00     0.029 A 
ATOM     53  N   UNL A   1      44.831  28.512  32.370  1.00  0.00    -0.354 N 
ATOM     54  N   UNL A   1      44.510  26.539  30.227  1.00  0.00    -0.248 NA
ATOM     55  C   UNL A   1      45.380  24.814  28.916  1.00  0.00     0.031 C 
ATOM     56  C   UNL A   1      46.684  28.451  33.591  1.00  0.00     0.029 A 
ATOM     57  C   UNL A   1      46.023  27.831  32.544  1.00  0.00     0.049 A 
ATOM     58  H   UNL A   1      44.154  28.300  31.686  1.00  0.00     0.167 HD
ATOM     59  C   UNL A   1      45.757  26.173  30.723  1.00  0.00     0.074 A 
ATOM     60  C   UNL A   1      46.225  25.074  29.904  1.00  0.00     0.031 C 
ATOM     61  C   UNL A   1      46.455  26.706  31.755  1.00  0.00     0.034 A 
BRANCH  48  62
ATOM     62  C   UNL A   1      43.689  31.540  34.436  1.00  0.00     0.023 A 
ATOM     63  C   UNL A   1      44.019  32.855  34.047  1.00  0.00     0.012 A 
ATOM     64  C   UNL A   1      43.371  31.278  35.783  1.00  0.00     0.148 A 
ATOM     65  C   UNL A   1      44.070  33.883  34.986  1.00  0.00     0.002 A 
ATOM     66  C   UNL A   1      43.375  32.319  36.705  1.00  0.00     0.091 A 
ATOM     67  F   UNL A   1      43.078  30.019  36.138  1.00  0.00    -0.205 F 
ATOM     68  C   UNL A   1      43.737  33.618  36.311  1.00  0.00     0.022 A 
BRANCH  66  69
ATOM     69  S   UNL A   1      42.886  32.100  38.419  1.00  0.00     0.127 S 
ATOM     70  O   UNL A   1      41.479  31.730  38.278  1.00  0.00    -0.237 OA
ATOM     71  O   UNL A   1      43.763  31.012  38.852  1.00  0.00    -0.237 OA
ATOM     72  O   UNL A   1      43.133  33.377  39.074  1.00  0.00    -0.744 OA
ENDBRANCH  66  69
ENDBRANCH  48  62
BRANCH  49  73
ATOM     73  C   UNL A   1      42.993  24.677  27.212  1.00  0.00     0.023 A 
ATOM     74  C   UNL A   1      43.584  24.990  25.972  1.00  0.00     0.012 A 
ATOM     75  C   UNL A   1      42.360  23.429  27.375  1.00  0.00     0.148 A 
ATOM     76  C   UNL A   1      43.514  24.094  24.904  1.00  0.00     0.002 A 
ATOM     77  C   UNL A   1      42.346  22.517  26.326  1.00  0.00     0.091 A 
ATOM     78  F   UNL A   1      41.795  23.154  28.559  1.00  0.00    -0.205 F 
ATOM     79  C   UNL A   1      42.904  22.856  25.083  1.00  0.00     0.022 A 
BRANCH  77  80
ATOM     80  S   UNL A   1      41.704  20.850  26.509  1.00  0.00     0.127 S 
ATOM     81  O   UNL A   1      40.274  21.056  26.297  1.00  0.00    -0.237 OA
ATOM     82  O   UNL A   1      42.393  20.143  25.428  1.00  0.00    -0.237 OA
ATOM     83  O   UNL A   1      42.093  20.425  27.847  1.00  0.00    -0.744 OA
ENDBRANCH  77  80
ENDBRANCH  49  73
BRANCH  61  84
ATOM     84  C   UNL A   1      47.785  26.084  32.095  1.00  0.00     0.023 A 
ATOM     85  C   UNL A   1      48.952  26.502  31.426  1.00  0.00     0.012 A 
ATOM     86  C   UNL A   1      47.885  25.137  33.135  1.00  0.00     0.148 A 
ATOM     87  C   UNL A   1      50.193  25.963  31.761  1.00  0.00     0.002 A 
ATOM     88  C   UNL A   1      49.132  24.644  33.500  1.00  0.00     0.091 A 
ATOM     89  F   UNL A   1      46.761  24.740  33.748  1.00  0.00    -0.205 F 
ATOM     90  C   UNL A   1      50.285  25.045  32.805  1.00  0.00     0.022 A 
BRANCH  88  91
ATOM     91  S   UNL A   1      49.360  23.534  34.893  1.00  0.00     0.127 S 
ATOM     92  O   UNL A   1      48.860  24.343  36.003  1.00  0.00    -0.237 OA
ATOM     93  O   UNL A   1      48.507  22.403  34.529  1.00  0.00    -0.237 OA
ATOM     94  O   UNL A   1      50.784  23.229  34.936  1.00  0.00    -0.744 OA
ENDBRANCH  88  91
ENDBRANCH  61  84
ENDBRANCH  35  36
ENDBRANCH  27  30
ENDBRANCH  25  26
ENDBRANCH  24  25
ENDBRANCH  23  24
ENDBRANCH   1  23
TORSDOF 19
ENDMDL
