MODEL 1
REMARK VINA RESULT:     -10.4      0.000      0.000
REMARK SMILES CC[NH2+][C@]1(C(=O)NCCCCNC(=O)c2ccc(-c3c4nc(c(-c5cccc(S(=O)(=O)[O-])c5F)c5ccc([nH]5)c(-c5cccc(S(=O)(=O)[O-])c5F)c5nc(c(-c6cccc(S(=O)(=O)[O-])c6F)c6ccc3[nH]6)C=C5)C=C4)cc2)CCC[C@H]1CC[N@H+]1CCC[C@@H](CC)C1
REMARK SMILES IDX 9 1 8 2 7 3 5 4 6 5 4 7 78 8 81 9 79 10 80 11 3 12 2 15 1 16
REMARK SMILES IDX 82 17 83 18 84 19 85 20 91 21 86 23 88 24 87 25 89 26 90 27
REMARK SMILES IDX 10 28 11 29 12 30 13 31 14 33 15 34 16 35 77 36 17 37 76 38
REMARK SMILES IDX 18 39 19 40 20 41 70 42 21 43 75 44 69 45 71 46 22 47 74 48
REMARK SMILES IDX 68 49 67 50 23 52 55 53 35 54 54 55 36 56 39 57 53 58 72 59
REMARK SMILES IDX 37 60 38 61 52 63 73 64 40 65 24 66 25 67 33 68 26 69 28 70
REMARK SMILES IDX 34 71 27 72 29 73 30 74 31 75 32 76 56 77 57 78 65 79 58 80
REMARK SMILES IDX 60 81 66 82 59 83 61 84 62 85 63 86 64 87 41 88 42 89 50 90
REMARK SMILES IDX 43 91 45 92 51 93 44 94 46 95 47 96 48 97 49 98
REMARK H PARENT 7 6 3 13 3 14 84 22 12 32 71 51 39 62
REMARK Flexibility Score: inf
ROOT
ATOM      1  C   UNL A   1      33.153  26.733  26.064  1.00  0.00     0.023 C 
ENDROOT
BRANCH   1   2
ATOM      2  C   UNL A   1      31.941  26.045  25.443  1.00  0.00     0.116 C 
BRANCH   2   3
ATOM      3  N   UNL A   1      32.320  25.264  24.287  1.00  0.00    -0.351 N 
ATOM      4  C   UNL A   1      33.030  24.126  24.110  1.00  0.00     0.281 C 
ATOM      5  O   UNL A   1      33.523  24.026  22.975  1.00  0.00    -0.268 OA
ATOM      6  H   UNL A   1      31.991  25.645  23.442  1.00  0.00     0.163 HD
BRANCH   4   7
ATOM      7  C   UNL A   1      33.213  22.951  25.157  1.00  0.00     0.178 C 
ATOM      8  C   UNL A   1      33.330  21.526  24.604  1.00  0.00     0.079 C 
ATOM      9  C   UNL A   1      34.569  23.079  25.935  1.00  0.00     0.066 C 
ATOM     10  C   UNL A   1      33.972  20.680  25.685  1.00  0.00     0.008 C 
ATOM     11  C   UNL A   1      34.963  21.627  26.341  1.00  0.00     0.011 C 
BRANCH   7  12
ATOM     12  N   UNL A   1      32.027  23.106  26.038  1.00  0.00    -0.334 N 
ATOM     13  H   UNL A   1      32.357  22.908  26.983  1.00  0.00     0.347 HD
ATOM     14  H   UNL A   1      31.712  24.041  25.780  1.00  0.00     0.347 HD
BRANCH  12  15
ATOM     15  C   UNL A   1      30.808  22.351  25.883  1.00  0.00     0.257 C 
ATOM     16  C   UNL A   1      29.785  22.860  26.894  1.00  0.00     0.071 C 
ENDBRANCH  12  15
ENDBRANCH   7  12
BRANCH   9  17
ATOM     17  C   UNL A   1      35.751  23.733  25.167  1.00  0.00     0.072 C 
BRANCH  17  18
ATOM     18  C   UNL A   1      36.980  22.855  24.813  1.00  0.00     0.262 C 
BRANCH  18  19
ATOM     19  N   UNL A   1      38.276  23.148  25.448  1.00  0.00    -0.335 N 
ATOM     20  C   UNL A   1      38.158  24.110  26.547  1.00  0.00     0.262 C 
ATOM     21  C   UNL A   1      39.044  21.942  25.750  1.00  0.00     0.265 C 
ATOM     22  H   UNL A   1      38.849  23.630  24.756  1.00  0.00     0.348 HD
ATOM     23  C   UNL A   1      39.481  24.388  27.257  1.00  0.00     0.062 C 
ATOM     24  C   UNL A   1      40.402  22.224  26.405  1.00  0.00     0.044 C 
ATOM     25  C   UNL A   1      40.190  23.098  27.650  1.00  0.00     0.015 C 
BRANCH  24  26
ATOM     26  C   UNL A   1      41.225  20.958  26.753  1.00  0.00     0.006 C 
ATOM     27  C   UNL A   1      40.696  19.627  26.237  1.00  0.00     0.004 C 
ENDBRANCH  24  26
ENDBRANCH  18  19
ENDBRANCH  17  18
ENDBRANCH   9  17
ENDBRANCH   4   7
ENDBRANCH   2   3
ENDBRANCH   1   2
BRANCH   1  28
ATOM     28  C   UNL A   1      32.893  28.140  26.594  1.00  0.00     0.023 C 
BRANCH  28  29
ATOM     29  C   UNL A   1      33.806  29.225  26.034  1.00  0.00     0.116 C 
BRANCH  29  30
ATOM     30  N   UNL A   1      33.438  30.567  26.467  1.00  0.00    -0.352 N 
ATOM     31  C   UNL A   1      34.030  31.363  27.420  1.00  0.00     0.251 C 
ATOM     32  H   UNL A   1      32.657  30.959  26.015  1.00  0.00     0.163 HD
ATOM     33  O   UNL A   1      33.523  32.431  27.735  1.00  0.00    -0.269 OA
BRANCH  31  34
ATOM     34  C   UNL A   1      35.263  30.892  28.078  1.00  0.00     0.039 A 
ATOM     35  C   UNL A   1      36.400  31.702  28.044  1.00  0.00     0.014 A 
ATOM     36  C   UNL A   1      35.272  29.681  28.776  1.00  0.00     0.014 A 
ATOM     37  C   UNL A   1      37.527  31.333  28.778  1.00  0.00     0.010 A 
ATOM     38  C   UNL A   1      36.367  29.356  29.566  1.00  0.00     0.010 A 
ATOM     39  C   UNL A   1      37.505  30.177  29.576  1.00  0.00    -0.014 A 
BRANCH  39  40
ATOM     40  C   UNL A   1      38.653  29.814  30.443  1.00  0.00     0.031 A 
ATOM     41  C   UNL A   1      38.802  30.453  31.798  1.00  0.00     0.074 A 
ATOM     42  C   UNL A   1      39.614  28.997  29.968  1.00  0.00     0.049 A 
ATOM     43  N   UNL A   1      39.769  30.319  32.668  1.00  0.00    -0.248 NA
ATOM     44  C   UNL A   1      37.744  31.388  32.218  1.00  0.00     0.031 C 
ATOM     45  C   UNL A   1      39.629  28.389  28.633  1.00  0.00     0.029 A 
ATOM     46  N   UNL A   1      40.783  28.560  30.540  1.00  0.00    -0.354 N 
ATOM     47  C   UNL A   1      39.464  31.187  33.709  1.00  0.00     0.074 A 
ATOM     48  C   UNL A   1      38.234  31.860  33.356  1.00  0.00     0.031 C 
ATOM     49  C   UNL A   1      40.748  27.659  28.493  1.00  0.00     0.029 A 
ATOM     50  C   UNL A   1      41.541  27.764  29.713  1.00  0.00     0.049 A 
ATOM     51  H   UNL A   1      41.053  28.795  31.457  1.00  0.00     0.167 HD
ATOM     52  C   UNL A   1      40.133  31.385  34.868  1.00  0.00     0.034 A 
ATOM     53  C   UNL A   1      42.742  27.187  29.915  1.00  0.00     0.034 A 
ATOM     54  C   UNL A   1      41.313  30.658  35.247  1.00  0.00     0.049 A 
ATOM     55  C   UNL A   1      43.424  27.371  31.246  1.00  0.00     0.074 A 
ATOM     56  C   UNL A   1      41.990  30.690  36.453  1.00  0.00     0.029 A 
ATOM     57  N   UNL A   1      41.993  29.773  34.428  1.00  0.00    -0.354 N 
ATOM     58  N   UNL A   1      43.016  28.042  32.296  1.00  0.00    -0.248 NA
ATOM     59  C   UNL A   1      44.711  26.686  31.435  1.00  0.00     0.031 C 
ATOM     60  C   UNL A   1      43.092  29.835  36.357  1.00  0.00     0.029 A 
ATOM     61  C   UNL A   1      43.089  29.258  35.097  1.00  0.00     0.049 A 
ATOM     62  H   UNL A   1      41.734  29.543  33.506  1.00  0.00     0.167 HD
ATOM     63  C   UNL A   1      43.973  27.825  33.281  1.00  0.00     0.074 A 
ATOM     64  C   UNL A   1      44.970  26.944  32.710  1.00  0.00     0.031 C 
ATOM     65  C   UNL A   1      44.031  28.325  34.539  1.00  0.00     0.034 A 
BRANCH  52  66
ATOM     66  C   UNL A   1      39.576  32.382  35.847  1.00  0.00     0.023 A 
ATOM     67  C   UNL A   1      38.633  31.963  36.806  1.00  0.00     0.012 A 
ATOM     68  C   UNL A   1      40.054  33.708  35.877  1.00  0.00     0.148 A 
ATOM     69  C   UNL A   1      38.156  32.851  37.768  1.00  0.00     0.002 A 
ATOM     70  C   UNL A   1      39.604  34.576  36.865  1.00  0.00     0.091 A 
ATOM     71  F   UNL A   1      40.935  34.092  34.944  1.00  0.00    -0.205 F 
ATOM     72  C   UNL A   1      38.650  34.152  37.805  1.00  0.00     0.022 A 
BRANCH  70  73
ATOM     73  S   UNL A   1      40.236  36.248  37.050  1.00  0.00     0.127 S 
ATOM     74  O   UNL A   1      39.865  36.845  35.768  1.00  0.00    -0.237 OA
ATOM     75  O   UNL A   1      39.471  36.740  38.196  1.00  0.00    -0.237 OA
ATOM     76  O   UNL A   1      41.666  36.115  37.283  1.00  0.00    -0.744 OA
ENDBRANCH  70  73
ENDBRANCH  52  66
BRANCH  53  77
ATOM     77  C   UNL A   1      43.350  26.317  28.867  1.00  0.00     0.023 A 
ATOM     78  C   UNL A   1      43.061  24.938  28.868  1.00  0.00     0.012 A 
ATOM     79  C   UNL A   1      44.208  26.837  27.879  1.00  0.00     0.148 A 
ATOM     80  C   UNL A   1      43.647  24.086  27.932  1.00  0.00     0.002 A 
ATOM     81  C   UNL A   1      44.746  25.990  26.915  1.00  0.00     0.091 A 
ATOM     82  F   UNL A   1      44.487  28.147  27.902  1.00  0.00    -0.205 F 
ATOM     83  C   UNL A   1      44.483  24.612  26.951  1.00  0.00     0.022 A 
BRANCH  81  84
ATOM     84  S   UNL A   1      45.725  26.611  25.544  1.00  0.00     0.127 S 
ATOM     85  O   UNL A   1      46.946  27.045  26.218  1.00  0.00    -0.237 OA
ATOM     86  O   UNL A   1      45.874  25.422  24.705  1.00  0.00    -0.237 OA
ATOM     87  O   UNL A   1      44.915  27.664  24.943  1.00  0.00    -0.744 OA
ENDBRANCH  81  84
ENDBRANCH  53  77
BRANCH  65  88
ATOM     88  C   UNL A   1      45.184  27.901  35.409  1.00  0.00     0.023 A 
ATOM     89  C   UNL A   1      46.353  28.685  35.453  1.00  0.00     0.012 A 
ATOM     90  C   UNL A   1      45.073  26.773  36.247  1.00  0.00     0.148 A 
ATOM     91  C   UNL A   1      47.407  28.337  36.295  1.00  0.00     0.002 A 
ATOM     92  C   UNL A   1      46.108  26.460  37.119  1.00  0.00     0.091 A 
ATOM     93  F   UNL A   1      43.960  26.029  36.176  1.00  0.00    -0.205 F 
ATOM     94  C   UNL A   1      47.281  27.234  37.137  1.00  0.00     0.022 A 
BRANCH  92  95
ATOM     95  S   UNL A   1      45.987  25.119  38.308  1.00  0.00     0.127 S 
ATOM     96  O   UNL A   1      44.883  25.571  39.154  1.00  0.00    -0.237 OA
ATOM     97  O   UNL A   1      45.672  23.973  37.456  1.00  0.00    -0.237 OA
ATOM     98  O   UNL A   1      47.287  25.045  38.960  1.00  0.00    -0.744 OA
ENDBRANCH  92  95
ENDBRANCH  65  88
ENDBRANCH  39  40
ENDBRANCH  31  34
ENDBRANCH  29  30
ENDBRANCH  28  29
ENDBRANCH   1  28
TORSDOF 20
ENDMDL
MODEL 2
REMARK VINA RESULT:     -10.2      2.470      8.277
REMARK SMILES CC[NH2+][C@]1(C(=O)NCCCCNC(=O)c2ccc(-c3c4nc(c(-c5cccc(S(=O)(=O)[O-])c5F)c5ccc([nH]5)c(-c5cccc(S(=O)(=O)[O-])c5F)c5nc(c(-c6cccc(S(=O)(=O)[O-])c6F)c6ccc3[nH]6)C=C5)C=C4)cc2)CCC[C@H]1CC[N@H+]1CCC[C@@H](CC)C1
REMARK SMILES IDX 9 1 8 2 7 3 5 4 6 5 4 7 78 8 81 9 79 10 80 11 3 12 2 15 1 16
REMARK SMILES IDX 82 17 83 18 84 19 85 20 91 21 86 23 88 24 87 25 89 26 90 27
REMARK SMILES IDX 10 28 11 29 12 30 13 31 14 33 15 34 16 35 77 36 17 37 76 38
REMARK SMILES IDX 18 39 19 40 20 41 70 42 21 43 75 44 69 45 71 46 22 47 74 48
REMARK SMILES IDX 68 49 67 50 23 52 55 53 35 54 54 55 36 56 39 57 53 58 72 59
REMARK SMILES IDX 37 60 38 61 52 63 73 64 40 65 24 66 25 67 33 68 26 69 28 70
REMARK SMILES IDX 34 71 27 72 29 73 30 74 31 75 32 76 56 77 57 78 65 79 58 80
REMARK SMILES IDX 60 81 66 82 59 83 61 84 62 85 63 86 64 87 41 88 42 89 50 90
REMARK SMILES IDX 43 91 45 92 51 93 44 94 46 95 47 96 48 97 49 98
REMARK H PARENT 7 6 3 13 3 14 84 22 12 32 71 51 39 62
REMARK Flexibility Score: inf
ROOT
ATOM      1  C   UNL A   1      34.508  30.426  27.463  1.00  0.00     0.023 C 
ENDROOT
BRANCH   1   2
ATOM      2  C   UNL A   1      33.687  29.714  26.393  1.00  0.00     0.116 C 
BRANCH   2   3
ATOM      3  N   UNL A   1      32.954  28.600  26.953  1.00  0.00    -0.351 N 
ATOM      4  C   UNL A   1      32.146  27.647  26.434  1.00  0.00     0.281 C 
ATOM      5  O   UNL A   1      31.358  27.167  27.265  1.00  0.00    -0.268 OA
ATOM      6  H   UNL A   1      33.068  28.518  27.927  1.00  0.00     0.163 HD
BRANCH   4   7
ATOM      7  C   UNL A   1      32.173  27.085  24.954  1.00  0.00     0.178 C 
ATOM      8  C   UNL A   1      33.395  27.426  24.093  1.00  0.00     0.079 C 
ATOM      9  C   UNL A   1      32.226  25.517  24.934  1.00  0.00     0.066 C 
ATOM     10  C   UNL A   1      33.437  26.419  22.961  1.00  0.00     0.008 C 
ATOM     11  C   UNL A   1      32.943  25.135  23.604  1.00  0.00     0.011 C 
BRANCH   7  12
ATOM     12  N   UNL A   1      30.918  27.626  24.371  1.00  0.00    -0.334 N 
ATOM     13  H   UNL A   1      30.685  27.008  23.594  1.00  0.00     0.347 HD
ATOM     14  H   UNL A   1      30.323  27.672  25.198  1.00  0.00     0.347 HD
BRANCH  12  15
ATOM     15  C   UNL A   1      30.784  28.967  23.860  1.00  0.00     0.257 C 
ATOM     16  C   UNL A   1      30.014  28.915  22.544  1.00  0.00     0.071 C 
ENDBRANCH  12  15
ENDBRANCH   7  12
BRANCH   9  17
ATOM     17  C   UNL A   1      32.955  24.832  26.123  1.00  0.00     0.072 C 
BRANCH  17  18
ATOM     18  C   UNL A   1      32.370  23.510  26.687  1.00  0.00     0.262 C 
BRANCH  18  19
ATOM     19  N   UNL A   1      33.031  22.236  26.355  1.00  0.00    -0.335 N 
ATOM     20  C   UNL A   1      32.177  21.355  25.552  1.00  0.00     0.262 C 
ATOM     21  C   UNL A   1      34.391  22.416  25.855  1.00  0.00     0.265 C 
ATOM     22  H   UNL A   1      33.161  21.727  27.229  1.00  0.00     0.348 HD
ATOM     23  C   UNL A   1      32.860  20.049  25.150  1.00  0.00     0.062 C 
ATOM     24  C   UNL A   1      35.101  21.101  25.511  1.00  0.00     0.044 C 
ATOM     25  C   UNL A   1      34.230  20.299  24.532  1.00  0.00     0.015 C 
BRANCH  24  26
ATOM     26  C   UNL A   1      36.539  21.269  24.960  1.00  0.00     0.006 C 
ATOM     27  C   UNL A   1      36.754  22.349  23.909  1.00  0.00     0.004 C 
ENDBRANCH  24  26
ENDBRANCH  18  19
ENDBRANCH  17  18
ENDBRANCH   9  17
ENDBRANCH   4   7
ENDBRANCH   2   3
ENDBRANCH   1   2
BRANCH   1  28
ATOM     28  C   UNL A   1      34.288  31.934  27.545  1.00  0.00     0.023 C 
BRANCH  28  29
ATOM     29  C   UNL A   1      32.847  32.369  27.789  1.00  0.00     0.116 C 
BRANCH  29  30
ATOM     30  N   UNL A   1      32.678  33.817  27.809  1.00  0.00    -0.352 N 
ATOM     31  C   UNL A   1      33.353  34.758  28.550  1.00  0.00     0.251 C 
ATOM     32  H   UNL A   1      31.983  34.170  27.209  1.00  0.00     0.163 HD
ATOM     33  O   UNL A   1      33.008  35.932  28.522  1.00  0.00    -0.269 OA
BRANCH  31  34
ATOM     34  C   UNL A   1      34.475  34.324  29.404  1.00  0.00     0.039 A 
ATOM     35  C   UNL A   1      34.206  33.536  30.525  1.00  0.00     0.014 A 
ATOM     36  C   UNL A   1      35.790  34.645  29.058  1.00  0.00     0.014 A 
ATOM     37  C   UNL A   1      35.266  33.004  31.259  1.00  0.00     0.010 A 
ATOM     38  C   UNL A   1      36.842  34.053  29.744  1.00  0.00     0.010 A 
ATOM     39  C   UNL A   1      36.592  33.227  30.851  1.00  0.00    -0.014 A 
BRANCH  39  40
ATOM     40  C   UNL A   1      37.735  32.592  31.555  1.00  0.00     0.031 A 
ATOM     41  C   UNL A   1      38.459  31.435  30.920  1.00  0.00     0.074 A 
ATOM     42  C   UNL A   1      38.047  32.986  32.806  1.00  0.00     0.049 A 
ATOM     43  N   UNL A   1      39.430  30.708  31.405  1.00  0.00    -0.248 NA
ATOM     44  C   UNL A   1      38.013  31.021  29.578  1.00  0.00     0.031 C 
ATOM     45  C   UNL A   1      37.357  34.034  33.564  1.00  0.00     0.029 A 
ATOM     46  N   UNL A   1      39.005  32.528  33.676  1.00  0.00    -0.354 N 
ATOM     47  C   UNL A   1      39.676  29.723  30.457  1.00  0.00     0.074 A 
ATOM     48  C   UNL A   1      38.739  29.930  29.376  1.00  0.00     0.031 C 
ATOM     49  C   UNL A   1      37.916  34.139  34.781  1.00  0.00     0.029 A 
ATOM     50  C   UNL A   1      38.985  33.154  34.901  1.00  0.00     0.049 A 
ATOM     51  H   UNL A   1      39.647  31.819  33.444  1.00  0.00     0.167 HD
ATOM     52  C   UNL A   1      40.616  28.750  30.472  1.00  0.00     0.034 A 
ATOM     53  C   UNL A   1      39.742  32.953  35.998  1.00  0.00     0.034 A 
ATOM     54  C   UNL A   1      41.594  28.597  31.514  1.00  0.00     0.049 A 
ATOM     55  C   UNL A   1      40.828  31.910  35.952  1.00  0.00     0.074 A 
ATOM     56  C   UNL A   1      42.670  27.728  31.558  1.00  0.00     0.029 A 
ATOM     57  N   UNL A   1      41.615  29.323  32.692  1.00  0.00    -0.354 N 
ATOM     58  N   UNL A   1      41.172  31.120  34.964  1.00  0.00    -0.248 NA
ATOM     59  C   UNL A   1      41.656  31.758  37.158  1.00  0.00     0.031 C 
ATOM     60  C   UNL A   1      43.333  27.918  32.775  1.00  0.00     0.029 A 
ATOM     61  C   UNL A   1      42.678  28.918  33.478  1.00  0.00     0.049 A 
ATOM     62  H   UNL A   1      40.969  30.026  32.934  1.00  0.00     0.167 HD
ATOM     63  C   UNL A   1      42.280  30.410  35.413  1.00  0.00     0.074 A 
ATOM     64  C   UNL A   1      42.562  30.878  36.754  1.00  0.00     0.031 C 
ATOM     65  C   UNL A   1      42.989  29.445  34.779  1.00  0.00     0.034 A 
BRANCH  52  66
ATOM     66  C   UNL A   1      40.683  27.810  29.300  1.00  0.00     0.023 A 
ATOM     67  C   UNL A   1      39.810  26.705  29.244  1.00  0.00     0.012 A 
ATOM     68  C   UNL A   1      41.543  28.070  28.213  1.00  0.00     0.148 A 
ATOM     69  C   UNL A   1      39.804  25.860  28.135  1.00  0.00     0.002 A 
ATOM     70  C   UNL A   1      41.502  27.247  27.094  1.00  0.00     0.091 A 
ATOM     71  F   UNL A   1      42.379  29.114  28.296  1.00  0.00    -0.205 F 
ATOM     72  C   UNL A   1      40.641  26.139  27.058  1.00  0.00     0.022 A 
BRANCH  70  73
ATOM     73  S   UNL A   1      42.479  27.564  25.620  1.00  0.00     0.127 S 
ATOM     74  O   UNL A   1      43.840  27.489  26.149  1.00  0.00    -0.237 OA
ATOM     75  O   UNL A   1      42.099  26.447  24.755  1.00  0.00    -0.237 OA
ATOM     76  O   UNL A   1      42.071  28.875  25.139  1.00  0.00    -0.744 OA
ENDBRANCH  70  73
ENDBRANCH  52  66
BRANCH  53  77
ATOM     77  C   UNL A   1      39.558  33.802  37.210  1.00  0.00     0.023 A 
ATOM     78  C   UNL A   1      40.111  35.098  37.230  1.00  0.00     0.012 A 
ATOM     79  C   UNL A   1      38.850  33.343  38.336  1.00  0.00     0.148 A 
ATOM     80  C   UNL A   1      40.000  35.904  38.363  1.00  0.00     0.002 A 
ATOM     81  C   UNL A   1      38.696  34.171  39.443  1.00  0.00     0.091 A 
ATOM     82  F   UNL A   1      38.344  32.102  38.309  1.00  0.00    -0.205 F 
ATOM     83  C   UNL A   1      39.286  35.444  39.467  1.00  0.00     0.022 A 
BRANCH  81  84
ATOM     84  S   UNL A   1      37.681  33.703  40.848  1.00  0.00     0.127 S 
ATOM     85  O   UNL A   1      36.571  33.011  40.200  1.00  0.00    -0.237 OA
ATOM     86  O   UNL A   1      38.584  32.840  41.610  1.00  0.00    -0.237 OA
ATOM     87  O   UNL A   1      37.353  34.956  41.517  1.00  0.00    -0.744 OA
ENDBRANCH  81  84
ENDBRANCH  53  77
BRANCH  65  88
ATOM     88  C   UNL A   1      44.171  28.854  35.502  1.00  0.00     0.023 A 
ATOM     89  C   UNL A   1      45.445  29.434  35.348  1.00  0.00     0.012 A 
ATOM     90  C   UNL A   1      44.000  27.781  36.398  1.00  0.00     0.148 A 
ATOM     91  C   UNL A   1      46.539  28.934  36.053  1.00  0.00     0.002 A 
ATOM     92  C   UNL A   1      45.085  27.320  37.134  1.00  0.00     0.091 A 
ATOM     93  F   UNL A   1      42.783  27.231  36.515  1.00  0.00    -0.205 F 
ATOM     94  C   UNL A   1      46.357  27.888  36.954  1.00  0.00     0.022 A 
BRANCH  92  95
ATOM     95  S   UNL A   1      44.919  26.046  38.390  1.00  0.00     0.127 S 
ATOM     96  O   UNL A   1      44.067  26.709  39.375  1.00  0.00    -0.237 OA
ATOM     97  O   UNL A   1      44.270  24.962  37.652  1.00  0.00    -0.237 OA
ATOM     98  O   UNL A   1      46.274  25.745  38.833  1.00  0.00    -0.744 OA
ENDBRANCH  92  95
ENDBRANCH  65  88
ENDBRANCH  39  40
ENDBRANCH  31  34
ENDBRANCH  29  30
ENDBRANCH  28  29
ENDBRANCH   1  28
TORSDOF 20
ENDMDL
MODEL 3
REMARK VINA RESULT:     -10.2      5.631      8.335
REMARK SMILES CC[NH2+][C@]1(C(=O)NCCCCNC(=O)c2ccc(-c3c4nc(c(-c5cccc(S(=O)(=O)[O-])c5F)c5ccc([nH]5)c(-c5cccc(S(=O)(=O)[O-])c5F)c5nc(c(-c6cccc(S(=O)(=O)[O-])c6F)c6ccc3[nH]6)C=C5)C=C4)cc2)CCC[C@H]1CC[N@H+]1CCC[C@@H](CC)C1
REMARK SMILES IDX 9 1 8 2 7 3 5 4 6 5 4 7 78 8 81 9 79 10 80 11 3 12 2 15 1 16
REMARK SMILES IDX 82 17 83 18 84 19 85 20 91 21 86 23 88 24 87 25 89 26 90 27
REMARK SMILES IDX 10 28 11 29 12 30 13 31 14 33 15 34 16 35 77 36 17 37 76 38
REMARK SMILES IDX 18 39 19 40 20 41 70 42 21 43 75 44 69 45 71 46 22 47 74 48
REMARK SMILES IDX 68 49 67 50 23 52 55 53 35 54 54 55 36 56 39 57 53 58 72 59
REMARK SMILES IDX 37 60 38 61 52 63 73 64 40 65 24 66 25 67 33 68 26 69 28 70
REMARK SMILES IDX 34 71 27 72 29 73 30 74 31 75 32 76 56 77 57 78 65 79 58 80
REMARK SMILES IDX 60 81 66 82 59 83 61 84 62 85 63 86 64 87 41 88 42 89 50 90
REMARK SMILES IDX 43 91 45 92 51 93 44 94 46 95 47 96 48 97 49 98
REMARK H PARENT 7 6 3 13 3 14 84 22 12 32 71 51 39 62
REMARK Flexibility Score: inf
ROOT
ATOM      1  C   UNL A   1      37.698  22.727  24.610  1.00  0.00     0.023 C 
ENDROOT
BRANCH   1   2
ATOM      2  C   UNL A   1      36.319  23.345  24.818  1.00  0.00     0.116 C 
BRANCH   2   3
ATOM      3  N   UNL A   1      35.663  23.592  23.553  1.00  0.00    -0.351 N 
ATOM      4  C   UNL A   1      34.370  23.675  23.163  1.00  0.00     0.281 C 
ATOM      5  O   UNL A   1      34.207  23.441  21.954  1.00  0.00    -0.268 OA
ATOM      6  H   UNL A   1      36.297  23.730  22.813  1.00  0.00     0.163 HD
BRANCH   4   7
ATOM      7  C   UNL A   1      33.133  24.087  24.062  1.00  0.00     0.178 C 
ATOM      8  C   UNL A   1      31.767  24.195  23.374  1.00  0.00     0.079 C 
ATOM      9  C   UNL A   1      32.828  23.003  25.154  1.00  0.00     0.066 C 
ATOM     10  C   UNL A   1      30.714  24.106  24.460  1.00  0.00     0.008 C 
ATOM     11  C   UNL A   1      31.304  23.119  25.452  1.00  0.00     0.011 C 
BRANCH   7  12
ATOM     12  N   UNL A   1      33.564  25.385  24.643  1.00  0.00    -0.334 N 
ATOM     13  H   UNL A   1      33.071  25.467  25.532  1.00  0.00     0.347 HD
ATOM     14  H   UNL A   1      34.578  25.283  24.616  1.00  0.00     0.347 HD
BRANCH  12  15
ATOM     15  C   UNL A   1      33.396  26.654  23.982  1.00  0.00     0.257 C 
ATOM     16  C   UNL A   1      32.494  27.537  24.839  1.00  0.00     0.071 C 
ENDBRANCH  12  15
ENDBRANCH   7  12
BRANCH   9  17
ATOM     17  C   UNL A   1      33.166  21.531  24.785  1.00  0.00     0.072 C 
BRANCH  17  18
ATOM     18  C   UNL A   1      32.188  20.413  25.230  1.00  0.00     0.262 C 
BRANCH  18  19
ATOM     19  N   UNL A   1      32.245  19.103  24.559  1.00  0.00    -0.335 N 
ATOM     20  C   UNL A   1      32.553  19.218  23.130  1.00  0.00     0.262 C 
ATOM     21  C   UNL A   1      33.040  18.124  25.295  1.00  0.00     0.265 C 
ATOM     22  H   UNL A   1      31.303  18.713  24.580  1.00  0.00     0.348 HD
ATOM     23  C   UNL A   1      32.670  17.869  22.424  1.00  0.00     0.062 C 
ATOM     24  C   UNL A   1      33.106  16.749  24.618  1.00  0.00     0.044 C 
ATOM     25  C   UNL A   1      33.599  16.921  23.174  1.00  0.00     0.015 C 
BRANCH  24  26
ATOM     26  C   UNL A   1      33.961  15.699  25.372  1.00  0.00     0.006 C 
ATOM     27  C   UNL A   1      35.470  15.898  25.356  1.00  0.00     0.004 C 
ENDBRANCH  24  26
ENDBRANCH  18  19
ENDBRANCH  17  18
ENDBRANCH   9  17
ENDBRANCH   4   7
ENDBRANCH   2   3
ENDBRANCH   1   2
BRANCH   1  28
ATOM     28  C   UNL A   1      37.783  21.231  24.900  1.00  0.00     0.023 C 
BRANCH  28  29
ATOM     29  C   UNL A   1      38.460  20.861  26.216  1.00  0.00     0.116 C 
BRANCH  29  30
ATOM     30  N   UNL A   1      39.411  19.764  26.085  1.00  0.00    -0.352 N 
ATOM     31  C   UNL A   1      40.785  19.798  26.129  1.00  0.00     0.251 C 
ATOM     32  H   UNL A   1      39.014  18.874  25.946  1.00  0.00     0.163 HD
ATOM     33  O   UNL A   1      41.437  18.790  25.894  1.00  0.00    -0.269 OA
BRANCH  31  34
ATOM     34  C   UNL A   1      41.458  21.076  26.430  1.00  0.00     0.039 A 
ATOM     35  C   UNL A   1      41.741  21.954  25.382  1.00  0.00     0.014 A 
ATOM     36  C   UNL A   1      41.748  21.425  27.752  1.00  0.00     0.014 A 
ATOM     37  C   UNL A   1      42.249  23.221  25.669  1.00  0.00     0.010 A 
ATOM     38  C   UNL A   1      42.181  22.714  28.038  1.00  0.00     0.010 A 
ATOM     39  C   UNL A   1      42.436  23.624  27.002  1.00  0.00    -0.014 A 
BRANCH  39  40
ATOM     40  C   UNL A   1      42.880  25.000  27.338  1.00  0.00     0.031 A 
ATOM     41  C   UNL A   1      41.924  25.958  27.996  1.00  0.00     0.074 A 
ATOM     42  C   UNL A   1      44.104  25.417  26.953  1.00  0.00     0.049 A 
ATOM     43  N   UNL A   1      42.102  27.216  28.303  1.00  0.00    -0.248 NA
ATOM     44  C   UNL A   1      40.582  25.446  28.325  1.00  0.00     0.031 C 
ATOM     45  C   UNL A   1      45.086  24.609  26.224  1.00  0.00     0.029 A 
ATOM     46  N   UNL A   1      44.719  26.636  27.092  1.00  0.00    -0.354 N 
ATOM     47  C   UNL A   1      40.886  27.658  28.810  1.00  0.00     0.074 A 
ATOM     48  C   UNL A   1      39.970  26.542  28.750  1.00  0.00     0.031 C 
ATOM     49  C   UNL A   1      46.178  25.353  25.984  1.00  0.00     0.029 A 
ATOM     50  C   UNL A   1      45.967  26.695  26.518  1.00  0.00     0.049 A 
ATOM     51  H   UNL A   1      44.305  27.398  27.560  1.00  0.00     0.167 HD
ATOM     52  C   UNL A   1      40.570  28.876  29.305  1.00  0.00     0.034 A 
ATOM     53  C   UNL A   1      46.842  27.717  26.428  1.00  0.00     0.034 A 
ATOM     54  C   UNL A   1      41.507  29.959  29.432  1.00  0.00     0.049 A 
ATOM     55  C   UNL A   1      46.484  29.038  27.056  1.00  0.00     0.074 A 
ATOM     56  C   UNL A   1      41.321  31.187  30.041  1.00  0.00     0.029 A 
ATOM     57  N   UNL A   1      42.801  29.946  28.940  1.00  0.00    -0.354 N 
ATOM     58  N   UNL A   1      45.398  29.374  27.709  1.00  0.00    -0.248 NA
ATOM     59  C   UNL A   1      47.489  30.109  26.972  1.00  0.00     0.031 C 
ATOM     60  C   UNL A   1      42.500  31.925  29.903  1.00  0.00     0.029 A 
ATOM     61  C   UNL A   1      43.425  31.148  29.222  1.00  0.00     0.049 A 
ATOM     62  H   UNL A   1      43.217  29.192  28.462  1.00  0.00     0.167 HD
ATOM     63  C   UNL A   1      45.605  30.677  28.147  1.00  0.00     0.074 A 
ATOM     64  C   UNL A   1      46.929  31.063  27.705  1.00  0.00     0.031 C 
ATOM     65  C   UNL A   1      44.769  31.489  28.839  1.00  0.00     0.034 A 
BRANCH  52  66
ATOM     66  C   UNL A   1      39.170  29.095  29.812  1.00  0.00     0.023 A 
ATOM     67  C   UNL A   1      38.850  28.750  31.139  1.00  0.00     0.012 A 
ATOM     68  C   UNL A   1      38.200  29.724  29.005  1.00  0.00     0.148 A 
ATOM     69  C   UNL A   1      37.579  29.007  31.653  1.00  0.00     0.002 A 
ATOM     70  C   UNL A   1      36.950  30.014  29.537  1.00  0.00     0.091 A 
ATOM     71  F   UNL A   1      38.520  30.025  27.739  1.00  0.00    -0.205 F 
ATOM     72  C   UNL A   1      36.636  29.650  30.856  1.00  0.00     0.022 A 
BRANCH  70  73
ATOM     73  S   UNL A   1      35.690  30.911  28.621  1.00  0.00     0.127 S 
ATOM     74  O   UNL A   1      34.974  31.593  29.699  1.00  0.00    -0.237 OA
ATOM     75  O   UNL A   1      36.495  31.790  27.773  1.00  0.00    -0.237 OA
ATOM     76  O   UNL A   1      34.921  29.906  27.903  1.00  0.00    -0.744 OA
ENDBRANCH  70  73
ENDBRANCH  52  66
BRANCH  53  77
ATOM     77  C   UNL A   1      48.173  27.519  25.787  1.00  0.00     0.023 A 
ATOM     78  C   UNL A   1      49.290  27.230  26.596  1.00  0.00     0.012 A 
ATOM     79  C   UNL A   1      48.346  27.617  24.393  1.00  0.00     0.148 A 
ATOM     80  C   UNL A   1      50.559  27.085  26.037  1.00  0.00     0.002 A 
ATOM     81  C   UNL A   1      49.605  27.417  23.835  1.00  0.00     0.091 A 
ATOM     82  F   UNL A   1      47.278  27.908  23.637  1.00  0.00    -0.205 F 
ATOM     83  C   UNL A   1      50.716  27.171  24.656  1.00  0.00     0.022 A 
BRANCH  81  84
ATOM     84  S   UNL A   1      49.863  27.381  22.059  1.00  0.00     0.127 S 
ATOM     85  O   UNL A   1      51.270  26.999  21.966  1.00  0.00    -0.237 OA
ATOM     86  O   UNL A   1      48.916  26.353  21.628  1.00  0.00    -0.237 OA
ATOM     87  O   UNL A   1      49.532  28.724  21.597  1.00  0.00    -0.744 OA
ENDBRANCH  81  84
ENDBRANCH  53  77
BRANCH  65  88
ATOM     88  C   UNL A   1      45.267  32.861  29.205  1.00  0.00     0.023 A 
ATOM     89  C   UNL A   1      45.981  33.048  30.405  1.00  0.00     0.012 A 
ATOM     90  C   UNL A   1      45.101  33.944  28.320  1.00  0.00     0.148 A 
ATOM     91  C   UNL A   1      46.498  34.301  30.732  1.00  0.00     0.002 A 
ATOM     92  C   UNL A   1      45.661  35.177  28.630  1.00  0.00     0.091 A 
ATOM     93  F   UNL A   1      44.402  33.750  27.193  1.00  0.00    -0.205 F 
ATOM     94  C   UNL A   1      46.349  35.361  29.841  1.00  0.00     0.022 A 
BRANCH  92  95
ATOM     95  S   UNL A   1      45.605  36.568  27.493  1.00  0.00     0.127 S 
ATOM     96  O   UNL A   1      46.265  36.013  26.312  1.00  0.00    -0.237 OA
ATOM     97  O   UNL A   1      44.168  36.791  27.341  1.00  0.00    -0.237 OA
ATOM     98  O   UNL A   1      46.315  37.653  28.156  1.00  0.00    -0.744 OA
ENDBRANCH  92  95
ENDBRANCH  65  88
ENDBRANCH  39  40
ENDBRANCH  31  34
ENDBRANCH  29  30
ENDBRANCH  28  29
ENDBRANCH   1  28
TORSDOF 20
ENDMDL
