MODEL 1
REMARK VINA RESULT:     -12.7      0.000      0.000
REMARK SMILES O=C(NCCCCNC(=O)c1ccc(Cn2ccc3ccc(Br)cc32)nc1)c1ccc(-c2c3nc(c(-c4cccc(S(=O)(=O)[O-])c4F)c4ccc([nH]4)c(-c4cccc(S(=O)(=O)[O-])c4F)c4nc(c(-c5cccc(S(=O)(=O)[O-])c5F)c5ccc2[nH]5)C=C4)C=C3)cc1
REMARK SMILES IDX 5 1 4 2 3 3 1 4 2 5 28 7 29 8 90 9 30 10 89 11 31 12 32 13
REMARK SMILES IDX 33 14 83 15 34 16 88 17 82 18 84 19 35 20 87 21 81 22 80 23
REMARK SMILES IDX 36 25 68 26 48 27 67 28 49 29 52 30 66 31 85 32 50 33 51 34
REMARK SMILES IDX 65 36 86 37 53 38 37 39 38 40 46 41 39 42 41 43 47 44 40 45
REMARK SMILES IDX 42 46 43 47 44 48 45 49 69 50 70 51 78 52 71 53 73 54 79 55
REMARK SMILES IDX 72 56 74 57 75 58 76 59 77 60 54 61 55 62 63 63 56 64 58 65
REMARK SMILES IDX 64 66 57 67 59 68 60 69 61 70 62 71 6 72 7 73 8 74 9 75
REMARK SMILES IDX 10 77 11 78 12 79 27 80 13 81 26 82 14 83 15 84 16 85 17 86
REMARK SMILES IDX 25 87 18 88 19 89 24 90 20 91 22 92 21 93 23 94
REMARK H PARENT 3 6 84 24 52 35 8 76
REMARK Flexibility Score: inf
ROOT
ATOM      1  C   UNL A   1      31.710  31.733  26.507  1.00  0.00     0.023 C 
ENDROOT
BRANCH   1   2
ATOM      2  C   UNL A   1      32.763  32.410  27.370  1.00  0.00     0.116 C 
BRANCH   2   3
ATOM      3  N   UNL A   1      32.508  33.838  27.633  1.00  0.00    -0.352 N 
ATOM      4  O   UNL A   1      32.525  35.652  29.035  1.00  0.00    -0.269 OA
ATOM      5  C   UNL A   1      33.052  34.609  28.654  1.00  0.00     0.251 C 
ATOM      6  H   UNL A   1      31.884  34.293  27.021  1.00  0.00     0.163 HD
BRANCH   5   7
ATOM      7  C   UNL A   1      34.324  34.152  29.233  1.00  0.00     0.039 A 
ATOM      8  C   UNL A   1      34.437  33.282  30.321  1.00  0.00     0.014 A 
ATOM      9  C   UNL A   1      35.437  34.528  28.501  1.00  0.00     0.014 A 
ATOM     10  C   UNL A   1      35.690  32.726  30.587  1.00  0.00     0.010 A 
ATOM     11  C   UNL A   1      36.536  33.732  28.558  1.00  0.00     0.010 A 
ATOM     12  C   UNL A   1      36.735  32.941  29.673  1.00  0.00    -0.014 A 
BRANCH  12  13
ATOM     13  C   UNL A   1      38.041  32.305  29.769  1.00  0.00     0.031 A 
ATOM     14  C   UNL A   1      38.087  30.926  29.224  1.00  0.00     0.074 A 
ATOM     15  C   UNL A   1      39.150  32.994  30.137  1.00  0.00     0.049 A 
ATOM     16  N   UNL A   1      38.153  29.834  29.909  1.00  0.00    -0.248 NA
ATOM     17  C   UNL A   1      37.851  30.715  27.786  1.00  0.00     0.031 C 
ATOM     18  C   UNL A   1      39.289  34.433  30.435  1.00  0.00     0.029 A 
ATOM     19  N   UNL A   1      40.441  32.577  30.188  1.00  0.00    -0.354 N 
ATOM     20  C   UNL A   1      38.253  28.815  28.969  1.00  0.00     0.074 A 
ATOM     21  C   UNL A   1      37.836  29.380  27.712  1.00  0.00     0.031 C 
ATOM     22  C   UNL A   1      40.586  34.797  30.353  1.00  0.00     0.029 A 
ATOM     23  C   UNL A   1      41.387  33.603  30.206  1.00  0.00     0.049 A 
ATOM     24  H   UNL A   1      40.690  31.624  30.209  1.00  0.00     0.167 HD
ATOM     25  C   UNL A   1      38.941  27.675  29.247  1.00  0.00     0.034 A 
ATOM     26  C   UNL A   1      42.732  33.465  30.090  1.00  0.00     0.034 A 
ATOM     27  C   UNL A   1      39.265  27.578  30.647  1.00  0.00     0.049 A 
ATOM     28  C   UNL A   1      43.028  32.071  30.492  1.00  0.00     0.074 A 
ATOM     29  C   UNL A   1      38.528  27.564  31.813  1.00  0.00     0.029 A 
ATOM     30  N   UNL A   1      40.543  27.941  31.005  1.00  0.00    -0.354 N 
ATOM     31  N   UNL A   1      42.828  31.618  31.698  1.00  0.00    -0.248 NA
ATOM     32  C   UNL A   1      43.101  31.067  29.444  1.00  0.00     0.031 C 
ATOM     33  C   UNL A   1      39.266  28.379  32.720  1.00  0.00     0.029 A 
ATOM     34  C   UNL A   1      40.452  28.769  32.093  1.00  0.00     0.049 A 
ATOM     35  H   UNL A   1      41.374  27.656  30.559  1.00  0.00     0.167 HD
ATOM     36  C   UNL A   1      42.284  30.357  31.499  1.00  0.00     0.074 A 
ATOM     37  C   UNL A   1      42.576  30.031  30.103  1.00  0.00     0.031 C 
ATOM     38  C   UNL A   1      41.388  29.832  32.383  1.00  0.00     0.034 A 
BRANCH  25  39
ATOM     39  C   UNL A   1      39.661  26.845  28.221  1.00  0.00     0.023 A 
ATOM     40  C   UNL A   1      39.428  25.454  28.216  1.00  0.00     0.012 A 
ATOM     41  C   UNL A   1      40.743  27.326  27.451  1.00  0.00     0.148 A 
ATOM     42  C   UNL A   1      40.241  24.582  27.485  1.00  0.00     0.002 A 
ATOM     43  C   UNL A   1      41.502  26.466  26.669  1.00  0.00     0.091 A 
ATOM     44  F   UNL A   1      41.132  28.599  27.577  1.00  0.00    -0.205 F 
ATOM     45  C   UNL A   1      41.270  25.089  26.698  1.00  0.00     0.022 A 
BRANCH  43  46
ATOM     46  S   UNL A   1      42.830  27.072  25.621  1.00  0.00     0.127 S 
ATOM     47  O   UNL A   1      43.198  25.864  24.890  1.00  0.00    -0.237 OA
ATOM     48  O   UNL A   1      42.141  28.093  24.830  1.00  0.00    -0.237 OA
ATOM     49  O   UNL A   1      43.833  27.601  26.535  1.00  0.00    -0.744 OA
ENDBRANCH  43  46
ENDBRANCH  25  39
BRANCH  26  50
ATOM     50  C   UNL A   1      43.755  34.325  29.437  1.00  0.00     0.023 A 
ATOM     51  C   UNL A   1      44.548  35.169  30.245  1.00  0.00     0.012 A 
ATOM     52  C   UNL A   1      44.177  34.100  28.110  1.00  0.00     0.148 A 
ATOM     53  C   UNL A   1      45.759  35.697  29.779  1.00  0.00     0.002 A 
ATOM     54  C   UNL A   1      45.379  34.636  27.648  1.00  0.00     0.091 A 
ATOM     55  F   UNL A   1      43.460  33.282  27.329  1.00  0.00    -0.205 F 
ATOM     56  C   UNL A   1      46.184  35.415  28.487  1.00  0.00     0.022 A 
BRANCH  54  57
ATOM     57  S   UNL A   1      45.989  34.310  25.988  1.00  0.00     0.127 S 
ATOM     58  O   UNL A   1      44.854  34.724  25.159  1.00  0.00    -0.237 OA
ATOM     59  O   UNL A   1      47.151  35.190  25.918  1.00  0.00    -0.237 OA
ATOM     60  O   UNL A   1      46.260  32.879  25.950  1.00  0.00    -0.744 OA
ENDBRANCH  54  57
ENDBRANCH  26  50
BRANCH  38  61
ATOM     61  C   UNL A   1      41.178  30.544  33.695  1.00  0.00     0.023 A 
ATOM     62  C   UNL A   1      42.146  30.548  34.723  1.00  0.00     0.012 A 
ATOM     63  C   UNL A   1      40.080  31.412  33.791  1.00  0.00     0.148 A 
ATOM     64  C   UNL A   1      42.024  31.411  35.816  1.00  0.00     0.002 A 
ATOM     65  C   UNL A   1      39.981  32.294  34.858  1.00  0.00     0.091 A 
ATOM     66  F   UNL A   1      39.179  31.396  32.797  1.00  0.00    -0.205 F 
ATOM     67  C   UNL A   1      40.950  32.297  35.875  1.00  0.00     0.022 A 
BRANCH  65  68
ATOM     68  S   UNL A   1      38.688  33.534  34.937  1.00  0.00     0.127 S 
ATOM     69  O   UNL A   1      38.833  34.207  33.648  1.00  0.00    -0.237 OA
ATOM     70  O   UNL A   1      37.482  32.715  35.069  1.00  0.00    -0.237 OA
ATOM     71  O   UNL A   1      38.985  34.357  36.102  1.00  0.00    -0.744 OA
ENDBRANCH  65  68
ENDBRANCH  38  61
ENDBRANCH  12  13
ENDBRANCH   5   7
ENDBRANCH   2   3
ENDBRANCH   1   2
BRANCH   1  72
ATOM     72  C   UNL A   1      32.196  30.487  25.754  1.00  0.00     0.023 C 
BRANCH  72  73
ATOM     73  C   UNL A   1      31.116  29.535  25.220  1.00  0.00     0.116 C 
BRANCH  73  74
ATOM     74  N   UNL A   1      30.584  29.949  23.935  1.00  0.00    -0.352 N 
ATOM     75  C   UNL A   1      30.304  29.176  22.833  1.00  0.00     0.252 C 
ATOM     76  H   UNL A   1      30.399  30.912  23.840  1.00  0.00     0.163 HD
ATOM     77  O   UNL A   1      30.194  29.686  21.725  1.00  0.00    -0.269 OA
BRANCH  75  78
ATOM     78  C   UNL A   1      30.277  27.716  22.971  1.00  0.00     0.058 A 
ATOM     79  C   UNL A   1      29.247  27.015  23.599  1.00  0.00     0.017 A 
ATOM     80  C   UNL A   1      31.374  27.016  22.517  1.00  0.00     0.125 A 
ATOM     81  C   UNL A   1      29.391  25.641  23.803  1.00  0.00     0.026 A 
ATOM     82  N   UNL A   1      31.560  25.700  22.758  1.00  0.00    -0.259 NA
ATOM     83  C   UNL A   1      30.564  25.016  23.379  1.00  0.00     0.060 A 
BRANCH  83  84
ATOM     84  C   UNL A   1      30.810  23.548  23.617  1.00  0.00     0.178 C 
BRANCH  84  85
ATOM     85  N   UNL A   1      31.499  23.288  24.879  1.00  0.00    -0.341 N 
ATOM     86  C   UNL A   1      30.864  23.200  26.096  1.00  0.00     0.087 A 
ATOM     87  C   UNL A   1      32.866  23.149  25.054  1.00  0.00     0.049 A 
ATOM     88  C   UNL A   1      31.815  22.931  27.054  1.00  0.00     0.028 A 
ATOM     89  C   UNL A   1      33.078  22.871  26.407  1.00  0.00    -0.000 A 
ATOM     90  C   UNL A   1      33.934  23.203  24.140  1.00  0.00     0.042 A 
ATOM     91  C   UNL A   1      34.388  22.599  26.854  1.00  0.00     0.011 A 
ATOM     92  C   UNL A   1      35.215  22.895  24.601  1.00  0.00     0.020 A 
ATOM     93  C   UNL A   1      35.447  22.595  25.937  1.00  0.00     0.016 A 
ATOM     94  Br  UNL A   1      36.655  22.865  23.371  1.00  0.00    -0.051 Br
ENDBRANCH  84  85
ENDBRANCH  83  84
ENDBRANCH  75  78
ENDBRANCH  73  74
ENDBRANCH  72  73
ENDBRANCH   1  72
TORSDOF 16
ENDMDL
MODEL 2
REMARK VINA RESULT:     -12.4      3.293      7.979
REMARK SMILES O=C(NCCCCNC(=O)c1ccc(Cn2ccc3ccc(Br)cc32)nc1)c1ccc(-c2c3nc(c(-c4cccc(S(=O)(=O)[O-])c4F)c4ccc([nH]4)c(-c4cccc(S(=O)(=O)[O-])c4F)c4nc(c(-c5cccc(S(=O)(=O)[O-])c5F)c5ccc2[nH]5)C=C4)C=C3)cc1
REMARK SMILES IDX 5 1 4 2 3 3 1 4 2 5 28 7 29 8 90 9 30 10 89 11 31 12 32 13
REMARK SMILES IDX 33 14 83 15 34 16 88 17 82 18 84 19 35 20 87 21 81 22 80 23
REMARK SMILES IDX 36 25 68 26 48 27 67 28 49 29 52 30 66 31 85 32 50 33 51 34
REMARK SMILES IDX 65 36 86 37 53 38 37 39 38 40 46 41 39 42 41 43 47 44 40 45
REMARK SMILES IDX 42 46 43 47 44 48 45 49 69 50 70 51 78 52 71 53 73 54 79 55
REMARK SMILES IDX 72 56 74 57 75 58 76 59 77 60 54 61 55 62 63 63 56 64 58 65
REMARK SMILES IDX 64 66 57 67 59 68 60 69 61 70 62 71 6 72 7 73 8 74 9 75
REMARK SMILES IDX 10 77 11 78 12 79 27 80 13 81 26 82 14 83 15 84 16 85 17 86
REMARK SMILES IDX 25 87 18 88 19 89 24 90 20 91 22 92 21 93 23 94
REMARK H PARENT 3 6 84 24 52 35 8 76
REMARK Flexibility Score: inf
ROOT
ATOM      1  C   UNL A   1      37.271  21.355  24.691  1.00  0.00     0.023 C 
ENDROOT
BRANCH   1   2
ATOM      2  C   UNL A   1      38.240  22.245  25.451  1.00  0.00     0.116 C 
BRANCH   2   3
ATOM      3  N   UNL A   1      39.007  21.553  26.503  1.00  0.00    -0.352 N 
ATOM      4  O   UNL A   1      40.899  21.315  27.776  1.00  0.00    -0.269 OA
ATOM      5  C   UNL A   1      40.097  22.053  27.206  1.00  0.00     0.251 C 
ATOM      6  H   UNL A   1      38.717  20.640  26.730  1.00  0.00     0.163 HD
BRANCH   5   7
ATOM      7  C   UNL A   1      40.229  23.515  27.290  1.00  0.00     0.039 A 
ATOM      8  C   UNL A   1      39.172  24.419  27.152  1.00  0.00     0.014 A 
ATOM      9  C   UNL A   1      41.484  23.940  27.687  1.00  0.00     0.014 A 
ATOM     10  C   UNL A   1      39.393  25.747  27.522  1.00  0.00     0.010 A 
ATOM     11  C   UNL A   1      41.576  25.122  28.352  1.00  0.00     0.010 A 
ATOM     12  C   UNL A   1      40.604  26.083  28.151  1.00  0.00    -0.014 A 
BRANCH  12  13
ATOM     13  C   UNL A   1      40.894  27.398  28.704  1.00  0.00     0.031 A 
ATOM     14  C   UNL A   1      42.079  28.059  28.106  1.00  0.00     0.074 A 
ATOM     15  C   UNL A   1      40.033  28.031  29.539  1.00  0.00     0.049 A 
ATOM     16  N   UNL A   1      43.233  28.214  28.665  1.00  0.00    -0.248 NA
ATOM     17  C   UNL A   1      42.054  28.427  26.681  1.00  0.00     0.031 C 
ATOM     18  C   UNL A   1      38.695  27.603  29.989  1.00  0.00     0.029 A 
ATOM     19  N   UNL A   1      40.111  29.282  30.063  1.00  0.00    -0.354 N 
ATOM     20  C   UNL A   1      43.985  28.951  27.760  1.00  0.00     0.074 A 
ATOM     21  C   UNL A   1      43.307  28.854  26.494  1.00  0.00     0.031 C 
ATOM     22  C   UNL A   1      38.005  28.662  30.461  1.00  0.00     0.029 A 
ATOM     23  C   UNL A   1      38.904  29.791  30.543  1.00  0.00     0.049 A 
ATOM     24  H   UNL A   1      40.954  29.789  30.100  1.00  0.00     0.167 HD
ATOM     25  C   UNL A   1      44.946  29.814  28.190  1.00  0.00     0.034 A 
ATOM     26  C   UNL A   1      38.670  31.061  30.959  1.00  0.00     0.034 A 
ATOM     27  C   UNL A   1      45.233  29.633  29.590  1.00  0.00     0.049 A 
ATOM     28  C   UNL A   1      39.995  31.613  31.325  1.00  0.00     0.074 A 
ATOM     29  C   UNL A   1      45.665  28.574  30.361  1.00  0.00     0.029 A 
ATOM     30  N   UNL A   1      44.637  30.521  30.455  1.00  0.00    -0.354 N 
ATOM     31  N   UNL A   1      40.713  31.149  32.310  1.00  0.00    -0.248 NA
ATOM     32  C   UNL A   1      40.719  32.360  30.311  1.00  0.00     0.031 C 
ATOM     33  C   UNL A   1      44.886  28.651  31.552  1.00  0.00     0.029 A 
ATOM     34  C   UNL A   1      44.092  29.798  31.483  1.00  0.00     0.049 A 
ATOM     35  H   UNL A   1      44.608  31.500  30.354  1.00  0.00     0.167 HD
ATOM     36  C   UNL A   1      42.006  31.132  31.804  1.00  0.00     0.074 A 
ATOM     37  C   UNL A   1      41.964  31.985  30.617  1.00  0.00     0.031 C 
ATOM     38  C   UNL A   1      42.905  30.191  32.211  1.00  0.00     0.034 A 
BRANCH  25  39
ATOM     39  C   UNL A   1      45.346  31.070  27.468  1.00  0.00     0.023 A 
ATOM     40  C   UNL A   1      46.708  31.239  27.143  1.00  0.00     0.012 A 
ATOM     41  C   UNL A   1      44.502  32.195  27.336  1.00  0.00     0.148 A 
ATOM     42  C   UNL A   1      47.206  32.474  26.716  1.00  0.00     0.002 A 
ATOM     43  C   UNL A   1      44.985  33.399  26.843  1.00  0.00     0.091 A 
ATOM     44  F   UNL A   1      43.255  32.147  27.819  1.00  0.00    -0.205 F 
ATOM     45  C   UNL A   1      46.342  33.551  26.551  1.00  0.00     0.022 A 
BRANCH  43  46
ATOM     46  S   UNL A   1      43.907  34.814  26.593  1.00  0.00     0.127 S 
ATOM     47  O   UNL A   1      44.877  35.896  26.449  1.00  0.00    -0.237 OA
ATOM     48  O   UNL A   1      43.205  34.439  25.366  1.00  0.00    -0.237 OA
ATOM     49  O   UNL A   1      43.058  34.867  27.776  1.00  0.00    -0.744 OA
ENDBRANCH  43  46
ENDBRANCH  25  39
BRANCH  26  50
ATOM     50  C   UNL A   1      37.467  31.928  30.842  1.00  0.00     0.023 A 
ATOM     51  C   UNL A   1      36.611  31.754  29.732  1.00  0.00     0.012 A 
ATOM     52  C   UNL A   1      36.982  32.678  31.935  1.00  0.00     0.148 A 
ATOM     53  C   UNL A   1      35.294  32.232  29.745  1.00  0.00     0.002 A 
ATOM     54  C   UNL A   1      35.674  33.160  31.939  1.00  0.00     0.091 A 
ATOM     55  F   UNL A   1      37.762  32.836  33.012  1.00  0.00    -0.205 F 
ATOM     56  C   UNL A   1      34.820  32.919  30.856  1.00  0.00     0.022 A 
BRANCH  54  57
ATOM     57  S   UNL A   1      34.995  34.055  33.342  1.00  0.00     0.127 S 
ATOM     58  O   UNL A   1      33.587  34.195  32.964  1.00  0.00    -0.237 OA
ATOM     59  O   UNL A   1      35.246  33.125  34.439  1.00  0.00    -0.237 OA
ATOM     60  O   UNL A   1      35.726  35.316  33.386  1.00  0.00    -0.744 OA
ENDBRANCH  54  57
ENDBRANCH  26  50
BRANCH  38  61
ATOM     61  C   UNL A   1      42.545  29.319  33.388  1.00  0.00     0.023 A 
ATOM     62  C   UNL A   1      41.695  28.199  33.273  1.00  0.00     0.012 A 
ATOM     63  C   UNL A   1      43.267  29.508  34.576  1.00  0.00     0.148 A 
ATOM     64  C   UNL A   1      41.579  27.280  34.320  1.00  0.00     0.002 A 
ATOM     65  C   UNL A   1      43.179  28.575  35.599  1.00  0.00     0.091 A 
ATOM     66  F   UNL A   1      44.076  30.575  34.656  1.00  0.00    -0.205 F 
ATOM     67  C   UNL A   1      42.335  27.459  35.477  1.00  0.00     0.022 A 
BRANCH  65  68
ATOM     68  S   UNL A   1      44.207  28.684  37.064  1.00  0.00     0.127 S 
ATOM     69  O   UNL A   1      43.791  29.965  37.633  1.00  0.00    -0.237 OA
ATOM     70  O   UNL A   1      43.783  27.509  37.828  1.00  0.00    -0.237 OA
ATOM     71  O   UNL A   1      45.587  28.632  36.598  1.00  0.00    -0.744 OA
ENDBRANCH  65  68
ENDBRANCH  38  61
ENDBRANCH  12  13
ENDBRANCH   5   7
ENDBRANCH   2   3
ENDBRANCH   1   2
BRANCH   1  72
ATOM     72  C   UNL A   1      35.800  21.786  24.768  1.00  0.00     0.023 C 
BRANCH  72  73
ATOM     73  C   UNL A   1      35.021  21.374  26.024  1.00  0.00     0.116 C 
BRANCH  73  74
ATOM     74  N   UNL A   1      34.292  20.130  25.855  1.00  0.00    -0.352 N 
ATOM     75  C   UNL A   1      33.022  19.940  25.366  1.00  0.00     0.252 C 
ATOM     76  H   UNL A   1      34.772  19.314  26.126  1.00  0.00     0.163 HD
ATOM     77  O   UNL A   1      32.412  18.903  25.599  1.00  0.00    -0.269 OA
BRANCH  75  78
ATOM     78  C   UNL A   1      32.346  21.046  24.681  1.00  0.00     0.058 A 
ATOM     79  C   UNL A   1      32.427  21.274  23.307  1.00  0.00     0.017 A 
ATOM     80  C   UNL A   1      31.656  21.948  25.462  1.00  0.00     0.125 A 
ATOM     81  C   UNL A   1      31.863  22.438  22.779  1.00  0.00     0.026 A 
ATOM     82  N   UNL A   1      31.157  23.108  24.982  1.00  0.00    -0.259 NA
ATOM     83  C   UNL A   1      31.244  23.338  23.646  1.00  0.00     0.060 A 
BRANCH  83  84
ATOM     84  C   UNL A   1      30.664  24.641  23.153  1.00  0.00     0.178 C 
BRANCH  84  85
ATOM     85  N   UNL A   1      31.684  25.662  22.925  1.00  0.00    -0.341 N 
ATOM     86  C   UNL A   1      32.393  25.790  21.754  1.00  0.00     0.087 A 
ATOM     87  C   UNL A   1      32.124  26.601  23.844  1.00  0.00     0.049 A 
ATOM     88  C   UNL A   1      33.247  26.861  21.888  1.00  0.00     0.028 A 
ATOM     89  C   UNL A   1      33.069  27.398  23.192  1.00  0.00    -0.000 A 
ATOM     90  C   UNL A   1      31.751  26.849  25.177  1.00  0.00     0.042 A 
ATOM     91  C   UNL A   1      33.627  28.497  23.876  1.00  0.00     0.011 A 
ATOM     92  C   UNL A   1      32.291  27.964  25.819  1.00  0.00     0.020 A 
ATOM     93  C   UNL A   1      33.216  28.783  25.183  1.00  0.00     0.016 A 
ATOM     94  Br  UNL A   1      31.730  28.377  27.580  1.00  0.00    -0.051 Br
ENDBRANCH  84  85
ENDBRANCH  83  84
ENDBRANCH  75  78
ENDBRANCH  73  74
ENDBRANCH  72  73
ENDBRANCH   1  72
TORSDOF 16
ENDMDL
MODEL 3
REMARK VINA RESULT:     -12.4      3.279      7.314
REMARK SMILES O=C(NCCCCNC(=O)c1ccc(Cn2ccc3ccc(Br)cc32)nc1)c1ccc(-c2c3nc(c(-c4cccc(S(=O)(=O)[O-])c4F)c4ccc([nH]4)c(-c4cccc(S(=O)(=O)[O-])c4F)c4nc(c(-c5cccc(S(=O)(=O)[O-])c5F)c5ccc2[nH]5)C=C4)C=C3)cc1
REMARK SMILES IDX 5 1 4 2 3 3 1 4 2 5 28 7 29 8 90 9 30 10 89 11 31 12 32 13
REMARK SMILES IDX 33 14 83 15 34 16 88 17 82 18 84 19 35 20 87 21 81 22 80 23
REMARK SMILES IDX 36 25 68 26 48 27 67 28 49 29 52 30 66 31 85 32 50 33 51 34
REMARK SMILES IDX 65 36 86 37 53 38 37 39 38 40 46 41 39 42 41 43 47 44 40 45
REMARK SMILES IDX 42 46 43 47 44 48 45 49 69 50 70 51 78 52 71 53 73 54 79 55
REMARK SMILES IDX 72 56 74 57 75 58 76 59 77 60 54 61 55 62 63 63 56 64 58 65
REMARK SMILES IDX 64 66 57 67 59 68 60 69 61 70 62 71 6 72 7 73 8 74 9 75
REMARK SMILES IDX 10 77 11 78 12 79 27 80 13 81 26 82 14 83 15 84 16 85 17 86
REMARK SMILES IDX 25 87 18 88 19 89 24 90 20 91 22 92 21 93 23 94
REMARK H PARENT 3 6 84 24 52 35 8 76
REMARK Flexibility Score: inf
ROOT
ATOM      1  C   UNL A   1      32.934  30.806  27.282  1.00  0.00     0.023 C 
ENDROOT
BRANCH   1   2
ATOM      2  C   UNL A   1      34.209  31.537  27.667  1.00  0.00     0.116 C 
BRANCH   2   3
ATOM      3  N   UNL A   1      34.203  32.094  29.032  1.00  0.00    -0.352 N 
ATOM      4  O   UNL A   1      34.841  32.012  31.233  1.00  0.00    -0.269 OA
ATOM      5  C   UNL A   1      35.111  31.819  30.049  1.00  0.00     0.251 C 
ATOM      6  H   UNL A   1      33.479  32.725  29.246  1.00  0.00     0.163 HD
BRANCH   5   7
ATOM      7  C   UNL A   1      36.440  31.335  29.648  1.00  0.00     0.039 A 
ATOM      8  C   UNL A   1      37.569  32.144  29.493  1.00  0.00     0.014 A 
ATOM      9  C   UNL A   1      36.538  29.956  29.592  1.00  0.00     0.014 A 
ATOM     10  C   UNL A   1      38.812  31.519  29.377  1.00  0.00     0.010 A 
ATOM     11  C   UNL A   1      37.752  29.393  29.823  1.00  0.00     0.010 A 
ATOM     12  C   UNL A   1      38.893  30.131  29.572  1.00  0.00    -0.014 A 
BRANCH  12  13
ATOM     13  C   UNL A   1      40.145  29.388  29.612  1.00  0.00     0.031 A 
ATOM     14  C   UNL A   1      40.667  29.152  30.980  1.00  0.00     0.074 A 
ATOM     15  C   UNL A   1      40.665  28.798  28.507  1.00  0.00     0.049 A 
ATOM     16  N   UNL A   1      41.677  29.743  31.526  1.00  0.00    -0.248 NA
ATOM     17  C   UNL A   1      39.892  28.314  31.909  1.00  0.00     0.031 C 
ATOM     18  C   UNL A   1      40.101  28.722  27.145  1.00  0.00     0.029 A 
ATOM     19  N   UNL A   1      41.761  28.004  28.394  1.00  0.00    -0.354 N 
ATOM     20  C   UNL A   1      41.829  29.139  32.768  1.00  0.00     0.074 A 
ATOM     21  C   UNL A   1      40.594  28.450  33.039  1.00  0.00     0.031 C 
ATOM     22  C   UNL A   1      40.693  27.726  26.455  1.00  0.00     0.029 A 
ATOM     23  C   UNL A   1      41.807  27.231  27.233  1.00  0.00     0.049 A 
ATOM     24  H   UNL A   1      42.468  27.976  29.079  1.00  0.00     0.167 HD
ATOM     25  C   UNL A   1      43.058  29.018  33.339  1.00  0.00     0.034 A 
ATOM     26  C   UNL A   1      42.694  26.243  26.954  1.00  0.00     0.034 A 
ATOM     27  C   UNL A   1      44.044  29.810  32.650  1.00  0.00     0.049 A 
ATOM     28  C   UNL A   1      43.876  26.515  27.804  1.00  0.00     0.074 A 
ATOM     29  C   UNL A   1      44.177  31.151  32.356  1.00  0.00     0.029 A 
ATOM     30  N   UNL A   1      44.852  29.140  31.760  1.00  0.00    -0.354 N 
ATOM     31  N   UNL A   1      44.623  27.575  27.671  1.00  0.00    -0.248 NA
ATOM     32  C   UNL A   1      43.946  25.850  29.094  1.00  0.00     0.031 C 
ATOM     33  C   UNL A   1      44.664  31.183  31.017  1.00  0.00     0.029 A 
ATOM     34  C   UNL A   1      44.889  29.869  30.601  1.00  0.00     0.049 A 
ATOM     35  H   UNL A   1      45.320  28.289  31.927  1.00  0.00     0.167 HD
ATOM     36  C   UNL A   1      44.877  27.975  28.975  1.00  0.00     0.074 A 
ATOM     37  C   UNL A   1      44.529  26.820  29.803  1.00  0.00     0.031 C 
ATOM     38  C   UNL A   1      45.047  29.292  29.285  1.00  0.00     0.034 A 
BRANCH  25  39
ATOM     39  C   UNL A   1      43.461  27.902  34.262  1.00  0.00     0.023 A 
ATOM     40  C   UNL A   1      43.981  28.247  35.527  1.00  0.00     0.012 A 
ATOM     41  C   UNL A   1      43.601  26.559  33.846  1.00  0.00     0.148 A 
ATOM     42  C   UNL A   1      44.620  27.300  36.334  1.00  0.00     0.002 A 
ATOM     43  C   UNL A   1      44.169  25.607  34.680  1.00  0.00     0.091 A 
ATOM     44  F   UNL A   1      43.310  26.224  32.584  1.00  0.00    -0.205 F 
ATOM     45  C   UNL A   1      44.700  25.975  35.918  1.00  0.00     0.022 A 
BRANCH  43  46
ATOM     46  S   UNL A   1      44.281  23.880  34.198  1.00  0.00     0.127 S 
ATOM     47  O   UNL A   1      44.859  23.988  32.862  1.00  0.00    -0.237 OA
ATOM     48  O   UNL A   1      45.177  23.343  35.223  1.00  0.00    -0.237 OA
ATOM     49  O   UNL A   1      42.918  23.369  34.268  1.00  0.00    -0.744 OA
ENDBRANCH  43  46
ENDBRANCH  25  39
BRANCH  26  50
ATOM     50  C   UNL A   1      42.536  24.960  26.220  1.00  0.00     0.023 A 
ATOM     51  C   UNL A   1      43.552  24.560  25.323  1.00  0.00     0.012 A 
ATOM     52  C   UNL A   1      41.591  23.989  26.616  1.00  0.00     0.148 A 
ATOM     53  C   UNL A   1      43.674  23.229  24.905  1.00  0.00     0.002 A 
ATOM     54  C   UNL A   1      41.712  22.667  26.189  1.00  0.00     0.091 A 
ATOM     55  F   UNL A   1      40.634  24.332  27.486  1.00  0.00    -0.205 F 
ATOM     56  C   UNL A   1      42.766  22.279  25.353  1.00  0.00     0.022 A 
BRANCH  54  57
ATOM     57  S   UNL A   1      40.572  21.386  26.731  1.00  0.00     0.127 S 
ATOM     58  O   UNL A   1      40.750  21.413  28.184  1.00  0.00    -0.237 OA
ATOM     59  O   UNL A   1      39.292  21.907  26.260  1.00  0.00    -0.237 OA
ATOM     60  O   UNL A   1      41.041  20.160  26.098  1.00  0.00    -0.744 OA
ENDBRANCH  54  57
ENDBRANCH  26  50
BRANCH  38  61
ATOM     61  C   UNL A   1      45.189  30.279  28.153  1.00  0.00     0.023 A 
ATOM     62  C   UNL A   1      44.077  30.846  27.494  1.00  0.00     0.012 A 
ATOM     63  C   UNL A   1      46.465  30.810  27.916  1.00  0.00     0.148 A 
ATOM     64  C   UNL A   1      44.238  31.930  26.626  1.00  0.00     0.002 A 
ATOM     65  C   UNL A   1      46.618  31.910  27.083  1.00  0.00     0.091 A 
ATOM     66  F   UNL A   1      47.504  30.260  28.563  1.00  0.00    -0.205 F 
ATOM     67  C   UNL A   1      45.506  32.473  26.434  1.00  0.00     0.022 A 
BRANCH  65  68
ATOM     68  S   UNL A   1      48.201  32.726  26.881  1.00  0.00     0.127 S 
ATOM     69  O   UNL A   1      47.896  33.736  25.869  1.00  0.00    -0.237 OA
ATOM     70  O   UNL A   1      48.448  33.258  28.222  1.00  0.00    -0.237 OA
ATOM     71  O   UNL A   1      49.141  31.694  26.463  1.00  0.00    -0.744 OA
ENDBRANCH  65  68
ENDBRANCH  38  61
ENDBRANCH  12  13
ENDBRANCH   5   7
ENDBRANCH   2   3
ENDBRANCH   1   2
BRANCH   1  72
ATOM     72  C   UNL A   1      32.960  30.144  25.897  1.00  0.00     0.023 C 
BRANCH  72  73
ATOM     73  C   UNL A   1      31.701  29.376  25.471  1.00  0.00     0.116 C 
BRANCH  73  74
ATOM     74  N   UNL A   1      31.103  29.902  24.258  1.00  0.00    -0.352 N 
ATOM     75  C   UNL A   1      30.688  29.218  23.140  1.00  0.00     0.252 C 
ATOM     76  H   UNL A   1      30.978  30.878  24.232  1.00  0.00     0.163 HD
ATOM     77  O   UNL A   1      30.530  29.801  22.075  1.00  0.00    -0.269 OA
BRANCH  75  78
ATOM     78  C   UNL A   1      30.571  27.757  23.197  1.00  0.00     0.058 A 
ATOM     79  C   UNL A   1      29.504  27.086  23.794  1.00  0.00     0.017 A 
ATOM     80  C   UNL A   1      31.620  27.018  22.696  1.00  0.00     0.125 A 
ATOM     81  C   UNL A   1      29.563  25.697  23.921  1.00  0.00     0.026 A 
ATOM     82  N   UNL A   1      31.726  25.681  22.862  1.00  0.00    -0.259 NA
ATOM     83  C   UNL A   1      30.692  25.026  23.452  1.00  0.00     0.060 A 
BRANCH  83  84
ATOM     84  C   UNL A   1      30.848  23.534  23.607  1.00  0.00     0.178 C 
BRANCH  84  85
ATOM     85  N   UNL A   1      31.478  23.160  24.871  1.00  0.00    -0.341 N 
ATOM     86  C   UNL A   1      30.791  22.994  26.050  1.00  0.00     0.087 A 
ATOM     87  C   UNL A   1      32.833  22.972  25.089  1.00  0.00     0.049 A 
ATOM     88  C   UNL A   1      31.694  22.628  27.022  1.00  0.00     0.028 A 
ATOM     89  C   UNL A   1      32.982  22.585  26.424  1.00  0.00    -0.000 A 
ATOM     90  C   UNL A   1      33.940  23.069  24.226  1.00  0.00     0.042 A 
ATOM     91  C   UNL A   1      34.266  22.246  26.899  1.00  0.00     0.011 A 
ATOM     92  C   UNL A   1      35.193  22.693  24.711  1.00  0.00     0.020 A 
ATOM     93  C   UNL A   1      35.362  22.285  26.029  1.00  0.00     0.016 A 
ATOM     94  Br  UNL A   1      36.682  22.721  23.542  1.00  0.00    -0.051 Br
ENDBRANCH  84  85
ENDBRANCH  83  84
ENDBRANCH  75  78
ENDBRANCH  73  74
ENDBRANCH  72  73
ENDBRANCH   1  72
TORSDOF 16
ENDMDL
