MODEL 1
REMARK VINA RESULT:     -12.8      0.000      0.000
REMARK SMILES CC(C)c1ccc(-c2cnc([C@@H]3[NH2+][C@H](C(=O)NCCCCNC(=O)c4ccc(-c5c6nc(c(-c7cccc(S(=O)(=O)[O-])c7F)c7ccc([nH]7)c(-c7cccc(S(=O)(=O)[O-])c7F)c7nc(c(-c8cccc(S(=O)(=O)[O-])c8F)c8ccc5[nH]8)C=C7)C=C6)cc4)C(C)(C)S3)s2)cc1
REMARK SMILES IDX 19 1 18 2 17 3 15 4 16 5 14 7 12 8 13 9 91 10 88 13 89 14
REMARK SMILES IDX 90 15 11 16 8 17 9 18 92 19 10 20 7 21 4 22 5 23 94 24 6 25
REMARK SMILES IDX 93 26 2 27 1 28 3 29 20 30 21 31 22 32 23 33 24 35 25 36
REMARK SMILES IDX 26 37 87 38 27 39 86 40 28 41 29 42 30 43 80 44 31 45 85 46
REMARK SMILES IDX 79 47 81 48 32 49 84 50 78 51 77 52 33 54 65 55 45 56 64 57
REMARK SMILES IDX 46 58 49 59 63 60 82 61 47 62 48 63 62 65 83 66 50 67 34 68
REMARK SMILES IDX 35 69 43 70 36 71 38 72 44 73 37 74 39 75 40 76 41 77 42 78
REMARK SMILES IDX 66 79 67 80 75 81 68 82 70 83 76 84 69 85 71 86 72 87 73 88
REMARK SMILES IDX 74 89 51 90 52 91 60 92 53 93 55 94 61 95 54 96 56 97 57 98
REMARK SMILES IDX 58 99 59 100
REMARK H PARENT 17 6 13 11 13 12 22 34 81 53 49 64
REMARK Flexibility Score: inf
ROOT
ATOM      1  C   UNL A   1      31.523  30.555  26.546  1.00  0.00     0.023 C 
ENDROOT
BRANCH   1   2
ATOM      2  C   UNL A   1      32.902  29.899  26.664  1.00  0.00     0.116 C 
BRANCH   2   3
ATOM      3  N   UNL A   1      32.830  28.488  26.355  1.00  0.00    -0.351 N 
ATOM      4  C   UNL A   1      32.142  27.872  25.350  1.00  0.00     0.279 C 
ATOM      5  O   UNL A   1      31.633  26.798  25.651  1.00  0.00    -0.268 OA
ATOM      6  H   UNL A   1      33.345  27.894  26.949  1.00  0.00     0.163 HD
BRANCH   4   7
ATOM      7  C   UNL A   1      32.107  28.506  23.939  1.00  0.00     0.289 C 
ATOM      8  C   UNL A   1      33.073  26.921  22.373  1.00  0.00     0.304 C 
ATOM      9  N   UNL A   1      33.340  28.144  23.163  1.00  0.00    -0.318 N 
ATOM     10  S   UNL A   1      31.308  26.898  21.937  1.00  0.00    -0.079 SA
ATOM     11  H   UNL A   1      33.584  28.910  22.535  1.00  0.00     0.348 HD
ATOM     12  H   UNL A   1      34.114  27.978  23.805  1.00  0.00     0.348 HD
ATOM     13  C   UNL A   1      30.854  28.249  23.072  1.00  0.00     0.078 C 
ATOM     14  C   UNL A   1      30.561  29.472  22.182  1.00  0.00     0.030 C 
ATOM     15  C   UNL A   1      29.588  27.884  23.846  1.00  0.00     0.030 C 
BRANCH   8  16
ATOM     16  C   UNL A   1      33.530  25.624  23.008  1.00  0.00     0.162 A 
ATOM     17  C   UNL A   1      33.833  23.288  23.671  1.00  0.00     0.055 A 
ATOM     18  C   UNL A   1      34.647  24.218  24.289  1.00  0.00     0.132 A 
ATOM     19  S   UNL A   1      32.852  24.108  22.519  1.00  0.00    -0.112 S 
ATOM     20  N   UNL A   1      34.389  25.532  24.000  1.00  0.00    -0.242 NA
BRANCH  17  21
ATOM     21  C   UNL A   1      33.743  21.849  23.947  1.00  0.00    -0.007 A 
ATOM     22  C   UNL A   1      33.729  19.059  24.516  1.00  0.00    -0.045 A 
ATOM     23  C   UNL A   1      32.652  19.676  23.855  1.00  0.00     0.004 A 
ATOM     24  C   UNL A   1      34.808  19.862  24.892  1.00  0.00     0.004 A 
ATOM     25  C   UNL A   1      32.656  21.053  23.577  1.00  0.00     0.010 A 
ATOM     26  C   UNL A   1      34.813  21.229  24.610  1.00  0.00     0.010 A 
BRANCH  22  27
ATOM     27  C   UNL A   1      33.691  17.562  24.789  1.00  0.00     0.013 C 
ATOM     28  C   UNL A   1      32.358  17.038  25.343  1.00  0.00     0.012 C 
ATOM     29  C   UNL A   1      34.056  16.775  23.526  1.00  0.00     0.012 C 
ENDBRANCH  22  27
ENDBRANCH  17  21
ENDBRANCH   8  16
ENDBRANCH   4   7
ENDBRANCH   2   3
ENDBRANCH   1   2
BRANCH   1  30
ATOM     30  C   UNL A   1      31.513  32.089  26.590  1.00  0.00     0.023 C 
BRANCH  30  31
ATOM     31  C   UNL A   1      32.722  32.740  27.254  1.00  0.00     0.116 C 
BRANCH  31  32
ATOM     32  N   UNL A   1      32.476  34.122  27.633  1.00  0.00    -0.352 N 
ATOM     33  C   UNL A   1      33.081  34.879  28.603  1.00  0.00     0.251 C 
ATOM     34  H   UNL A   1      31.773  34.580  27.119  1.00  0.00     0.163 HD
ATOM     35  O   UNL A   1      32.637  36.001  28.857  1.00  0.00    -0.269 OA
BRANCH  33  36
ATOM     36  C   UNL A   1      34.236  34.352  29.362  1.00  0.00     0.039 A 
ATOM     37  C   UNL A   1      33.993  33.569  30.495  1.00  0.00     0.014 A 
ATOM     38  C   UNL A   1      35.550  34.631  28.976  1.00  0.00     0.014 A 
ATOM     39  C   UNL A   1      35.063  33.021  31.207  1.00  0.00     0.010 A 
ATOM     40  C   UNL A   1      36.614  34.033  29.650  1.00  0.00     0.010 A 
ATOM     41  C   UNL A   1      36.383  33.225  30.773  1.00  0.00    -0.014 A 
BRANCH  41  42
ATOM     42  C   UNL A   1      37.531  32.594  31.473  1.00  0.00     0.031 A 
ATOM     43  C   UNL A   1      38.257  31.433  30.847  1.00  0.00     0.074 A 
ATOM     44  C   UNL A   1      37.868  33.011  32.710  1.00  0.00     0.049 A 
ATOM     45  N   UNL A   1      39.235  30.715  31.331  1.00  0.00    -0.248 NA
ATOM     46  C   UNL A   1      37.808  31.010  29.510  1.00  0.00     0.031 C 
ATOM     47  C   UNL A   1      37.196  34.076  33.457  1.00  0.00     0.029 A 
ATOM     48  N   UNL A   1      38.843  32.568  33.570  1.00  0.00    -0.354 N 
ATOM     49  C   UNL A   1      39.497  29.735  30.381  1.00  0.00     0.074 A 
ATOM     50  C   UNL A   1      38.554  29.934  29.302  1.00  0.00     0.031 C 
ATOM     51  C   UNL A   1      37.778  34.205  34.660  1.00  0.00     0.029 A 
ATOM     52  C   UNL A   1      38.847  33.220  34.782  1.00  0.00     0.049 A 
ATOM     53  H   UNL A   1      39.478  31.852  33.341  1.00  0.00     0.167 HD
ATOM     54  C   UNL A   1      40.455  28.777  30.389  1.00  0.00     0.034 A 
ATOM     55  C   UNL A   1      39.624  33.041  35.869  1.00  0.00     0.034 A 
ATOM     56  C   UNL A   1      41.427  28.616  31.437  1.00  0.00     0.049 A 
ATOM     57  C   UNL A   1      40.712  32.002  35.829  1.00  0.00     0.074 A 
ATOM     58  C   UNL A   1      42.487  27.728  31.498  1.00  0.00     0.029 A 
ATOM     59  N   UNL A   1      41.461  29.360  32.605  1.00  0.00    -0.354 N 
ATOM     60  N   UNL A   1      41.042  31.190  34.854  1.00  0.00    -0.248 NA
ATOM     61  C   UNL A   1      41.558  31.879  37.025  1.00  0.00     0.031 C 
ATOM     62  C   UNL A   1      43.160  27.933  32.706  1.00  0.00     0.029 A 
ATOM     63  C   UNL A   1      42.524  28.954  33.394  1.00  0.00     0.049 A 
ATOM     64  H   UNL A   1      40.824  30.073  32.840  1.00  0.00     0.167 HD
ATOM     65  C   UNL A   1      42.153  30.486  35.305  1.00  0.00     0.074 A 
ATOM     66  C   UNL A   1      42.453  30.984  36.632  1.00  0.00     0.031 C 
ATOM     67  C   UNL A   1      42.851  29.504  34.684  1.00  0.00     0.034 A 
BRANCH  54  68
ATOM     68  C   UNL A   1      40.547  27.874  29.188  1.00  0.00     0.023 A 
ATOM     69  C   UNL A   1      39.689  26.758  29.101  1.00  0.00     0.012 A 
ATOM     70  C   UNL A   1      41.428  28.154  28.126  1.00  0.00     0.148 A 
ATOM     71  C   UNL A   1      39.725  25.920  27.989  1.00  0.00     0.002 A 
ATOM     72  C   UNL A   1      41.431  27.335  27.002  1.00  0.00     0.091 A 
ATOM     73  F   UNL A   1      42.252  29.206  28.236  1.00  0.00    -0.205 F 
ATOM     74  C   UNL A   1      40.587  26.212  26.935  1.00  0.00     0.022 A 
BRANCH  72  75
ATOM     75  S   UNL A   1      42.454  27.667  25.562  1.00  0.00     0.127 S 
ATOM     76  O   UNL A   1      41.877  28.916  25.072  1.00  0.00    -0.237 OA
ATOM     77  O   UNL A   1      43.786  27.799  26.150  1.00  0.00    -0.237 OA
ATOM     78  O   UNL A   1      42.291  26.513  24.685  1.00  0.00    -0.744 OA
ENDBRANCH  72  75
ENDBRANCH  54  68
BRANCH  55  79
ATOM     79  C   UNL A   1      39.459  33.927  37.056  1.00  0.00     0.023 A 
ATOM     80  C   UNL A   1      39.888  35.266  36.977  1.00  0.00     0.012 A 
ATOM     81  C   UNL A   1      38.862  33.466  38.245  1.00  0.00     0.148 A 
ATOM     82  C   UNL A   1      39.755  36.123  38.069  1.00  0.00     0.002 A 
ATOM     83  C   UNL A   1      38.686  34.340  39.313  1.00  0.00     0.091 A 
ATOM     84  F   UNL A   1      38.476  32.184  38.310  1.00  0.00    -0.205 F 
ATOM     85  C   UNL A   1      39.145  35.663  39.234  1.00  0.00     0.022 A 
BRANCH  83  86
ATOM     86  S   UNL A   1      37.797  33.863  40.800  1.00  0.00     0.127 S 
ATOM     87  O   UNL A   1      37.601  35.150  41.458  1.00  0.00    -0.237 OA
ATOM     88  O   UNL A   1      36.582  33.258  40.253  1.00  0.00    -0.237 OA
ATOM     89  O   UNL A   1      38.674  32.919  41.485  1.00  0.00    -0.744 OA
ENDBRANCH  83  86
ENDBRANCH  55  79
BRANCH  67  90
ATOM     90  C   UNL A   1      44.031  28.917  35.412  1.00  0.00     0.023 A 
ATOM     91  C   UNL A   1      45.308  29.485  35.236  1.00  0.00     0.012 A 
ATOM     92  C   UNL A   1      43.862  27.859  36.326  1.00  0.00     0.148 A 
ATOM     93  C   UNL A   1      46.405  28.991  35.940  1.00  0.00     0.002 A 
ATOM     94  C   UNL A   1      44.953  27.401  37.057  1.00  0.00     0.091 A 
ATOM     95  F   UNL A   1      42.643  27.319  36.463  1.00  0.00    -0.205 F 
ATOM     96  C   UNL A   1      46.226  27.958  36.858  1.00  0.00     0.022 A 
BRANCH  94  97
ATOM     97  S   UNL A   1      44.792  26.137  38.324  1.00  0.00     0.127 S 
ATOM     98  O   UNL A   1      46.189  25.793  38.582  1.00  0.00    -0.237 OA
ATOM     99  O   UNL A   1      44.133  26.864  39.411  1.00  0.00    -0.237 OA
ATOM    100  O   UNL A   1      43.982  25.082  37.731  1.00  0.00    -0.744 OA
ENDBRANCH  94  97
ENDBRANCH  67  90
ENDBRANCH  41  42
ENDBRANCH  33  36
ENDBRANCH  31  32
ENDBRANCH  30  31
ENDBRANCH   1  30
TORSDOF 17
ENDMDL
MODEL 2
REMARK VINA RESULT:     -12.4      6.218     10.274
REMARK SMILES CC(C)c1ccc(-c2cnc([C@@H]3[NH2+][C@H](C(=O)NCCCCNC(=O)c4ccc(-c5c6nc(c(-c7cccc(S(=O)(=O)[O-])c7F)c7ccc([nH]7)c(-c7cccc(S(=O)(=O)[O-])c7F)c7nc(c(-c8cccc(S(=O)(=O)[O-])c8F)c8ccc5[nH]8)C=C7)C=C6)cc4)C(C)(C)S3)s2)cc1
REMARK SMILES IDX 19 1 18 2 17 3 15 4 16 5 14 7 12 8 13 9 91 10 88 13 89 14
REMARK SMILES IDX 90 15 11 16 8 17 9 18 92 19 10 20 7 21 4 22 5 23 94 24 6 25
REMARK SMILES IDX 93 26 2 27 1 28 3 29 20 30 21 31 22 32 23 33 24 35 25 36
REMARK SMILES IDX 26 37 87 38 27 39 86 40 28 41 29 42 30 43 80 44 31 45 85 46
REMARK SMILES IDX 79 47 81 48 32 49 84 50 78 51 77 52 33 54 65 55 45 56 64 57
REMARK SMILES IDX 46 58 49 59 63 60 82 61 47 62 48 63 62 65 83 66 50 67 34 68
REMARK SMILES IDX 35 69 43 70 36 71 38 72 44 73 37 74 39 75 40 76 41 77 42 78
REMARK SMILES IDX 66 79 67 80 75 81 68 82 70 83 76 84 69 85 71 86 72 87 73 88
REMARK SMILES IDX 74 89 51 90 52 91 60 92 53 93 55 94 61 95 54 96 56 97 57 98
REMARK SMILES IDX 58 99 59 100
REMARK H PARENT 17 6 13 11 13 12 22 34 81 53 49 64
REMARK Flexibility Score: inf
ROOT
ATOM      1  C   UNL A   1      37.409  21.049  24.245  1.00  0.00     0.023 C 
ENDROOT
BRANCH   1   2
ATOM      2  C   UNL A   1      37.201  22.367  24.998  1.00  0.00     0.116 C 
BRANCH   2   3
ATOM      3  N   UNL A   1      36.039  23.067  24.498  1.00  0.00    -0.351 N 
ATOM      4  C   UNL A   1      34.769  22.597  24.333  1.00  0.00     0.279 C 
ATOM      5  O   UNL A   1      34.189  23.006  23.332  1.00  0.00    -0.268 OA
ATOM      6  H   UNL A   1      36.184  24.008  24.243  1.00  0.00     0.163 HD
BRANCH   4   7
ATOM      7  C   UNL A   1      34.143  21.674  25.405  1.00  0.00     0.289 C 
ATOM      8  C   UNL A   1      32.504  22.962  26.651  1.00  0.00     0.304 C 
ATOM      9  N   UNL A   1      33.886  22.431  26.675  1.00  0.00    -0.318 N 
ATOM     10  S   UNL A   1      31.472  21.820  25.684  1.00  0.00    -0.079 SA
ATOM     11  H   UNL A   1      33.998  21.806  27.474  1.00  0.00     0.348 HD
ATOM     12  H   UNL A   1      34.549  23.201  26.756  1.00  0.00     0.348 HD
ATOM     13  C   UNL A   1      32.879  20.877  25.012  1.00  0.00     0.078 C 
ATOM     14  C   UNL A   1      32.860  19.515  25.731  1.00  0.00     0.030 C 
ATOM     15  C   UNL A   1      32.691  20.648  23.513  1.00  0.00     0.030 C 
BRANCH   8  16
ATOM     16  C   UNL A   1      32.367  24.399  26.191  1.00  0.00     0.162 A 
ATOM     17  C   UNL A   1      31.575  26.537  25.304  1.00  0.00     0.055 A 
ATOM     18  C   UNL A   1      32.882  26.498  25.751  1.00  0.00     0.132 A 
ATOM     19  S   UNL A   1      30.859  24.998  25.588  1.00  0.00    -0.112 S 
ATOM     20  N   UNL A   1      33.352  25.269  26.134  1.00  0.00    -0.242 NA
BRANCH  17  21
ATOM     21  C   UNL A   1      30.884  27.653  24.646  1.00  0.00    -0.007 A 
ATOM     22  C   UNL A   1      29.465  29.705  23.274  1.00  0.00    -0.045 A 
ATOM     23  C   UNL A   1      30.589  29.997  24.068  1.00  0.00     0.004 A 
ATOM     24  C   UNL A   1      29.061  28.372  23.185  1.00  0.00     0.004 A 
ATOM     25  C   UNL A   1      31.288  28.986  24.748  1.00  0.00     0.010 A 
ATOM     26  C   UNL A   1      29.759  27.367  23.857  1.00  0.00     0.010 A 
BRANCH  22  27
ATOM     27  C   UNL A   1      28.742  30.829  22.545  1.00  0.00     0.013 C 
ATOM     28  C   UNL A   1      28.029  30.408  21.251  1.00  0.00     0.012 C 
ATOM     29  C   UNL A   1      27.734  31.512  23.475  1.00  0.00     0.012 C 
ENDBRANCH  22  27
ENDBRANCH  17  21
ENDBRANCH   8  16
ENDBRANCH   4   7
ENDBRANCH   2   3
ENDBRANCH   1   2
BRANCH   1  30
ATOM     30  C   UNL A   1      38.136  19.947  25.028  1.00  0.00     0.023 C 
BRANCH  30  31
ATOM     31  C   UNL A   1      39.158  20.426  26.052  1.00  0.00     0.116 C 
BRANCH  31  32
ATOM     32  N   UNL A   1      40.321  19.556  26.132  1.00  0.00    -0.352 N 
ATOM     33  C   UNL A   1      41.635  19.879  26.351  1.00  0.00     0.251 C 
ATOM     34  H   UNL A   1      40.137  18.597  26.012  1.00  0.00     0.163 HD
ATOM     35  O   UNL A   1      42.496  19.001  26.255  1.00  0.00    -0.269 OA
BRANCH  33  36
ATOM     36  C   UNL A   1      42.029  21.268  26.672  1.00  0.00     0.039 A 
ATOM     37  C   UNL A   1      42.227  22.169  25.621  1.00  0.00     0.014 A 
ATOM     38  C   UNL A   1      42.217  21.686  27.993  1.00  0.00     0.014 A 
ATOM     39  C   UNL A   1      42.556  23.499  25.894  1.00  0.00     0.010 A 
ATOM     40  C   UNL A   1      42.485  23.026  28.266  1.00  0.00     0.010 A 
ATOM     41  C   UNL A   1      42.660  23.946  27.221  1.00  0.00    -0.014 A 
BRANCH  41  42
ATOM     42  C   UNL A   1      42.940  25.370  27.536  1.00  0.00     0.031 A 
ATOM     43  C   UNL A   1      44.334  25.920  27.392  1.00  0.00     0.074 A 
ATOM     44  C   UNL A   1      41.957  26.148  28.032  1.00  0.00     0.049 A 
ATOM     45  N   UNL A   1      44.783  27.114  27.680  1.00  0.00    -0.248 NA
ATOM     46  C   UNL A   1      45.363  25.000  26.881  1.00  0.00     0.031 C 
ATOM     47  C   UNL A   1      40.582  25.714  28.288  1.00  0.00     0.029 A 
ATOM     48  N   UNL A   1      41.971  27.460  28.436  1.00  0.00    -0.354 N 
ATOM     49  C   UNL A   1      46.148  27.081  27.420  1.00  0.00     0.074 A 
ATOM     50  C   UNL A   1      46.460  25.739  26.978  1.00  0.00     0.031 C 
ATOM     51  C   UNL A   1      39.885  26.740  28.804  1.00  0.00     0.029 A 
ATOM     52  C   UNL A   1      40.766  27.896  28.938  1.00  0.00     0.049 A 
ATOM     53  H   UNL A   1      42.768  28.035  28.373  1.00  0.00     0.167 HD
ATOM     54  C   UNL A   1      47.054  28.083  27.509  1.00  0.00     0.034 A 
ATOM     55  C   UNL A   1      40.412  29.091  29.450  1.00  0.00     0.034 A 
ATOM     56  C   UNL A   1      46.733  29.431  27.896  1.00  0.00     0.049 A 
ATOM     57  C   UNL A   1      41.429  30.201  29.491  1.00  0.00     0.074 A 
ATOM     58  C   UNL A   1      47.565  30.536  27.938  1.00  0.00     0.029 A 
ATOM     59  N   UNL A   1      45.479  29.859  28.303  1.00  0.00    -0.354 N 
ATOM     60  N   UNL A   1      42.677  30.191  29.092  1.00  0.00    -0.248 NA
ATOM     61  C   UNL A   1      40.977  31.497  30.018  1.00  0.00     0.031 C 
ATOM     62  C   UNL A   1      46.815  31.632  28.375  1.00  0.00     0.029 A 
ATOM     63  C   UNL A   1      45.513  31.211  28.597  1.00  0.00     0.049 A 
ATOM     64  H   UNL A   1      44.681  29.286  28.373  1.00  0.00     0.167 HD
ATOM     65  C   UNL A   1      43.149  31.484  29.286  1.00  0.00     0.074 A 
ATOM     66  C   UNL A   1      42.045  32.257  29.819  1.00  0.00     0.031 C 
ATOM     67  C   UNL A   1      44.390  31.983  29.062  1.00  0.00     0.034 A 
BRANCH  54  68
ATOM     68  C   UNL A   1      48.473  27.779  27.108  1.00  0.00     0.023 A 
ATOM     69  C   UNL A   1      49.397  27.386  28.098  1.00  0.00     0.012 A 
ATOM     70  C   UNL A   1      48.878  27.818  25.759  1.00  0.00     0.148 A 
ATOM     71  C   UNL A   1      50.709  27.066  27.757  1.00  0.00     0.002 A 
ATOM     72  C   UNL A   1      50.179  27.459  25.423  1.00  0.00     0.091 A 
ATOM     73  F   UNL A   1      47.992  28.214  24.834  1.00  0.00    -0.205 F 
ATOM     74  C   UNL A   1      51.098  27.092  26.421  1.00  0.00     0.022 A 
BRANCH  72  75
ATOM     75  S   UNL A   1      50.757  27.392  23.723  1.00  0.00     0.127 S 
ATOM     76  O   UNL A   1      51.046  28.798  23.453  1.00  0.00    -0.237 OA
ATOM     77  O   UNL A   1      51.938  26.536  23.829  1.00  0.00    -0.237 OA
ATOM     78  O   UNL A   1      49.661  26.817  22.953  1.00  0.00    -0.744 OA
ENDBRANCH  72  75
ENDBRANCH  54  68
BRANCH  55  79
ATOM     79  C   UNL A   1      39.007  29.330  29.884  1.00  0.00     0.023 A 
ATOM     80  C   UNL A   1      38.639  29.031  31.210  1.00  0.00     0.012 A 
ATOM     81  C   UNL A   1      38.045  29.871  29.011  1.00  0.00     0.148 A 
ATOM     82  C   UNL A   1      37.332  29.236  31.651  1.00  0.00     0.002 A 
ATOM     83  C   UNL A   1      36.756  30.121  29.471  1.00  0.00     0.091 A 
ATOM     84  F   UNL A   1      38.406  30.133  27.746  1.00  0.00    -0.205 F 
ATOM     85  C   UNL A   1      36.393  29.791  30.785  1.00  0.00     0.022 A 
BRANCH  83  86
ATOM     86  S   UNL A   1      35.523  30.949  28.458  1.00  0.00     0.127 S 
ATOM     87  O   UNL A   1      34.921  29.829  27.744  1.00  0.00    -0.237 OA
ATOM     88  O   UNL A   1      34.665  31.573  29.466  1.00  0.00    -0.237 OA
ATOM     89  O   UNL A   1      36.273  31.900  27.644  1.00  0.00    -0.744 OA
ENDBRANCH  83  86
ENDBRANCH  55  79
BRANCH  67  90
ATOM     90  C   UNL A   1      44.622  33.441  29.359  1.00  0.00     0.023 A 
ATOM     91  C   UNL A   1      45.075  33.826  30.636  1.00  0.00     0.012 A 
ATOM     92  C   UNL A   1      44.469  34.416  28.355  1.00  0.00     0.148 A 
ATOM     93  C   UNL A   1      45.348  35.163  30.917  1.00  0.00     0.002 A 
ATOM     94  C   UNL A   1      44.784  35.742  28.629  1.00  0.00     0.091 A 
ATOM     95  F   UNL A   1      44.016  34.032  27.152  1.00  0.00    -0.205 F 
ATOM     96  C   UNL A   1      45.214  36.119  29.912  1.00  0.00     0.022 A 
BRANCH  94  97
ATOM     97  S   UNL A   1      44.726  37.020  27.367  1.00  0.00     0.127 S 
ATOM     98  O   UNL A   1      45.099  38.210  28.129  1.00  0.00    -0.237 OA
ATOM     99  O   UNL A   1      45.739  36.565  26.413  1.00  0.00    -0.237 OA
ATOM    100  O   UNL A   1      43.364  37.004  26.849  1.00  0.00    -0.744 OA
ENDBRANCH  94  97
ENDBRANCH  67  90
ENDBRANCH  41  42
ENDBRANCH  33  36
ENDBRANCH  31  32
ENDBRANCH  30  31
ENDBRANCH   1  30
TORSDOF 17
ENDMDL
MODEL 3
REMARK VINA RESULT:     -12.4      1.388      7.512
REMARK SMILES CC(C)c1ccc(-c2cnc([C@@H]3[NH2+][C@H](C(=O)NCCCCNC(=O)c4ccc(-c5c6nc(c(-c7cccc(S(=O)(=O)[O-])c7F)c7ccc([nH]7)c(-c7cccc(S(=O)(=O)[O-])c7F)c7nc(c(-c8cccc(S(=O)(=O)[O-])c8F)c8ccc5[nH]8)C=C7)C=C6)cc4)C(C)(C)S3)s2)cc1
REMARK SMILES IDX 19 1 18 2 17 3 15 4 16 5 14 7 12 8 13 9 91 10 88 13 89 14
REMARK SMILES IDX 90 15 11 16 8 17 9 18 92 19 10 20 7 21 4 22 5 23 94 24 6 25
REMARK SMILES IDX 93 26 2 27 1 28 3 29 20 30 21 31 22 32 23 33 24 35 25 36
REMARK SMILES IDX 26 37 87 38 27 39 86 40 28 41 29 42 30 43 80 44 31 45 85 46
REMARK SMILES IDX 79 47 81 48 32 49 84 50 78 51 77 52 33 54 65 55 45 56 64 57
REMARK SMILES IDX 46 58 49 59 63 60 82 61 47 62 48 63 62 65 83 66 50 67 34 68
REMARK SMILES IDX 35 69 43 70 36 71 38 72 44 73 37 74 39 75 40 76 41 77 42 78
REMARK SMILES IDX 66 79 67 80 75 81 68 82 70 83 76 84 69 85 71 86 72 87 73 88
REMARK SMILES IDX 74 89 51 90 52 91 60 92 53 93 55 94 61 95 54 96 56 97 57 98
REMARK SMILES IDX 58 99 59 100
REMARK H PARENT 17 6 13 11 13 12 22 34 81 53 49 64
REMARK Flexibility Score: inf
ROOT
ATOM      1  C   UNL A   1      31.503  30.644  26.402  1.00  0.00     0.023 C 
ENDROOT
BRANCH   1   2
ATOM      2  C   UNL A   1      32.888  30.005  26.545  1.00  0.00     0.116 C 
BRANCH   2   3
ATOM      3  N   UNL A   1      32.827  28.583  26.289  1.00  0.00    -0.351 N 
ATOM      4  C   UNL A   1      32.146  27.924  25.308  1.00  0.00     0.279 C 
ATOM      5  O   UNL A   1      31.646  26.857  25.649  1.00  0.00    -0.268 OA
ATOM      6  H   UNL A   1      33.347  28.016  26.905  1.00  0.00     0.163 HD
BRANCH   4   7
ATOM      7  C   UNL A   1      32.107  28.504  23.874  1.00  0.00     0.289 C 
ATOM      8  C   UNL A   1      33.058  26.856  22.364  1.00  0.00     0.304 C 
ATOM      9  N   UNL A   1      33.334  28.108  23.105  1.00  0.00    -0.318 N 
ATOM     10  S   UNL A   1      31.290  26.825  21.938  1.00  0.00    -0.079 SA
ATOM     11  H   UNL A   1      33.578  28.848  22.448  1.00  0.00     0.348 HD
ATOM     12  H   UNL A   1      34.110  27.962  23.750  1.00  0.00     0.348 HD
ATOM     13  C   UNL A   1      30.848  28.219  23.023  1.00  0.00     0.078 C 
ATOM     14  C   UNL A   1      30.555  29.409  22.089  1.00  0.00     0.030 C 
ATOM     15  C   UNL A   1      29.584  27.890  23.816  1.00  0.00     0.030 C 
BRANCH   8  16
ATOM     16  C   UNL A   1      33.513  25.583  23.046  1.00  0.00     0.162 A 
ATOM     17  C   UNL A   1      33.836  23.267  23.768  1.00  0.00     0.055 A 
ATOM     18  C   UNL A   1      34.598  24.227  24.406  1.00  0.00     0.132 A 
ATOM     19  S   UNL A   1      32.893  24.042  22.554  1.00  0.00    -0.112 S 
ATOM     20  N   UNL A   1      34.325  25.529  24.079  1.00  0.00    -0.242 NA
BRANCH  17  21
ATOM     21  C   UNL A   1      33.764  21.832  24.068  1.00  0.00    -0.007 A 
ATOM     22  C   UNL A   1      33.791  19.046  24.658  1.00  0.00    -0.045 A 
ATOM     23  C   UNL A   1      32.637  19.678  24.161  1.00  0.00     0.004 A 
ATOM     24  C   UNL A   1      34.927  19.832  24.860  1.00  0.00     0.004 A 
ATOM     25  C   UNL A   1      32.621  21.053  23.873  1.00  0.00     0.010 A 
ATOM     26  C   UNL A   1      34.912  21.198  24.569  1.00  0.00     0.010 A 
BRANCH  22  27
ATOM     27  C   UNL A   1      33.770  17.552  24.948  1.00  0.00     0.013 C 
ATOM     28  C   UNL A   1      32.386  16.976  25.282  1.00  0.00     0.012 C 
ATOM     29  C   UNL A   1      34.371  16.768  23.776  1.00  0.00     0.012 C 
ENDBRANCH  22  27
ENDBRANCH  17  21
ENDBRANCH   8  16
ENDBRANCH   4   7
ENDBRANCH   2   3
ENDBRANCH   1   2
BRANCH   1  30
ATOM     30  C   UNL A   1      31.398  32.107  26.856  1.00  0.00     0.023 C 
BRANCH  30  31
ATOM     31  C   UNL A   1      32.722  32.807  27.145  1.00  0.00     0.116 C 
BRANCH  31  32
ATOM     32  N   UNL A   1      32.541  34.133  27.713  1.00  0.00    -0.352 N 
ATOM     33  C   UNL A   1      33.207  34.733  28.751  1.00  0.00     0.251 C 
ATOM     34  H   UNL A   1      31.839  34.679  27.292  1.00  0.00     0.163 HD
ATOM     35  O   UNL A   1      32.816  35.825  29.168  1.00  0.00    -0.269 OA
BRANCH  33  36
ATOM     36  C   UNL A   1      34.366  34.071  29.387  1.00  0.00     0.039 A 
ATOM     37  C   UNL A   1      34.132  33.139  30.403  1.00  0.00     0.014 A 
ATOM     38  C   UNL A   1      35.677  34.369  29.004  1.00  0.00     0.014 A 
ATOM     39  C   UNL A   1      35.204  32.465  30.993  1.00  0.00     0.010 A 
ATOM     40  C   UNL A   1      36.741  33.652  29.549  1.00  0.00     0.010 A 
ATOM     41  C   UNL A   1      36.517  32.695  30.551  1.00  0.00    -0.014 A 
BRANCH  41  42
ATOM     42  C   UNL A   1      37.665  31.939  31.114  1.00  0.00     0.031 A 
ATOM     43  C   UNL A   1      38.186  32.264  32.489  1.00  0.00     0.074 A 
ATOM     44  C   UNL A   1      38.293  31.018  30.356  1.00  0.00     0.049 A 
ATOM     45  N   UNL A   1      39.214  31.760  33.121  1.00  0.00    -0.248 NA
ATOM     46  C   UNL A   1      37.473  33.308  33.242  1.00  0.00     0.031 C 
ATOM     47  C   UNL A   1      37.931  30.665  28.982  1.00  0.00     0.029 A 
ATOM     48  N   UNL A   1      39.385  30.231  30.624  1.00  0.00    -0.354 N 
ATOM     49  C   UNL A   1      39.294  32.446  34.327  1.00  0.00     0.074 A 
ATOM     50  C   UNL A   1      38.227  33.423  34.327  1.00  0.00     0.031 C 
ATOM     51  C   UNL A   1      38.784  29.732  28.528  1.00  0.00     0.029 A 
ATOM     52  C   UNL A   1      39.766  29.437  29.567  1.00  0.00     0.049 A 
ATOM     53  H   UNL A   1      39.852  30.235  31.491  1.00  0.00     0.167 HD
ATOM     54  C   UNL A   1      40.156  32.259  35.355  1.00  0.00     0.034 A 
ATOM     55  C   UNL A   1      40.792  28.571  29.448  1.00  0.00     0.034 A 
ATOM     56  C   UNL A   1      41.182  31.251  35.376  1.00  0.00     0.049 A 
ATOM     57  C   UNL A   1      41.704  28.349  30.625  1.00  0.00     0.074 A 
ATOM     58  C   UNL A   1      42.052  30.930  36.404  1.00  0.00     0.029 A 
ATOM     59  N   UNL A   1      41.474  30.398  34.324  1.00  0.00    -0.354 N 
ATOM     60  N   UNL A   1      41.664  28.898  31.814  1.00  0.00    -0.248 NA
ATOM     61  C   UNL A   1      42.780  27.361  30.455  1.00  0.00     0.031 C 
ATOM     62  C   UNL A   1      42.873  29.885  35.970  1.00  0.00     0.029 A 
ATOM     63  C   UNL A   1      42.509  29.549  34.676  1.00  0.00     0.049 A 
ATOM     64  H   UNL A   1      41.013  30.396  33.453  1.00  0.00     0.167 HD
ATOM     65  C   UNL A   1      42.684  28.299  32.545  1.00  0.00     0.074 A 
ATOM     66  C   UNL A   1      43.310  27.328  31.670  1.00  0.00     0.031 C 
ATOM     67  C   UNL A   1      43.078  28.542  33.818  1.00  0.00     0.034 A 
BRANCH  54  68
ATOM     68  C   UNL A   1      39.978  33.118  36.579  1.00  0.00     0.023 A 
ATOM     69  C   UNL A   1      40.622  34.370  36.638  1.00  0.00     0.012 A 
ATOM     70  C   UNL A   1      39.134  32.722  37.635  1.00  0.00     0.148 A 
ATOM     71  C   UNL A   1      40.453  35.204  37.742  1.00  0.00     0.002 A 
ATOM     72  C   UNL A   1      38.940  33.577  38.715  1.00  0.00     0.091 A 
ATOM     73  F   UNL A   1      38.547  31.519  37.571  1.00  0.00    -0.205 F 
ATOM     74  C   UNL A   1      39.605  34.814  38.775  1.00  0.00     0.022 A 
BRANCH  72  75
ATOM     75  S   UNL A   1      37.813  33.197  40.062  1.00  0.00     0.127 S 
ATOM     76  O   UNL A   1      36.569  32.936  39.341  1.00  0.00    -0.237 OA
ATOM     77  O   UNL A   1      38.430  32.015  40.661  1.00  0.00    -0.237 OA
ATOM     78  O   UNL A   1      37.806  34.376  40.919  1.00  0.00    -0.744 OA
ENDBRANCH  72  75
ENDBRANCH  54  68
BRANCH  55  79
ATOM     79  C   UNL A   1      40.959  27.782  28.195  1.00  0.00     0.023 A 
ATOM     80  C   UNL A   1      41.641  28.360  27.107  1.00  0.00     0.012 A 
ATOM     81  C   UNL A   1      40.477  26.464  28.081  1.00  0.00     0.148 A 
ATOM     82  C   UNL A   1      41.813  27.653  25.916  1.00  0.00     0.002 A 
ATOM     83  C   UNL A   1      40.696  25.746  26.910  1.00  0.00     0.091 A 
ATOM     84  F   UNL A   1      39.815  25.935  29.120  1.00  0.00    -0.205 F 
ATOM     85  C   UNL A   1      41.350  26.343  25.821  1.00  0.00     0.022 A 
BRANCH  83  86
ATOM     86  S   UNL A   1      40.245  24.014  26.752  1.00  0.00     0.127 S 
ATOM     87  O   UNL A   1      38.931  24.103  26.124  1.00  0.00    -0.237 OA
ATOM     88  O   UNL A   1      41.308  23.495  25.890  1.00  0.00    -0.237 OA
ATOM     89  O   UNL A   1      40.271  23.486  28.112  1.00  0.00    -0.744 OA
ENDBRANCH  83  86
ENDBRANCH  55  79
BRANCH  67  90
ATOM     90  C   UNL A   1      44.221  27.729  34.364  1.00  0.00     0.023 A 
ATOM     91  C   UNL A   1      45.542  28.194  34.208  1.00  0.00     0.012 A 
ATOM     92  C   UNL A   1      43.984  26.550  35.098  1.00  0.00     0.148 A 
ATOM     93  C   UNL A   1      46.612  27.484  34.751  1.00  0.00     0.002 A 
ATOM     94  C   UNL A   1      45.052  25.871  35.674  1.00  0.00     0.091 A 
ATOM     95  F   UNL A   1      42.722  26.113  35.217  1.00  0.00    -0.205 F 
ATOM     96  C   UNL A   1      46.367  26.331  35.494  1.00  0.00     0.022 A 
BRANCH  94  97
ATOM     97  S   UNL A   1      44.817  24.429  36.719  1.00  0.00     0.127 S 
ATOM     98  O   UNL A   1      44.134  23.509  35.812  1.00  0.00    -0.237 OA
ATOM     99  O   UNL A   1      46.192  24.051  37.047  1.00  0.00    -0.237 OA
ATOM    100  O   UNL A   1      44.034  24.888  37.859  1.00  0.00    -0.744 OA
ENDBRANCH  94  97
ENDBRANCH  67  90
ENDBRANCH  41  42
ENDBRANCH  33  36
ENDBRANCH  31  32
ENDBRANCH  30  31
ENDBRANCH   1  30
TORSDOF 17
ENDMDL
