MODEL 1
REMARK VINA RESULT:     -11.2      0.000      0.000
REMARK SMILES COC[C@@H](NS(=O)(=O)c1ccc(C(=O)NCCCCNC(=O)c2ccc(-c3c4nc(c(-c5cccc(S(=O)(=O)[O-])c5F)c5ccc([nH]5)c(-c5cccc(S(=O)(=O)[O-])c5F)c5nc(c(-c6cccc(S(=O)(=O)[O-])c6F)c6ccc3[nH]6)C=C5)C=C4)cc2)cc1F)C(C)C
REMARK SMILES IDX 16 1 15 2 13 3 14 4 12 6 9 7 10 8 87 9 11 10 86 11 88 12
REMARK SMILES IDX 6 13 7 14 8 15 5 16 4 18 3 19 2 20 1 21 89 22 90 23 91 24
REMARK SMILES IDX 17 25 18 26 19 27 20 28 21 29 22 31 23 32 24 33 85 34 25 35
REMARK SMILES IDX 84 36 26 37 27 38 28 39 78 40 29 41 83 42 77 43 79 44 30 45
REMARK SMILES IDX 82 46 76 47 75 48 31 50 63 51 43 52 62 53 44 54 47 55 61 56
REMARK SMILES IDX 80 57 45 58 46 59 60 61 81 62 48 63 32 64 33 65 41 66 34 67
REMARK SMILES IDX 36 68 42 69 35 70 37 71 38 72 39 73 40 74 64 75 65 76 73 77
REMARK SMILES IDX 66 78 68 79 74 80 67 81 69 82 70 83 71 84 72 85 49 86 50 87
REMARK SMILES IDX 58 88 51 89 53 90 59 91 52 92 54 93 55 94 56 95 57 96
REMARK H PARENT 15 5 5 17 20 30 79 49 47 60
REMARK Flexibility Score: inf
ROOT
ATOM      1  C   UNL A   1      32.516  30.008  25.732  1.00  0.00     0.116 C 
ENDROOT
BRANCH   1   2
ATOM      2  N   UNL A   1      31.626  29.893  24.588  1.00  0.00    -0.352 N 
ATOM      3  C   UNL A   1      31.143  28.798  23.919  1.00  0.00     0.251 C 
ATOM      4  O   UNL A   1      30.318  28.955  23.022  1.00  0.00    -0.269 OA
ATOM      5  H   UNL A   1      31.315  30.757  24.230  1.00  0.00     0.163 HD
BRANCH   3   6
ATOM      6  C   UNL A   1      31.511  27.417  24.309  1.00  0.00     0.042 A 
ATOM      7  C   UNL A   1      32.229  24.948  25.382  1.00  0.00     0.118 A 
ATOM      8  C   UNL A   1      30.988  25.508  25.708  1.00  0.00     0.026 A 
ATOM      9  C   UNL A   1      33.039  25.548  24.428  1.00  0.00     0.144 A 
ATOM     10  C   UNL A   1      30.635  26.747  25.174  1.00  0.00     0.015 A 
ATOM     11  C   UNL A   1      32.674  26.775  23.874  1.00  0.00     0.054 A 
ATOM     12  F   UNL A   1      34.203  25.008  24.050  1.00  0.00    -0.205 F 
BRANCH   7  13
ATOM     13  S   UNL A   1      32.820  23.598  26.346  1.00  0.00     0.243 S 
ATOM     14  O   UNL A   1      31.859  23.232  27.356  1.00  0.00    -0.207 OA
ATOM     15  O   UNL A   1      34.204  23.885  26.659  1.00  0.00    -0.207 OA
BRANCH  13  16
ATOM     16  N   UNL A   1      32.871  22.364  25.186  1.00  0.00    -0.205 NA
ATOM     17  H   UNL A   1      31.909  22.217  24.879  1.00  0.00     0.141 HD
BRANCH  16  18
ATOM     18  C   UNL A   1      33.422  21.012  25.512  1.00  0.00     0.098 C 
BRANCH  18  19
ATOM     19  C   UNL A   1      34.840  20.908  24.878  1.00  0.00     0.180 C 
BRANCH  19  20
ATOM     20  O   UNL A   1      35.168  22.009  24.026  1.00  0.00    -0.383 OA
ATOM     21  C   UNL A   1      36.522  22.426  24.072  1.00  0.00     0.194 C 
ENDBRANCH  19  20
ENDBRANCH  18  19
BRANCH  18  22
ATOM     22  C   UNL A   1      32.446  19.922  24.960  1.00  0.00     0.003 C 
ATOM     23  C   UNL A   1      32.392  19.855  23.428  1.00  0.00     0.009 C 
ATOM     24  C   UNL A   1      32.812  18.520  25.464  1.00  0.00     0.009 C 
ENDBRANCH  18  22
ENDBRANCH  16  18
ENDBRANCH  13  16
ENDBRANCH   7  13
ENDBRANCH   3   6
ENDBRANCH   1   2
BRANCH   1  25
ATOM     25  C   UNL A   1      31.802  30.644  26.925  1.00  0.00     0.023 C 
BRANCH  25  26
ATOM     26  C   UNL A   1      31.670  32.169  26.847  1.00  0.00     0.023 C 
BRANCH  26  27
ATOM     27  C   UNL A   1      32.889  32.953  27.327  1.00  0.00     0.116 C 
BRANCH  27  28
ATOM     28  N   UNL A   1      32.553  34.285  27.804  1.00  0.00    -0.352 N 
ATOM     29  C   UNL A   1      33.092  34.991  28.854  1.00  0.00     0.251 C 
ATOM     30  H   UNL A   1      31.840  34.746  27.306  1.00  0.00     0.163 HD
ATOM     31  O   UNL A   1      32.597  36.066  29.183  1.00  0.00    -0.269 OA
BRANCH  29  32
ATOM     32  C   UNL A   1      34.242  34.442  29.605  1.00  0.00     0.039 A 
ATOM     33  C   UNL A   1      33.993  33.714  30.773  1.00  0.00     0.014 A 
ATOM     34  C   UNL A   1      35.553  34.636  29.163  1.00  0.00     0.014 A 
ATOM     35  C   UNL A   1      35.056  33.120  31.459  1.00  0.00     0.010 A 
ATOM     36  C   UNL A   1      36.605  34.000  29.818  1.00  0.00     0.010 A 
ATOM     37  C   UNL A   1      36.366  33.232  30.967  1.00  0.00    -0.014 A 
BRANCH  37  38
ATOM     38  C   UNL A   1      37.496  32.522  31.615  1.00  0.00     0.031 A 
ATOM     39  C   UNL A   1      38.029  32.988  32.940  1.00  0.00     0.074 A 
ATOM     40  C   UNL A   1      38.106  31.513  30.960  1.00  0.00     0.049 A 
ATOM     41  N   UNL A   1      39.055  32.543  33.616  1.00  0.00    -0.248 NA
ATOM     42  C   UNL A   1      37.333  34.118  33.579  1.00  0.00     0.031 C 
ATOM     43  C   UNL A   1      37.726  31.017  29.636  1.00  0.00     0.029 A 
ATOM     44  N   UNL A   1      39.187  30.742  31.307  1.00  0.00    -0.354 N 
ATOM     45  C   UNL A   1      39.151  33.354  34.739  1.00  0.00     0.074 A 
ATOM     46  C   UNL A   1      38.090  34.334  34.646  1.00  0.00     0.031 C 
ATOM     47  C   UNL A   1      38.558  30.023  29.283  1.00  0.00     0.029 A 
ATOM     48  C   UNL A   1      39.542  29.826  30.344  1.00  0.00     0.049 A 
ATOM     49  H   UNL A   1      39.664  30.837  32.162  1.00  0.00     0.167 HD
ATOM     50  C   UNL A   1      40.024  33.271  35.769  1.00  0.00     0.034 A 
ATOM     51  C   UNL A   1      40.546  28.926  30.318  1.00  0.00     0.034 A 
ATOM     52  C   UNL A   1      41.037  32.258  35.893  1.00  0.00     0.049 A 
ATOM     53  C   UNL A   1      41.464  28.817  31.503  1.00  0.00     0.074 A 
ATOM     54  C   UNL A   1      41.913  32.044  36.942  1.00  0.00     0.029 A 
ATOM     55  N   UNL A   1      41.303  31.286  34.943  1.00  0.00    -0.354 N 
ATOM     56  N   UNL A   1      41.447  29.500  32.622  1.00  0.00    -0.248 NA
ATOM     57  C   UNL A   1      42.518  27.793  31.442  1.00  0.00     0.031 C 
ATOM     58  C   UNL A   1      42.709  30.938  36.627  1.00  0.00     0.029 A 
ATOM     59  C   UNL A   1      42.328  30.466  35.380  1.00  0.00     0.049 A 
ATOM     60  H   UNL A   1      40.833  31.193  34.082  1.00  0.00     0.167 HD
ATOM     61  C   UNL A   1      42.466  28.974  33.407  1.00  0.00     0.074 A 
ATOM     62  C   UNL A   1      43.070  27.900  32.644  1.00  0.00     0.031 C 
ATOM     63  C   UNL A   1      42.877  29.360  34.639  1.00  0.00     0.034 A 
BRANCH  50  64
ATOM     64  C   UNL A   1      39.874  34.256  36.897  1.00  0.00     0.023 A 
ATOM     65  C   UNL A   1      40.203  35.607  36.670  1.00  0.00     0.012 A 
ATOM     66  C   UNL A   1      39.336  33.870  38.139  1.00  0.00     0.148 A 
ATOM     67  C   UNL A   1      40.017  36.560  37.670  1.00  0.00     0.002 A 
ATOM     68  C   UNL A   1      39.121  34.832  39.122  1.00  0.00     0.091 A 
ATOM     69  F   UNL A   1      39.052  32.576  38.342  1.00  0.00    -0.205 F 
ATOM     70  C   UNL A   1      39.466  36.174  38.891  1.00  0.00     0.022 A 
BRANCH  68  71
ATOM     71  S   UNL A   1      38.360  34.446  40.702  1.00  0.00     0.127 S 
ATOM     72  O   UNL A   1      38.231  35.773  41.299  1.00  0.00    -0.237 OA
ATOM     73  O   UNL A   1      37.094  33.834  40.296  1.00  0.00    -0.237 OA
ATOM     74  O   UNL A   1      39.281  33.540  41.377  1.00  0.00    -0.744 OA
ENDBRANCH  68  71
ENDBRANCH  50  64
BRANCH  51  75
ATOM     75  C   UNL A   1      40.664  27.994  29.163  1.00  0.00     0.023 A 
ATOM     76  C   UNL A   1      39.788  26.894  29.084  1.00  0.00     0.012 A 
ATOM     77  C   UNL A   1      41.578  28.222  28.117  1.00  0.00     0.148 A 
ATOM     78  C   UNL A   1      39.830  26.028  27.991  1.00  0.00     0.002 A 
ATOM     79  C   UNL A   1      41.580  27.383  27.006  1.00  0.00     0.091 A 
ATOM     80  F   UNL A   1      42.417  29.262  28.219  1.00  0.00    -0.205 F 
ATOM     81  C   UNL A   1      40.715  26.279  26.946  1.00  0.00     0.022 A 
BRANCH  79  82
ATOM     82  S   UNL A   1      42.594  27.723  25.561  1.00  0.00     0.127 S 
ATOM     83  O   UNL A   1      43.927  27.830  26.148  1.00  0.00    -0.237 OA
ATOM     84  O   UNL A   1      42.375  26.530  24.742  1.00  0.00    -0.237 OA
ATOM     85  O   UNL A   1      42.046  28.946  24.988  1.00  0.00    -0.744 OA
ENDBRANCH  79  82
ENDBRANCH  51  75
BRANCH  63  86
ATOM     86  C   UNL A   1      44.029  28.622  35.264  1.00  0.00     0.023 A 
ATOM     87  C   UNL A   1      45.345  29.012  34.952  1.00  0.00     0.012 A 
ATOM     88  C   UNL A   1      43.811  27.632  36.242  1.00  0.00     0.148 A 
ATOM     89  C   UNL A   1      46.430  28.422  35.599  1.00  0.00     0.002 A 
ATOM     90  C   UNL A   1      44.895  27.073  36.909  1.00  0.00     0.091 A 
ATOM     91  F   UNL A   1      42.549  27.259  36.507  1.00  0.00    -0.205 F 
ATOM     92  C   UNL A   1      46.205  27.463  36.585  1.00  0.00     0.022 A 
BRANCH  90  93
ATOM     93  S   UNL A   1      44.687  25.901  38.255  1.00  0.00     0.127 S 
ATOM     94  O   UNL A   1      44.087  24.759  37.566  1.00  0.00    -0.237 OA
ATOM     95  O   UNL A   1      46.063  25.688  38.704  1.00  0.00    -0.237 OA
ATOM     96  O   UNL A   1      43.835  26.568  39.230  1.00  0.00    -0.744 OA
ENDBRANCH  90  93
ENDBRANCH  63  86
ENDBRANCH  37  38
ENDBRANCH  29  32
ENDBRANCH  27  28
ENDBRANCH  26  27
ENDBRANCH  25  26
ENDBRANCH   1  25
TORSDOF 20
ENDMDL
MODEL 2
REMARK VINA RESULT:     -10.8      1.800      2.347
REMARK SMILES COC[C@@H](NS(=O)(=O)c1ccc(C(=O)NCCCCNC(=O)c2ccc(-c3c4nc(c(-c5cccc(S(=O)(=O)[O-])c5F)c5ccc([nH]5)c(-c5cccc(S(=O)(=O)[O-])c5F)c5nc(c(-c6cccc(S(=O)(=O)[O-])c6F)c6ccc3[nH]6)C=C5)C=C4)cc2)cc1F)C(C)C
REMARK SMILES IDX 16 1 15 2 13 3 14 4 12 6 9 7 10 8 87 9 11 10 86 11 88 12
REMARK SMILES IDX 6 13 7 14 8 15 5 16 4 18 3 19 2 20 1 21 89 22 90 23 91 24
REMARK SMILES IDX 17 25 18 26 19 27 20 28 21 29 22 31 23 32 24 33 85 34 25 35
REMARK SMILES IDX 84 36 26 37 27 38 28 39 78 40 29 41 83 42 77 43 79 44 30 45
REMARK SMILES IDX 82 46 76 47 75 48 31 50 63 51 43 52 62 53 44 54 47 55 61 56
REMARK SMILES IDX 80 57 45 58 46 59 60 61 81 62 48 63 32 64 33 65 41 66 34 67
REMARK SMILES IDX 36 68 42 69 35 70 37 71 38 72 39 73 40 74 64 75 65 76 73 77
REMARK SMILES IDX 66 78 68 79 74 80 67 81 69 82 70 83 71 84 72 85 49 86 50 87
REMARK SMILES IDX 58 88 51 89 53 90 59 91 52 92 54 93 55 94 56 95 57 96
REMARK H PARENT 15 5 5 17 20 30 79 49 47 60
REMARK Flexibility Score: inf
ROOT
ATOM      1  C   UNL A   1      31.776  28.592  27.227  1.00  0.00     0.116 C 
ENDROOT
BRANCH   1   2
ATOM      2  N   UNL A   1      31.503  28.314  25.826  1.00  0.00    -0.352 N 
ATOM      3  C   UNL A   1      31.803  27.233  25.038  1.00  0.00     0.251 C 
ATOM      4  O   UNL A   1      31.381  27.191  23.885  1.00  0.00    -0.269 OA
ATOM      5  H   UNL A   1      31.015  29.032  25.360  1.00  0.00     0.163 HD
BRANCH   3   6
ATOM      6  C   UNL A   1      32.543  26.062  25.565  1.00  0.00     0.042 A 
ATOM      7  C   UNL A   1      33.967  23.755  26.208  1.00  0.00     0.118 A 
ATOM      8  C   UNL A   1      34.610  24.796  25.525  1.00  0.00     0.026 A 
ATOM      9  C   UNL A   1      32.674  23.922  26.680  1.00  0.00     0.144 A 
ATOM     10  C   UNL A   1      33.891  25.946  25.200  1.00  0.00     0.015 A 
ATOM     11  C   UNL A   1      31.964  25.083  26.377  1.00  0.00     0.054 A 
ATOM     12  F   UNL A   1      32.053  22.971  27.387  1.00  0.00    -0.205 F 
BRANCH   7  13
ATOM     13  S   UNL A   1      34.755  22.182  26.270  1.00  0.00     0.243 S 
ATOM     14  O   UNL A   1      34.194  21.371  27.322  1.00  0.00    -0.207 OA
ATOM     15  O   UNL A   1      36.177  22.423  26.150  1.00  0.00    -0.207 OA
BRANCH  13  16
ATOM     16  N   UNL A   1      34.287  21.522  24.781  1.00  0.00    -0.205 NA
ATOM     17  H   UNL A   1      34.685  22.124  24.060  1.00  0.00     0.141 HD
BRANCH  16  18
ATOM     18  C   UNL A   1      32.844  21.340  24.430  1.00  0.00     0.098 C 
BRANCH  18  19
ATOM     19  C   UNL A   1      32.542  19.813  24.424  1.00  0.00     0.180 C 
BRANCH  19  20
ATOM     20  O   UNL A   1      33.708  19.000  24.261  1.00  0.00    -0.383 OA
ATOM     21  C   UNL A   1      33.625  17.705  24.830  1.00  0.00     0.194 C 
ENDBRANCH  19  20
ENDBRANCH  18  19
BRANCH  18  22
ATOM     22  C   UNL A   1      32.575  22.001  23.039  1.00  0.00     0.003 C 
ATOM     23  C   UNL A   1      31.896  21.068  22.028  1.00  0.00     0.009 C 
ATOM     24  C   UNL A   1      31.698  23.254  23.162  1.00  0.00     0.009 C 
ENDBRANCH  18  22
ENDBRANCH  16  18
ENDBRANCH  13  16
ENDBRANCH   7  13
ENDBRANCH   3   6
ENDBRANCH   1   2
BRANCH   1  25
ATOM     25  C   UNL A   1      32.704  29.797  27.380  1.00  0.00     0.023 C 
BRANCH  25  26
ATOM     26  C   UNL A   1      32.080  31.135  26.971  1.00  0.00     0.023 C 
BRANCH  26  27
ATOM     27  C   UNL A   1      33.076  32.249  26.657  1.00  0.00     0.116 C 
BRANCH  27  28
ATOM     28  N   UNL A   1      32.694  33.529  27.233  1.00  0.00    -0.352 N 
ATOM     29  C   UNL A   1      33.194  34.164  28.345  1.00  0.00     0.251 C 
ATOM     30  H   UNL A   1      31.976  34.009  26.759  1.00  0.00     0.163 HD
ATOM     31  O   UNL A   1      32.663  35.194  28.749  1.00  0.00    -0.269 OA
BRANCH  29  32
ATOM     32  C   UNL A   1      34.347  33.587  29.072  1.00  0.00     0.039 A 
ATOM     33  C   UNL A   1      34.101  32.654  30.085  1.00  0.00     0.014 A 
ATOM     34  C   UNL A   1      35.657  33.956  28.759  1.00  0.00     0.014 A 
ATOM     35  C   UNL A   1      35.174  32.038  30.735  1.00  0.00     0.010 A 
ATOM     36  C   UNL A   1      36.725  33.304  29.370  1.00  0.00     0.010 A 
ATOM     37  C   UNL A   1      36.494  32.335  30.358  1.00  0.00    -0.014 A 
BRANCH  37  38
ATOM     38  C   UNL A   1      37.646  31.617  30.956  1.00  0.00     0.031 A 
ATOM     39  C   UNL A   1      38.093  31.927  32.356  1.00  0.00     0.074 A 
ATOM     40  C   UNL A   1      38.351  30.752  30.199  1.00  0.00     0.049 A 
ATOM     41  N   UNL A   1      39.122  31.460  33.013  1.00  0.00    -0.248 NA
ATOM     42  C   UNL A   1      37.294  32.909  33.109  1.00  0.00     0.031 C 
ATOM     43  C   UNL A   1      38.058  30.422  28.802  1.00  0.00     0.029 A 
ATOM     44  N   UNL A   1      39.471  30.012  30.487  1.00  0.00    -0.354 N 
ATOM     45  C   UNL A   1      39.117  32.111  34.240  1.00  0.00     0.074 A 
ATOM     46  C   UNL A   1      37.993  33.022  34.231  1.00  0.00     0.031 C 
ATOM     47  C   UNL A   1      38.972  29.544  28.357  1.00  0.00     0.029 A 
ATOM     48  C   UNL A   1      39.927  29.266  29.427  1.00  0.00     0.049 A 
ATOM     49  H   UNL A   1      39.906  30.018  31.370  1.00  0.00     0.167 HD
ATOM     50  C   UNL A   1      39.954  31.942  35.289  1.00  0.00     0.034 A 
ATOM     51  C   UNL A   1      40.992  28.446  29.326  1.00  0.00     0.034 A 
ATOM     52  C   UNL A   1      41.031  30.990  35.321  1.00  0.00     0.049 A 
ATOM     53  C   UNL A   1      41.870  28.232  30.527  1.00  0.00     0.074 A 
ATOM     54  C   UNL A   1      41.880  30.689  36.372  1.00  0.00     0.029 A 
ATOM     55  N   UNL A   1      41.402  30.180  34.261  1.00  0.00    -0.354 N 
ATOM     56  N   UNL A   1      41.762  28.750  31.727  1.00  0.00    -0.248 NA
ATOM     57  C   UNL A   1      42.996  27.298  30.377  1.00  0.00     0.031 C 
ATOM     58  C   UNL A   1      42.764  29.692  35.947  1.00  0.00     0.029 A 
ATOM     59  C   UNL A   1      42.465  29.375  34.630  1.00  0.00     0.049 A 
ATOM     60  H   UNL A   1      40.973  30.178  33.374  1.00  0.00     0.167 HD
ATOM     61  C   UNL A   1      42.785  28.187  32.480  1.00  0.00     0.074 A 
ATOM     62  C   UNL A   1      43.493  27.272  31.607  1.00  0.00     0.031 C 
ATOM     63  C   UNL A   1      43.120  28.422  33.771  1.00  0.00     0.034 A 
BRANCH  50  64
ATOM     64  C   UNL A   1      39.691  32.747  36.533  1.00  0.00     0.023 A 
ATOM     65  C   UNL A   1      40.324  33.997  36.682  1.00  0.00     0.012 A 
ATOM     66  C   UNL A   1      38.766  32.315  37.503  1.00  0.00     0.148 A 
ATOM     67  C   UNL A   1      40.056  34.800  37.789  1.00  0.00     0.002 A 
ATOM     68  C   UNL A   1      38.479  33.137  38.588  1.00  0.00     0.091 A 
ATOM     69  F   UNL A   1      38.193  31.114  37.353  1.00  0.00    -0.205 F 
ATOM     70  C   UNL A   1      39.126  34.375  38.735  1.00  0.00     0.022 A 
BRANCH  68  71
ATOM     71  S   UNL A   1      37.250  32.707  39.826  1.00  0.00     0.127 S 
ATOM     72  O   UNL A   1      37.342  33.844  40.740  1.00  0.00    -0.237 OA
ATOM     73  O   UNL A   1      36.018  32.655  39.038  1.00  0.00    -0.237 OA
ATOM     74  O   UNL A   1      37.671  31.424  40.376  1.00  0.00    -0.744 OA
ENDBRANCH  68  71
ENDBRANCH  50  64
BRANCH  51  75
ATOM     75  C   UNL A   1      41.220  27.694  28.061  1.00  0.00     0.023 A 
ATOM     76  C   UNL A   1      41.765  28.373  26.953  1.00  0.00     0.012 A 
ATOM     77  C   UNL A   1      40.971  26.312  27.964  1.00  0.00     0.148 A 
ATOM     78  C   UNL A   1      42.044  27.693  25.768  1.00  0.00     0.002 A 
ATOM     79  C   UNL A   1      41.298  25.631  26.796  1.00  0.00     0.091 A 
ATOM     80  F   UNL A   1      40.435  25.686  29.021  1.00  0.00    -0.205 F 
ATOM     81  C   UNL A   1      41.824  26.321  25.693  1.00  0.00     0.022 A 
BRANCH  79  82
ATOM     82  S   UNL A   1      41.174  23.841  26.673  1.00  0.00     0.127 S 
ATOM     83  O   UNL A   1      42.083  23.552  25.568  1.00  0.00    -0.237 OA
ATOM     84  O   UNL A   1      41.646  23.407  27.990  1.00  0.00    -0.237 OA
ATOM     85  O   UNL A   1      39.763  23.572  26.430  1.00  0.00    -0.744 OA
ENDBRANCH  79  82
ENDBRANCH  51  75
BRANCH  63  86
ATOM     86  C   UNL A   1      44.297  27.681  34.343  1.00  0.00     0.023 A 
ATOM     87  C   UNL A   1      45.583  28.242  34.230  1.00  0.00     0.012 A 
ATOM     88  C   UNL A   1      44.117  26.501  35.091  1.00  0.00     0.148 A 
ATOM     89  C   UNL A   1      46.676  27.635  34.846  1.00  0.00     0.002 A 
ATOM     90  C   UNL A   1      45.205  25.920  35.732  1.00  0.00     0.091 A 
ATOM     91  F   UNL A   1      42.886  25.971  35.166  1.00  0.00    -0.205 F 
ATOM     92  C   UNL A   1      46.486  26.483  35.607  1.00  0.00     0.022 A 
BRANCH  90  93
ATOM     93  S   UNL A   1      45.028  24.489  36.805  1.00  0.00     0.127 S 
ATOM     94  O   UNL A   1      44.068  24.975  37.795  1.00  0.00    -0.237 OA
ATOM     95  O   UNL A   1      44.502  23.473  35.893  1.00  0.00    -0.237 OA
ATOM     96  O   UNL A   1      46.365  24.207  37.309  1.00  0.00    -0.744 OA
ENDBRANCH  90  93
ENDBRANCH  63  86
ENDBRANCH  37  38
ENDBRANCH  29  32
ENDBRANCH  27  28
ENDBRANCH  26  27
ENDBRANCH  25  26
ENDBRANCH   1  25
TORSDOF 20
ENDMDL
MODEL 3
REMARK VINA RESULT:     -10.0      2.047      7.671
REMARK SMILES COC[C@@H](NS(=O)(=O)c1ccc(C(=O)NCCCCNC(=O)c2ccc(-c3c4nc(c(-c5cccc(S(=O)(=O)[O-])c5F)c5ccc([nH]5)c(-c5cccc(S(=O)(=O)[O-])c5F)c5nc(c(-c6cccc(S(=O)(=O)[O-])c6F)c6ccc3[nH]6)C=C5)C=C4)cc2)cc1F)C(C)C
REMARK SMILES IDX 16 1 15 2 13 3 14 4 12 6 9 7 10 8 87 9 11 10 86 11 88 12
REMARK SMILES IDX 6 13 7 14 8 15 5 16 4 18 3 19 2 20 1 21 89 22 90 23 91 24
REMARK SMILES IDX 17 25 18 26 19 27 20 28 21 29 22 31 23 32 24 33 85 34 25 35
REMARK SMILES IDX 84 36 26 37 27 38 28 39 78 40 29 41 83 42 77 43 79 44 30 45
REMARK SMILES IDX 82 46 76 47 75 48 31 50 63 51 43 52 62 53 44 54 47 55 61 56
REMARK SMILES IDX 80 57 45 58 46 59 60 61 81 62 48 63 32 64 33 65 41 66 34 67
REMARK SMILES IDX 36 68 42 69 35 70 37 71 38 72 39 73 40 74 64 75 65 76 73 77
REMARK SMILES IDX 66 78 68 79 74 80 67 81 69 82 70 83 71 84 72 85 49 86 50 87
REMARK SMILES IDX 58 88 51 89 53 90 59 91 52 92 54 93 55 94 56 95 57 96
REMARK H PARENT 15 5 5 17 20 30 79 49 47 60
REMARK Flexibility Score: inf
ROOT
ATOM      1  C   UNL A   1      32.514  29.146  26.445  1.00  0.00     0.116 C 
ENDROOT
BRANCH   1   2
ATOM      2  N   UNL A   1      31.487  29.687  25.570  1.00  0.00    -0.352 N 
ATOM      3  C   UNL A   1      30.981  29.241  24.376  1.00  0.00     0.251 C 
ATOM      4  O   UNL A   1      30.036  29.834  23.862  1.00  0.00    -0.269 OA
ATOM      5  H   UNL A   1      31.082  30.525  25.893  1.00  0.00     0.163 HD
BRANCH   3   6
ATOM      6  C   UNL A   1      31.476  28.002  23.731  1.00  0.00     0.042 A 
ATOM      7  C   UNL A   1      32.508  25.568  22.851  1.00  0.00     0.118 A 
ATOM      8  C   UNL A   1      31.358  25.582  23.652  1.00  0.00     0.026 A 
ATOM      9  C   UNL A   1      33.051  26.756  22.386  1.00  0.00     0.144 A 
ATOM     10  C   UNL A   1      30.849  26.802  24.096  1.00  0.00     0.015 A 
ATOM     11  C   UNL A   1      32.526  27.977  22.808  1.00  0.00     0.054 A 
ATOM     12  F   UNL A   1      34.112  26.776  21.571  1.00  0.00    -0.205 F 
BRANCH   7  13
ATOM     13  S   UNL A   1      33.352  24.040  22.623  1.00  0.00     0.243 S 
ATOM     14  O   UNL A   1      34.626  24.054  23.297  1.00  0.00    -0.207 OA
ATOM     15  O   UNL A   1      33.218  23.696  21.223  1.00  0.00    -0.207 OA
BRANCH  13  16
ATOM     16  N   UNL A   1      32.325  22.972  23.446  1.00  0.00    -0.205 NA
ATOM     17  H   UNL A   1      31.636  23.549  23.929  1.00  0.00     0.141 HD
BRANCH  16  18
ATOM     18  C   UNL A   1      32.855  22.009  24.460  1.00  0.00     0.098 C 
BRANCH  18  19
ATOM     19  C   UNL A   1      32.397  20.580  24.048  1.00  0.00     0.180 C 
BRANCH  19  20
ATOM     20  O   UNL A   1      33.342  19.557  24.381  1.00  0.00    -0.383 OA
ATOM     21  C   UNL A   1      33.061  18.278  23.843  1.00  0.00     0.194 C 
ENDBRANCH  19  20
ENDBRANCH  18  19
BRANCH  18  22
ATOM     22  C   UNL A   1      32.322  22.416  25.872  1.00  0.00     0.003 C 
ATOM     23  C   UNL A   1      32.926  23.720  26.411  1.00  0.00     0.009 C 
ATOM     24  C   UNL A   1      30.797  22.584  25.880  1.00  0.00     0.009 C 
ENDBRANCH  18  22
ENDBRANCH  16  18
ENDBRANCH  13  16
ENDBRANCH   7  13
ENDBRANCH   3   6
ENDBRANCH   1   2
BRANCH   1  25
ATOM     25  C   UNL A   1      33.160  30.248  27.285  1.00  0.00     0.023 C 
BRANCH  25  26
ATOM     26  C   UNL A   1      32.394  31.575  27.290  1.00  0.00     0.023 C 
BRANCH  26  27
ATOM     27  C   UNL A   1      33.231  32.810  26.970  1.00  0.00     0.116 C 
BRANCH  27  28
ATOM     28  N   UNL A   1      32.753  34.008  27.643  1.00  0.00    -0.352 N 
ATOM     29  C   UNL A   1      33.203  34.587  28.806  1.00  0.00     0.251 C 
ATOM     30  H   UNL A   1      32.002  34.469  27.204  1.00  0.00     0.163 HD
ATOM     31  O   UNL A   1      32.596  35.539  29.287  1.00  0.00    -0.269 OA
BRANCH  29  32
ATOM     32  C   UNL A   1      34.395  34.042  29.493  1.00  0.00     0.039 A 
ATOM     33  C   UNL A   1      34.208  33.164  30.565  1.00  0.00     0.014 A 
ATOM     34  C   UNL A   1      35.686  34.387  29.084  1.00  0.00     0.014 A 
ATOM     35  C   UNL A   1      35.315  32.576  31.181  1.00  0.00     0.010 A 
ATOM     36  C   UNL A   1      36.786  33.761  29.664  1.00  0.00     0.010 A 
ATOM     37  C   UNL A   1      36.611  32.846  30.712  1.00  0.00    -0.014 A 
BRANCH  37  38
ATOM     38  C   UNL A   1      37.795  32.153  31.278  1.00  0.00     0.031 A 
ATOM     39  C   UNL A   1      38.485  31.067  30.503  1.00  0.00     0.074 A 
ATOM     40  C   UNL A   1      38.189  32.438  32.535  1.00  0.00     0.049 A 
ATOM     41  N   UNL A   1      39.479  30.301  30.868  1.00  0.00    -0.248 NA
ATOM     42  C   UNL A   1      37.976  30.787  29.149  1.00  0.00     0.031 C 
ATOM     43  C   UNL A   1      37.554  33.422  33.415  1.00  0.00     0.029 A 
ATOM     44  N   UNL A   1      39.200  31.912  33.301  1.00  0.00    -0.354 N 
ATOM     45  C   UNL A   1      39.695  29.429  29.809  1.00  0.00     0.074 A 
ATOM     46  C   UNL A   1      38.715  29.744  28.793  1.00  0.00     0.031 C 
ATOM     47  C   UNL A   1      38.191  33.432  34.597  1.00  0.00     0.029 A 
ATOM     48  C   UNL A   1      39.264  32.441  34.569  1.00  0.00     0.049 A 
ATOM     49  H   UNL A   1      39.818  31.220  32.973  1.00  0.00     0.167 HD
ATOM     50  C   UNL A   1      40.643  28.472  29.683  1.00  0.00     0.034 A 
ATOM     51  C   UNL A   1      40.095  32.163  35.593  1.00  0.00     0.034 A 
ATOM     52  C   UNL A   1      41.657  28.201  30.666  1.00  0.00     0.049 A 
ATOM     53  C   UNL A   1      41.177  31.137  35.403  1.00  0.00     0.074 A 
ATOM     54  C   UNL A   1      42.711  27.307  30.589  1.00  0.00     0.029 A 
ATOM     55  N   UNL A   1      41.750  28.826  31.899  1.00  0.00    -0.354 N 
ATOM     56  N   UNL A   1      41.455  30.423  34.339  1.00  0.00    -0.248 NA
ATOM     57  C   UNL A   1      42.081  30.899  36.538  1.00  0.00     0.031 C 
ATOM     58  C   UNL A   1      43.444  27.394  31.776  1.00  0.00     0.029 A 
ATOM     59  C   UNL A   1      42.844  28.342  32.592  1.00  0.00     0.049 A 
ATOM     60  H   UNL A   1      41.128  29.513  32.232  1.00  0.00     0.167 HD
ATOM     61  C   UNL A   1      42.578  29.673  34.664  1.00  0.00     0.074 A 
ATOM     62  C   UNL A   1      42.943  30.032  36.020  1.00  0.00     0.031 C 
ATOM     63  C   UNL A   1      43.235  28.755  33.915  1.00  0.00     0.034 A 
BRANCH  50  64
ATOM     64  C   UNL A   1      40.687  27.694  28.395  1.00  0.00     0.023 A 
ATOM     65  C   UNL A   1      41.360  28.246  27.288  1.00  0.00     0.012 A 
ATOM     66  C   UNL A   1      40.143  26.399  28.304  1.00  0.00     0.148 A 
ATOM     67  C   UNL A   1      41.477  27.529  26.099  1.00  0.00     0.002 A 
ATOM     68  C   UNL A   1      40.292  25.675  27.124  1.00  0.00     0.091 A 
ATOM     69  F   UNL A   1      39.487  25.902  29.361  1.00  0.00    -0.205 F 
ATOM     70  C   UNL A   1      40.953  26.240  26.021  1.00  0.00     0.022 A 
BRANCH  68  71
ATOM     71  S   UNL A   1      39.708  23.986  26.947  1.00  0.00     0.127 S 
ATOM     72  O   UNL A   1      40.425  23.550  25.751  1.00  0.00    -0.237 OA
ATOM     73  O   UNL A   1      40.165  23.366  28.192  1.00  0.00    -0.237 OA
ATOM     74  O   UNL A   1      38.260  24.078  26.813  1.00  0.00    -0.744 OA
ENDBRANCH  68  71
ENDBRANCH  50  64
BRANCH  51  75
ATOM     75  C   UNL A   1      39.988  32.946  36.855  1.00  0.00     0.023 A 
ATOM     76  C   UNL A   1      39.034  32.561  37.817  1.00  0.00     0.012 A 
ATOM     77  C   UNL A   1      40.860  34.015  37.141  1.00  0.00     0.148 A 
ATOM     78  C   UNL A   1      38.939  33.235  39.035  1.00  0.00     0.002 A 
ATOM     79  C   UNL A   1      40.792  34.650  38.377  1.00  0.00     0.091 A 
ATOM     80  F   UNL A   1      41.748  34.380  36.206  1.00  0.00    -0.205 F 
ATOM     81  C   UNL A   1      39.826  34.269  39.321  1.00  0.00     0.022 A 
BRANCH  79  82
ATOM     82  S   UNL A   1      41.990  35.896  38.871  1.00  0.00     0.127 S 
ATOM     83  O   UNL A   1      41.658  37.003  37.979  1.00  0.00    -0.237 OA
ATOM     84  O   UNL A   1      41.648  36.114  40.278  1.00  0.00    -0.237 OA
ATOM     85  O   UNL A   1      43.293  35.276  38.667  1.00  0.00    -0.744 OA
ENDBRANCH  79  82
ENDBRANCH  51  75
BRANCH  63  86
ATOM     86  C   UNL A   1      44.427  28.068  34.523  1.00  0.00     0.023 A 
ATOM     87  C   UNL A   1      45.688  28.689  34.453  1.00  0.00     0.012 A 
ATOM     88  C   UNL A   1      44.279  26.878  35.262  1.00  0.00     0.148 A 
ATOM     89  C   UNL A   1      46.788  28.132  35.102  1.00  0.00     0.002 A 
ATOM     90  C   UNL A   1      45.372  26.346  35.936  1.00  0.00     0.091 A 
ATOM     91  F   UNL A   1      43.073  26.290  35.296  1.00  0.00    -0.205 F 
ATOM     92  C   UNL A   1      46.628  26.970  35.854  1.00  0.00     0.022 A 
BRANCH  90  93
ATOM     93  S   UNL A   1      45.229  24.905  37.000  1.00  0.00     0.127 S 
ATOM     94  O   UNL A   1      44.763  23.886  36.061  1.00  0.00    -0.237 OA
ATOM     95  O   UNL A   1      46.603  24.721  37.469  1.00  0.00    -0.237 OA
ATOM     96  O   UNL A   1      44.285  25.278  38.045  1.00  0.00    -0.744 OA
ENDBRANCH  90  93
ENDBRANCH  63  86
ENDBRANCH  37  38
ENDBRANCH  29  32
ENDBRANCH  27  28
ENDBRANCH  26  27
ENDBRANCH  25  26
ENDBRANCH   1  25
TORSDOF 20
ENDMDL
