MODEL 1
REMARK VINA RESULT:     -12.9      0.000      0.000
REMARK SMILES COc1ccccc1[C@@H]1C[N@@H+](Cc2cn3cc(C)ccc3n2)C[C@H]1C(=O)NCCCCNC(=O)c1ccc(-c2c3nc(c(-c4cccc(S(=O)(=O)[O-])c4F)c4ccc([nH]4)c(-c4cccc(S(=O)(=O)[O-])c4F)c4nc(c(-c5cccc(S(=O)(=O)[O-])c5F)c5ccc2[nH]5)C=C4)C=C3)cc1
REMARK SMILES IDX 30 1 29 2 28 3 27 4 25 5 26 6 24 8 9 9 10 10 11 11 23 12
REMARK SMILES IDX 8 14 3 15 4 16 5 17 7 18 6 19 2 20 1 21 12 22 13 23 14 24
REMARK SMILES IDX 22 25 15 26 21 27 16 28 20 29 17 30 19 31 18 32 31 33 32 34
REMARK SMILES IDX 33 35 34 37 35 38 36 39 97 40 37 41 96 42 38 43 39 44 40 45
REMARK SMILES IDX 90 46 41 47 95 48 89 49 91 50 42 51 94 52 88 53 87 54 43 56
REMARK SMILES IDX 75 57 55 58 74 59 56 60 59 61 73 62 92 63 57 64 58 65 72 67
REMARK SMILES IDX 93 68 60 69 44 70 45 71 53 72 46 73 48 74 54 75 47 76 49 77
REMARK SMILES IDX 50 78 51 79 52 80 76 81 77 82 85 83 78 84 80 85 86 86 79 87
REMARK SMILES IDX 81 88 82 89 83 90 84 91 61 92 62 93 70 94 63 95 65 96 71 97
REMARK SMILES IDX 64 98 66 99 67 100 68 101 69 102
REMARK H PARENT 27 7 11 13 32 36 91 55 59 66
REMARK Flexibility Score: inf
ROOT
ATOM      1  C   UNL A   1      38.156  20.933  25.318  1.00  0.00     0.023 C 
ENDROOT
BRANCH   1   2
ATOM      2  C   UNL A   1      37.116  22.043  25.536  1.00  0.00     0.023 C 
BRANCH   2   3
ATOM      3  C   UNL A   1      36.560  22.786  24.300  1.00  0.00     0.116 C 
BRANCH   3   4
ATOM      4  N   UNL A   1      35.726  23.961  24.542  1.00  0.00    -0.356 N 
ATOM      5  C   UNL A   1      34.555  24.501  24.115  1.00  0.00     0.229 C 
ATOM      6  O   UNL A   1      34.310  25.613  24.621  1.00  0.00    -0.275 OA
ATOM      7  H   UNL A   1      36.140  24.538  25.224  1.00  0.00     0.163 HD
BRANCH   5   8
ATOM      8  C   UNL A   1      33.495  23.928  23.148  1.00  0.00     0.146 C 
ATOM      9  C   UNL A   1      32.459  22.970  23.820  1.00  0.00     0.096 C 
ATOM     10  C   UNL A   1      31.135  23.229  23.093  1.00  0.00     0.272 C 
ATOM     11  N   UNL A   1      31.189  24.646  22.708  1.00  0.00    -0.329 N 
ATOM     12  C   UNL A   1      32.601  24.855  22.323  1.00  0.00     0.276 C 
ATOM     13  H   UNL A   1      30.549  24.840  21.937  1.00  0.00     0.348 HD
BRANCH   9  14
ATOM     14  C   UNL A   1      32.716  21.568  24.336  1.00  0.00     0.004 A 
ATOM     15  C   UNL A   1      33.392  21.198  25.497  1.00  0.00     0.122 A 
ATOM     16  C   UNL A   1      33.703  19.844  25.726  1.00  0.00     0.047 A 
ATOM     17  C   UNL A   1      33.360  18.845  24.810  1.00  0.00     0.004 A 
ATOM     18  C   UNL A   1      32.368  20.521  23.434  1.00  0.00     0.008 A 
ATOM     19  C   UNL A   1      32.695  19.188  23.649  1.00  0.00     0.001 A 
BRANCH  15  20
ATOM     20  O   UNL A   1      33.935  22.072  26.396  1.00  0.00    -0.496 OA
ATOM     21  C   UNL A   1      33.842  21.626  27.746  1.00  0.00     0.278 C 
ENDBRANCH  15  20
ENDBRANCH   9  14
BRANCH  11  22
ATOM     22  C   UNL A   1      30.637  25.628  23.684  1.00  0.00     0.321 C 
BRANCH  22  23
ATOM     23  C   UNL A   1      30.060  26.937  23.183  1.00  0.00     0.114 A 
ATOM     24  C   UNL A   1      30.593  27.952  22.397  1.00  0.00     0.122 A 
ATOM     25  N   UNL A   1      28.839  27.353  23.626  1.00  0.00    -0.228 NA
ATOM     26  N   UNL A   1      29.647  28.968  22.378  1.00  0.00    -0.306 N 
ATOM     27  C   UNL A   1      28.534  28.466  23.017  1.00  0.00     0.137 A 
ATOM     28  C   UNL A   1      29.715  30.297  21.953  1.00  0.00     0.096 A 
ATOM     29  C   UNL A   1      27.354  29.253  23.069  1.00  0.00     0.048 A 
ATOM     30  C   UNL A   1      28.643  31.104  22.131  1.00  0.00    -0.034 A 
ATOM     31  C   UNL A   1      27.401  30.526  22.646  1.00  0.00     0.009 A 
ATOM     32  C   UNL A   1      28.657  32.587  21.936  1.00  0.00     0.046 C 
ENDBRANCH  22  23
ENDBRANCH  11  22
ENDBRANCH   5   8
ENDBRANCH   3   4
ENDBRANCH   2   3
ENDBRANCH   1   2
BRANCH   1  33
ATOM     33  C   UNL A   1      39.526  21.083  25.989  1.00  0.00     0.116 C 
BRANCH  33  34
ATOM     34  N   UNL A   1      40.439  19.946  25.794  1.00  0.00    -0.352 N 
ATOM     35  C   UNL A   1      41.834  19.956  25.702  1.00  0.00     0.251 C 
ATOM     36  H   UNL A   1      40.012  19.062  25.718  1.00  0.00     0.163 HD
ATOM     37  O   UNL A   1      42.457  19.050  25.217  1.00  0.00    -0.269 OA
BRANCH  35  38
ATOM     38  C   UNL A   1      42.512  21.140  26.274  1.00  0.00     0.039 A 
ATOM     39  C   UNL A   1      42.655  22.330  25.571  1.00  0.00     0.014 A 
ATOM     40  C   UNL A   1      42.753  21.079  27.634  1.00  0.00     0.014 A 
ATOM     41  C   UNL A   1      42.857  23.500  26.303  1.00  0.00     0.010 A 
ATOM     42  C   UNL A   1      42.710  22.240  28.358  1.00  0.00     0.010 A 
ATOM     43  C   UNL A   1      42.789  23.465  27.710  1.00  0.00    -0.014 A 
BRANCH  43  44
ATOM     44  C   UNL A   1      42.638  24.696  28.490  1.00  0.00     0.031 A 
ATOM     45  C   UNL A   1      41.353  25.421  28.291  1.00  0.00     0.074 A 
ATOM     46  C   UNL A   1      43.467  25.103  29.476  1.00  0.00     0.049 A 
ATOM     47  N   UNL A   1      41.141  26.406  27.482  1.00  0.00    -0.248 NA
ATOM     48  C   UNL A   1      40.135  24.902  28.925  1.00  0.00     0.031 C 
ATOM     49  C   UNL A   1      44.612  24.403  30.075  1.00  0.00     0.029 A 
ATOM     50  N   UNL A   1      43.380  26.228  30.236  1.00  0.00    -0.354 N 
ATOM     51  C   UNL A   1      39.830  26.815  27.722  1.00  0.00     0.074 A 
ATOM     52  C   UNL A   1      39.206  25.711  28.403  1.00  0.00     0.031 C 
ATOM     53  C   UNL A   1      44.938  24.986  31.248  1.00  0.00     0.029 A 
ATOM     54  C   UNL A   1      44.194  26.222  31.358  1.00  0.00     0.049 A 
ATOM     55  H   UNL A   1      42.789  26.982  30.009  1.00  0.00     0.167 HD
ATOM     56  C   UNL A   1      39.475  28.128  27.600  1.00  0.00     0.034 A 
ATOM     57  C   UNL A   1      44.280  27.180  32.306  1.00  0.00     0.034 A 
ATOM     58  C   UNL A   1      40.546  28.888  26.987  1.00  0.00     0.049 A 
ATOM     59  C   UNL A   1      43.837  28.442  31.672  1.00  0.00     0.074 A 
ATOM     60  C   UNL A   1      41.264  28.826  25.809  1.00  0.00     0.029 A 
ATOM     61  N   UNL A   1      41.289  29.672  27.839  1.00  0.00    -0.354 N 
ATOM     62  N   UNL A   1      44.486  29.022  30.699  1.00  0.00    -0.248 NA
ATOM     63  C   UNL A   1      42.458  28.864  31.842  1.00  0.00     0.031 C 
ATOM     64  C   UNL A   1      42.599  29.186  26.170  1.00  0.00     0.029 A 
ATOM     65  C   UNL A   1      42.610  29.516  27.528  1.00  0.00     0.049 A 
ATOM     66  H   UNL A   1      40.930  30.249  28.551  1.00  0.00     0.167 HD
ATOM     67  C   UNL A   1      43.490  29.508  29.864  1.00  0.00     0.074 A 
ATOM     68  C   UNL A   1      42.286  29.517  30.690  1.00  0.00     0.031 C 
ATOM     69  C   UNL A   1      43.675  29.575  28.511  1.00  0.00     0.034 A 
BRANCH  56  70
ATOM     70  C   UNL A   1      38.397  28.855  28.397  1.00  0.00     0.023 A 
ATOM     71  C   UNL A   1      37.609  29.793  27.681  1.00  0.00     0.012 A 
ATOM     72  C   UNL A   1      38.308  28.910  29.805  1.00  0.00     0.148 A 
ATOM     73  C   UNL A   1      36.886  30.803  28.325  1.00  0.00     0.002 A 
ATOM     74  C   UNL A   1      37.538  29.879  30.443  1.00  0.00     0.091 A 
ATOM     75  F   UNL A   1      39.049  28.104  30.562  1.00  0.00    -0.205 F 
ATOM     76  C   UNL A   1      36.858  30.853  29.709  1.00  0.00     0.022 A 
BRANCH  74  77
ATOM     77  S   UNL A   1      37.435  29.969  32.237  1.00  0.00     0.127 S 
ATOM     78  O   UNL A   1      38.774  30.441  32.577  1.00  0.00    -0.237 OA
ATOM     79  O   UNL A   1      36.363  30.947  32.425  1.00  0.00    -0.237 OA
ATOM     80  O   UNL A   1      37.099  28.622  32.679  1.00  0.00    -0.744 OA
ENDBRANCH  74  77
ENDBRANCH  56  70
BRANCH  57  81
ATOM     81  C   UNL A   1      44.583  27.062  33.744  1.00  0.00     0.023 A 
ATOM     82  C   UNL A   1      45.732  27.684  34.269  1.00  0.00     0.012 A 
ATOM     83  C   UNL A   1      43.607  26.583  34.645  1.00  0.00     0.148 A 
ATOM     84  C   UNL A   1      45.878  27.873  35.647  1.00  0.00     0.002 A 
ATOM     85  C   UNL A   1      43.758  26.771  36.015  1.00  0.00     0.091 A 
ATOM     86  F   UNL A   1      42.490  26.028  34.152  1.00  0.00    -0.205 F 
ATOM     87  C   UNL A   1      44.886  27.430  36.518  1.00  0.00     0.022 A 
BRANCH  85  88
ATOM     88  S   UNL A   1      42.508  26.248  37.198  1.00  0.00     0.127 S 
ATOM     89  O   UNL A   1      41.416  27.180  36.918  1.00  0.00    -0.237 OA
ATOM     90  O   UNL A   1      42.260  24.870  36.784  1.00  0.00    -0.237 OA
ATOM     91  O   UNL A   1      43.116  26.419  38.513  1.00  0.00    -0.744 OA
ENDBRANCH  85  88
ENDBRANCH  57  81
BRANCH  69  92
ATOM     92  C   UNL A   1      45.081  29.442  27.975  1.00  0.00     0.023 A 
ATOM     93  C   UNL A   1      45.998  30.513  27.975  1.00  0.00     0.012 A 
ATOM     94  C   UNL A   1      45.537  28.163  27.613  1.00  0.00     0.148 A 
ATOM     95  C   UNL A   1      47.330  30.319  27.599  1.00  0.00     0.002 A 
ATOM     96  C   UNL A   1      46.874  27.962  27.285  1.00  0.00     0.091 A 
ATOM     97  F   UNL A   1      44.657  27.149  27.619  1.00  0.00    -0.205 F 
ATOM     98  C   UNL A   1      47.771  29.041  27.266  1.00  0.00     0.022 A 
BRANCH  96  99
ATOM     99  S   UNL A   1      47.525  26.321  26.970  1.00  0.00     0.127 S 
ATOM    100  O   UNL A   1      46.833  25.947  25.739  1.00  0.00    -0.237 OA
ATOM    101  O   UNL A   1      48.959  26.573  26.814  1.00  0.00    -0.237 OA
ATOM    102  O   UNL A   1      47.190  25.527  28.146  1.00  0.00    -0.744 OA
ENDBRANCH  96  99
ENDBRANCH  69  92
ENDBRANCH  43  44
ENDBRANCH  35  38
ENDBRANCH  33  34
ENDBRANCH   1  33
TORSDOF 18
ENDMDL
MODEL 2
REMARK VINA RESULT:     -12.2      2.992      6.858
REMARK SMILES COc1ccccc1[C@@H]1C[N@@H+](Cc2cn3cc(C)ccc3n2)C[C@H]1C(=O)NCCCCNC(=O)c1ccc(-c2c3nc(c(-c4cccc(S(=O)(=O)[O-])c4F)c4ccc([nH]4)c(-c4cccc(S(=O)(=O)[O-])c4F)c4nc(c(-c5cccc(S(=O)(=O)[O-])c5F)c5ccc2[nH]5)C=C4)C=C3)cc1
REMARK SMILES IDX 30 1 29 2 28 3 27 4 25 5 26 6 24 8 9 9 10 10 11 11 23 12
REMARK SMILES IDX 8 14 3 15 4 16 5 17 7 18 6 19 2 20 1 21 12 22 13 23 14 24
REMARK SMILES IDX 22 25 15 26 21 27 16 28 20 29 17 30 19 31 18 32 31 33 32 34
REMARK SMILES IDX 33 35 34 37 35 38 36 39 97 40 37 41 96 42 38 43 39 44 40 45
REMARK SMILES IDX 90 46 41 47 95 48 89 49 91 50 42 51 94 52 88 53 87 54 43 56
REMARK SMILES IDX 75 57 55 58 74 59 56 60 59 61 73 62 92 63 57 64 58 65 72 67
REMARK SMILES IDX 93 68 60 69 44 70 45 71 53 72 46 73 48 74 54 75 47 76 49 77
REMARK SMILES IDX 50 78 51 79 52 80 76 81 77 82 85 83 78 84 80 85 86 86 79 87
REMARK SMILES IDX 81 88 82 89 83 90 84 91 61 92 62 93 70 94 63 95 65 96 71 97
REMARK SMILES IDX 64 98 66 99 67 100 68 101 69 102
REMARK H PARENT 27 7 11 13 32 36 91 55 59 66
REMARK Flexibility Score: inf
ROOT
ATOM      1  C   UNL A   1      37.479  22.359  25.924  1.00  0.00     0.023 C 
ENDROOT
BRANCH   1   2
ATOM      2  C   UNL A   1      37.421  21.809  24.490  1.00  0.00     0.023 C 
BRANCH   2   3
ATOM      3  C   UNL A   1      36.583  22.573  23.440  1.00  0.00     0.116 C 
BRANCH   3   4
ATOM      4  N   UNL A   1      35.773  23.693  23.914  1.00  0.00    -0.356 N 
ATOM      5  C   UNL A   1      34.538  24.226  23.726  1.00  0.00     0.229 C 
ATOM      6  O   UNL A   1      34.352  25.282  24.361  1.00  0.00    -0.275 OA
ATOM      7  H   UNL A   1      36.278  24.225  24.572  1.00  0.00     0.163 HD
BRANCH   5   8
ATOM      8  C   UNL A   1      33.350  23.700  22.889  1.00  0.00     0.146 C 
ATOM      9  C   UNL A   1      32.410  22.712  23.652  1.00  0.00     0.096 C 
ATOM     10  C   UNL A   1      31.000  23.006  23.129  1.00  0.00     0.272 C 
ATOM     11  N   UNL A   1      31.011  24.440  22.807  1.00  0.00    -0.329 N 
ATOM     12  C   UNL A   1      32.357  24.666  22.240  1.00  0.00     0.276 C 
ATOM     13  H   UNL A   1      30.271  24.670  22.143  1.00  0.00     0.348 HD
BRANCH   9  14
ATOM     14  C   UNL A   1      32.726  21.287  24.061  1.00  0.00     0.004 A 
ATOM     15  C   UNL A   1      33.558  20.862  25.095  1.00  0.00     0.122 A 
ATOM     16  C   UNL A   1      33.887  19.498  25.215  1.00  0.00     0.047 A 
ATOM     17  C   UNL A   1      33.408  18.543  24.313  1.00  0.00     0.004 A 
ATOM     18  C   UNL A   1      32.244  20.284  23.171  1.00  0.00     0.008 A 
ATOM     19  C   UNL A   1      32.586  18.942  23.276  1.00  0.00     0.001 A 
BRANCH  15  20
ATOM     20  O   UNL A   1      34.231  21.691  25.947  1.00  0.00    -0.496 OA
ATOM     21  C   UNL A   1      33.863  21.522  27.312  1.00  0.00     0.278 C 
ENDBRANCH  15  20
ENDBRANCH   9  14
BRANCH  11  22
ATOM     22  C   UNL A   1      30.606  25.375  23.895  1.00  0.00     0.321 C 
BRANCH  22  23
ATOM     23  C   UNL A   1      30.086  26.754  23.542  1.00  0.00     0.114 A 
ATOM     24  C   UNL A   1      30.733  27.947  23.244  1.00  0.00     0.122 A 
ATOM     25  N   UNL A   1      28.749  27.014  23.620  1.00  0.00    -0.228 NA
ATOM     26  N   UNL A   1      29.741  28.912  23.134  1.00  0.00    -0.306 N 
ATOM     27  C   UNL A   1      28.541  28.238  23.216  1.00  0.00     0.137 A 
ATOM     28  C   UNL A   1      29.799  30.306  23.076  1.00  0.00     0.096 A 
ATOM     29  C   UNL A   1      27.332  28.957  23.038  1.00  0.00     0.048 A 
ATOM     30  C   UNL A   1      28.647  31.016  23.054  1.00  0.00    -0.034 A 
ATOM     31  C   UNL A   1      27.375  30.297  22.962  1.00  0.00     0.009 A 
ATOM     32  C   UNL A   1      28.561  32.500  23.223  1.00  0.00     0.046 C 
ENDBRANCH  22  23
ENDBRANCH  11  22
ENDBRANCH   5   8
ENDBRANCH   3   4
ENDBRANCH   2   3
ENDBRANCH   1   2
BRANCH   1  33
ATOM     33  C   UNL A   1      38.771  23.046  26.384  1.00  0.00     0.116 C 
BRANCH  33  34
ATOM     34  N   UNL A   1      39.777  22.145  26.968  1.00  0.00    -0.352 N 
ATOM     35  C   UNL A   1      41.143  22.376  27.161  1.00  0.00     0.251 C 
ATOM     36  H   UNL A   1      39.446  21.265  27.259  1.00  0.00     0.163 HD
ATOM     37  O   UNL A   1      41.931  21.485  27.327  1.00  0.00    -0.269 OA
BRANCH  35  38
ATOM     38  C   UNL A   1      41.563  23.794  27.189  1.00  0.00     0.039 A 
ATOM     39  C   UNL A   1      40.941  24.770  26.419  1.00  0.00     0.014 A 
ATOM     40  C   UNL A   1      42.423  24.132  28.217  1.00  0.00     0.014 A 
ATOM     41  C   UNL A   1      41.054  26.098  26.834  1.00  0.00     0.010 A 
ATOM     42  C   UNL A   1      42.335  25.388  28.755  1.00  0.00     0.010 A 
ATOM     43  C   UNL A   1      41.677  26.396  28.062  1.00  0.00    -0.014 A 
BRANCH  43  44
ATOM     44  C   UNL A   1      41.505  27.704  28.699  1.00  0.00     0.031 A 
ATOM     45  C   UNL A   1      42.476  28.750  28.275  1.00  0.00     0.074 A 
ATOM     46  C   UNL A   1      40.456  28.067  29.469  1.00  0.00     0.049 A 
ATOM     47  N   UNL A   1      43.574  29.071  28.876  1.00  0.00    -0.248 NA
ATOM     48  C   UNL A   1      42.307  29.394  26.967  1.00  0.00     0.031 C 
ATOM     49  C   UNL A   1      39.220  27.328  29.763  1.00  0.00     0.029 A 
ATOM     50  N   UNL A   1      40.237  29.261  30.082  1.00  0.00    -0.354 N 
ATOM     51  C   UNL A   1      44.085  30.159  28.172  1.00  0.00     0.074 A 
ATOM     52  C   UNL A   1      43.419  30.132  26.896  1.00  0.00     0.031 C 
ATOM     53  C   UNL A   1      38.294  28.172  30.265  1.00  0.00     0.029 A 
ATOM     54  C   UNL A   1      38.942  29.434  30.547  1.00  0.00     0.049 A 
ATOM     55  H   UNL A   1      40.938  29.944  30.187  1.00  0.00     0.167 HD
ATOM     56  C   UNL A   1      44.782  31.142  28.815  1.00  0.00     0.034 A 
ATOM     57  C   UNL A   1      38.435  30.529  31.153  1.00  0.00     0.034 A 
ATOM     58  C   UNL A   1      45.079  30.745  30.177  1.00  0.00     0.049 A 
ATOM     59  C   UNL A   1      39.581  31.248  31.753  1.00  0.00     0.074 A 
ATOM     60  C   UNL A   1      45.727  29.690  30.787  1.00  0.00     0.029 A 
ATOM     61  N   UNL A   1      44.306  31.328  31.154  1.00  0.00    -0.354 N 
ATOM     62  N   UNL A   1      40.302  30.760  32.726  1.00  0.00    -0.248 NA
ATOM     63  C   UNL A   1      40.183  32.343  31.016  1.00  0.00     0.031 C 
ATOM     64  C   UNL A   1      44.962  29.417  31.963  1.00  0.00     0.029 A 
ATOM     65  C   UNL A   1      43.935  30.361  32.045  1.00  0.00     0.049 A 
ATOM     66  H   UNL A   1      44.063  32.280  31.204  1.00  0.00     0.167 HD
ATOM     67  C   UNL A   1      41.598  31.153  32.421  1.00  0.00     0.074 A 
ATOM     68  C   UNL A   1      41.439  32.241  31.460  1.00  0.00     0.031 C 
ATOM     69  C   UNL A   1      42.669  30.369  32.752  1.00  0.00     0.034 A 
BRANCH  56  70
ATOM     70  C   UNL A   1      44.833  32.618  28.433  1.00  0.00     0.023 A 
ATOM     71  C   UNL A   1      43.601  33.321  28.469  1.00  0.00     0.012 A 
ATOM     72  C   UNL A   1      45.900  33.261  27.771  1.00  0.00     0.148 A 
ATOM     73  C   UNL A   1      43.409  34.522  27.778  1.00  0.00     0.002 A 
ATOM     74  C   UNL A   1      45.722  34.488  27.136  1.00  0.00     0.091 A 
ATOM     75  F   UNL A   1      47.080  32.657  27.641  1.00  0.00    -0.205 F 
ATOM     76  C   UNL A   1      44.469  35.102  27.100  1.00  0.00     0.022 A 
BRANCH  74  77
ATOM     77  S   UNL A   1      47.072  35.306  26.272  1.00  0.00     0.127 S 
ATOM     78  O   UNL A   1      48.114  35.298  27.295  1.00  0.00    -0.237 OA
ATOM     79  O   UNL A   1      47.298  34.399  25.146  1.00  0.00    -0.237 OA
ATOM     80  O   UNL A   1      46.558  36.615  25.890  1.00  0.00    -0.744 OA
ENDBRANCH  74  77
ENDBRANCH  56  70
BRANCH  57  81
ATOM     81  C   UNL A   1      37.062  31.068  31.135  1.00  0.00     0.023 A 
ATOM     82  C   UNL A   1      36.453  31.468  32.340  1.00  0.00     0.012 A 
ATOM     83  C   UNL A   1      36.460  31.453  29.917  1.00  0.00     0.148 A 
ATOM     84  C   UNL A   1      35.309  32.272  32.332  1.00  0.00     0.002 A 
ATOM     85  C   UNL A   1      35.321  32.251  29.914  1.00  0.00     0.091 A 
ATOM     86  F   UNL A   1      37.058  31.113  28.766  1.00  0.00    -0.205 F 
ATOM     87  C   UNL A   1      34.752  32.676  31.121  1.00  0.00     0.022 A 
BRANCH  85  88
ATOM     88  S   UNL A   1      34.560  32.830  28.391  1.00  0.00     0.127 S 
ATOM     89  O   UNL A   1      33.978  31.599  27.856  1.00  0.00    -0.237 OA
ATOM     90  O   UNL A   1      33.590  33.801  28.889  1.00  0.00    -0.237 OA
ATOM     91  O   UNL A   1      35.650  33.373  27.589  1.00  0.00    -0.744 OA
ENDBRANCH  85  88
ENDBRANCH  57  81
BRANCH  69  92
ATOM     92  C   UNL A   1      42.455  29.250  33.745  1.00  0.00     0.023 A 
ATOM     93  C   UNL A   1      41.671  28.116  33.452  1.00  0.00     0.012 A 
ATOM     94  C   UNL A   1      43.195  29.271  34.939  1.00  0.00     0.148 A 
ATOM     95  C   UNL A   1      41.607  27.039  34.341  1.00  0.00     0.002 A 
ATOM     96  C   UNL A   1      43.167  28.179  35.800  1.00  0.00     0.091 A 
ATOM     97  F   UNL A   1      43.941  30.355  35.206  1.00  0.00    -0.205 F 
ATOM     98  C   UNL A   1      42.365  27.065  35.509  1.00  0.00     0.022 A 
BRANCH  96  99
ATOM     99  S   UNL A   1      44.217  28.103  37.252  1.00  0.00     0.127 S 
ATOM    100  O   UNL A   1      43.680  26.941  37.958  1.00  0.00    -0.237 OA
ATOM    101  O   UNL A   1      45.547  27.906  36.673  1.00  0.00    -0.237 OA
ATOM    102  O   UNL A   1      44.051  29.383  37.930  1.00  0.00    -0.744 OA
ENDBRANCH  96  99
ENDBRANCH  69  92
ENDBRANCH  43  44
ENDBRANCH  35  38
ENDBRANCH  33  34
ENDBRANCH   1  33
TORSDOF 18
ENDMDL
MODEL 3
REMARK VINA RESULT:     -11.8      3.184      8.095
REMARK SMILES COc1ccccc1[C@@H]1C[N@@H+](Cc2cn3cc(C)ccc3n2)C[C@H]1C(=O)NCCCCNC(=O)c1ccc(-c2c3nc(c(-c4cccc(S(=O)(=O)[O-])c4F)c4ccc([nH]4)c(-c4cccc(S(=O)(=O)[O-])c4F)c4nc(c(-c5cccc(S(=O)(=O)[O-])c5F)c5ccc2[nH]5)C=C4)C=C3)cc1
REMARK SMILES IDX 30 1 29 2 28 3 27 4 25 5 26 6 24 8 9 9 10 10 11 11 23 12
REMARK SMILES IDX 8 14 3 15 4 16 5 17 7 18 6 19 2 20 1 21 12 22 13 23 14 24
REMARK SMILES IDX 22 25 15 26 21 27 16 28 20 29 17 30 19 31 18 32 31 33 32 34
REMARK SMILES IDX 33 35 34 37 35 38 36 39 97 40 37 41 96 42 38 43 39 44 40 45
REMARK SMILES IDX 90 46 41 47 95 48 89 49 91 50 42 51 94 52 88 53 87 54 43 56
REMARK SMILES IDX 75 57 55 58 74 59 56 60 59 61 73 62 92 63 57 64 58 65 72 67
REMARK SMILES IDX 93 68 60 69 44 70 45 71 53 72 46 73 48 74 54 75 47 76 49 77
REMARK SMILES IDX 50 78 51 79 52 80 76 81 77 82 85 83 78 84 80 85 86 86 79 87
REMARK SMILES IDX 81 88 82 89 83 90 84 91 61 92 62 93 70 94 63 95 65 96 71 97
REMARK SMILES IDX 64 98 66 99 67 100 68 101 69 102
REMARK H PARENT 27 7 11 13 32 36 91 55 59 66
REMARK Flexibility Score: inf
ROOT
ATOM      1  C   UNL A   1      36.838  23.395  26.219  1.00  0.00     0.023 C 
ENDROOT
BRANCH   1   2
ATOM      2  C   UNL A   1      36.146  24.119  25.053  1.00  0.00     0.023 C 
BRANCH   2   3
ATOM      3  C   UNL A   1      34.601  24.166  25.028  1.00  0.00     0.116 C 
BRANCH   3   4
ATOM      4  N   UNL A   1      33.957  25.347  25.598  1.00  0.00    -0.356 N 
ATOM      5  C   UNL A   1      32.720  25.902  25.697  1.00  0.00     0.229 C 
ATOM      6  O   UNL A   1      32.720  27.011  26.263  1.00  0.00    -0.275 OA
ATOM      7  H   UNL A   1      34.623  25.914  26.050  1.00  0.00     0.163 HD
BRANCH   5   8
ATOM      8  C   UNL A   1      31.348  25.347  25.253  1.00  0.00     0.146 C 
ATOM      9  C   UNL A   1      30.969  25.674  23.773  1.00  0.00     0.096 C 
ATOM     10  C   UNL A   1      30.200  24.447  23.270  1.00  0.00     0.272 C 
ATOM     11  N   UNL A   1      30.784  23.313  24.000  1.00  0.00    -0.329 N 
ATOM     12  C   UNL A   1      31.034  23.853  25.353  1.00  0.00     0.276 C 
ATOM     13  H   UNL A   1      30.143  22.520  24.016  1.00  0.00     0.348 HD
BRANCH   9  14
ATOM     14  C   UNL A   1      30.581  27.027  23.209  1.00  0.00     0.004 A 
ATOM     15  C   UNL A   1      31.421  27.991  22.655  1.00  0.00     0.122 A 
ATOM     16  C   UNL A   1      30.916  29.271  22.353  1.00  0.00     0.047 A 
ATOM     17  C   UNL A   1      29.584  29.614  22.603  1.00  0.00     0.004 A 
ATOM     18  C   UNL A   1      29.226  27.408  23.435  1.00  0.00     0.008 A 
ATOM     19  C   UNL A   1      28.734  28.677  23.157  1.00  0.00     0.001 A 
BRANCH  15  20
ATOM     20  O   UNL A   1      32.773  27.858  22.509  1.00  0.00    -0.496 OA
ATOM     21  C   UNL A   1      33.522  28.734  23.346  1.00  0.00     0.278 C 
ENDBRANCH  15  20
ENDBRANCH   9  14
BRANCH  11  22
ATOM     22  C   UNL A   1      31.941  22.627  23.357  1.00  0.00     0.321 C 
BRANCH  22  23
ATOM     23  C   UNL A   1      32.245  21.184  23.710  1.00  0.00     0.114 A 
ATOM     24  C   UNL A   1      32.614  20.573  24.902  1.00  0.00     0.122 A 
ATOM     25  N   UNL A   1      32.317  20.247  22.722  1.00  0.00    -0.228 NA
ATOM     26  N   UNL A   1      32.889  19.248  24.591  1.00  0.00    -0.306 N 
ATOM     27  C   UNL A   1      32.530  19.082  23.271  1.00  0.00     0.137 A 
ATOM     28  C   UNL A   1      33.511  18.230  25.319  1.00  0.00     0.096 A 
ATOM     29  C   UNL A   1      32.609  17.789  22.692  1.00  0.00     0.048 A 
ATOM     30  C   UNL A   1      33.727  17.032  24.728  1.00  0.00    -0.034 A 
ATOM     31  C   UNL A   1      33.188  16.797  23.387  1.00  0.00     0.009 A 
ATOM     32  C   UNL A   1      34.576  15.943  25.303  1.00  0.00     0.046 C 
ENDBRANCH  22  23
ENDBRANCH  11  22
ENDBRANCH   5   8
ENDBRANCH   3   4
ENDBRANCH   2   3
ENDBRANCH   1   2
BRANCH   1  33
ATOM     33  C   UNL A   1      38.303  23.735  26.515  1.00  0.00     0.116 C 
BRANCH  33  34
ATOM     34  N   UNL A   1      39.206  22.576  26.591  1.00  0.00    -0.352 N 
ATOM     35  C   UNL A   1      40.603  22.557  26.546  1.00  0.00     0.251 C 
ATOM     36  H   UNL A   1      38.768  21.699  26.685  1.00  0.00     0.163 HD
ATOM     37  O   UNL A   1      41.228  21.565  26.281  1.00  0.00    -0.269 OA
BRANCH  35  38
ATOM     38  C   UNL A   1      41.280  23.828  26.883  1.00  0.00     0.039 A 
ATOM     39  C   UNL A   1      41.278  24.923  26.028  1.00  0.00     0.014 A 
ATOM     40  C   UNL A   1      41.678  23.951  28.202  1.00  0.00     0.014 A 
ATOM     41  C   UNL A   1      41.501  26.184  26.582  1.00  0.00     0.010 A 
ATOM     42  C   UNL A   1      41.657  25.192  28.778  1.00  0.00     0.010 A 
ATOM     43  C   UNL A   1      41.597  26.327  27.980  1.00  0.00    -0.014 A 
BRANCH  43  44
ATOM     44  C   UNL A   1      41.472  27.641  28.616  1.00  0.00     0.031 A 
ATOM     45  C   UNL A   1      42.463  28.659  28.171  1.00  0.00     0.074 A 
ATOM     46  C   UNL A   1      40.447  28.033  29.405  1.00  0.00     0.049 A 
ATOM     47  N   UNL A   1      43.580  28.952  28.751  1.00  0.00    -0.248 NA
ATOM     48  C   UNL A   1      42.286  29.305  26.865  1.00  0.00     0.031 C 
ATOM     49  C   UNL A   1      39.198  27.328  29.724  1.00  0.00     0.029 A 
ATOM     50  N   UNL A   1      40.273  29.234  30.019  1.00  0.00    -0.354 N 
ATOM     51  C   UNL A   1      44.106  30.025  28.034  1.00  0.00     0.074 A 
ATOM     52  C   UNL A   1      43.416  30.013  26.771  1.00  0.00     0.031 C 
ATOM     53  C   UNL A   1      38.305  28.197  30.241  1.00  0.00     0.029 A 
ATOM     54  C   UNL A   1      38.991  29.442  30.507  1.00  0.00     0.049 A 
ATOM     55  H   UNL A   1      40.993  29.899  30.109  1.00  0.00     0.167 HD
ATOM     56  C   UNL A   1      44.841  30.990  28.661  1.00  0.00     0.034 A 
ATOM     57  C   UNL A   1      38.526  30.552  31.121  1.00  0.00     0.034 A 
ATOM     58  C   UNL A   1      45.153  30.588  30.018  1.00  0.00     0.049 A 
ATOM     59  C   UNL A   1      39.701  31.241  31.697  1.00  0.00     0.074 A 
ATOM     60  C   UNL A   1      45.784  29.517  30.620  1.00  0.00     0.029 A 
ATOM     61  N   UNL A   1      44.415  31.194  31.008  1.00  0.00    -0.354 N 
ATOM     62  N   UNL A   1      40.428  30.736  32.658  1.00  0.00    -0.248 NA
ATOM     63  C   UNL A   1      40.319  32.318  30.946  1.00  0.00     0.031 C 
ATOM     64  C   UNL A   1      45.035  29.268  31.810  1.00  0.00     0.029 A 
ATOM     65  C   UNL A   1      44.035  30.239  31.909  1.00  0.00     0.049 A 
ATOM     66  H   UNL A   1      44.198  32.152  31.060  1.00  0.00     0.167 HD
ATOM     67  C   UNL A   1      41.728  31.094  32.327  1.00  0.00     0.074 A 
ATOM     68  C   UNL A   1      41.580  32.183  31.366  1.00  0.00     0.031 C 
ATOM     69  C   UNL A   1      42.783  30.282  32.639  1.00  0.00     0.034 A 
BRANCH  56  70
ATOM     70  C   UNL A   1      44.924  32.463  28.275  1.00  0.00     0.023 A 
ATOM     71  C   UNL A   1      46.227  32.992  28.081  1.00  0.00     0.012 A 
ATOM     72  C   UNL A   1      43.878  33.405  28.386  1.00  0.00     0.148 A 
ATOM     73  C   UNL A   1      46.488  34.365  28.129  1.00  0.00     0.002 A 
ATOM     74  C   UNL A   1      44.134  34.774  28.371  1.00  0.00     0.091 A 
ATOM     75  F   UNL A   1      42.630  33.006  28.620  1.00  0.00    -0.205 F 
ATOM     76  C   UNL A   1      45.440  35.259  28.285  1.00  0.00     0.022 A 
BRANCH  74  77
ATOM     77  S   UNL A   1      42.810  35.981  28.532  1.00  0.00     0.127 S 
ATOM     78  O   UNL A   1      42.036  35.721  27.321  1.00  0.00    -0.237 OA
ATOM     79  O   UNL A   1      42.173  35.561  29.781  1.00  0.00    -0.237 OA
ATOM     80  O   UNL A   1      43.469  37.279  28.605  1.00  0.00    -0.744 OA
ENDBRANCH  74  77
ENDBRANCH  56  70
BRANCH  57  81
ATOM     81  C   UNL A   1      37.168  31.127  31.127  1.00  0.00     0.023 A 
ATOM     82  C   UNL A   1      36.619  31.608  32.331  1.00  0.00     0.012 A 
ATOM     83  C   UNL A   1      36.527  31.463  29.914  1.00  0.00     0.148 A 
ATOM     84  C   UNL A   1      35.497  32.443  32.324  1.00  0.00     0.002 A 
ATOM     85  C   UNL A   1      35.409  32.291  29.912  1.00  0.00     0.091 A 
ATOM     86  F   UNL A   1      37.067  31.045  28.761  1.00  0.00    -0.205 F 
ATOM     87  C   UNL A   1      34.901  32.796  31.116  1.00  0.00     0.022 A 
BRANCH  85  88
ATOM     88  S   UNL A   1      34.602  32.808  28.391  1.00  0.00     0.127 S 
ATOM     89  O   UNL A   1      33.645  33.804  28.878  1.00  0.00    -0.237 OA
ATOM     90  O   UNL A   1      35.719  33.354  27.627  1.00  0.00    -0.237 OA
ATOM     91  O   UNL A   1      33.985  31.606  27.845  1.00  0.00    -0.744 OA
ENDBRANCH  85  88
ENDBRANCH  57  81
BRANCH  69  92
ATOM     92  C   UNL A   1      42.559  29.172  33.639  1.00  0.00     0.023 A 
ATOM     93  C   UNL A   1      41.795  28.025  33.340  1.00  0.00     0.012 A 
ATOM     94  C   UNL A   1      43.269  29.214  34.851  1.00  0.00     0.148 A 
ATOM     95  C   UNL A   1      41.722  26.957  34.239  1.00  0.00     0.002 A 
ATOM     96  C   UNL A   1      43.232  28.131  35.722  1.00  0.00     0.091 A 
ATOM     97  F   UNL A   1      43.995  30.310  35.124  1.00  0.00    -0.205 F 
ATOM     98  C   UNL A   1      42.451  27.004  35.425  1.00  0.00     0.022 A 
BRANCH  96  99
ATOM     99  S   UNL A   1      44.247  28.083  37.201  1.00  0.00     0.127 S 
ATOM    100  O   UNL A   1      43.917  29.356  37.840  1.00  0.00    -0.237 OA
ATOM    101  O   UNL A   1      43.740  26.900  37.897  1.00  0.00    -0.237 OA
ATOM    102  O   UNL A   1      45.623  27.951  36.735  1.00  0.00    -0.744 OA
ENDBRANCH  96  99
ENDBRANCH  69  92
ENDBRANCH  43  44
ENDBRANCH  35  38
ENDBRANCH  33  34
ENDBRANCH   1  33
TORSDOF 18
ENDMDL
