MODEL 1
REMARK VINA RESULT:     -11.3      0.000      0.000
REMARK SMILES O=C(CSC(=S)NC(=O)c1ccc([N+](=O)[O-])cc1)NCCCCNC(=O)c1ccc(-c2c3nc(c(-c4cccc(S(=O)(=O)[O-])c4F)c4ccc([nH]4)c(-c4cccc(S(=O)(=O)[O-])c4F)c4nc(c(-c5cccc(S(=O)(=O)[O-])c5F)c5ccc2[nH]5)C=C4)C=C3)cc1
REMARK SMILES IDX 20 1 19 2 1 3 2 4 3 6 4 7 5 8 6 9 7 10 8 11 9 13 10 14 11 15
REMARK SMILES IDX 18 16 12 17 17 18 13 19 14 20 15 21 16 22 21 23 22 24 23 25
REMARK SMILES IDX 24 26 25 27 26 29 27 30 28 31 89 32 29 33 88 34 30 35 31 36
REMARK SMILES IDX 32 37 82 38 33 39 87 40 81 41 83 42 34 43 86 44 80 45 79 46
REMARK SMILES IDX 35 48 67 49 47 50 66 51 48 52 51 53 65 54 84 55 49 56 50 57
REMARK SMILES IDX 64 59 85 60 52 61 36 62 37 63 45 64 38 65 40 66 46 67 39 68
REMARK SMILES IDX 41 69 42 70 43 71 44 72 68 73 69 74 77 75 70 76 72 77 78 78
REMARK SMILES IDX 71 79 73 80 74 81 75 82 76 83 53 84 54 85 62 86 55 87 57 88
REMARK SMILES IDX 63 89 56 90 58 91 59 92 60 93 61 94
REMARK H PARENT 19 5 7 12 24 28 83 47 51 58
REMARK Flexibility Score: inf
ROOT
ATOM      1  C   UNL A   1      31.247  26.611  26.274  1.00  0.00     0.116 C 
ENDROOT
BRANCH   1   2
ATOM      2  N   UNL A   1      31.103  25.210  26.588  1.00  0.00    -0.355 N 
ATOM      3  O   UNL A   1      31.055  24.409  24.433  1.00  0.00    -0.274 OA
ATOM      4  C   UNL A   1      31.090  24.207  25.643  1.00  0.00     0.230 C 
ATOM      5  H   UNL A   1      31.008  24.955  27.534  1.00  0.00     0.163 HD
BRANCH   4   6
ATOM      6  C   UNL A   1      31.038  22.804  26.233  1.00  0.00     0.177 C 
BRANCH   6   7
ATOM      7  S   UNL A   1      32.713  22.179  26.568  1.00  0.00    -0.087 SA
BRANCH   7   8
ATOM      8  C   UNL A   1      33.415  21.915  24.992  1.00  0.00     0.141 C 
ATOM      9  S   UNL A   1      35.048  21.930  24.629  1.00  0.00    -0.052 S 
BRANCH   8  10
ATOM     10  N   UNL A   1      32.544  21.539  23.965  1.00  0.00    -0.307 N 
ATOM     11  C   UNL A   1      32.287  20.401  23.195  1.00  0.00     0.256 C 
ATOM     12  H   UNL A   1      31.946  22.281  23.717  1.00  0.00     0.171 HD
ATOM     13  O   UNL A   1      31.781  20.512  22.082  1.00  0.00    -0.269 OA
BRANCH  11  14
ATOM     14  C   UNL A   1      32.631  19.065  23.714  1.00  0.00     0.040 A 
ATOM     15  C   UNL A   1      33.003  18.059  22.813  1.00  0.00     0.021 A 
ATOM     16  C   UNL A   1      32.618  18.823  25.095  1.00  0.00     0.021 A 
ATOM     17  C   UNL A   1      33.464  16.831  23.300  1.00  0.00     0.086 A 
ATOM     18  C   UNL A   1      33.091  17.605  25.584  1.00  0.00     0.086 A 
ATOM     19  C   UNL A   1      33.532  16.622  24.685  1.00  0.00     0.269 A 
BRANCH  19  20
ATOM     20  N   UNL A   1      34.098  15.375  25.210  1.00  0.00     0.062 N 
ATOM     21  O   UNL A   1      33.318  14.445  25.445  1.00  0.00    -0.258 OA
ATOM     22  O   UNL A   1      35.325  15.339  25.383  1.00  0.00    -0.258 OA
ENDBRANCH  19  20
ENDBRANCH  11  14
ENDBRANCH   8  10
ENDBRANCH   7   8
ENDBRANCH   6   7
ENDBRANCH   4   6
ENDBRANCH   1   2
BRANCH   1  23
ATOM     23  C   UNL A   1      32.707  27.053  26.254  1.00  0.00     0.023 C 
BRANCH  23  24
ATOM     24  C   UNL A   1      33.013  28.345  27.021  1.00  0.00     0.023 C 
BRANCH  24  25
ATOM     25  C   UNL A   1      33.844  29.384  26.273  1.00  0.00     0.116 C 
BRANCH  25  26
ATOM     26  N   UNL A   1      33.791  30.700  26.890  1.00  0.00    -0.352 N 
ATOM     27  C   UNL A   1      34.592  31.248  27.863  1.00  0.00     0.251 C 
ATOM     28  H   UNL A   1      33.074  31.288  26.562  1.00  0.00     0.163 HD
ATOM     29  O   UNL A   1      34.282  32.330  28.363  1.00  0.00    -0.269 OA
BRANCH  27  30
ATOM     30  C   UNL A   1      35.806  30.541  28.332  1.00  0.00     0.039 A 
ATOM     31  C   UNL A   1      36.999  30.712  27.624  1.00  0.00     0.014 A 
ATOM     32  C   UNL A   1      35.774  29.702  29.449  1.00  0.00     0.014 A 
ATOM     33  C   UNL A   1      38.171  30.097  28.074  1.00  0.00     0.010 A 
ATOM     34  C   UNL A   1      36.958  29.150  29.939  1.00  0.00     0.010 A 
ATOM     35  C   UNL A   1      38.170  29.341  29.258  1.00  0.00    -0.014 A 
BRANCH  35  36
ATOM     36  C   UNL A   1      39.428  28.764  29.806  1.00  0.00     0.031 A 
ATOM     37  C   UNL A   1      40.088  29.371  31.016  1.00  0.00     0.074 A 
ATOM     38  C   UNL A   1      40.024  27.738  29.164  1.00  0.00     0.049 A 
ATOM     39  N   UNL A   1      41.214  29.040  31.594  1.00  0.00    -0.248 NA
ATOM     40  C   UNL A   1      39.407  30.515  31.644  1.00  0.00     0.031 C 
ATOM     41  C   UNL A   1      39.529  27.105  27.940  1.00  0.00     0.029 A 
ATOM     42  N   UNL A   1      41.190  27.065  29.435  1.00  0.00    -0.354 N 
ATOM     43  C   UNL A   1      41.393  29.950  32.630  1.00  0.00     0.074 A 
ATOM     44  C   UNL A   1      40.277  30.869  32.580  1.00  0.00     0.031 C 
ATOM     45  C   UNL A   1      40.383  26.138  27.567  1.00  0.00     0.029 A 
ATOM     46  C   UNL A   1      41.504  26.105  28.501  1.00  0.00     0.049 A 
ATOM     47  H   UNL A   1      41.750  27.253  30.223  1.00  0.00     0.167 HD
ATOM     48  C   UNL A   1      42.381  30.001  33.557  1.00  0.00     0.034 A 
ATOM     49  C   UNL A   1      42.578  25.297  28.396  1.00  0.00     0.034 A 
ATOM     50  C   UNL A   1      43.474  29.068  33.625  1.00  0.00     0.049 A 
ATOM     51  C   UNL A   1      43.650  25.360  29.450  1.00  0.00     0.074 A 
ATOM     52  C   UNL A   1      44.479  28.990  34.574  1.00  0.00     0.029 A 
ATOM     53  N   UNL A   1      43.715  28.059  32.707  1.00  0.00    -0.354 N 
ATOM     54  N   UNL A   1      43.721  26.129  30.510  1.00  0.00    -0.248 NA
ATOM     55  C   UNL A   1      44.771  24.418  29.317  1.00  0.00     0.031 C 
ATOM     56  C   UNL A   1      45.346  27.956  34.210  1.00  0.00     0.029 A 
ATOM     57  C   UNL A   1      44.859  27.361  33.057  1.00  0.00     0.049 A 
ATOM     58  H   UNL A   1      43.155  27.867  31.920  1.00  0.00     0.167 HD
ATOM     59  C   UNL A   1      44.871  25.740  31.187  1.00  0.00     0.074 A 
ATOM     60  C   UNL A   1      45.453  24.651  30.430  1.00  0.00     0.031 C 
ATOM     61  C   UNL A   1      45.403  26.246  32.326  1.00  0.00     0.034 A 
BRANCH  48  62
ATOM     62  C   UNL A   1      42.303  31.080  34.607  1.00  0.00     0.023 A 
ATOM     63  C   UNL A   1      41.607  30.834  35.809  1.00  0.00     0.012 A 
ATOM     64  C   UNL A   1      42.968  32.310  34.434  1.00  0.00     0.148 A 
ATOM     65  C   UNL A   1      41.544  31.807  36.806  1.00  0.00     0.002 A 
ATOM     66  C   UNL A   1      42.941  33.255  35.454  1.00  0.00     0.091 A 
ATOM     67  F   UNL A   1      43.610  32.533  33.280  1.00  0.00    -0.205 F 
ATOM     68  C   UNL A   1      42.219  33.011  36.634  1.00  0.00     0.022 A 
BRANCH  66  69
ATOM     69  S   UNL A   1      43.845  34.805  35.364  1.00  0.00     0.127 S 
ATOM     70  O   UNL A   1      43.455  35.297  34.043  1.00  0.00    -0.237 OA
ATOM     71  O   UNL A   1      43.278  35.556  36.485  1.00  0.00    -0.237 OA
ATOM     72  O   UNL A   1      45.252  34.461  35.511  1.00  0.00    -0.744 OA
ENDBRANCH  66  69
ENDBRANCH  48  62
BRANCH  49  73
ATOM     73  C   UNL A   1      42.673  24.324  27.271  1.00  0.00     0.023 A 
ATOM     74  C   UNL A   1      43.360  24.685  26.094  1.00  0.00     0.012 A 
ATOM     75  C   UNL A   1      42.104  23.040  27.365  1.00  0.00     0.148 A 
ATOM     76  C   UNL A   1      43.444  23.799  25.019  1.00  0.00     0.002 A 
ATOM     77  C   UNL A   1      42.242  22.141  26.313  1.00  0.00     0.091 A 
ATOM     78  F   UNL A   1      41.447  22.718  28.488  1.00  0.00    -0.205 F 
ATOM     79  C   UNL A   1      42.894  22.526  25.132  1.00  0.00     0.022 A 
BRANCH  77  80
ATOM     80  S   UNL A   1      41.685  20.437  26.423  1.00  0.00     0.127 S 
ATOM     81  O   UNL A   1      42.439  19.806  25.342  1.00  0.00    -0.237 OA
ATOM     82  O   UNL A   1      42.116  20.067  27.772  1.00  0.00    -0.237 OA
ATOM     83  O   UNL A   1      40.241  20.484  26.247  1.00  0.00    -0.744 OA
ENDBRANCH  77  80
ENDBRANCH  49  73
BRANCH  61  84
ATOM     84  C   UNL A   1      46.657  25.603  32.860  1.00  0.00     0.023 A 
ATOM     85  C   UNL A   1      47.922  26.103  32.491  1.00  0.00     0.012 A 
ATOM     86  C   UNL A   1      46.578  24.545  33.788  1.00  0.00     0.148 A 
ATOM     87  C   UNL A   1      49.087  25.537  33.007  1.00  0.00     0.002 A 
ATOM     88  C   UNL A   1      47.741  24.021  34.339  1.00  0.00     0.091 A 
ATOM     89  F   UNL A   1      45.367  24.070  34.115  1.00  0.00    -0.205 F 
ATOM     90  C   UNL A   1      48.996  24.505  33.939  1.00  0.00     0.022 A 
BRANCH  88  91
ATOM     91  S   UNL A   1      47.719  22.760  35.618  1.00  0.00     0.127 S 
ATOM     92  O   UNL A   1      47.098  21.637  34.919  1.00  0.00    -0.237 OA
ATOM     93  O   UNL A   1      49.144  22.587  35.905  1.00  0.00    -0.237 OA
ATOM     94  O   UNL A   1      46.944  23.315  36.719  1.00  0.00    -0.744 OA
ENDBRANCH  88  91
ENDBRANCH  61  84
ENDBRANCH  35  36
ENDBRANCH  27  30
ENDBRANCH  25  26
ENDBRANCH  24  25
ENDBRANCH  23  24
ENDBRANCH   1  23
TORSDOF 19
ENDMDL
MODEL 2
REMARK VINA RESULT:     -11.2      2.083      2.693
REMARK SMILES O=C(CSC(=S)NC(=O)c1ccc([N+](=O)[O-])cc1)NCCCCNC(=O)c1ccc(-c2c3nc(c(-c4cccc(S(=O)(=O)[O-])c4F)c4ccc([nH]4)c(-c4cccc(S(=O)(=O)[O-])c4F)c4nc(c(-c5cccc(S(=O)(=O)[O-])c5F)c5ccc2[nH]5)C=C4)C=C3)cc1
REMARK SMILES IDX 20 1 19 2 1 3 2 4 3 6 4 7 5 8 6 9 7 10 8 11 9 13 10 14 11 15
REMARK SMILES IDX 18 16 12 17 17 18 13 19 14 20 15 21 16 22 21 23 22 24 23 25
REMARK SMILES IDX 24 26 25 27 26 29 27 30 28 31 89 32 29 33 88 34 30 35 31 36
REMARK SMILES IDX 32 37 82 38 33 39 87 40 81 41 83 42 34 43 86 44 80 45 79 46
REMARK SMILES IDX 35 48 67 49 47 50 66 51 48 52 51 53 65 54 84 55 49 56 50 57
REMARK SMILES IDX 64 59 85 60 52 61 36 62 37 63 45 64 38 65 40 66 46 67 39 68
REMARK SMILES IDX 41 69 42 70 43 71 44 72 68 73 69 74 77 75 70 76 72 77 78 78
REMARK SMILES IDX 71 79 73 80 74 81 75 82 76 83 53 84 54 85 62 86 55 87 57 88
REMARK SMILES IDX 63 89 56 90 58 91 59 92 60 93 61 94
REMARK H PARENT 19 5 7 12 24 28 83 47 51 58
REMARK Flexibility Score: inf
ROOT
ATOM      1  C   UNL A   1      33.575  26.653  25.864  1.00  0.00     0.116 C 
ENDROOT
BRANCH   1   2
ATOM      2  N   UNL A   1      32.793  25.614  25.238  1.00  0.00    -0.355 N 
ATOM      3  O   UNL A   1      31.569  24.988  27.082  1.00  0.00    -0.274 OA
ATOM      4  C   UNL A   1      31.798  24.908  25.879  1.00  0.00     0.230 C 
ATOM      5  H   UNL A   1      32.983  25.396  24.297  1.00  0.00     0.163 HD
BRANCH   4   6
ATOM      6  C   UNL A   1      31.045  23.943  24.972  1.00  0.00     0.177 C 
BRANCH   6   7
ATOM      7  S   UNL A   1      31.539  22.224  25.303  1.00  0.00    -0.087 SA
BRANCH   7   8
ATOM      8  C   UNL A   1      32.567  21.787  23.962  1.00  0.00     0.141 C 
ATOM      9  S   UNL A   1      32.131  21.796  22.347  1.00  0.00    -0.052 S 
BRANCH   8  10
ATOM     10  N   UNL A   1      33.909  21.521  24.253  1.00  0.00    -0.307 N 
ATOM     11  C   UNL A   1      34.649  20.506  24.867  1.00  0.00     0.256 C 
ATOM     12  H   UNL A   1      34.492  22.248  23.938  1.00  0.00     0.171 HD
ATOM     13  O   UNL A   1      35.739  20.759  25.371  1.00  0.00    -0.269 OA
BRANCH  11  14
ATOM     14  C   UNL A   1      34.118  19.132  24.917  1.00  0.00     0.040 A 
ATOM     15  C   UNL A   1      34.832  18.102  24.291  1.00  0.00     0.021 A 
ATOM     16  C   UNL A   1      32.934  18.861  25.616  1.00  0.00     0.021 A 
ATOM     17  C   UNL A   1      34.414  16.777  24.448  1.00  0.00     0.086 A 
ATOM     18  C   UNL A   1      32.522  17.539  25.787  1.00  0.00     0.086 A 
ATOM     19  C   UNL A   1      33.277  16.501  25.220  1.00  0.00     0.269 A 
BRANCH  19  20
ATOM     20  N   UNL A   1      32.881  15.110  25.468  1.00  0.00     0.062 N 
ATOM     21  O   UNL A   1      33.753  14.239  25.376  1.00  0.00    -0.258 OA
ATOM     22  O   UNL A   1      31.692  14.903  25.753  1.00  0.00    -0.258 OA
ENDBRANCH  19  20
ENDBRANCH  11  14
ENDBRANCH   8  10
ENDBRANCH   7   8
ENDBRANCH   6   7
ENDBRANCH   4   6
ENDBRANCH   1   2
BRANCH   1  23
ATOM     23  C   UNL A   1      33.776  27.857  24.950  1.00  0.00     0.023 C 
BRANCH  23  24
ATOM     24  C   UNL A   1      32.655  28.903  24.985  1.00  0.00     0.023 C 
BRANCH  24  25
ATOM     25  C   UNL A   1      32.232  29.381  26.371  1.00  0.00     0.116 C 
BRANCH  25  26
ATOM     26  N   UNL A   1      32.197  30.831  26.483  1.00  0.00    -0.352 N 
ATOM     27  C   UNL A   1      33.043  31.682  27.151  1.00  0.00     0.251 C 
ATOM     28  H   UNL A   1      31.454  31.269  26.009  1.00  0.00     0.163 HD
ATOM     29  O   UNL A   1      32.748  32.873  27.250  1.00  0.00    -0.269 OA
BRANCH  27  30
ATOM     30  C   UNL A   1      34.292  31.179  27.769  1.00  0.00     0.039 A 
ATOM     31  C   UNL A   1      35.346  32.072  27.980  1.00  0.00     0.014 A 
ATOM     32  C   UNL A   1      34.437  29.836  28.125  1.00  0.00     0.014 A 
ATOM     33  C   UNL A   1      36.516  31.635  28.608  1.00  0.00     0.010 A 
ATOM     34  C   UNL A   1      35.574  29.418  28.817  1.00  0.00     0.010 A 
ATOM     35  C   UNL A   1      36.626  30.312  29.067  1.00  0.00    -0.014 A 
BRANCH  35  36
ATOM     36  C   UNL A   1      37.823  29.857  29.827  1.00  0.00     0.031 A 
ATOM     37  C   UNL A   1      38.104  30.389  31.207  1.00  0.00     0.074 A 
ATOM     38  C   UNL A   1      38.704  29.021  29.240  1.00  0.00     0.049 A 
ATOM     39  N   UNL A   1      39.125  30.152  31.990  1.00  0.00    -0.248 NA
ATOM     40  C   UNL A   1      37.123  31.329  31.773  1.00  0.00     0.031 C 
ATOM     41  C   UNL A   1      38.589  28.489  27.880  1.00  0.00     0.029 A 
ATOM     42  N   UNL A   1      39.886  28.495  29.701  1.00  0.00    -0.354 N 
ATOM     43  C   UNL A   1      38.928  30.933  33.123  1.00  0.00     0.074 A 
ATOM     44  C   UNL A   1      37.707  31.680  32.910  1.00  0.00     0.031 C 
ATOM     45  C   UNL A   1      39.654  27.714  27.618  1.00  0.00     0.029 A 
ATOM     46  C   UNL A   1      40.545  27.721  28.773  1.00  0.00     0.049 A 
ATOM     47  H   UNL A   1      40.230  28.656  30.610  1.00  0.00     0.167 HD
ATOM     48  C   UNL A   1      39.678  31.005  34.249  1.00  0.00     0.034 A 
ATOM     49  C   UNL A   1      41.740  27.098  28.837  1.00  0.00     0.034 A 
ATOM     50  C   UNL A   1      40.876  30.239  34.472  1.00  0.00     0.049 A 
ATOM     51  C   UNL A   1      42.543  27.177  30.107  1.00  0.00     0.074 A 
ATOM     52  C   UNL A   1      41.661  30.185  35.611  1.00  0.00     0.029 A 
ATOM     53  N   UNL A   1      41.470  29.405  33.539  1.00  0.00    -0.354 N 
ATOM     54  N   UNL A   1      42.260  27.803  31.224  1.00  0.00    -0.248 NA
ATOM     55  C   UNL A   1      43.811  26.433  30.140  1.00  0.00     0.031 C 
ATOM     56  C   UNL A   1      42.748  29.344  35.355  1.00  0.00     0.029 A 
ATOM     57  C   UNL A   1      42.619  28.842  34.070  1.00  0.00     0.049 A 
ATOM     58  H   UNL A   1      41.127  29.239  32.631  1.00  0.00     0.167 HD
ATOM     59  C   UNL A   1      43.294  27.499  32.102  1.00  0.00     0.074 A 
ATOM     60  C   UNL A   1      44.197  26.615  31.395  1.00  0.00     0.031 C 
ATOM     61  C   UNL A   1      43.484  27.923  33.376  1.00  0.00     0.034 A 
BRANCH  48  62
ATOM     62  C   UNL A   1      39.201  31.914  35.353  1.00  0.00     0.023 A 
ATOM     63  C   UNL A   1      38.270  31.435  36.298  1.00  0.00     0.012 A 
ATOM     64  C   UNL A   1      39.720  33.217  35.496  1.00  0.00     0.148 A 
ATOM     65  C   UNL A   1      37.835  32.248  37.344  1.00  0.00     0.002 A 
ATOM     66  C   UNL A   1      39.318  34.003  36.570  1.00  0.00     0.091 A 
ATOM     67  F   UNL A   1      40.591  33.662  34.580  1.00  0.00    -0.205 F 
ATOM     68  C   UNL A   1      38.366  33.526  37.486  1.00  0.00     0.022 A 
BRANCH  66  69
ATOM     69  S   UNL A   1      40.002  35.633  36.888  1.00  0.00     0.127 S 
ATOM     70  O   UNL A   1      39.331  35.995  38.137  1.00  0.00    -0.237 OA
ATOM     71  O   UNL A   1      41.430  35.345  37.025  1.00  0.00    -0.237 OA
ATOM     72  O   UNL A   1      39.652  36.450  35.735  1.00  0.00    -0.744 OA
ENDBRANCH  66  69
ENDBRANCH  48  62
BRANCH  49  73
ATOM     73  C   UNL A   1      42.230  26.306  27.674  1.00  0.00     0.023 A 
ATOM     74  C   UNL A   1      43.088  26.909  26.731  1.00  0.00     0.012 A 
ATOM     75  C   UNL A   1      41.868  24.956  27.504  1.00  0.00     0.148 A 
ATOM     76  C   UNL A   1      43.542  26.194  25.623  1.00  0.00     0.002 A 
ATOM     77  C   UNL A   1      42.373  24.232  26.430  1.00  0.00     0.091 A 
ATOM     78  F   UNL A   1      41.044  24.403  28.405  1.00  0.00    -0.205 F 
ATOM     79  C   UNL A   1      43.193  24.855  25.477  1.00  0.00     0.022 A 
BRANCH  77  80
ATOM     80  S   UNL A   1      42.086  22.470  26.236  1.00  0.00     0.127 S 
ATOM     81  O   UNL A   1      42.666  21.936  27.466  1.00  0.00    -0.237 OA
ATOM     82  O   UNL A   1      40.626  22.409  26.166  1.00  0.00    -0.237 OA
ATOM     83  O   UNL A   1      42.761  22.096  25.001  1.00  0.00    -0.744 OA
ENDBRANCH  77  80
ENDBRANCH  49  73
BRANCH  61  84
ATOM     84  C   UNL A   1      44.691  27.404  34.115  1.00  0.00     0.023 A 
ATOM     85  C   UNL A   1      45.901  28.125  34.090  1.00  0.00     0.012 A 
ATOM     86  C   UNL A   1      44.602  26.234  34.896  1.00  0.00     0.148 A 
ATOM     87  C   UNL A   1      47.013  27.672  34.798  1.00  0.00     0.002 A 
ATOM     88  C   UNL A   1      45.697  25.816  35.642  1.00  0.00     0.091 A 
ATOM     89  F   UNL A   1      43.448  25.551  34.895  1.00  0.00    -0.205 F 
ATOM     90  C   UNL A   1      46.908  26.525  35.583  1.00  0.00     0.022 A 
BRANCH  88  91
ATOM     91  S   UNL A   1      45.625  24.410  36.757  1.00  0.00     0.127 S 
ATOM     92  O   UNL A   1      45.367  23.309  35.831  1.00  0.00    -0.237 OA
ATOM     93  O   UNL A   1      46.966  24.412  37.344  1.00  0.00    -0.237 OA
ATOM     94  O   UNL A   1      44.552  24.696  37.699  1.00  0.00    -0.744 OA
ENDBRANCH  88  91
ENDBRANCH  61  84
ENDBRANCH  35  36
ENDBRANCH  27  30
ENDBRANCH  25  26
ENDBRANCH  24  25
ENDBRANCH  23  24
ENDBRANCH   1  23
TORSDOF 19
ENDMDL
MODEL 3
REMARK VINA RESULT:     -11.1      2.699      3.950
REMARK SMILES O=C(CSC(=S)NC(=O)c1ccc([N+](=O)[O-])cc1)NCCCCNC(=O)c1ccc(-c2c3nc(c(-c4cccc(S(=O)(=O)[O-])c4F)c4ccc([nH]4)c(-c4cccc(S(=O)(=O)[O-])c4F)c4nc(c(-c5cccc(S(=O)(=O)[O-])c5F)c5ccc2[nH]5)C=C4)C=C3)cc1
REMARK SMILES IDX 20 1 19 2 1 3 2 4 3 6 4 7 5 8 6 9 7 10 8 11 9 13 10 14 11 15
REMARK SMILES IDX 18 16 12 17 17 18 13 19 14 20 15 21 16 22 21 23 22 24 23 25
REMARK SMILES IDX 24 26 25 27 26 29 27 30 28 31 89 32 29 33 88 34 30 35 31 36
REMARK SMILES IDX 32 37 82 38 33 39 87 40 81 41 83 42 34 43 86 44 80 45 79 46
REMARK SMILES IDX 35 48 67 49 47 50 66 51 48 52 51 53 65 54 84 55 49 56 50 57
REMARK SMILES IDX 64 59 85 60 52 61 36 62 37 63 45 64 38 65 40 66 46 67 39 68
REMARK SMILES IDX 41 69 42 70 43 71 44 72 68 73 69 74 77 75 70 76 72 77 78 78
REMARK SMILES IDX 71 79 73 80 74 81 75 82 76 83 53 84 54 85 62 86 55 87 57 88
REMARK SMILES IDX 63 89 56 90 58 91 59 92 60 93 61 94
REMARK H PARENT 19 5 7 12 24 28 83 47 51 58
REMARK Flexibility Score: inf
ROOT
ATOM      1  C   UNL A   1      30.624  26.365  25.882  1.00  0.00     0.116 C 
ENDROOT
BRANCH   1   2
ATOM      2  N   UNL A   1      30.781  24.970  26.217  1.00  0.00    -0.355 N 
ATOM      3  O   UNL A   1      30.522  24.107  24.102  1.00  0.00    -0.274 OA
ATOM      4  C   UNL A   1      30.789  23.951  25.289  1.00  0.00     0.230 C 
ATOM      5  H   UNL A   1      30.889  24.732  27.167  1.00  0.00     0.163 HD
BRANCH   4   6
ATOM      6  C   UNL A   1      31.082  22.579  25.882  1.00  0.00     0.177 C 
BRANCH   6   7
ATOM      7  S   UNL A   1      32.545  22.639  26.963  1.00  0.00    -0.087 SA
BRANCH   7   8
ATOM      8  C   UNL A   1      33.652  21.474  26.282  1.00  0.00     0.141 C 
ATOM      9  S   UNL A   1      33.255  19.941  25.742  1.00  0.00    -0.052 S 
BRANCH   8  10
ATOM     10  N   UNL A   1      34.964  21.902  26.059  1.00  0.00    -0.307 N 
ATOM     11  C   UNL A   1      35.652  22.667  25.112  1.00  0.00     0.256 C 
ATOM     12  H   UNL A   1      35.570  21.576  26.762  1.00  0.00     0.171 HD
ATOM     13  O   UNL A   1      36.854  22.492  24.935  1.00  0.00    -0.269 OA
BRANCH  11  14
ATOM     14  C   UNL A   1      34.934  23.679  24.316  1.00  0.00     0.040 A 
ATOM     15  C   UNL A   1      34.387  23.313  23.080  1.00  0.00     0.021 A 
ATOM     16  C   UNL A   1      34.773  24.980  24.815  1.00  0.00     0.021 A 
ATOM     17  C   UNL A   1      33.587  24.223  22.382  1.00  0.00     0.086 A 
ATOM     18  C   UNL A   1      33.963  25.885  24.128  1.00  0.00     0.086 A 
ATOM     19  C   UNL A   1      33.356  25.495  22.925  1.00  0.00     0.269 A 
BRANCH  19  20
ATOM     20  N   UNL A   1      32.447  26.426  22.248  1.00  0.00     0.062 N 
ATOM     21  O   UNL A   1      32.361  27.575  22.697  1.00  0.00    -0.258 OA
ATOM     22  O   UNL A   1      31.822  25.995  21.268  1.00  0.00    -0.258 OA
ENDBRANCH  19  20
ENDBRANCH  11  14
ENDBRANCH   8  10
ENDBRANCH   7   8
ENDBRANCH   6   7
ENDBRANCH   4   6
ENDBRANCH   1   2
BRANCH   1  23
ATOM     23  C   UNL A   1      31.831  27.200  26.297  1.00  0.00     0.023 C 
BRANCH  23  24
ATOM     24  C   UNL A   1      31.584  28.710  26.391  1.00  0.00     0.023 C 
BRANCH  24  25
ATOM     25  C   UNL A   1      32.715  29.604  25.889  1.00  0.00     0.116 C 
BRANCH  25  26
ATOM     26  N   UNL A   1      32.540  31.000  26.262  1.00  0.00    -0.352 N 
ATOM     27  C   UNL A   1      33.248  31.766  27.155  1.00  0.00     0.251 C 
ATOM     28  H   UNL A   1      31.803  31.466  25.805  1.00  0.00     0.163 HD
ATOM     29  O   UNL A   1      32.840  32.892  27.443  1.00  0.00    -0.269 OA
BRANCH  27  30
ATOM     30  C   UNL A   1      34.481  31.246  27.791  1.00  0.00     0.039 A 
ATOM     31  C   UNL A   1      35.550  32.121  28.003  1.00  0.00     0.014 A 
ATOM     32  C   UNL A   1      34.597  29.904  28.162  1.00  0.00     0.014 A 
ATOM     33  C   UNL A   1      36.705  31.668  28.646  1.00  0.00     0.010 A 
ATOM     34  C   UNL A   1      35.718  29.472  28.870  1.00  0.00     0.010 A 
ATOM     35  C   UNL A   1      36.785  30.348  29.120  1.00  0.00    -0.014 A 
BRANCH  35  36
ATOM     36  C   UNL A   1      37.966  29.878  29.896  1.00  0.00     0.031 A 
ATOM     37  C   UNL A   1      38.233  30.405  31.281  1.00  0.00     0.074 A 
ATOM     38  C   UNL A   1      38.845  29.032  29.321  1.00  0.00     0.049 A 
ATOM     39  N   UNL A   1      39.241  30.155  32.078  1.00  0.00    -0.248 NA
ATOM     40  C   UNL A   1      37.256  31.356  31.834  1.00  0.00     0.031 C 
ATOM     41  C   UNL A   1      38.743  28.503  27.959  1.00  0.00     0.029 A 
ATOM     42  N   UNL A   1      40.015  28.491  29.798  1.00  0.00    -0.354 N 
ATOM     43  C   UNL A   1      39.037  30.938  33.209  1.00  0.00     0.074 A 
ATOM     44  C   UNL A   1      37.828  31.699  32.980  1.00  0.00     0.031 C 
ATOM     45  C   UNL A   1      39.802  27.716  27.711  1.00  0.00     0.029 A 
ATOM     46  C   UNL A   1      40.678  27.711  28.879  1.00  0.00     0.049 A 
ATOM     47  H   UNL A   1      40.348  28.648  30.711  1.00  0.00     0.167 HD
ATOM     48  C   UNL A   1      39.772  30.999  34.345  1.00  0.00     0.034 A 
ATOM     49  C   UNL A   1      41.863  27.074  28.958  1.00  0.00     0.034 A 
ATOM     50  C   UNL A   1      40.957  30.219  34.584  1.00  0.00     0.049 A 
ATOM     51  C   UNL A   1      42.649  27.142  30.239  1.00  0.00     0.074 A 
ATOM     52  C   UNL A   1      41.725  30.154  35.735  1.00  0.00     0.029 A 
ATOM     53  N   UNL A   1      41.555  29.379  33.659  1.00  0.00    -0.354 N 
ATOM     54  N   UNL A   1      42.359  27.770  31.353  1.00  0.00    -0.248 NA
ATOM     55  C   UNL A   1      43.908  26.383  30.289  1.00  0.00     0.031 C 
ATOM     56  C   UNL A   1      42.806  29.301  35.492  1.00  0.00     0.029 A 
ATOM     57  C   UNL A   1      42.689  28.801  34.205  1.00  0.00     0.049 A 
ATOM     58  H   UNL A   1      41.222  29.218  32.746  1.00  0.00     0.167 HD
ATOM     59  C   UNL A   1      43.376  27.453  32.246  1.00  0.00     0.074 A 
ATOM     60  C   UNL A   1      44.279  26.559  31.551  1.00  0.00     0.031 C 
ATOM     61  C   UNL A   1      43.553  27.873  33.522  1.00  0.00     0.034 A 
BRANCH  48  62
ATOM     62  C   UNL A   1      39.291  31.913  35.444  1.00  0.00     0.023 A 
ATOM     63  C   UNL A   1      38.401  31.419  36.422  1.00  0.00     0.012 A 
ATOM     64  C   UNL A   1      39.765  33.236  35.548  1.00  0.00     0.148 A 
ATOM     65  C   UNL A   1      37.963  32.237  37.463  1.00  0.00     0.002 A 
ATOM     66  C   UNL A   1      39.361  34.029  36.616  1.00  0.00     0.091 A 
ATOM     67  F   UNL A   1      40.595  33.693  34.601  1.00  0.00    -0.205 F 
ATOM     68  C   UNL A   1      38.451  33.536  37.566  1.00  0.00     0.022 A 
BRANCH  66  69
ATOM     69  S   UNL A   1      39.993  35.688  36.886  1.00  0.00     0.127 S 
ATOM     70  O   UNL A   1      39.279  36.082  38.100  1.00  0.00    -0.237 OA
ATOM     71  O   UNL A   1      41.424  35.445  37.072  1.00  0.00    -0.237 OA
ATOM     72  O   UNL A   1      39.655  36.448  35.691  1.00  0.00    -0.744 OA
ENDBRANCH  66  69
ENDBRANCH  48  62
BRANCH  49  73
ATOM     73  C   UNL A   1      42.361  26.277  27.801  1.00  0.00     0.023 A 
ATOM     74  C   UNL A   1      43.301  26.844  26.917  1.00  0.00     0.012 A 
ATOM     75  C   UNL A   1      41.923  24.957  27.580  1.00  0.00     0.148 A 
ATOM     76  C   UNL A   1      43.765  26.126  25.815  1.00  0.00     0.002 A 
ATOM     77  C   UNL A   1      42.434  24.226  26.514  1.00  0.00     0.091 A 
ATOM     78  F   UNL A   1      41.021  24.439  28.426  1.00  0.00    -0.205 F 
ATOM     79  C   UNL A   1      43.340  24.815  25.619  1.00  0.00     0.022 A 
BRANCH  77  80
ATOM     80  S   UNL A   1      42.047  22.491  26.263  1.00  0.00     0.127 S 
ATOM     81  O   UNL A   1      40.590  22.521  26.166  1.00  0.00    -0.237 OA
ATOM     82  O   UNL A   1      42.743  22.207  25.008  1.00  0.00    -0.237 OA
ATOM     83  O   UNL A   1      42.592  21.795  27.421  1.00  0.00    -0.744 OA
ENDBRANCH  77  80
ENDBRANCH  49  73
BRANCH  61  84
ATOM     84  C   UNL A   1      44.743  27.340  34.278  1.00  0.00     0.023 A 
ATOM     85  C   UNL A   1      45.963  28.045  34.267  1.00  0.00     0.012 A 
ATOM     86  C   UNL A   1      44.628  26.172  35.058  1.00  0.00     0.148 A 
ATOM     87  C   UNL A   1      47.060  27.577  34.991  1.00  0.00     0.002 A 
ATOM     88  C   UNL A   1      45.708  25.740  35.820  1.00  0.00     0.091 A 
ATOM     89  F   UNL A   1      43.465  25.504  35.043  1.00  0.00    -0.205 F 
ATOM     90  C   UNL A   1      46.929  26.433  35.776  1.00  0.00     0.022 A 
BRANCH  88  91
ATOM     91  S   UNL A   1      45.603  24.337  36.935  1.00  0.00     0.127 S 
ATOM     92  O   UNL A   1      44.619  24.805  37.910  1.00  0.00    -0.237 OA
ATOM     93  O   UNL A   1      45.126  23.273  36.050  1.00  0.00    -0.237 OA
ATOM     94  O   UNL A   1      46.948  24.133  37.456  1.00  0.00    -0.744 OA
ENDBRANCH  88  91
ENDBRANCH  61  84
ENDBRANCH  35  36
ENDBRANCH  27  30
ENDBRANCH  25  26
ENDBRANCH  24  25
ENDBRANCH  23  24
ENDBRANCH   1  23
TORSDOF 19
ENDMDL
