MODEL 1
REMARK VINA RESULT:     -12.2      0.000      0.000
REMARK SMILES Cc1cccc(C[N@@H+](C)C[C@]2(C(=O)NCCCCNC(=O)c3ccc(-c4c5nc(c(-c6cccc(S(=O)(=O)[O-])c6F)c6ccc([nH]6)c(-c6cccc(S(=O)(=O)[O-])c6F)c6nc(c(-c7cccc(S(=O)(=O)[O-])c7F)c7ccc4[nH]7)C=C6)C=C5)cc3)CCC[C@H](C)C2)n1
REMARK SMILES IDX 16 1 15 2 14 3 12 4 13 5 11 7 85 8 90 9 86 10 88 11 87 12
REMARK SMILES IDX 89 13 10 14 8 15 9 16 7 18 6 19 1 20 2 21 3 22 91 23 4 24
REMARK SMILES IDX 5 25 17 26 18 27 19 28 20 29 21 31 22 32 23 33 84 34 24 35
REMARK SMILES IDX 83 36 25 37 26 38 27 39 77 40 28 41 82 42 76 43 78 44 29 45
REMARK SMILES IDX 81 46 75 47 74 48 30 50 62 51 42 52 61 53 43 54 46 55 60 56
REMARK SMILES IDX 79 57 44 58 45 59 59 61 80 62 47 63 31 64 32 65 40 66 33 67
REMARK SMILES IDX 35 68 41 69 34 70 36 71 37 72 38 73 39 74 63 75 64 76 72 77
REMARK SMILES IDX 65 78 67 79 73 80 66 81 68 82 69 83 70 84 71 85 48 86 49 87
REMARK SMILES IDX 57 88 50 89 52 90 58 91 51 92 53 93 54 94 55 95 56 96
REMARK H PARENT 14 6 8 17 19 30 78 49 46 60
REMARK Flexibility Score: inf
ROOT
ATOM      1  C   UNL A   1      32.213  27.511  26.894  1.00  0.00     0.023 C 
ENDROOT
BRANCH   1   2
ATOM      2  C   UNL A   1      33.053  27.166  25.672  1.00  0.00     0.116 C 
BRANCH   2   3
ATOM      3  N   UNL A   1      34.033  26.132  25.923  1.00  0.00    -0.355 N 
ATOM      4  C   UNL A   1      34.423  25.071  25.162  1.00  0.00     0.231 C 
ATOM      5  O   UNL A   1      35.481  24.528  25.508  1.00  0.00    -0.274 OA
ATOM      6  H   UNL A   1      34.496  26.208  26.788  1.00  0.00     0.163 HD
BRANCH   4   7
ATOM      7  C   UNL A   1      33.604  24.528  23.954  1.00  0.00     0.098 C 
ATOM      8  C   UNL A   1      34.321  23.230  23.430  1.00  0.00     0.023 C 
ATOM      9  C   UNL A   1      32.165  24.093  24.332  1.00  0.00     0.026 C 
ATOM     10  C   UNL A   1      34.260  22.035  24.387  1.00  0.00     0.002 C 
ATOM     11  C   UNL A   1      32.134  22.959  25.372  1.00  0.00    -0.013 C 
ATOM     12  C   UNL A   1      32.838  21.717  24.824  1.00  0.00     0.003 C 
ATOM     13  C   UNL A   1      30.696  22.631  25.773  1.00  0.00     0.007 C 
BRANCH   7  14
ATOM     14  C   UNL A   1      33.686  25.546  22.755  1.00  0.00     0.279 C 
BRANCH  14  15
ATOM     15  N   UNL A   1      32.430  25.956  22.109  1.00  0.00    -0.331 N 
ATOM     16  C   UNL A   1      32.389  25.617  20.685  1.00  0.00     0.333 C 
ATOM     17  H   UNL A   1      31.731  25.411  22.615  1.00  0.00     0.348 HD
BRANCH  15  18
ATOM     18  C   UNL A   1      32.071  27.386  22.274  1.00  0.00     0.319 C 
BRANCH  18  19
ATOM     19  C   UNL A   1      30.620  27.714  22.605  1.00  0.00     0.095 A 
ATOM     20  C   UNL A   1      28.144  30.284  21.685  1.00  0.00     0.067 C 
ATOM     21  C   UNL A   1      28.755  29.076  22.333  1.00  0.00     0.038 A 
ATOM     22  C   UNL A   1      27.988  28.259  23.158  1.00  0.00     0.023 A 
ATOM     23  N   UNL A   1      30.062  28.826  22.064  1.00  0.00    -0.252 NA
ATOM     24  C   UNL A   1      28.579  27.140  23.728  1.00  0.00     0.004 A 
ATOM     25  C   UNL A   1      29.910  26.860  23.449  1.00  0.00     0.030 A 
ENDBRANCH  18  19
ENDBRANCH  15  18
ENDBRANCH  14  15
ENDBRANCH   7  14
ENDBRANCH   4   7
ENDBRANCH   2   3
ENDBRANCH   1   2
BRANCH   1  26
ATOM     26  C   UNL A   1      31.737  28.959  26.956  1.00  0.00     0.023 C 
BRANCH  26  27
ATOM     27  C   UNL A   1      32.581  29.961  26.174  1.00  0.00     0.116 C 
BRANCH  27  28
ATOM     28  N   UNL A   1      32.393  31.347  26.595  1.00  0.00    -0.352 N 
ATOM     29  C   UNL A   1      33.220  32.131  27.363  1.00  0.00     0.251 C 
ATOM     30  H   UNL A   1      31.562  31.776  26.289  1.00  0.00     0.163 HD
ATOM     31  O   UNL A   1      32.883  33.266  27.691  1.00  0.00    -0.269 OA
BRANCH  29  32
ATOM     32  C   UNL A   1      34.507  31.574  27.824  1.00  0.00     0.039 A 
ATOM     33  C   UNL A   1      35.575  32.442  28.068  1.00  0.00     0.014 A 
ATOM     34  C   UNL A   1      34.625  30.209  28.096  1.00  0.00     0.014 A 
ATOM     35  C   UNL A   1      36.733  31.952  28.675  1.00  0.00     0.010 A 
ATOM     36  C   UNL A   1      35.747  29.740  28.771  1.00  0.00     0.010 A 
ATOM     37  C   UNL A   1      36.809  30.607  29.076  1.00  0.00    -0.014 A 
BRANCH  37  38
ATOM     38  C   UNL A   1      37.969  30.090  29.847  1.00  0.00     0.031 A 
ATOM     39  C   UNL A   1      38.210  30.565  31.254  1.00  0.00     0.074 A 
ATOM     40  C   UNL A   1      38.870  29.290  29.240  1.00  0.00     0.049 A 
ATOM     41  N   UNL A   1      39.211  30.299  32.053  1.00  0.00    -0.248 NA
ATOM     42  C   UNL A   1      37.217  31.489  31.829  1.00  0.00     0.031 C 
ATOM     43  C   UNL A   1      38.805  28.842  27.846  1.00  0.00     0.029 A 
ATOM     44  N   UNL A   1      40.040  28.742  29.707  1.00  0.00    -0.354 N 
ATOM     45  C   UNL A   1      38.998  31.060  33.195  1.00  0.00     0.074 A 
ATOM     46  C   UNL A   1      37.784  31.814  32.984  1.00  0.00     0.031 C 
ATOM     47  C   UNL A   1      39.888  28.095  27.572  1.00  0.00     0.029 A 
ATOM     48  C   UNL A   1      40.733  28.025  28.759  1.00  0.00     0.049 A 
ATOM     49  H   UNL A   1      40.352  28.852  30.634  1.00  0.00     0.167 HD
ATOM     50  C   UNL A   1      39.733  31.104  34.331  1.00  0.00     0.034 A 
ATOM     51  C   UNL A   1      41.919  27.388  28.836  1.00  0.00     0.034 A 
ATOM     52  C   UNL A   1      40.891  30.289  34.573  1.00  0.00     0.049 A 
ATOM     53  C   UNL A   1      42.661  27.381  30.145  1.00  0.00     0.074 A 
ATOM     54  C   UNL A   1      41.619  30.157  35.742  1.00  0.00     0.029 A 
ATOM     55  N   UNL A   1      41.490  29.467  33.633  1.00  0.00    -0.354 N 
ATOM     56  N   UNL A   1      42.332  27.943  31.283  1.00  0.00    -0.248 NA
ATOM     57  C   UNL A   1      43.918  26.617  30.196  1.00  0.00     0.031 C 
ATOM     58  C   UNL A   1      42.666  29.263  35.505  1.00  0.00     0.029 A 
ATOM     59  C   UNL A   1      42.584  28.831  34.192  1.00  0.00     0.049 A 
ATOM     60  H   UNL A   1      41.183  29.353  32.704  1.00  0.00     0.167 HD
ATOM     61  C   UNL A   1      43.316  27.571  32.191  1.00  0.00     0.074 A 
ATOM     62  C   UNL A   1      44.243  26.716  31.479  1.00  0.00     0.031 C 
ATOM     63  C   UNL A   1      43.454  27.923  33.492  1.00  0.00     0.034 A 
BRANCH  50  64
ATOM     64  C   UNL A   1      39.269  32.009  35.440  1.00  0.00     0.023 A 
ATOM     65  C   UNL A   1      38.414  31.498  36.436  1.00  0.00     0.012 A 
ATOM     66  C   UNL A   1      39.754  33.326  35.549  1.00  0.00     0.148 A 
ATOM     67  C   UNL A   1      38.031  32.292  37.516  1.00  0.00     0.002 A 
ATOM     68  C   UNL A   1      39.400  34.098  36.649  1.00  0.00     0.091 A 
ATOM     69  F   UNL A   1      40.552  33.797  34.580  1.00  0.00    -0.205 F 
ATOM     70  C   UNL A   1      38.533  33.586  37.628  1.00  0.00     0.022 A 
BRANCH  68  71
ATOM     71  S   UNL A   1      40.050  35.750  36.929  1.00  0.00     0.127 S 
ATOM     72  O   UNL A   1      41.486  35.488  37.025  1.00  0.00    -0.237 OA
ATOM     73  O   UNL A   1      39.639  36.451  35.713  1.00  0.00    -0.237 OA
ATOM     74  O   UNL A   1      39.423  36.230  38.152  1.00  0.00    -0.744 OA
ENDBRANCH  68  71
ENDBRANCH  50  64
BRANCH  51  75
ATOM     75  C   UNL A   1      42.448  26.637  27.661  1.00  0.00     0.023 A 
ATOM     76  C   UNL A   1      43.273  27.305  26.734  1.00  0.00     0.012 A 
ATOM     77  C   UNL A   1      42.146  25.279  27.453  1.00  0.00     0.148 A 
ATOM     78  C   UNL A   1      43.753  26.646  25.602  1.00  0.00     0.002 A 
ATOM     79  C   UNL A   1      42.672  24.613  26.350  1.00  0.00     0.091 A 
ATOM     80  F   UNL A   1      41.345  24.660  28.332  1.00  0.00    -0.205 F 
ATOM     81  C   UNL A   1      43.460  25.298  25.414  1.00  0.00     0.022 A 
BRANCH  79  82
ATOM     82  S   UNL A   1      42.443  22.846  26.117  1.00  0.00     0.127 S 
ATOM     83  O   UNL A   1      43.246  22.292  27.204  1.00  0.00    -0.237 OA
ATOM     84  O   UNL A   1      40.997  22.693  26.281  1.00  0.00    -0.237 OA
ATOM     85  O   UNL A   1      42.917  22.579  24.765  1.00  0.00    -0.744 OA
ENDBRANCH  79  82
ENDBRANCH  51  75
BRANCH  63  86
ATOM     86  C   UNL A   1      44.623  27.360  34.253  1.00  0.00     0.023 A 
ATOM     87  C   UNL A   1      45.815  28.105  34.349  1.00  0.00     0.012 A 
ATOM     88  C   UNL A   1      44.511  26.138  34.946  1.00  0.00     0.148 A 
ATOM     89  C   UNL A   1      46.886  27.630  35.103  1.00  0.00     0.002 A 
ATOM     90  C   UNL A   1      45.568  25.694  35.732  1.00  0.00     0.091 A 
ATOM     91  F   UNL A   1      43.377  25.434  34.824  1.00  0.00    -0.205 F 
ATOM     92  C   UNL A   1      46.759  26.433  35.804  1.00  0.00     0.022 A 
BRANCH  90  93
ATOM     93  S   UNL A   1      45.449  24.213  36.743  1.00  0.00     0.127 S 
ATOM     94  O   UNL A   1      46.855  23.934  37.030  1.00  0.00    -0.237 OA
ATOM     95  O   UNL A   1      44.674  24.679  37.893  1.00  0.00    -0.237 OA
ATOM     96  O   UNL A   1      44.766  23.224  35.920  1.00  0.00    -0.744 OA
ENDBRANCH  90  93
ENDBRANCH  63  86
ENDBRANCH  37  38
ENDBRANCH  29  32
ENDBRANCH  27  28
ENDBRANCH  26  27
ENDBRANCH   1  26
TORSDOF 18
ENDMDL
MODEL 2
REMARK VINA RESULT:     -11.9      4.609      7.295
REMARK SMILES Cc1cccc(C[N@@H+](C)C[C@]2(C(=O)NCCCCNC(=O)c3ccc(-c4c5nc(c(-c6cccc(S(=O)(=O)[O-])c6F)c6ccc([nH]6)c(-c6cccc(S(=O)(=O)[O-])c6F)c6nc(c(-c7cccc(S(=O)(=O)[O-])c7F)c7ccc4[nH]7)C=C6)C=C5)cc3)CCC[C@H](C)C2)n1
REMARK SMILES IDX 16 1 15 2 14 3 12 4 13 5 11 7 85 8 90 9 86 10 88 11 87 12
REMARK SMILES IDX 89 13 10 14 8 15 9 16 7 18 6 19 1 20 2 21 3 22 91 23 4 24
REMARK SMILES IDX 5 25 17 26 18 27 19 28 20 29 21 31 22 32 23 33 84 34 24 35
REMARK SMILES IDX 83 36 25 37 26 38 27 39 77 40 28 41 82 42 76 43 78 44 29 45
REMARK SMILES IDX 81 46 75 47 74 48 30 50 62 51 42 52 61 53 43 54 46 55 60 56
REMARK SMILES IDX 79 57 44 58 45 59 59 61 80 62 47 63 31 64 32 65 40 66 33 67
REMARK SMILES IDX 35 68 41 69 34 70 36 71 37 72 38 73 39 74 63 75 64 76 72 77
REMARK SMILES IDX 65 78 67 79 73 80 66 81 68 82 69 83 70 84 71 85 48 86 49 87
REMARK SMILES IDX 57 88 50 89 52 90 58 91 51 92 53 93 54 94 55 95 56 96
REMARK H PARENT 14 6 8 17 19 30 78 49 46 60
REMARK Flexibility Score: inf
ROOT
ATOM      1  C   UNL A   1      35.380  24.265  24.609  1.00  0.00     0.023 C 
ENDROOT
BRANCH   1   2
ATOM      2  C   UNL A   1      33.925  24.635  24.357  1.00  0.00     0.116 C 
BRANCH   2   3
ATOM      3  N   UNL A   1      33.146  24.760  25.570  1.00  0.00    -0.355 N 
ATOM      4  C   UNL A   1      32.260  25.716  25.964  1.00  0.00     0.231 C 
ATOM      5  O   UNL A   1      31.535  25.409  26.920  1.00  0.00    -0.274 OA
ATOM      6  H   UNL A   1      33.279  24.032  26.219  1.00  0.00     0.163 HD
BRANCH   4   7
ATOM      7  C   UNL A   1      32.159  27.124  25.306  1.00  0.00     0.098 C 
ATOM      8  C   UNL A   1      31.109  27.964  26.122  1.00  0.00     0.023 C 
ATOM      9  C   UNL A   1      33.482  27.928  25.366  1.00  0.00     0.026 C 
ATOM     10  C   UNL A   1      31.550  28.335  27.541  1.00  0.00     0.002 C 
ATOM     11  C   UNL A   1      33.956  28.198  26.806  1.00  0.00    -0.013 C 
ATOM     12  C   UNL A   1      32.910  29.017  27.563  1.00  0.00     0.003 C 
ATOM     13  C   UNL A   1      35.306  28.915  26.806  1.00  0.00     0.007 C 
BRANCH   7  14
ATOM     14  C   UNL A   1      31.538  26.993  23.864  1.00  0.00     0.279 C 
BRANCH  14  15
ATOM     15  N   UNL A   1      30.195  27.549  23.638  1.00  0.00    -0.331 N 
ATOM     16  C   UNL A   1      29.141  26.537  23.729  1.00  0.00     0.333 C 
ATOM     17  H   UNL A   1      30.099  28.219  24.401  1.00  0.00     0.348 HD
BRANCH  15  18
ATOM     18  C   UNL A   1      30.028  28.305  22.372  1.00  0.00     0.319 C 
BRANCH  18  19
ATOM     19  C   UNL A   1      29.477  29.722  22.466  1.00  0.00     0.095 A 
ATOM     20  C   UNL A   1      27.894  32.171  20.212  1.00  0.00     0.067 C 
ATOM     21  C   UNL A   1      28.466  31.557  21.456  1.00  0.00     0.038 A 
ATOM     22  C   UNL A   1      28.429  32.252  22.662  1.00  0.00     0.023 A 
ATOM     23  N   UNL A   1      28.995  30.312  21.343  1.00  0.00    -0.252 NA
ATOM     24  C   UNL A   1      28.950  31.648  23.798  1.00  0.00     0.004 A 
ATOM     25  C   UNL A   1      29.480  30.367  23.703  1.00  0.00     0.030 A 
ENDBRANCH  18  19
ENDBRANCH  15  18
ENDBRANCH  14  15
ENDBRANCH   7  14
ENDBRANCH   4   7
ENDBRANCH   2   3
ENDBRANCH   1   2
BRANCH   1  26
ATOM     26  C   UNL A   1      35.680  22.771  24.551  1.00  0.00     0.023 C 
BRANCH  26  27
ATOM     27  C   UNL A   1      36.288  22.174  25.817  1.00  0.00     0.116 C 
BRANCH  27  28
ATOM     28  N   UNL A   1      37.326  21.179  25.560  1.00  0.00    -0.352 N 
ATOM     29  C   UNL A   1      38.672  21.251  25.833  1.00  0.00     0.251 C 
ATOM     30  H   UNL A   1      37.021  20.345  25.136  1.00  0.00     0.163 HD
ATOM     31  O   UNL A   1      39.431  20.349  25.488  1.00  0.00    -0.269 OA
BRANCH  29  32
ATOM     32  C   UNL A   1      39.200  22.452  26.510  1.00  0.00     0.039 A 
ATOM     33  C   UNL A   1      40.243  22.310  27.427  1.00  0.00     0.014 A 
ATOM     34  C   UNL A   1      38.720  23.719  26.170  1.00  0.00     0.014 A 
ATOM     35  C   UNL A   1      40.872  23.449  27.935  1.00  0.00     0.010 A 
ATOM     36  C   UNL A   1      39.398  24.849  26.616  1.00  0.00     0.010 A 
ATOM     37  C   UNL A   1      40.485  24.727  27.495  1.00  0.00    -0.014 A 
BRANCH  37  38
ATOM     38  C   UNL A   1      41.224  25.948  27.909  1.00  0.00     0.031 A 
ATOM     39  C   UNL A   1      40.510  27.042  28.657  1.00  0.00     0.074 A 
ATOM     40  C   UNL A   1      42.498  26.125  27.505  1.00  0.00     0.049 A 
ATOM     41  N   UNL A   1      40.957  28.215  29.024  1.00  0.00    -0.248 NA
ATOM     42  C   UNL A   1      39.099  26.805  29.007  1.00  0.00     0.031 C 
ATOM     43  C   UNL A   1      43.269  25.186  26.687  1.00  0.00     0.029 A 
ATOM     44  N   UNL A   1      43.361  27.177  27.697  1.00  0.00    -0.354 N 
ATOM     45  C   UNL A   1      39.875  28.872  29.595  1.00  0.00     0.074 A 
ATOM     46  C   UNL A   1      38.743  27.978  29.512  1.00  0.00     0.031 C 
ATOM     47  C   UNL A   1      44.484  25.705  26.443  1.00  0.00     0.029 A 
ATOM     48  C   UNL A   1      44.575  27.020  27.068  1.00  0.00     0.049 A 
ATOM     49  H   UNL A   1      43.132  27.970  28.234  1.00  0.00     0.167 HD
ATOM     50  C   UNL A   1      39.836  30.099  30.166  1.00  0.00     0.034 A 
ATOM     51  C   UNL A   1      45.640  27.845  26.999  1.00  0.00     0.034 A 
ATOM     52  C   UNL A   1      40.983  30.950  30.325  1.00  0.00     0.049 A 
ATOM     53  C   UNL A   1      45.592  29.162  27.726  1.00  0.00     0.074 A 
ATOM     54  C   UNL A   1      41.074  32.147  31.013  1.00  0.00     0.029 A 
ATOM     55  N   UNL A   1      42.236  30.696  29.792  1.00  0.00    -0.354 N 
ATOM     56  N   UNL A   1      44.620  29.676  28.440  1.00  0.00    -0.248 NA
ATOM     57  C   UNL A   1      46.802  29.997  27.674  1.00  0.00     0.031 C 
ATOM     58  C   UNL A   1      42.383  32.623  30.887  1.00  0.00     0.029 A 
ATOM     59  C   UNL A   1      43.107  31.718  30.128  1.00  0.00     0.049 A 
ATOM     60  H   UNL A   1      42.472  29.907  29.253  1.00  0.00     0.167 HD
ATOM     61  C   UNL A   1      45.112  30.870  28.952  1.00  0.00     0.074 A 
ATOM     62  C   UNL A   1      46.477  30.995  28.486  1.00  0.00     0.031 C 
ATOM     63  C   UNL A   1      44.485  31.792  29.721  1.00  0.00     0.034 A 
BRANCH  50  64
ATOM     64  C   UNL A   1      38.527  30.574  30.735  1.00  0.00     0.023 A 
ATOM     65  C   UNL A   1      38.257  30.380  32.103  1.00  0.00     0.012 A 
ATOM     66  C   UNL A   1      37.613  31.294  29.941  1.00  0.00     0.148 A 
ATOM     67  C   UNL A   1      37.086  30.879  32.672  1.00  0.00     0.002 A 
ATOM     68  C   UNL A   1      36.467  31.822  30.524  1.00  0.00     0.091 A 
ATOM     69  F   UNL A   1      37.882  31.451  28.637  1.00  0.00    -0.205 F 
ATOM     70  C   UNL A   1      36.199  31.609  31.886  1.00  0.00     0.022 A 
BRANCH  68  71
ATOM     71  S   UNL A   1      35.297  32.842  29.619  1.00  0.00     0.127 S 
ATOM     72  O   UNL A   1      36.146  33.952  29.187  1.00  0.00    -0.237 OA
ATOM     73  O   UNL A   1      34.876  31.944  28.544  1.00  0.00    -0.237 OA
ATOM     74  O   UNL A   1      34.249  33.194  30.568  1.00  0.00    -0.744 OA
ENDBRANCH  68  71
ENDBRANCH  50  64
BRANCH  51  75
ATOM     75  C   UNL A   1      46.873  27.423  26.276  1.00  0.00     0.023 A 
ATOM     76  C   UNL A   1      47.015  27.747  24.912  1.00  0.00     0.012 A 
ATOM     77  C   UNL A   1      47.901  26.709  26.919  1.00  0.00     0.148 A 
ATOM     78  C   UNL A   1      48.137  27.334  24.193  1.00  0.00     0.002 A 
ATOM     79  C   UNL A   1      49.042  26.345  26.209  1.00  0.00     0.091 A 
ATOM     80  F   UNL A   1      47.746  26.389  28.212  1.00  0.00    -0.205 F 
ATOM     81  C   UNL A   1      49.155  26.641  24.843  1.00  0.00     0.022 A 
BRANCH  79  82
ATOM     82  S   UNL A   1      50.446  25.568  27.016  1.00  0.00     0.127 S 
ATOM     83  O   UNL A   1      51.394  25.437  25.912  1.00  0.00    -0.237 OA
ATOM     84  O   UNL A   1      50.815  26.559  28.028  1.00  0.00    -0.237 OA
ATOM     85  O   UNL A   1      49.924  24.325  27.568  1.00  0.00    -0.744 OA
ENDBRANCH  79  82
ENDBRANCH  51  75
BRANCH  63  86
ATOM     86  C   UNL A   1      45.268  33.004  30.146  1.00  0.00     0.023 A 
ATOM     87  C   UNL A   1      46.043  32.954  31.322  1.00  0.00     0.012 A 
ATOM     88  C   UNL A   1      45.308  34.157  29.337  1.00  0.00     0.148 A 
ATOM     89  C   UNL A   1      46.826  34.043  31.698  1.00  0.00     0.002 A 
ATOM     90  C   UNL A   1      46.127  35.221  29.697  1.00  0.00     0.091 A 
ATOM     91  F   UNL A   1      44.547  34.192  28.234  1.00  0.00    -0.205 F 
ATOM     92  C   UNL A   1      46.878  35.170  30.881  1.00  0.00     0.022 A 
BRANCH  90  93
ATOM     93  S   UNL A   1      46.327  36.668  28.650  1.00  0.00     0.127 S 
ATOM     94  O   UNL A   1      47.198  36.155  27.595  1.00  0.00    -0.237 OA
ATOM     95  O   UNL A   1      44.953  36.941  28.226  1.00  0.00    -0.237 OA
ATOM     96  O   UNL A   1      46.907  37.697  29.502  1.00  0.00    -0.744 OA
ENDBRANCH  90  93
ENDBRANCH  63  86
ENDBRANCH  37  38
ENDBRANCH  29  32
ENDBRANCH  27  28
ENDBRANCH  26  27
ENDBRANCH   1  26
TORSDOF 18
ENDMDL
MODEL 3
REMARK VINA RESULT:     -11.9      4.941      9.774
REMARK SMILES Cc1cccc(C[N@@H+](C)C[C@]2(C(=O)NCCCCNC(=O)c3ccc(-c4c5nc(c(-c6cccc(S(=O)(=O)[O-])c6F)c6ccc([nH]6)c(-c6cccc(S(=O)(=O)[O-])c6F)c6nc(c(-c7cccc(S(=O)(=O)[O-])c7F)c7ccc4[nH]7)C=C6)C=C5)cc3)CCC[C@H](C)C2)n1
REMARK SMILES IDX 16 1 15 2 14 3 12 4 13 5 11 7 85 8 90 9 86 10 88 11 87 12
REMARK SMILES IDX 89 13 10 14 8 15 9 16 7 18 6 19 1 20 2 21 3 22 91 23 4 24
REMARK SMILES IDX 5 25 17 26 18 27 19 28 20 29 21 31 22 32 23 33 84 34 24 35
REMARK SMILES IDX 83 36 25 37 26 38 27 39 77 40 28 41 82 42 76 43 78 44 29 45
REMARK SMILES IDX 81 46 75 47 74 48 30 50 62 51 42 52 61 53 43 54 46 55 60 56
REMARK SMILES IDX 79 57 44 58 45 59 59 61 80 62 47 63 31 64 32 65 40 66 33 67
REMARK SMILES IDX 35 68 41 69 34 70 36 71 37 72 38 73 39 74 63 75 64 76 72 77
REMARK SMILES IDX 65 78 67 79 73 80 66 81 68 82 69 83 70 84 71 85 48 86 49 87
REMARK SMILES IDX 57 88 50 89 52 90 58 91 51 92 53 93 54 94 55 95 56 96
REMARK H PARENT 14 6 8 17 19 30 78 49 46 60
REMARK Flexibility Score: inf
ROOT
ATOM      1  C   UNL A   1      35.715  24.124  24.866  1.00  0.00     0.023 C 
ENDROOT
BRANCH   1   2
ATOM      2  C   UNL A   1      34.301  24.576  24.528  1.00  0.00     0.116 C 
BRANCH   2   3
ATOM      3  N   UNL A   1      33.504  24.887  25.694  1.00  0.00    -0.355 N 
ATOM      4  C   UNL A   1      32.714  25.962  25.972  1.00  0.00     0.231 C 
ATOM      5  O   UNL A   1      31.931  25.817  26.921  1.00  0.00    -0.274 OA
ATOM      6  H   UNL A   1      33.538  24.209  26.406  1.00  0.00     0.163 HD
BRANCH   4   7
ATOM      7  C   UNL A   1      32.785  27.309  25.194  1.00  0.00     0.098 C 
ATOM      8  C   UNL A   1      31.535  28.170  25.607  1.00  0.00     0.023 C 
ATOM      9  C   UNL A   1      34.026  28.164  25.557  1.00  0.00     0.026 C 
ATOM     10  C   UNL A   1      31.550  28.667  27.056  1.00  0.00     0.002 C 
ATOM     11  C   UNL A   1      34.067  28.563  27.043  1.00  0.00    -0.013 C 
ATOM     12  C   UNL A   1      32.838  29.399  27.403  1.00  0.00     0.003 C 
ATOM     13  C   UNL A   1      35.351  29.327  27.364  1.00  0.00     0.007 C 
BRANCH   7  14
ATOM     14  C   UNL A   1      32.601  27.044  23.652  1.00  0.00     0.279 C 
BRANCH  14  15
ATOM     15  N   UNL A   1      31.240  26.796  23.153  1.00  0.00    -0.331 N 
ATOM     16  C   UNL A   1      31.022  25.398  22.777  1.00  0.00     0.333 C 
ATOM     17  H   UNL A   1      30.659  27.033  23.957  1.00  0.00     0.348 HD
BRANCH  15  18
ATOM     18  C   UNL A   1      30.809  27.668  22.032  1.00  0.00     0.319 C 
BRANCH  18  19
ATOM     19  C   UNL A   1      29.611  28.579  22.270  1.00  0.00     0.095 A 
ATOM     20  C   UNL A   1      28.405  31.844  21.057  1.00  0.00     0.067 C 
ATOM     21  C   UNL A   1      28.464  30.550  21.817  1.00  0.00     0.038 A 
ATOM     22  C   UNL A   1      27.418  30.184  22.660  1.00  0.00     0.023 A 
ATOM     23  N   UNL A   1      29.560  29.773  21.627  1.00  0.00    -0.252 NA
ATOM     24  C   UNL A   1      27.495  28.972  23.333  1.00  0.00     0.004 A 
ATOM     25  C   UNL A   1      28.603  28.157  23.137  1.00  0.00     0.030 A 
ENDBRANCH  18  19
ENDBRANCH  15  18
ENDBRANCH  14  15
ENDBRANCH   7  14
ENDBRANCH   4   7
ENDBRANCH   2   3
ENDBRANCH   1   2
BRANCH   1  26
ATOM     26  C   UNL A   1      35.923  22.614  24.862  1.00  0.00     0.023 C 
BRANCH  26  27
ATOM     27  C   UNL A   1      36.544  22.032  26.129  1.00  0.00     0.116 C 
BRANCH  27  28
ATOM     28  N   UNL A   1      37.706  21.184  25.881  1.00  0.00    -0.352 N 
ATOM     29  C   UNL A   1      39.036  21.471  26.074  1.00  0.00     0.251 C 
ATOM     30  H   UNL A   1      37.511  20.286  25.529  1.00  0.00     0.163 HD
ATOM     31  O   UNL A   1      39.906  20.667  25.748  1.00  0.00    -0.269 OA
BRANCH  29  32
ATOM     32  C   UNL A   1      39.409  22.782  26.643  1.00  0.00     0.039 A 
ATOM     33  C   UNL A   1      40.400  22.839  27.625  1.00  0.00     0.014 A 
ATOM     34  C   UNL A   1      38.839  23.954  26.140  1.00  0.00     0.014 A 
ATOM     35  C   UNL A   1      40.888  24.081  28.038  1.00  0.00     0.010 A 
ATOM     36  C   UNL A   1      39.381  25.185  26.494  1.00  0.00     0.010 A 
ATOM     37  C   UNL A   1      40.416  25.262  27.439  1.00  0.00    -0.014 A 
BRANCH  37  38
ATOM     38  C   UNL A   1      41.013  26.586  27.755  1.00  0.00     0.031 A 
ATOM     39  C   UNL A   1      42.448  26.869  27.403  1.00  0.00     0.074 A 
ATOM     40  C   UNL A   1      40.302  27.484  28.467  1.00  0.00     0.049 A 
ATOM     41  N   UNL A   1      43.170  27.925  27.675  1.00  0.00    -0.248 NA
ATOM     42  C   UNL A   1      43.182  25.814  26.682  1.00  0.00     0.031 C 
ATOM     43  C   UNL A   1      38.936  27.289  28.960  1.00  0.00     0.029 A 
ATOM     44  N   UNL A   1      40.644  28.730  28.935  1.00  0.00    -0.354 N 
ATOM     45  C   UNL A   1      44.448  27.642  27.211  1.00  0.00     0.074 A 
ATOM     46  C   UNL A   1      44.413  26.308  26.655  1.00  0.00     0.031 C 
ATOM     47  C   UNL A   1      38.560  28.371  29.663  1.00  0.00     0.029 A 
ATOM     48  C   UNL A   1      39.661  29.328  29.689  1.00  0.00     0.049 A 
ATOM     49  H   UNL A   1      41.511  29.155  28.746  1.00  0.00     0.167 HD
ATOM     50  C   UNL A   1      45.545  28.434  27.219  1.00  0.00     0.034 A 
ATOM     51  C   UNL A   1      39.649  30.512  30.335  1.00  0.00     0.034 A 
ATOM     52  C   UNL A   1      45.556  29.790  27.693  1.00  0.00     0.049 A 
ATOM     53  C   UNL A   1      40.856  31.407  30.242  1.00  0.00     0.074 A 
ATOM     54  C   UNL A   1      46.579  30.718  27.614  1.00  0.00     0.029 A 
ATOM     55  N   UNL A   1      44.497  30.413  28.332  1.00  0.00    -0.354 N 
ATOM     56  N   UNL A   1      41.990  31.201  29.616  1.00  0.00    -0.248 NA
ATOM     57  C   UNL A   1      40.770  32.715  30.908  1.00  0.00     0.031 C 
ATOM     58  C   UNL A   1      46.141  31.902  28.216  1.00  0.00     0.029 A 
ATOM     59  C   UNL A   1      44.842  31.712  28.660  1.00  0.00     0.049 A 
ATOM     60  H   UNL A   1      43.626  29.994  28.524  1.00  0.00     0.167 HD
ATOM     61  C   UNL A   1      42.733  32.363  29.780  1.00  0.00     0.074 A 
ATOM     62  C   UNL A   1      41.914  33.280  30.544  1.00  0.00     0.031 C 
ATOM     63  C   UNL A   1      43.989  32.640  29.355  1.00  0.00     0.034 A 
BRANCH  50  64
ATOM     64  C   UNL A   1      46.818  27.887  26.631  1.00  0.00     0.023 A 
ATOM     65  C   UNL A   1      47.705  27.167  27.453  1.00  0.00     0.012 A 
ATOM     66  C   UNL A   1      47.085  28.003  25.253  1.00  0.00     0.148 A 
ATOM     67  C   UNL A   1      48.853  26.584  26.917  1.00  0.00     0.002 A 
ATOM     68  C   UNL A   1      48.210  27.386  24.719  1.00  0.00     0.091 A 
ATOM     69  F   UNL A   1      46.235  28.708  24.493  1.00  0.00    -0.205 F 
ATOM     70  C   UNL A   1      49.098  26.684  25.550  1.00  0.00     0.022 A 
BRANCH  68  71
ATOM     71  S   UNL A   1      48.578  27.388  22.960  1.00  0.00     0.127 S 
ATOM     72  O   UNL A   1      47.486  28.205  22.432  1.00  0.00    -0.237 OA
ATOM     73  O   UNL A   1      49.891  28.031  22.923  1.00  0.00    -0.237 OA
ATOM     74  O   UNL A   1      48.569  25.993  22.543  1.00  0.00    -0.744 OA
ENDBRANCH  68  71
ENDBRANCH  50  64
BRANCH  51  75
ATOM     75  C   UNL A   1      38.429  30.960  31.065  1.00  0.00     0.023 A 
ATOM     76  C   UNL A   1      38.336  30.732  32.452  1.00  0.00     0.012 A 
ATOM     77  C   UNL A   1      37.366  31.605  30.405  1.00  0.00     0.148 A 
ATOM     78  C   UNL A   1      37.192  31.101  33.161  1.00  0.00     0.002 A 
ATOM     79  C   UNL A   1      36.250  32.019  31.127  1.00  0.00     0.091 A 
ATOM     80  F   UNL A   1      37.458  31.799  29.082  1.00  0.00    -0.205 F 
ATOM     81  C   UNL A   1      36.153  31.752  32.501  1.00  0.00     0.022 A 
BRANCH  79  82
ATOM     82  S   UNL A   1      34.937  32.978  30.366  1.00  0.00     0.127 S 
ATOM     83  O   UNL A   1      34.435  32.053  29.354  1.00  0.00    -0.237 OA
ATOM     84  O   UNL A   1      34.028  33.211  31.490  1.00  0.00    -0.237 OA
ATOM     85  O   UNL A   1      35.588  34.184  29.872  1.00  0.00    -0.744 OA
ENDBRANCH  79  82
ENDBRANCH  51  75
BRANCH  63  86
ATOM     86  C   UNL A   1      44.554  33.999  29.667  1.00  0.00     0.023 A 
ATOM     87  C   UNL A   1      45.325  34.182  30.832  1.00  0.00     0.012 A 
ATOM     88  C   UNL A   1      44.398  35.068  28.763  1.00  0.00     0.148 A 
ATOM     89  C   UNL A   1      45.910  35.416  31.105  1.00  0.00     0.002 A 
ATOM     90  C   UNL A   1      45.022  36.283  29.021  1.00  0.00     0.091 A 
ATOM     91  F   UNL A   1      43.644  34.880  27.671  1.00  0.00    -0.205 F 
ATOM     92  C   UNL A   1      45.770  36.462  30.195  1.00  0.00     0.022 A 
BRANCH  90  93
ATOM     93  S   UNL A   1      44.974  37.649  27.854  1.00  0.00     0.127 S 
ATOM     94  O   UNL A   1      45.902  38.597  28.465  1.00  0.00    -0.237 OA
ATOM     95  O   UNL A   1      45.461  37.027  26.622  1.00  0.00    -0.237 OA
ATOM     96  O   UNL A   1      43.582  38.075  27.800  1.00  0.00    -0.744 OA
ENDBRANCH  90  93
ENDBRANCH  63  86
ENDBRANCH  37  38
ENDBRANCH  29  32
ENDBRANCH  27  28
ENDBRANCH  26  27
ENDBRANCH   1  26
TORSDOF 18
ENDMDL
