MODEL 1
REMARK VINA RESULT:     -12.0      0.000      0.000
REMARK SMILES O=C(NCCCCNC(=O)c1ccc(C[NH2+]Cc2cc(F)ccc2F)nc1)c1ccc(-c2c3nc(c(-c4cccc(S(=O)(=O)[O-])c4F)c4ccc([nH]4)c(-c4cccc(S(=O)(=O)[O-])c4F)c4nc(c(-c5cccc(S(=O)(=O)[O-])c5F)c5ccc2[nH]5)C=C4)C=C3)cc1
REMARK SMILES IDX 6 1 5 2 4 3 3 4 1 5 2 6 28 8 29 9 90 10 30 11 89 12 31 13
REMARK SMILES IDX 32 14 33 15 83 16 34 17 88 18 82 19 84 20 35 21 87 22 81 23
REMARK SMILES IDX 80 24 36 26 68 27 48 28 67 29 49 30 52 31 66 32 85 33 50 34
REMARK SMILES IDX 51 35 65 37 86 38 53 39 37 40 38 41 46 42 39 43 41 44 47 45
REMARK SMILES IDX 40 46 42 47 43 48 44 49 45 50 69 51 70 52 78 53 71 54 73 55
REMARK SMILES IDX 79 56 72 57 74 58 75 59 76 60 77 61 54 62 55 63 63 64 56 65
REMARK SMILES IDX 58 66 64 67 57 68 59 69 60 70 61 71 62 72 7 73 8 74 9 75
REMARK SMILES IDX 10 77 11 78 12 79 27 80 13 81 26 82 14 83 15 84 16 85 17 88
REMARK SMILES IDX 18 89 19 90 24 91 20 92 23 93 25 94 21 95 22 96
REMARK H PARENT 3 7 84 25 52 36 8 76 16 86 16 87
REMARK Flexibility Score: inf
ROOT
ATOM      1  C   UNL A   1      36.728  21.107  24.488  1.00  0.00     0.023 C 
ENDROOT
BRANCH   1   2
ATOM      2  C   UNL A   1      37.677  19.997  24.931  1.00  0.00     0.023 C 
BRANCH   2   3
ATOM      3  C   UNL A   1      38.852  20.458  25.785  1.00  0.00     0.116 C 
BRANCH   3   4
ATOM      4  N   UNL A   1      39.903  19.456  25.874  1.00  0.00    -0.352 N 
ATOM      5  O   UNL A   1      42.011  18.673  25.956  1.00  0.00    -0.269 OA
ATOM      6  C   UNL A   1      41.249  19.625  26.092  1.00  0.00     0.251 C 
ATOM      7  H   UNL A   1      39.607  18.524  25.762  1.00  0.00     0.163 HD
BRANCH   6   8
ATOM      8  C   UNL A   1      41.771  20.959  26.459  1.00  0.00     0.039 A 
ATOM      9  C   UNL A   1      42.054  21.272  27.792  1.00  0.00     0.014 A 
ATOM     10  C   UNL A   1      41.970  21.910  25.456  1.00  0.00     0.014 A 
ATOM     11  C   UNL A   1      42.394  22.575  28.140  1.00  0.00     0.010 A 
ATOM     12  C   UNL A   1      42.393  23.195  25.798  1.00  0.00     0.010 A 
ATOM     13  C   UNL A   1      42.575  23.548  27.147  1.00  0.00    -0.014 A 
BRANCH  13  14
ATOM     14  C   UNL A   1      43.007  24.921  27.510  1.00  0.00     0.031 A 
ATOM     15  C   UNL A   1      42.048  25.885  28.148  1.00  0.00     0.074 A 
ATOM     16  C   UNL A   1      44.258  25.313  27.207  1.00  0.00     0.049 A 
ATOM     17  N   UNL A   1      42.220  27.148  28.439  1.00  0.00    -0.248 NA
ATOM     18  C   UNL A   1      40.715  25.366  28.493  1.00  0.00     0.031 C 
ATOM     19  C   UNL A   1      45.270  24.472  26.564  1.00  0.00     0.029 A 
ATOM     20  N   UNL A   1      44.881  26.525  27.363  1.00  0.00    -0.354 N 
ATOM     21  C   UNL A   1      41.007  27.592  28.953  1.00  0.00     0.074 A 
ATOM     22  C   UNL A   1      40.105  26.459  28.932  1.00  0.00     0.031 C 
ATOM     23  C   UNL A   1      46.382  25.194  26.368  1.00  0.00     0.029 A 
ATOM     24  C   UNL A   1      46.140  26.562  26.812  1.00  0.00     0.049 A 
ATOM     25  H   UNL A   1      44.469  27.290  27.825  1.00  0.00     0.167 HD
ATOM     26  C   UNL A   1      40.679  28.826  29.403  1.00  0.00     0.034 A 
ATOM     27  C   UNL A   1      46.991  27.592  26.636  1.00  0.00     0.034 A 
ATOM     28  C   UNL A   1      41.590  29.941  29.431  1.00  0.00     0.049 A 
ATOM     29  C   UNL A   1      46.605  28.954  27.134  1.00  0.00     0.074 A 
ATOM     30  C   UNL A   1      41.377  31.214  29.929  1.00  0.00     0.029 A 
ATOM     31  N   UNL A   1      42.879  29.924  28.917  1.00  0.00    -0.354 N 
ATOM     32  N   UNL A   1      45.494  29.329  27.720  1.00  0.00    -0.248 NA
ATOM     33  C   UNL A   1      47.596  30.026  26.976  1.00  0.00     0.031 C 
ATOM     34  C   UNL A   1      42.520  31.979  29.676  1.00  0.00     0.029 A 
ATOM     35  C   UNL A   1      43.466  31.168  29.070  1.00  0.00     0.049 A 
ATOM     36  H   UNL A   1      43.312  29.142  28.504  1.00  0.00     0.167 HD
ATOM     37  C   UNL A   1      45.667  30.669  28.039  1.00  0.00     0.074 A 
ATOM     38  C   UNL A   1      46.991  31.040  27.582  1.00  0.00     0.031 C 
ATOM     39  C   UNL A   1      44.804  31.513  28.657  1.00  0.00     0.034 A 
BRANCH  26  40
ATOM     40  C   UNL A   1      39.271  29.039  29.903  1.00  0.00     0.023 A 
ATOM     41  C   UNL A   1      38.934  28.700  31.228  1.00  0.00     0.012 A 
ATOM     42  C   UNL A   1      38.290  29.607  29.066  1.00  0.00     0.148 A 
ATOM     43  C   UNL A   1      37.631  28.874  31.698  1.00  0.00     0.002 A 
ATOM     44  C   UNL A   1      37.007  29.823  29.557  1.00  0.00     0.091 A 
ATOM     45  F   UNL A   1      38.620  29.908  27.802  1.00  0.00    -0.205 F 
ATOM     46  C   UNL A   1      36.672  29.443  30.865  1.00  0.00     0.022 A 
BRANCH  44  47
ATOM     47  S   UNL A   1      35.727  30.627  28.586  1.00  0.00     0.127 S 
ATOM     48  O   UNL A   1      35.045  29.480  27.989  1.00  0.00    -0.237 OA
ATOM     49  O   UNL A   1      34.953  31.328  29.612  1.00  0.00    -0.237 OA
ATOM     50  O   UNL A   1      36.422  31.501  27.652  1.00  0.00    -0.744 OA
ENDBRANCH  44  47
ENDBRANCH  26  40
BRANCH  27  51
ATOM     51  C   UNL A   1      48.301  27.343  25.973  1.00  0.00     0.023 A 
ATOM     52  C   UNL A   1      49.365  26.801  26.716  1.00  0.00     0.012 A 
ATOM     53  C   UNL A   1      48.465  27.567  24.591  1.00  0.00     0.148 A 
ATOM     54  C   UNL A   1      50.579  26.501  26.098  1.00  0.00     0.002 A 
ATOM     55  C   UNL A   1      49.656  27.212  23.972  1.00  0.00     0.091 A 
ATOM     56  F   UNL A   1      47.436  28.084  23.906  1.00  0.00    -0.205 F 
ATOM     57  C   UNL A   1      50.720  26.694  24.726  1.00  0.00     0.022 A 
BRANCH  55  58
ATOM     58  S   UNL A   1      49.882  27.292  22.192  1.00  0.00     0.127 S 
ATOM     59  O   UNL A   1      51.276  26.879  22.049  1.00  0.00    -0.237 OA
ATOM     60  O   UNL A   1      48.897  26.316  21.723  1.00  0.00    -0.237 OA
ATOM     61  O   UNL A   1      49.593  28.669  21.815  1.00  0.00    -0.744 OA
ENDBRANCH  55  58
ENDBRANCH  27  51
BRANCH  39  62
ATOM     62  C   UNL A   1      45.272  32.915  28.945  1.00  0.00     0.023 A 
ATOM     63  C   UNL A   1      46.039  33.189  30.093  1.00  0.00     0.012 A 
ATOM     64  C   UNL A   1      45.035  33.941  28.007  1.00  0.00     0.148 A 
ATOM     65  C   UNL A   1      46.551  34.469  30.311  1.00  0.00     0.002 A 
ATOM     66  C   UNL A   1      45.593  35.197  28.204  1.00  0.00     0.091 A 
ATOM     67  F   UNL A   1      44.283  33.661  26.933  1.00  0.00    -0.205 F 
ATOM     68  C   UNL A   1      46.342  35.467  29.361  1.00  0.00     0.022 A 
BRANCH  66  69
ATOM     69  S   UNL A   1      45.464  36.511  26.985  1.00  0.00     0.127 S 
ATOM     70  O   UNL A   1      46.292  35.992  25.898  1.00  0.00    -0.237 OA
ATOM     71  O   UNL A   1      44.028  36.528  26.705  1.00  0.00    -0.237 OA
ATOM     72  O   UNL A   1      45.971  37.714  27.630  1.00  0.00    -0.744 OA
ENDBRANCH  66  69
ENDBRANCH  39  62
ENDBRANCH  13  14
ENDBRANCH   6   8
ENDBRANCH   3   4
ENDBRANCH   2   3
ENDBRANCH   1   2
BRANCH   1  73
ATOM     73  C   UNL A   1      35.583  21.404  25.453  1.00  0.00     0.116 C 
BRANCH  73  74
ATOM     74  N   UNL A   1      34.320  20.831  25.013  1.00  0.00    -0.352 N 
ATOM     75  C   UNL A   1      33.272  21.444  24.375  1.00  0.00     0.252 C 
ATOM     76  H   UNL A   1      34.202  19.870  25.196  1.00  0.00     0.163 HD
ATOM     77  O   UNL A   1      32.202  20.862  24.218  1.00  0.00    -0.269 OA
BRANCH  75  78
ATOM     78  C   UNL A   1      33.423  22.821  23.895  1.00  0.00     0.058 A 
ATOM     79  C   UNL A   1      33.563  23.897  24.770  1.00  0.00     0.017 A 
ATOM     80  C   UNL A   1      33.405  23.067  22.532  1.00  0.00     0.125 A 
ATOM     81  C   UNL A   1      33.591  25.186  24.249  1.00  0.00     0.030 A 
ATOM     82  N   UNL A   1      33.422  24.313  22.001  1.00  0.00    -0.255 NA
ATOM     83  C   UNL A   1      33.488  25.357  22.866  1.00  0.00     0.094 A 
BRANCH  83  84
ATOM     84  C   UNL A   1      33.373  26.755  22.292  1.00  0.00     0.318 C 
BRANCH  84  85
ATOM     85  N   UNL A   1      32.019  27.107  21.871  1.00  0.00    -0.337 N 
ATOM     86  H   UNL A   1      31.731  26.459  21.137  1.00  0.00     0.346 HD
ATOM     87  H   UNL A   1      32.047  28.073  21.545  1.00  0.00     0.346 HD
BRANCH  85  88
ATOM     88  C   UNL A   1      31.039  27.045  22.955  1.00  0.00     0.300 C 
BRANCH  88  89
ATOM     89  C   UNL A   1      29.929  28.060  22.825  1.00  0.00     0.045 A 
ATOM     90  C   UNL A   1      30.150  29.330  22.273  1.00  0.00     0.051 A 
ATOM     91  C   UNL A   1      28.631  27.753  23.256  1.00  0.00     0.132 A 
ATOM     92  C   UNL A   1      29.090  30.216  22.092  1.00  0.00     0.123 A 
ATOM     93  C   UNL A   1      27.577  28.655  23.103  1.00  0.00     0.043 A 
ATOM     94  F   UNL A   1      28.378  26.572  23.837  1.00  0.00    -0.206 F 
ATOM     95  F   UNL A   1      29.321  31.401  21.513  1.00  0.00    -0.207 F 
ATOM     96  C   UNL A   1      27.805  29.889  22.498  1.00  0.00     0.042 A 
ENDBRANCH  88  89
ENDBRANCH  85  88
ENDBRANCH  84  85
ENDBRANCH  83  84
ENDBRANCH  75  78
ENDBRANCH  73  74
ENDBRANCH   1  73
TORSDOF 18
ENDMDL
MODEL 2
REMARK VINA RESULT:     -12.0      5.547     10.546
REMARK SMILES O=C(NCCCCNC(=O)c1ccc(C[NH2+]Cc2cc(F)ccc2F)nc1)c1ccc(-c2c3nc(c(-c4cccc(S(=O)(=O)[O-])c4F)c4ccc([nH]4)c(-c4cccc(S(=O)(=O)[O-])c4F)c4nc(c(-c5cccc(S(=O)(=O)[O-])c5F)c5ccc2[nH]5)C=C4)C=C3)cc1
REMARK SMILES IDX 6 1 5 2 4 3 3 4 1 5 2 6 28 8 29 9 90 10 30 11 89 12 31 13
REMARK SMILES IDX 32 14 33 15 83 16 34 17 88 18 82 19 84 20 35 21 87 22 81 23
REMARK SMILES IDX 80 24 36 26 68 27 48 28 67 29 49 30 52 31 66 32 85 33 50 34
REMARK SMILES IDX 51 35 65 37 86 38 53 39 37 40 38 41 46 42 39 43 41 44 47 45
REMARK SMILES IDX 40 46 42 47 43 48 44 49 45 50 69 51 70 52 78 53 71 54 73 55
REMARK SMILES IDX 79 56 72 57 74 58 75 59 76 60 77 61 54 62 55 63 63 64 56 65
REMARK SMILES IDX 58 66 64 67 57 68 59 69 60 70 61 71 62 72 7 73 8 74 9 75
REMARK SMILES IDX 10 77 11 78 12 79 27 80 13 81 26 82 14 83 15 84 16 85 17 88
REMARK SMILES IDX 18 89 19 90 24 91 20 92 23 93 25 94 21 95 22 96
REMARK H PARENT 3 7 84 25 52 36 8 76 16 86 16 87
REMARK Flexibility Score: inf
ROOT
ATOM      1  C   UNL A   1      32.529  28.998  22.779  1.00  0.00     0.023 C 
ENDROOT
BRANCH   1   2
ATOM      2  C   UNL A   1      33.814  28.857  23.592  1.00  0.00     0.023 C 
BRANCH   2   3
ATOM      3  C   UNL A   1      33.627  28.903  25.103  1.00  0.00     0.116 C 
BRANCH   3   4
ATOM      4  N   UNL A   1      32.904  30.086  25.540  1.00  0.00    -0.352 N 
ATOM      5  O   UNL A   1      32.307  31.746  26.937  1.00  0.00    -0.269 OA
ATOM      6  C   UNL A   1      33.134  30.894  26.628  1.00  0.00     0.251 C 
ATOM      7  H   UNL A   1      32.140  30.346  24.976  1.00  0.00     0.163 HD
BRANCH   6   8
ATOM      8  C   UNL A   1      34.361  30.709  27.433  1.00  0.00     0.039 A 
ATOM      9  C   UNL A   1      35.253  31.767  27.627  1.00  0.00     0.014 A 
ATOM     10  C   UNL A   1      34.623  29.456  27.991  1.00  0.00     0.014 A 
ATOM     11  C   UNL A   1      36.475  31.537  28.251  1.00  0.00     0.010 A 
ATOM     12  C   UNL A   1      35.812  29.249  28.691  1.00  0.00     0.010 A 
ATOM     13  C   UNL A   1      36.764  30.278  28.797  1.00  0.00    -0.014 A 
BRANCH  13  14
ATOM     14  C   UNL A   1      38.037  30.051  29.526  1.00  0.00     0.031 A 
ATOM     15  C   UNL A   1      39.083  29.125  28.975  1.00  0.00     0.074 A 
ATOM     16  C   UNL A   1      38.219  30.642  30.721  1.00  0.00     0.049 A 
ATOM     17  N   UNL A   1      40.204  28.730  29.521  1.00  0.00    -0.248 NA
ATOM     18  C   UNL A   1      38.833  28.556  27.641  1.00  0.00     0.031 C 
ATOM     19  C   UNL A   1      37.262  31.541  31.369  1.00  0.00     0.029 A 
ATOM     20  N   UNL A   1      39.250  30.548  31.621  1.00  0.00    -0.354 N 
ATOM     21  C   UNL A   1      40.770  27.830  28.625  1.00  0.00     0.074 A 
ATOM     22  C   UNL A   1      39.864  27.735  27.499  1.00  0.00     0.031 C 
ATOM     23  C   UNL A   1      37.742  31.907  32.565  1.00  0.00     0.029 A 
ATOM     24  C   UNL A   1      39.007  31.219  32.796  1.00  0.00     0.049 A 
ATOM     25  H   UNL A   1      40.080  30.051  31.442  1.00  0.00     0.167 HD
ATOM     26  C   UNL A   1      41.936  27.149  28.731  1.00  0.00     0.034 A 
ATOM     27  C   UNL A   1      39.698  31.243  33.952  1.00  0.00     0.034 A 
ATOM     28  C   UNL A   1      42.834  27.262  29.851  1.00  0.00     0.049 A 
ATOM     29  C   UNL A   1      40.983  30.474  34.052  1.00  0.00     0.074 A 
ATOM     30  C   UNL A   1      44.072  26.668  30.025  1.00  0.00     0.029 A 
ATOM     31  N   UNL A   1      42.581  27.999  30.999  1.00  0.00    -0.354 N 
ATOM     32  N   UNL A   1      41.558  29.716  33.152  1.00  0.00    -0.248 NA
ATOM     33  C   UNL A   1      41.729  30.587  35.313  1.00  0.00     0.031 C 
ATOM     34  C   UNL A   1      44.546  27.009  31.296  1.00  0.00     0.029 A 
ATOM     35  C   UNL A   1      43.630  27.861  31.892  1.00  0.00     0.049 A 
ATOM     36  H   UNL A   1      41.774  28.541  31.156  1.00  0.00     0.167 HD
ATOM     37  C   UNL A   1      42.755  29.295  33.718  1.00  0.00     0.074 A 
ATOM     38  C   UNL A   1      42.821  29.884  35.040  1.00  0.00     0.031 C 
ATOM     39  C   UNL A   1      43.709  28.493  33.186  1.00  0.00     0.034 A 
BRANCH  26  40
ATOM     40  C   UNL A   1      42.309  26.217  27.605  1.00  0.00     0.023 A 
ATOM     41  C   UNL A   1      43.118  26.678  26.547  1.00  0.00     0.012 A 
ATOM     42  C   UNL A   1      41.884  24.873  27.613  1.00  0.00     0.148 A 
ATOM     43  C   UNL A   1      43.456  25.832  25.489  1.00  0.00     0.002 A 
ATOM     44  C   UNL A   1      42.266  24.024  26.581  1.00  0.00     0.091 A 
ATOM     45  F   UNL A   1      41.101  24.455  28.616  1.00  0.00    -0.205 F 
ATOM     46  C   UNL A   1      43.036  24.505  25.511  1.00  0.00     0.022 A 
BRANCH  44  47
ATOM     47  S   UNL A   1      41.845  22.278  26.565  1.00  0.00     0.127 S 
ATOM     48  O   UNL A   1      42.389  21.832  27.848  1.00  0.00    -0.237 OA
ATOM     49  O   UNL A   1      40.383  22.312  26.503  1.00  0.00    -0.237 OA
ATOM     50  O   UNL A   1      42.487  21.722  25.383  1.00  0.00    -0.744 OA
ENDBRANCH  44  47
ENDBRANCH  26  40
BRANCH  27  51
ATOM     51  C   UNL A   1      39.177  32.049  35.090  1.00  0.00     0.023 A 
ATOM     52  C   UNL A   1      38.230  31.488  35.965  1.00  0.00     0.012 A 
ATOM     53  C   UNL A   1      39.682  33.340  35.352  1.00  0.00     0.148 A 
ATOM     54  C   UNL A   1      37.779  32.205  37.074  1.00  0.00     0.002 A 
ATOM     55  C   UNL A   1      39.271  34.024  36.488  1.00  0.00     0.091 A 
ATOM     56  F   UNL A   1      40.583  33.852  34.503  1.00  0.00    -0.205 F 
ATOM     57  C   UNL A   1      38.308  33.464  37.343  1.00  0.00     0.022 A 
BRANCH  55  58
ATOM     58  S   UNL A   1      39.998  35.587  36.992  1.00  0.00     0.127 S 
ATOM     59  O   UNL A   1      39.650  36.453  35.868  1.00  0.00    -0.237 OA
ATOM     60  O   UNL A   1      39.273  35.865  38.233  1.00  0.00    -0.237 OA
ATOM     61  O   UNL A   1      41.419  35.327  37.168  1.00  0.00    -0.744 OA
ENDBRANCH  55  58
ENDBRANCH  27  51
BRANCH  39  62
ATOM     62  C   UNL A   1      44.954  28.244  33.996  1.00  0.00     0.023 A 
ATOM     63  C   UNL A   1      46.027  29.155  33.953  1.00  0.00     0.012 A 
ATOM     64  C   UNL A   1      45.005  27.152  34.886  1.00  0.00     0.148 A 
ATOM     65  C   UNL A   1      47.140  28.973  34.774  1.00  0.00     0.002 A 
ATOM     66  C   UNL A   1      46.092  27.008  35.739  1.00  0.00     0.091 A 
ATOM     67  F   UNL A   1      43.981  26.287  34.893  1.00  0.00    -0.205 F 
ATOM     68  C   UNL A   1      47.166  27.910  35.676  1.00  0.00     0.022 A 
BRANCH  66  69
ATOM     69  S   UNL A   1      46.164  25.734  37.003  1.00  0.00     0.127 S 
ATOM     70  O   UNL A   1      45.250  26.264  38.013  1.00  0.00    -0.237 OA
ATOM     71  O   UNL A   1      45.665  24.561  36.284  1.00  0.00    -0.237 OA
ATOM     72  O   UNL A   1      47.559  25.647  37.413  1.00  0.00    -0.744 OA
ENDBRANCH  66  69
ENDBRANCH  39  62
ENDBRANCH  13  14
ENDBRANCH   6   8
ENDBRANCH   3   4
ENDBRANCH   2   3
ENDBRANCH   1   2
BRANCH   1  73
ATOM     73  C   UNL A   1      31.812  27.686  22.469  1.00  0.00     0.116 C 
BRANCH  73  74
ATOM     74  N   UNL A   1      30.381  27.758  22.724  1.00  0.00    -0.352 N 
ATOM     75  C   UNL A   1      29.607  26.953  23.520  1.00  0.00     0.252 C 
ATOM     76  H   UNL A   1      29.904  28.486  22.264  1.00  0.00     0.163 HD
ATOM     77  O   UNL A   1      28.382  27.039  23.501  1.00  0.00    -0.269 OA
BRANCH  75  78
ATOM     78  C   UNL A   1      30.249  25.960  24.386  1.00  0.00     0.058 A 
ATOM     79  C   UNL A   1      30.514  24.662  23.953  1.00  0.00     0.017 A 
ATOM     80  C   UNL A   1      30.584  26.313  25.683  1.00  0.00     0.125 A 
ATOM     81  C   UNL A   1      31.024  23.742  24.863  1.00  0.00     0.030 A 
ATOM     82  N   UNL A   1      31.073  25.433  26.590  1.00  0.00    -0.255 NA
ATOM     83  C   UNL A   1      31.262  24.154  26.177  1.00  0.00     0.094 A 
BRANCH  83  84
ATOM     84  C   UNL A   1      31.681  23.133  27.215  1.00  0.00     0.318 C 
BRANCH  84  85
ATOM     85  N   UNL A   1      32.743  22.237  26.763  1.00  0.00    -0.337 N 
ATOM     86  H   UNL A   1      32.729  22.209  25.743  1.00  0.00     0.346 HD
ATOM     87  H   UNL A   1      32.563  21.323  27.177  1.00  0.00     0.346 HD
BRANCH  85  88
ATOM     88  C   UNL A   1      34.077  22.653  27.197  1.00  0.00     0.300 C 
BRANCH  88  89
ATOM     89  C   UNL A   1      35.115  22.592  26.103  1.00  0.00     0.045 A 
ATOM     90  C   UNL A   1      35.908  21.453  25.900  1.00  0.00     0.051 A 
ATOM     91  C   UNL A   1      35.313  23.684  25.248  1.00  0.00     0.132 A 
ATOM     92  C   UNL A   1      36.802  21.394  24.833  1.00  0.00     0.123 A 
ATOM     93  C   UNL A   1      36.232  23.635  24.199  1.00  0.00     0.043 A 
ATOM     94  F   UNL A   1      34.616  24.814  25.430  1.00  0.00    -0.206 F 
ATOM     95  F   UNL A   1      37.508  20.274  24.632  1.00  0.00    -0.207 F 
ATOM     96  C   UNL A   1      36.968  22.473  23.978  1.00  0.00     0.042 A 
ENDBRANCH  88  89
ENDBRANCH  85  88
ENDBRANCH  84  85
ENDBRANCH  83  84
ENDBRANCH  75  78
ENDBRANCH  73  74
ENDBRANCH   1  73
TORSDOF 18
ENDMDL
MODEL 3
REMARK VINA RESULT:     -11.8      5.624     10.761
REMARK SMILES O=C(NCCCCNC(=O)c1ccc(C[NH2+]Cc2cc(F)ccc2F)nc1)c1ccc(-c2c3nc(c(-c4cccc(S(=O)(=O)[O-])c4F)c4ccc([nH]4)c(-c4cccc(S(=O)(=O)[O-])c4F)c4nc(c(-c5cccc(S(=O)(=O)[O-])c5F)c5ccc2[nH]5)C=C4)C=C3)cc1
REMARK SMILES IDX 6 1 5 2 4 3 3 4 1 5 2 6 28 8 29 9 90 10 30 11 89 12 31 13
REMARK SMILES IDX 32 14 33 15 83 16 34 17 88 18 82 19 84 20 35 21 87 22 81 23
REMARK SMILES IDX 80 24 36 26 68 27 48 28 67 29 49 30 52 31 66 32 85 33 50 34
REMARK SMILES IDX 51 35 65 37 86 38 53 39 37 40 38 41 46 42 39 43 41 44 47 45
REMARK SMILES IDX 40 46 42 47 43 48 44 49 45 50 69 51 70 52 78 53 71 54 73 55
REMARK SMILES IDX 79 56 72 57 74 58 75 59 76 60 77 61 54 62 55 63 63 64 56 65
REMARK SMILES IDX 58 66 64 67 57 68 59 69 60 70 61 71 62 72 7 73 8 74 9 75
REMARK SMILES IDX 10 77 11 78 12 79 27 80 13 81 26 82 14 83 15 84 16 85 17 88
REMARK SMILES IDX 18 89 19 90 24 91 20 92 23 93 25 94 21 95 22 96
REMARK H PARENT 3 7 84 25 52 36 8 76 16 86 16 87
REMARK Flexibility Score: inf
ROOT
ATOM      1  C   UNL A   1      31.076  27.660  25.314  1.00  0.00     0.023 C 
ENDROOT
BRANCH   1   2
ATOM      2  C   UNL A   1      32.410  28.002  25.973  1.00  0.00     0.023 C 
BRANCH   2   3
ATOM      3  C   UNL A   1      33.147  29.184  25.356  1.00  0.00     0.116 C 
BRANCH   3   4
ATOM      4  N   UNL A   1      32.654  30.463  25.842  1.00  0.00    -0.352 N 
ATOM      5  O   UNL A   1      32.476  32.212  27.246  1.00  0.00    -0.269 OA
ATOM      6  C   UNL A   1      33.132  31.249  26.863  1.00  0.00     0.251 C 
ATOM      7  H   UNL A   1      31.865  30.817  25.371  1.00  0.00     0.163 HD
BRANCH   6   8
ATOM      8  C   UNL A   1      34.417  30.909  27.510  1.00  0.00     0.039 A 
ATOM      9  C   UNL A   1      34.647  29.624  28.009  1.00  0.00     0.014 A 
ATOM     10  C   UNL A   1      35.399  31.895  27.627  1.00  0.00     0.014 A 
ATOM     11  C   UNL A   1      35.795  29.364  28.752  1.00  0.00     0.010 A 
ATOM     12  C   UNL A   1      36.588  31.608  28.299  1.00  0.00     0.010 A 
ATOM     13  C   UNL A   1      36.781  30.351  28.897  1.00  0.00    -0.014 A 
BRANCH  13  14
ATOM     14  C   UNL A   1      38.038  30.053  29.629  1.00  0.00     0.031 A 
ATOM     15  C   UNL A   1      39.055  29.108  29.056  1.00  0.00     0.074 A 
ATOM     16  C   UNL A   1      38.229  30.597  30.845  1.00  0.00     0.049 A 
ATOM     17  N   UNL A   1      40.156  28.655  29.598  1.00  0.00    -0.248 NA
ATOM     18  C   UNL A   1      38.797  28.594  27.702  1.00  0.00     0.031 C 
ATOM     19  C   UNL A   1      37.299  31.510  31.514  1.00  0.00     0.029 A 
ATOM     20  N   UNL A   1      39.248  30.437  31.749  1.00  0.00    -0.354 N 
ATOM     21  C   UNL A   1      40.697  27.765  28.677  1.00  0.00     0.074 A 
ATOM     22  C   UNL A   1      39.800  27.741  27.541  1.00  0.00     0.031 C 
ATOM     23  C   UNL A   1      37.781  31.817  32.726  1.00  0.00     0.029 A 
ATOM     24  C   UNL A   1      39.018  31.077  32.944  1.00  0.00     0.049 A 
ATOM     25  H   UNL A   1      40.062  29.916  31.561  1.00  0.00     0.167 HD
ATOM     26  C   UNL A   1      41.837  27.040  28.770  1.00  0.00     0.034 A 
ATOM     27  C   UNL A   1      39.699  31.038  34.106  1.00  0.00     0.034 A 
ATOM     28  C   UNL A   1      42.728  27.082  29.900  1.00  0.00     0.049 A 
ATOM     29  C   UNL A   1      40.954  30.220  34.191  1.00  0.00     0.074 A 
ATOM     30  C   UNL A   1      43.942  26.438  30.064  1.00  0.00     0.029 A 
ATOM     31  N   UNL A   1      42.491  27.790  31.071  1.00  0.00    -0.354 N 
ATOM     32  N   UNL A   1      41.510  29.472  33.270  1.00  0.00    -0.248 NA
ATOM     33  C   UNL A   1      41.693  30.264  35.460  1.00  0.00     0.031 C 
ATOM     34  C   UNL A   1      44.416  26.720  31.350  1.00  0.00     0.029 A 
ATOM     35  C   UNL A   1      43.525  27.585  31.967  1.00  0.00     0.049 A 
ATOM     36  H   UNL A   1      41.703  28.356  31.238  1.00  0.00     0.167 HD
ATOM     37  C   UNL A   1      42.686  28.989  33.832  1.00  0.00     0.074 A 
ATOM     38  C   UNL A   1      42.761  29.531  35.174  1.00  0.00     0.031 C 
ATOM     39  C   UNL A   1      43.615  28.170  33.281  1.00  0.00     0.034 A 
BRANCH  26  40
ATOM     40  C   UNL A   1      42.187  26.132  27.617  1.00  0.00     0.023 A 
ATOM     41  C   UNL A   1      42.877  26.645  26.500  1.00  0.00     0.012 A 
ATOM     42  C   UNL A   1      41.860  24.762  27.655  1.00  0.00     0.148 A 
ATOM     43  C   UNL A   1      43.190  25.821  25.418  1.00  0.00     0.002 A 
ATOM     44  C   UNL A   1      42.220  23.938  26.595  1.00  0.00     0.091 A 
ATOM     45  F   UNL A   1      41.189  24.292  28.716  1.00  0.00    -0.205 F 
ATOM     46  C   UNL A   1      42.869  24.468  25.470  1.00  0.00     0.022 A 
BRANCH  44  47
ATOM     47  S   UNL A   1      41.924  22.166  26.609  1.00  0.00     0.127 S 
ATOM     48  O   UNL A   1      42.975  21.684  25.713  1.00  0.00    -0.237 OA
ATOM     49  O   UNL A   1      42.126  21.829  28.020  1.00  0.00    -0.237 OA
ATOM     50  O   UNL A   1      40.561  21.984  26.134  1.00  0.00    -0.744 OA
ENDBRANCH  44  47
ENDBRANCH  26  40
BRANCH  27  51
ATOM     51  C   UNL A   1      39.197  31.825  35.265  1.00  0.00     0.023 A 
ATOM     52  C   UNL A   1      38.360  31.210  36.214  1.00  0.00     0.012 A 
ATOM     53  C   UNL A   1      39.616  33.155  35.471  1.00  0.00     0.148 A 
ATOM     54  C   UNL A   1      37.932  31.912  37.341  1.00  0.00     0.002 A 
ATOM     55  C   UNL A   1      39.233  33.828  36.624  1.00  0.00     0.091 A 
ATOM     56  F   UNL A   1      40.413  33.717  34.553  1.00  0.00    -0.205 F 
ATOM     57  C   UNL A   1      38.378  33.214  37.553  1.00  0.00     0.022 A 
BRANCH  55  58
ATOM     58  S   UNL A   1      39.868  35.453  37.051  1.00  0.00     0.127 S 
ATOM     59  O   UNL A   1      39.072  35.783  38.231  1.00  0.00    -0.237 OA
ATOM     60  O   UNL A   1      41.277  35.160  37.320  1.00  0.00    -0.237 OA
ATOM     61  O   UNL A   1      39.638  36.290  35.883  1.00  0.00    -0.744 OA
ENDBRANCH  55  58
ENDBRANCH  27  51
BRANCH  39  62
ATOM     62  C   UNL A   1      44.843  27.850  34.093  1.00  0.00     0.023 A 
ATOM     63  C   UNL A   1      45.944  28.728  34.098  1.00  0.00     0.012 A 
ATOM     64  C   UNL A   1      44.850  26.721  34.938  1.00  0.00     0.148 A 
ATOM     65  C   UNL A   1      47.041  28.478  34.923  1.00  0.00     0.002 A 
ATOM     66  C   UNL A   1      45.923  26.509  35.795  1.00  0.00     0.091 A 
ATOM     67  F   UNL A   1      43.800  25.889  34.899  1.00  0.00    -0.205 F 
ATOM     68  C   UNL A   1      47.025  27.379  35.781  1.00  0.00     0.022 A 
BRANCH  66  69
ATOM     69  S   UNL A   1      45.941  25.182  37.006  1.00  0.00     0.127 S 
ATOM     70  O   UNL A   1      47.192  25.443  37.715  1.00  0.00    -0.237 OA
ATOM     71  O   UNL A   1      44.730  25.457  37.780  1.00  0.00    -0.237 OA
ATOM     72  O   UNL A   1      45.907  23.939  36.246  1.00  0.00    -0.744 OA
ENDBRANCH  66  69
ENDBRANCH  39  62
ENDBRANCH  13  14
ENDBRANCH   6   8
ENDBRANCH   3   4
ENDBRANCH   2   3
ENDBRANCH   1   2
BRANCH   1  73
ATOM     73  C   UNL A   1      31.123  26.502  24.320  1.00  0.00     0.116 C 
BRANCH  73  74
ATOM     74  N   UNL A   1      31.893  26.821  23.128  1.00  0.00    -0.352 N 
ATOM     75  C   UNL A   1      33.095  26.303  22.714  1.00  0.00     0.252 C 
ATOM     76  H   UNL A   1      31.498  27.502  22.536  1.00  0.00     0.163 HD
ATOM     77  O   UNL A   1      33.701  26.797  21.768  1.00  0.00    -0.269 OA
BRANCH  75  78
ATOM     78  C   UNL A   1      33.672  25.159  23.427  1.00  0.00     0.058 A 
ATOM     79  C   UNL A   1      34.333  25.304  24.644  1.00  0.00     0.017 A 
ATOM     80  C   UNL A   1      33.577  23.896  22.864  1.00  0.00     0.125 A 
ATOM     81  C   UNL A   1      34.951  24.193  25.209  1.00  0.00     0.030 A 
ATOM     82  N   UNL A   1      34.178  22.801  23.389  1.00  0.00    -0.255 NA
ATOM     83  C   UNL A   1      34.879  22.968  24.540  1.00  0.00     0.094 A 
BRANCH  83  84
ATOM     84  C   UNL A   1      35.664  21.783  25.064  1.00  0.00     0.318 C 
BRANCH  84  85
ATOM     85  N   UNL A   1      34.873  20.872  25.887  1.00  0.00    -0.337 N 
ATOM     86  H   UNL A   1      34.698  21.318  26.787  1.00  0.00     0.346 HD
ATOM     87  H   UNL A   1      35.408  20.009  25.981  1.00  0.00     0.346 HD
BRANCH  85  88
ATOM     88  C   UNL A   1      33.585  20.519  25.288  1.00  0.00     0.300 C 
BRANCH  88  89
ATOM     89  C   UNL A   1      33.606  19.208  24.538  1.00  0.00     0.045 A 
ATOM     90  C   UNL A   1      34.472  18.165  24.898  1.00  0.00     0.051 A 
ATOM     91  C   UNL A   1      32.747  18.996  23.452  1.00  0.00     0.132 A 
ATOM     92  C   UNL A   1      34.414  16.939  24.240  1.00  0.00     0.123 A 
ATOM     93  C   UNL A   1      32.713  17.777  22.773  1.00  0.00     0.043 A 
ATOM     94  F   UNL A   1      31.935  19.978  23.036  1.00  0.00    -0.206 F 
ATOM     95  F   UNL A   1      35.215  15.943  24.640  1.00  0.00    -0.207 F 
ATOM     96  C   UNL A   1      33.539  16.734  23.183  1.00  0.00     0.042 A 
ENDBRANCH  88  89
ENDBRANCH  85  88
ENDBRANCH  84  85
ENDBRANCH  83  84
ENDBRANCH  75  78
ENDBRANCH  73  74
ENDBRANCH   1  73
TORSDOF 18
ENDMDL
