MODEL 1
REMARK VINA RESULT:     -10.7      0.000      0.000
REMARK SMILES C[C@@H]1CCC[C@](O)([C@H](F)C(=O)NCCCCNC(=O)c2ccc(-c3c4nc(c(-c5cccc(S(=O)(=O)[O-])c5F)c5ccc([nH]5)c(-c5cccc(S(=O)(=O)[O-])c5F)c5nc(c(-c6cccc(S(=O)(=O)[O-])c6F)c6ccc3[nH]6)C=C5)C=C4)cc2)C1
REMARK SMILES IDX 15 1 14 2 13 3 12 4 10 5 11 6 8 8 9 9 6 10 1 11 2 12 3 13
REMARK SMILES IDX 83 14 4 15 5 16 7 17 16 19 17 20 18 21 19 23 20 24 21 25
REMARK SMILES IDX 82 26 22 27 81 28 23 29 24 30 25 31 75 32 26 33 80 34 74 35
REMARK SMILES IDX 76 36 27 37 79 38 73 39 72 40 28 42 60 43 40 44 59 45 41 46
REMARK SMILES IDX 44 47 58 48 77 49 42 50 43 51 57 53 78 54 45 55 29 56 30 57
REMARK SMILES IDX 38 58 31 59 33 60 39 61 32 62 34 63 35 64 36 65 37 66 61 67
REMARK SMILES IDX 62 68 70 69 63 70 65 71 71 72 64 73 66 74 67 75 68 76 69 77
REMARK SMILES IDX 46 78 47 79 55 80 48 81 50 82 56 83 49 84 51 85 52 86 53 87
REMARK SMILES IDX 54 88
REMARK H PARENT 12 7 7 18 17 22 76 41 44 52
REMARK Flexibility Score: inf
ROOT
ATOM      1  C   UNL A   1      34.306  34.340  27.734  1.00  0.00     0.023 C 
ENDROOT
BRANCH   1   2
ATOM      2  C   UNL A   1      33.222  34.670  28.759  1.00  0.00     0.023 C 
BRANCH   2   3
ATOM      3  C   UNL A   1      33.565  35.786  29.738  1.00  0.00     0.116 C 
BRANCH   3   4
ATOM      4  N   UNL A   1      32.612  35.913  30.821  1.00  0.00    -0.353 N 
ATOM      5  C   UNL A   1      32.844  35.758  32.154  1.00  0.00     0.257 C 
ATOM      6  O   UNL A   1      31.946  36.083  32.940  1.00  0.00    -0.272 OA
ATOM      7  H   UNL A   1      31.689  36.138  30.563  1.00  0.00     0.163 HD
BRANCH   5   8
ATOM      8  C   UNL A   1      34.177  35.237  32.683  1.00  0.00     0.286 C 
ATOM      9  F   UNL A   1      34.632  35.949  33.762  1.00  0.00    -0.234 F 
BRANCH   8  10
ATOM     10  C   UNL A   1      34.214  33.720  33.011  1.00  0.00     0.105 C 
ATOM     11  C   UNL A   1      37.406  34.735  33.457  1.00  0.00     0.008 C 
ATOM     12  C   UNL A   1      36.745  33.363  33.605  1.00  0.00    -0.011 C 
ATOM     13  C   UNL A   1      36.883  32.531  32.323  1.00  0.00     0.003 C 
ATOM     14  C   UNL A   1      35.283  33.422  34.088  1.00  0.00     0.042 C 
ATOM     15  C   UNL A   1      35.870  32.910  31.244  1.00  0.00     0.003 C 
ATOM     16  C   UNL A   1      34.448  32.825  31.781  1.00  0.00     0.039 C 
BRANCH  10  17
ATOM     17  O   UNL A   1      32.953  33.325  33.587  1.00  0.00    -0.386 OA
ATOM     18  H   UNL A   1      32.818  32.375  33.450  1.00  0.00     0.211 HD
ENDBRANCH  10  17
ENDBRANCH   8  10
ENDBRANCH   5   8
ENDBRANCH   3   4
ENDBRANCH   2   3
ENDBRANCH   1   2
BRANCH   1  19
ATOM     19  C   UNL A   1      35.080  33.052  27.991  1.00  0.00     0.116 C 
BRANCH  19  20
ATOM     20  N   UNL A   1      34.325  31.855  27.641  1.00  0.00    -0.352 N 
ATOM     21  C   UNL A   1      34.705  30.533  27.717  1.00  0.00     0.251 C 
ATOM     22  H   UNL A   1      33.414  32.014  27.302  1.00  0.00     0.163 HD
ATOM     23  O   UNL A   1      33.995  29.652  27.255  1.00  0.00    -0.269 OA
BRANCH  21  24
ATOM     24  C   UNL A   1      36.003  30.198  28.341  1.00  0.00     0.039 A 
ATOM     25  C   UNL A   1      36.019  29.571  29.590  1.00  0.00     0.014 A 
ATOM     26  C   UNL A   1      37.196  30.450  27.661  1.00  0.00     0.014 A 
ATOM     27  C   UNL A   1      37.230  29.112  30.115  1.00  0.00     0.010 A 
ATOM     28  C   UNL A   1      38.386  29.921  28.147  1.00  0.00     0.010 A 
ATOM     29  C   UNL A   1      38.417  29.242  29.376  1.00  0.00    -0.014 A 
BRANCH  29  30
ATOM     30  C   UNL A   1      39.708  28.670  29.843  1.00  0.00     0.031 A 
ATOM     31  C   UNL A   1      40.470  29.358  30.944  1.00  0.00     0.074 A 
ATOM     32  C   UNL A   1      40.258  27.626  29.190  1.00  0.00     0.049 A 
ATOM     33  N   UNL A   1      41.679  29.124  31.381  1.00  0.00    -0.248 NA
ATOM     34  C   UNL A   1      39.799  30.484  31.617  1.00  0.00     0.031 C 
ATOM     35  C   UNL A   1      39.657  26.919  28.056  1.00  0.00     0.029 A 
ATOM     36  N   UNL A   1      41.472  27.003  29.358  1.00  0.00    -0.354 N 
ATOM     37  C   UNL A   1      41.937  30.108  32.328  1.00  0.00     0.074 A 
ATOM     38  C   UNL A   1      40.764  30.951  32.396  1.00  0.00     0.031 C 
ATOM     39  C   UNL A   1      40.506  25.971  27.626  1.00  0.00     0.029 A 
ATOM     40  C   UNL A   1      41.725  26.020  28.426  1.00  0.00     0.049 A 
ATOM     41  H   UNL A   1      42.102  27.238  30.077  1.00  0.00     0.167 HD
ATOM     42  C   UNL A   1      43.043  30.281  33.089  1.00  0.00     0.034 A 
ATOM     43  C   UNL A   1      42.820  25.259  28.230  1.00  0.00     0.034 A 
ATOM     44  C   UNL A   1      44.170  29.391  33.083  1.00  0.00     0.049 A 
ATOM     45  C   UNL A   1      44.003  25.428  29.147  1.00  0.00     0.074 A 
ATOM     46  C   UNL A   1      45.281  29.409  33.908  1.00  0.00     0.029 A 
ATOM     47  N   UNL A   1      44.331  28.325  32.214  1.00  0.00    -0.354 N 
ATOM     48  N   UNL A   1      44.155  26.254  30.155  1.00  0.00    -0.248 NA
ATOM     49  C   UNL A   1      45.155  24.540  28.923  1.00  0.00     0.031 C 
ATOM     50  C   UNL A   1      46.121  28.359  33.528  1.00  0.00     0.029 A 
ATOM     51  C   UNL A   1      45.524  27.679  32.480  1.00  0.00     0.049 A 
ATOM     52  H   UNL A   1      43.690  28.065  31.513  1.00  0.00     0.167 HD
ATOM     53  C   UNL A   1      45.392  25.951  30.711  1.00  0.00     0.074 A 
ATOM     54  C   UNL A   1      45.945  24.859  29.939  1.00  0.00     0.031 C 
ATOM     55  C   UNL A   1      46.022  26.537  31.758  1.00  0.00     0.034 A 
BRANCH  42  56
ATOM     56  C   UNL A   1      43.074  31.442  34.045  1.00  0.00     0.023 A 
ATOM     57  C   UNL A   1      43.625  32.671  33.629  1.00  0.00     0.012 A 
ATOM     58  C   UNL A   1      42.472  31.346  35.314  1.00  0.00     0.148 A 
ATOM     59  C   UNL A   1      43.594  33.782  34.469  1.00  0.00     0.002 A 
ATOM     60  C   UNL A   1      42.405  32.469  36.129  1.00  0.00     0.091 A 
ATOM     61  F   UNL A   1      41.970  30.162  35.696  1.00  0.00    -0.205 F 
ATOM     62  C   UNL A   1      42.973  33.685  35.713  1.00  0.00     0.022 A 
BRANCH  60  63
ATOM     63  S   UNL A   1      41.559  32.472  37.714  1.00  0.00     0.127 S 
ATOM     64  O   UNL A   1      42.351  31.504  38.472  1.00  0.00    -0.237 OA
ATOM     65  O   UNL A   1      41.720  33.861  38.144  1.00  0.00    -0.237 OA
ATOM     66  O   UNL A   1      40.186  32.073  37.440  1.00  0.00    -0.744 OA
ENDBRANCH  60  63
ENDBRANCH  42  56
BRANCH  43  67
ATOM     67  C   UNL A   1      42.837  24.218  27.162  1.00  0.00     0.023 A 
ATOM     68  C   UNL A   1      43.496  24.491  25.948  1.00  0.00     0.012 A 
ATOM     69  C   UNL A   1      42.202  22.973  27.330  1.00  0.00     0.148 A 
ATOM     70  C   UNL A   1      43.487  23.563  24.905  1.00  0.00     0.002 A 
ATOM     71  C   UNL A   1      42.244  22.030  26.308  1.00  0.00     0.091 A 
ATOM     72  F   UNL A   1      41.563  22.732  28.484  1.00  0.00    -0.205 F 
ATOM     73  C   UNL A   1      42.868  22.330  25.088  1.00  0.00     0.022 A 
BRANCH  71  74
ATOM     74  S   UNL A   1      41.582  20.373  26.515  1.00  0.00     0.127 S 
ATOM     75  O   UNL A   1      42.152  19.980  27.800  1.00  0.00    -0.237 OA
ATOM     76  O   UNL A   1      40.139  20.615  26.529  1.00  0.00    -0.237 OA
ATOM     77  O   UNL A   1      42.047  19.629  25.351  1.00  0.00    -0.744 OA
ENDBRANCH  71  74
ENDBRANCH  43  67
BRANCH  55  78
ATOM     78  C   UNL A   1      47.352  25.981  32.187  1.00  0.00     0.023 A 
ATOM     79  C   UNL A   1      48.538  26.489  31.624  1.00  0.00     0.012 A 
ATOM     80  C   UNL A   1      47.428  25.035  33.229  1.00  0.00     0.148 A 
ATOM     81  C   UNL A   1      49.781  26.050  32.077  1.00  0.00     0.002 A 
ATOM     82  C   UNL A   1      48.669  24.637  33.709  1.00  0.00     0.091 A 
ATOM     83  F   UNL A   1      46.285  24.553  33.738  1.00  0.00    -0.205 F 
ATOM     84  C   UNL A   1      49.847  25.136  33.128  1.00  0.00     0.022 A 
BRANCH  82  85
ATOM     85  S   UNL A   1      48.848  23.545  35.124  1.00  0.00     0.127 S 
ATOM     86  O   UNL A   1      48.371  24.391  36.216  1.00  0.00    -0.237 OA
ATOM     87  O   UNL A   1      47.957  22.438  34.776  1.00  0.00    -0.237 OA
ATOM     88  O   UNL A   1      50.260  23.188  35.179  1.00  0.00    -0.744 OA
ENDBRANCH  82  85
ENDBRANCH  55  78
ENDBRANCH  29  30
ENDBRANCH  21  24
ENDBRANCH  19  20
ENDBRANCH   1  19
TORSDOF 16
ENDMDL
MODEL 2
REMARK VINA RESULT:     -10.6      4.001      6.442
REMARK SMILES C[C@@H]1CCC[C@](O)([C@H](F)C(=O)NCCCCNC(=O)c2ccc(-c3c4nc(c(-c5cccc(S(=O)(=O)[O-])c5F)c5ccc([nH]5)c(-c5cccc(S(=O)(=O)[O-])c5F)c5nc(c(-c6cccc(S(=O)(=O)[O-])c6F)c6ccc3[nH]6)C=C5)C=C4)cc2)C1
REMARK SMILES IDX 15 1 14 2 13 3 12 4 10 5 11 6 8 8 9 9 6 10 1 11 2 12 3 13
REMARK SMILES IDX 83 14 4 15 5 16 7 17 16 19 17 20 18 21 19 23 20 24 21 25
REMARK SMILES IDX 82 26 22 27 81 28 23 29 24 30 25 31 75 32 26 33 80 34 74 35
REMARK SMILES IDX 76 36 27 37 79 38 73 39 72 40 28 42 60 43 40 44 59 45 41 46
REMARK SMILES IDX 44 47 58 48 77 49 42 50 43 51 57 53 78 54 45 55 29 56 30 57
REMARK SMILES IDX 38 58 31 59 33 60 39 61 32 62 34 63 35 64 36 65 37 66 61 67
REMARK SMILES IDX 62 68 70 69 63 70 65 71 71 72 64 73 66 74 67 75 68 76 69 77
REMARK SMILES IDX 46 78 47 79 55 80 48 81 50 82 56 83 49 84 51 85 52 86 53 87
REMARK SMILES IDX 54 88
REMARK H PARENT 12 7 7 18 17 22 76 41 44 52
REMARK Flexibility Score: inf
ROOT
ATOM      1  C   UNL A   1      31.576  29.023  26.464  1.00  0.00     0.023 C 
ENDROOT
BRANCH   1   2
ATOM      2  C   UNL A   1      31.988  27.629  26.935  1.00  0.00     0.023 C 
BRANCH   2   3
ATOM      3  C   UNL A   1      31.729  26.499  25.944  1.00  0.00     0.116 C 
BRANCH   3   4
ATOM      4  N   UNL A   1      30.802  25.503  26.438  1.00  0.00    -0.353 N 
ATOM      5  C   UNL A   1      31.042  24.180  26.658  1.00  0.00     0.257 C 
ATOM      6  O   UNL A   1      30.178  23.525  27.251  1.00  0.00    -0.272 OA
ATOM      7  H   UNL A   1      29.891  25.819  26.640  1.00  0.00     0.163 HD
BRANCH   5   8
ATOM      8  C   UNL A   1      32.347  23.518  26.224  1.00  0.00     0.286 C 
ATOM      9  F   UNL A   1      33.091  23.073  27.284  1.00  0.00    -0.234 F 
BRANCH   8  10
ATOM     10  C   UNL A   1      32.197  22.377  25.181  1.00  0.00     0.105 C 
ATOM     11  C   UNL A   1      35.222  23.724  24.500  1.00  0.00     0.008 C 
ATOM     12  C   UNL A   1      34.452  22.570  23.852  1.00  0.00    -0.011 C 
ATOM     13  C   UNL A   1      33.644  23.044  22.636  1.00  0.00     0.003 C 
ATOM     14  C   UNL A   1      33.578  21.770  24.837  1.00  0.00     0.042 C 
ATOM     15  C   UNL A   1      32.327  23.720  23.012  1.00  0.00     0.003 C 
ATOM     16  C   UNL A   1      31.480  22.808  23.889  1.00  0.00     0.039 C 
BRANCH  10  17
ATOM     17  O   UNL A   1      31.426  21.303  25.755  1.00  0.00    -0.386 OA
ATOM     18  H   UNL A   1      30.602  21.657  26.123  1.00  0.00     0.211 HD
ENDBRANCH  10  17
ENDBRANCH   8  10
ENDBRANCH   5   8
ENDBRANCH   3   4
ENDBRANCH   2   3
ENDBRANCH   1   2
BRANCH   1  19
ATOM     19  C   UNL A   1      32.718  29.921  26.001  1.00  0.00     0.116 C 
BRANCH  19  20
ATOM     20  N   UNL A   1      32.557  31.307  26.422  1.00  0.00    -0.352 N 
ATOM     21  C   UNL A   1      33.334  32.050  27.284  1.00  0.00     0.251 C 
ATOM     22  H   UNL A   1      31.784  31.778  26.036  1.00  0.00     0.163 HD
ATOM     23  O   UNL A   1      32.982  33.167  27.635  1.00  0.00    -0.269 OA
BRANCH  21  24
ATOM     24  C   UNL A   1      34.589  31.463  27.802  1.00  0.00     0.039 A 
ATOM     25  C   UNL A   1      35.690  32.295  28.026  1.00  0.00     0.014 A 
ATOM     26  C   UNL A   1      34.651  30.105  28.119  1.00  0.00     0.014 A 
ATOM     27  C   UNL A   1      36.825  31.779  28.658  1.00  0.00     0.010 A 
ATOM     28  C   UNL A   1      35.747  29.616  28.820  1.00  0.00     0.010 A 
ATOM     29  C   UNL A   1      36.844  30.448  29.103  1.00  0.00    -0.014 A 
BRANCH  29  30
ATOM     30  C   UNL A   1      37.983  29.888  29.879  1.00  0.00     0.031 A 
ATOM     31  C   UNL A   1      38.234  30.368  31.283  1.00  0.00     0.074 A 
ATOM     32  C   UNL A   1      38.864  29.062  29.278  1.00  0.00     0.049 A 
ATOM     33  N   UNL A   1      39.255  30.136  32.064  1.00  0.00    -0.248 NA
ATOM     34  C   UNL A   1      37.220  31.260  31.874  1.00  0.00     0.031 C 
ATOM     35  C   UNL A   1      38.778  28.583  27.896  1.00  0.00     0.029 A 
ATOM     36  N   UNL A   1      40.037  28.513  29.742  1.00  0.00    -0.354 N 
ATOM     37  C   UNL A   1      39.042  30.901  33.204  1.00  0.00     0.074 A 
ATOM     38  C   UNL A   1      37.799  31.613  33.012  1.00  0.00     0.031 C 
ATOM     39  C   UNL A   1      39.852  27.823  27.623  1.00  0.00     0.029 A 
ATOM     40  C   UNL A   1      40.722  27.786  28.794  1.00  0.00     0.049 A 
ATOM     41  H   UNL A   1      40.356  28.629  30.666  1.00  0.00     0.167 HD
ATOM     42  C   UNL A   1      39.802  30.983  34.322  1.00  0.00     0.034 A 
ATOM     43  C   UNL A   1      41.922  27.175  28.856  1.00  0.00     0.034 A 
ATOM     44  C   UNL A   1      40.988  30.207  34.546  1.00  0.00     0.049 A 
ATOM     45  C   UNL A   1      42.703  27.225  30.143  1.00  0.00     0.074 A 
ATOM     46  C   UNL A   1      41.754  30.125  35.695  1.00  0.00     0.029 A 
ATOM     47  N   UNL A   1      41.580  29.378  33.608  1.00  0.00    -0.354 N 
ATOM     48  N   UNL A   1      42.394  27.813  31.274  1.00  0.00    -0.248 NA
ATOM     49  C   UNL A   1      43.984  26.501  30.176  1.00  0.00     0.031 C 
ATOM     50  C   UNL A   1      42.819  29.255  35.447  1.00  0.00     0.029 A 
ATOM     51  C   UNL A   1      42.704  28.783  34.150  1.00  0.00     0.049 A 
ATOM     52  H   UNL A   1      41.248  29.233  32.692  1.00  0.00     0.167 HD
ATOM     53  C   UNL A   1      43.413  27.490  32.162  1.00  0.00     0.074 A 
ATOM     54  C   UNL A   1      44.344  26.644  31.445  1.00  0.00     0.031 C 
ATOM     55  C   UNL A   1      43.574  27.873  33.451  1.00  0.00     0.034 A 
BRANCH  42  56
ATOM     56  C   UNL A   1      39.346  31.900  35.425  1.00  0.00     0.023 A 
ATOM     57  C   UNL A   1      39.584  33.285  35.320  1.00  0.00     0.012 A 
ATOM     58  C   UNL A   1      38.600  31.404  36.511  1.00  0.00     0.148 A 
ATOM     59  C   UNL A   1      39.103  34.161  36.291  1.00  0.00     0.002 A 
ATOM     60  C   UNL A   1      38.086  32.288  37.452  1.00  0.00     0.091 A 
ATOM     61  F   UNL A   1      38.401  30.080  36.599  1.00  0.00    -0.205 F 
ATOM     62  C   UNL A   1      38.344  33.665  37.348  1.00  0.00     0.022 A 
BRANCH  60  63
ATOM     63  S   UNL A   1      37.031  31.761  38.807  1.00  0.00     0.127 S 
ATOM     64  O   UNL A   1      35.905  32.685  38.680  1.00  0.00    -0.237 OA
ATOM     65  O   UNL A   1      36.728  30.378  38.439  1.00  0.00    -0.237 OA
ATOM     66  O   UNL A   1      37.824  31.911  40.018  1.00  0.00    -0.744 OA
ENDBRANCH  60  63
ENDBRANCH  42  56
BRANCH  43  67
ATOM     67  C   UNL A   1      42.440  26.404  27.689  1.00  0.00     0.023 A 
ATOM     68  C   UNL A   1      43.298  27.042  26.771  1.00  0.00     0.012 A 
ATOM     69  C   UNL A   1      42.088  25.058  27.474  1.00  0.00     0.148 A 
ATOM     70  C   UNL A   1      43.759  26.369  25.639  1.00  0.00     0.002 A 
ATOM     71  C   UNL A   1      42.596  24.376  26.372  1.00  0.00     0.091 A 
ATOM     72  F   UNL A   1      41.257  24.468  28.345  1.00  0.00    -0.205 F 
ATOM     73  C   UNL A   1      43.415  25.035  25.443  1.00  0.00     0.022 A 
BRANCH  71  74
ATOM     74  S   UNL A   1      42.302  22.622  26.122  1.00  0.00     0.127 S 
ATOM     75  O   UNL A   1      42.930  22.394  24.823  1.00  0.00    -0.237 OA
ATOM     76  O   UNL A   1      43.004  22.025  27.258  1.00  0.00    -0.237 OA
ATOM     77  O   UNL A   1      40.853  22.468  26.171  1.00  0.00    -0.744 OA
ENDBRANCH  71  74
ENDBRANCH  43  67
BRANCH  55  78
ATOM     78  C   UNL A   1      44.760  27.340  34.207  1.00  0.00     0.023 A 
ATOM     79  C   UNL A   1      45.966  28.064  34.219  1.00  0.00     0.012 A 
ATOM     80  C   UNL A   1      44.639  26.179  34.997  1.00  0.00     0.148 A 
ATOM     81  C   UNL A   1      47.044  27.630  34.990  1.00  0.00     0.002 A 
ATOM     82  C   UNL A   1      45.699  25.779  35.800  1.00  0.00     0.091 A 
ATOM     83  F   UNL A   1      43.485  25.497  34.957  1.00  0.00    -0.205 F 
ATOM     84  C   UNL A   1      46.906  26.497  35.790  1.00  0.00     0.022 A 
BRANCH  82  85
ATOM     85  S   UNL A   1      45.575  24.393  36.937  1.00  0.00     0.127 S 
ATOM     86  O   UNL A   1      46.899  24.397  37.557  1.00  0.00    -0.237 OA
ATOM     87  O   UNL A   1      44.487  24.814  37.820  1.00  0.00    -0.237 OA
ATOM     88  O   UNL A   1      45.271  23.227  36.118  1.00  0.00    -0.744 OA
ENDBRANCH  82  85
ENDBRANCH  55  78
ENDBRANCH  29  30
ENDBRANCH  21  24
ENDBRANCH  19  20
ENDBRANCH   1  19
TORSDOF 16
ENDMDL
MODEL 3
REMARK VINA RESULT:     -10.6      6.023      9.523
REMARK SMILES C[C@@H]1CCC[C@](O)([C@H](F)C(=O)NCCCCNC(=O)c2ccc(-c3c4nc(c(-c5cccc(S(=O)(=O)[O-])c5F)c5ccc([nH]5)c(-c5cccc(S(=O)(=O)[O-])c5F)c5nc(c(-c6cccc(S(=O)(=O)[O-])c6F)c6ccc3[nH]6)C=C5)C=C4)cc2)C1
REMARK SMILES IDX 15 1 14 2 13 3 12 4 10 5 11 6 8 8 9 9 6 10 1 11 2 12 3 13
REMARK SMILES IDX 83 14 4 15 5 16 7 17 16 19 17 20 18 21 19 23 20 24 21 25
REMARK SMILES IDX 82 26 22 27 81 28 23 29 24 30 25 31 75 32 26 33 80 34 74 35
REMARK SMILES IDX 76 36 27 37 79 38 73 39 72 40 28 42 60 43 40 44 59 45 41 46
REMARK SMILES IDX 44 47 58 48 77 49 42 50 43 51 57 53 78 54 45 55 29 56 30 57
REMARK SMILES IDX 38 58 31 59 33 60 39 61 32 62 34 63 35 64 36 65 37 66 61 67
REMARK SMILES IDX 62 68 70 69 63 70 65 71 71 72 64 73 66 74 67 75 68 76 69 77
REMARK SMILES IDX 46 78 47 79 55 80 48 81 50 82 56 83 49 84 51 85 52 86 53 87
REMARK SMILES IDX 54 88
REMARK H PARENT 12 7 7 18 17 22 76 41 44 52
REMARK Flexibility Score: inf
ROOT
ATOM      1  C   UNL A   1      36.044  22.423  23.816  1.00  0.00     0.023 C 
ENDROOT
BRANCH   1   2
ATOM      2  C   UNL A   1      35.145  23.643  23.628  1.00  0.00     0.023 C 
BRANCH   2   3
ATOM      3  C   UNL A   1      33.706  23.341  23.227  1.00  0.00     0.116 C 
BRANCH   3   4
ATOM      4  N   UNL A   1      33.333  23.913  21.951  1.00  0.00    -0.353 N 
ATOM      5  C   UNL A   1      33.057  25.219  21.674  1.00  0.00     0.257 C 
ATOM      6  O   UNL A   1      32.933  25.546  20.488  1.00  0.00    -0.272 OA
ATOM      7  H   UNL A   1      33.272  23.286  21.194  1.00  0.00     0.163 HD
BRANCH   5   8
ATOM      8  C   UNL A   1      32.939  26.266  22.778  1.00  0.00     0.286 C 
ATOM      9  F   UNL A   1      33.817  27.305  22.616  1.00  0.00    -0.234 F 
BRANCH   8  10
ATOM     10  C   UNL A   1      31.510  26.827  23.009  1.00  0.00     0.105 C 
ATOM     11  C   UNL A   1      33.051  27.249  25.987  1.00  0.00     0.008 C 
ATOM     12  C   UNL A   1      31.631  27.579  25.520  1.00  0.00    -0.011 C 
ATOM     13  C   UNL A   1      30.650  26.450  25.860  1.00  0.00     0.003 C 
ATOM     14  C   UNL A   1      31.539  27.984  24.037  1.00  0.00     0.042 C 
ATOM     15  C   UNL A   1      30.707  25.282  24.877  1.00  0.00     0.003 C 
ATOM     16  C   UNL A   1      30.489  25.763  23.450  1.00  0.00     0.039 C 
BRANCH  10  17
ATOM     17  O   UNL A   1      31.018  27.403  21.782  1.00  0.00    -0.386 OA
ATOM     18  H   UNL A   1      30.755  26.695  21.175  1.00  0.00     0.211 HD
ENDBRANCH  10  17
ENDBRANCH   8  10
ENDBRANCH   5   8
ENDBRANCH   3   4
ENDBRANCH   2   3
ENDBRANCH   1   2
BRANCH   1  19
ATOM     19  C   UNL A   1      36.544  22.189  25.237  1.00  0.00     0.116 C 
BRANCH  19  20
ATOM     20  N   UNL A   1      37.441  21.046  25.343  1.00  0.00    -0.352 N 
ATOM     21  C   UNL A   1      38.732  20.995  25.824  1.00  0.00     0.251 C 
ATOM     22  H   UNL A   1      37.074  20.189  25.027  1.00  0.00     0.163 HD
ATOM     23  O   UNL A   1      39.397  19.974  25.719  1.00  0.00    -0.269 OA
BRANCH  21  24
ATOM     24  C   UNL A   1      39.312  22.206  26.444  1.00  0.00     0.039 A 
ATOM     25  C   UNL A   1      40.396  22.074  27.316  1.00  0.00     0.014 A 
ATOM     26  C   UNL A   1      38.821  23.470  26.112  1.00  0.00     0.014 A 
ATOM     27  C   UNL A   1      41.048  23.218  27.783  1.00  0.00     0.010 A 
ATOM     28  C   UNL A   1      39.520  24.602  26.512  1.00  0.00     0.010 A 
ATOM     29  C   UNL A   1      40.644  24.490  27.347  1.00  0.00    -0.014 A 
BRANCH  29  30
ATOM     30  C   UNL A   1      41.376  25.728  27.729  1.00  0.00     0.031 A 
ATOM     31  C   UNL A   1      40.657  26.813  28.485  1.00  0.00     0.074 A 
ATOM     32  C   UNL A   1      42.630  25.934  27.278  1.00  0.00     0.049 A 
ATOM     33  N   UNL A   1      41.056  28.025  28.766  1.00  0.00    -0.248 NA
ATOM     34  C   UNL A   1      39.293  26.509  28.953  1.00  0.00     0.031 C 
ATOM     35  C   UNL A   1      43.410  24.994  26.469  1.00  0.00     0.029 A 
ATOM     36  N   UNL A   1      43.457  27.026  27.398  1.00  0.00    -0.354 N 
ATOM     37  C   UNL A   1      39.975  28.647  29.381  1.00  0.00     0.074 A 
ATOM     38  C   UNL A   1      38.898  27.683  29.424  1.00  0.00     0.031 C 
ATOM     39  C   UNL A   1      44.592  25.552  26.159  1.00  0.00     0.029 A 
ATOM     40  C   UNL A   1      44.646  26.900  26.715  1.00  0.00     0.049 A 
ATOM     41  H   UNL A   1      43.221  27.824  27.924  1.00  0.00     0.167 HD
ATOM     42  C   UNL A   1      39.895  29.900  29.886  1.00  0.00     0.034 A 
ATOM     43  C   UNL A   1      45.656  27.776  26.542  1.00  0.00     0.034 A 
ATOM     44  C   UNL A   1      40.994  30.824  29.922  1.00  0.00     0.049 A 
ATOM     45  C   UNL A   1      45.562  29.136  27.184  1.00  0.00     0.074 A 
ATOM     46  C   UNL A   1      41.048  32.067  30.526  1.00  0.00     0.029 A 
ATOM     47  N   UNL A   1      42.228  30.607  29.334  1.00  0.00    -0.354 N 
ATOM     48  N   UNL A   1      44.597  29.639  27.915  1.00  0.00    -0.248 NA
ATOM     49  C   UNL A   1      46.711  30.039  27.007  1.00  0.00     0.031 C 
ATOM     50  C   UNL A   1      42.315  32.609  30.292  1.00  0.00     0.029 A 
ATOM     51  C   UNL A   1      43.052  31.696  29.557  1.00  0.00     0.049 A 
ATOM     52  H   UNL A   1      42.482  29.798  28.833  1.00  0.00     0.167 HD
ATOM     53  C   UNL A   1      45.041  30.891  28.323  1.00  0.00     0.074 A 
ATOM     54  C   UNL A   1      46.368  31.068  27.770  1.00  0.00     0.031 C 
ATOM     55  C   UNL A   1      44.402  31.820  29.074  1.00  0.00     0.034 A 
BRANCH  42  56
ATOM     56  C   UNL A   1      38.594  30.336  30.504  1.00  0.00     0.023 A 
ATOM     57  C   UNL A   1      38.374  30.128  31.880  1.00  0.00     0.012 A 
ATOM     58  C   UNL A   1      37.637  31.037  29.745  1.00  0.00     0.148 A 
ATOM     59  C   UNL A   1      37.210  30.594  32.489  1.00  0.00     0.002 A 
ATOM     60  C   UNL A   1      36.500  31.537  30.368  1.00  0.00     0.091 A 
ATOM     61  F   UNL A   1      37.860  31.207  28.434  1.00  0.00    -0.205 F 
ATOM     62  C   UNL A   1      36.280  31.309  31.737  1.00  0.00     0.022 A 
BRANCH  60  63
ATOM     63  S   UNL A   1      35.280  32.537  29.508  1.00  0.00     0.127 S 
ATOM     64  O   UNL A   1      34.327  32.824  30.579  1.00  0.00    -0.237 OA
ATOM     65  O   UNL A   1      36.076  33.686  29.076  1.00  0.00    -0.237 OA
ATOM     66  O   UNL A   1      34.768  31.708  28.427  1.00  0.00    -0.744 OA
ENDBRANCH  60  63
ENDBRANCH  42  56
BRANCH  43  67
ATOM     67  C   UNL A   1      46.876  27.385  25.779  1.00  0.00     0.023 A 
ATOM     68  C   UNL A   1      47.891  26.661  26.434  1.00  0.00     0.012 A 
ATOM     69  C   UNL A   1      47.046  27.728  24.425  1.00  0.00     0.148 A 
ATOM     70  C   UNL A   1      49.071  26.323  25.769  1.00  0.00     0.002 A 
ATOM     71  C   UNL A   1      48.201  27.341  23.751  1.00  0.00     0.091 A 
ATOM     72  F   UNL A   1      46.080  28.433  23.818  1.00  0.00    -0.205 F 
ATOM     73  C   UNL A   1      49.222  26.656  24.426  1.00  0.00     0.022 A 
BRANCH  71  74
ATOM     74  S   UNL A   1      48.412  27.620  21.989  1.00  0.00     0.127 S 
ATOM     75  O   UNL A   1      49.575  28.502  21.962  1.00  0.00    -0.237 OA
ATOM     76  O   UNL A   1      48.654  26.267  21.488  1.00  0.00    -0.237 OA
ATOM     77  O   UNL A   1      47.153  28.203  21.543  1.00  0.00    -0.744 OA
ENDBRANCH  71  74
ENDBRANCH  43  67
BRANCH  55  78
ATOM     78  C   UNL A   1      45.136  33.090  29.408  1.00  0.00     0.023 A 
ATOM     79  C   UNL A   1      45.915  33.162  30.578  1.00  0.00     0.012 A 
ATOM     80  C   UNL A   1      45.141  34.170  28.503  1.00  0.00     0.148 A 
ATOM     81  C   UNL A   1      46.673  34.298  30.854  1.00  0.00     0.002 A 
ATOM     82  C   UNL A   1      45.936  35.280  28.760  1.00  0.00     0.091 A 
ATOM     83  F   UNL A   1      44.378  34.086  27.403  1.00  0.00    -0.205 F 
ATOM     84  C   UNL A   1      46.695  35.350  29.940  1.00  0.00     0.022 A 
BRANCH  82  85
ATOM     85  S   UNL A   1      46.105  36.633  27.591  1.00  0.00     0.127 S 
ATOM     86  O   UNL A   1      44.757  37.199  27.592  1.00  0.00    -0.237 OA
ATOM     87  O   UNL A   1      47.119  37.472  28.231  1.00  0.00    -0.237 OA
ATOM     88  O   UNL A   1      46.528  36.028  26.334  1.00  0.00    -0.744 OA
ENDBRANCH  82  85
ENDBRANCH  55  78
ENDBRANCH  29  30
ENDBRANCH  21  24
ENDBRANCH  19  20
ENDBRANCH   1  19
TORSDOF 16
ENDMDL
