MODEL 1
REMARK VINA RESULT:     -12.2      0.000      0.000
REMARK SMILES C#CCNC(=O)N[C@@]1(C(=O)NCCCCNC(=O)c2ccc(-c3c4nc(c(-c5cccc(S(=O)(=O)[O-])c5F)c5ccc([nH]5)c(-c5cccc(S(=O)(=O)[O-])c5F)c5nc(c(-c6cccc(S(=O)(=O)[O-])c6F)c6ccc3[nH]6)C=C5)C=C4)cc2)CCc2ccccc21
REMARK SMILES IDX 13 1 12 2 11 3 9 4 10 5 8 7 82 8 89 9 83 10 84 11 88 12
REMARK SMILES IDX 85 13 87 14 86 15 7 16 4 17 5 18 6 20 3 22 2 23 1 24 14 25
REMARK SMILES IDX 15 26 16 27 17 28 18 30 19 31 20 32 81 33 21 34 80 35 22 36
REMARK SMILES IDX 23 37 24 38 74 39 25 40 79 41 73 42 75 43 26 44 78 45 72 46
REMARK SMILES IDX 71 47 27 49 59 50 39 51 58 52 40 53 43 54 57 55 76 56 41 57
REMARK SMILES IDX 42 58 56 60 77 61 44 62 28 63 29 64 37 65 30 66 32 67 38 68
REMARK SMILES IDX 31 69 33 70 34 71 35 72 36 73 60 74 61 75 69 76 62 77 64 78
REMARK SMILES IDX 70 79 63 80 65 81 66 82 67 83 68 84 45 85 46 86 54 87 47 88
REMARK SMILES IDX 49 89 55 90 48 91 50 92 51 93 52 94 53 95
REMARK H PARENT 11 6 4 19 7 21 16 29 75 48 43 59
REMARK Flexibility Score: inf
ROOT
ATOM      1  C   UNL A   1      35.801  23.629  24.234  1.00  0.00     0.023 C 
ENDROOT
BRANCH   1   2
ATOM      2  C   UNL A   1      35.421  24.315  25.575  1.00  0.00     0.116 C 
BRANCH   2   3
ATOM      3  N   UNL A   1      34.062  24.115  26.110  1.00  0.00    -0.354 N 
ATOM      4  C   UNL A   1      32.817  24.694  25.922  1.00  0.00     0.250 C 
ATOM      5  O   UNL A   1      31.904  24.120  26.541  1.00  0.00    -0.272 OA
ATOM      6  H   UNL A   1      34.031  23.383  26.768  1.00  0.00     0.163 HD
BRANCH   4   7
ATOM      7  C   UNL A   1      32.435  25.957  24.962  1.00  0.00     0.146 C 
ATOM      8  C   UNL A   1      33.459  26.403  23.875  1.00  0.00     0.048 C 
ATOM      9  C   UNL A   1      32.426  27.227  25.823  1.00  0.00    -0.010 A 
ATOM     10  C   UNL A   1      33.517  27.929  23.826  1.00  0.00     0.039 C 
ATOM     11  C   UNL A   1      33.099  28.285  25.207  1.00  0.00    -0.042 A 
ATOM     12  C   UNL A   1      31.730  27.438  27.008  1.00  0.00     0.007 A 
ATOM     13  C   UNL A   1      33.211  29.521  25.820  1.00  0.00     0.004 A 
ATOM     14  C   UNL A   1      31.816  28.686  27.625  1.00  0.00     0.000 A 
ATOM     15  C   UNL A   1      32.582  29.710  27.050  1.00  0.00     0.000 A 
BRANCH   7  16
ATOM     16  N   UNL A   1      31.055  25.879  24.407  1.00  0.00    -0.320 N 
ATOM     17  N   UNL A   1      31.029  24.164  22.817  1.00  0.00    -0.327 N 
ATOM     18  C   UNL A   1      30.435  25.170  23.456  1.00  0.00     0.316 C 
ATOM     19  H   UNL A   1      30.453  23.659  22.198  1.00  0.00     0.166 HD
ATOM     20  O   UNL A   1      29.278  25.455  23.157  1.00  0.00    -0.249 OA
ATOM     21  H   UNL A   1      30.443  26.508  24.853  1.00  0.00     0.166 HD
BRANCH  17  22
ATOM     22  C   UNL A   1      32.368  23.714  22.901  1.00  0.00     0.207 C 
BRANCH  22  23
ATOM     23  C   UNL A   1      32.453  22.232  23.226  1.00  0.00    -0.085 C 
ATOM     24  C   UNL A   1      32.525  20.960  23.504  1.00  0.00     0.006 C 
ENDBRANCH  22  23
ENDBRANCH  17  22
ENDBRANCH   7  16
ENDBRANCH   4   7
ENDBRANCH   2   3
ENDBRANCH   1   2
BRANCH   1  25
ATOM     25  C   UNL A   1      36.306  22.173  24.140  1.00  0.00     0.023 C 
BRANCH  25  26
ATOM     26  C   UNL A   1      36.872  21.452  25.374  1.00  0.00     0.116 C 
BRANCH  26  27
ATOM     27  N   UNL A   1      38.115  20.725  25.295  1.00  0.00    -0.352 N 
ATOM     28  C   UNL A   1      39.245  20.925  26.074  1.00  0.00     0.251 C 
ATOM     29  H   UNL A   1      38.166  20.012  24.618  1.00  0.00     0.163 HD
ATOM     30  O   UNL A   1      39.990  19.973  26.295  1.00  0.00    -0.269 OA
BRANCH  28  31
ATOM     31  C   UNL A   1      39.665  22.284  26.522  1.00  0.00     0.039 A 
ATOM     32  C   UNL A   1      40.707  22.325  27.454  1.00  0.00     0.014 A 
ATOM     33  C   UNL A   1      39.074  23.484  26.116  1.00  0.00     0.014 A 
ATOM     34  C   UNL A   1      41.205  23.548  27.914  1.00  0.00     0.010 A 
ATOM     35  C   UNL A   1      39.616  24.717  26.535  1.00  0.00     0.010 A 
ATOM     36  C   UNL A   1      40.699  24.765  27.431  1.00  0.00    -0.014 A 
BRANCH  36  37
ATOM     37  C   UNL A   1      41.349  26.046  27.854  1.00  0.00     0.031 A 
ATOM     38  C   UNL A   1      42.761  26.392  27.455  1.00  0.00     0.074 A 
ATOM     39  C   UNL A   1      40.649  26.932  28.597  1.00  0.00     0.049 A 
ATOM     40  N   UNL A   1      43.414  27.515  27.629  1.00  0.00    -0.248 NA
ATOM     41  C   UNL A   1      43.546  25.344  26.788  1.00  0.00     0.031 C 
ATOM     42  C   UNL A   1      39.300  26.710  29.122  1.00  0.00     0.029 A 
ATOM     43  N   UNL A   1      40.967  28.197  29.034  1.00  0.00    -0.354 N 
ATOM     44  C   UNL A   1      44.687  27.308  27.108  1.00  0.00     0.074 A 
ATOM     45  C   UNL A   1      44.725  25.936  26.646  1.00  0.00     0.031 C 
ATOM     46  C   UNL A   1      38.897  27.807  29.783  1.00  0.00     0.029 A 
ATOM     47  C   UNL A   1      39.962  28.805  29.753  1.00  0.00     0.049 A 
ATOM     48  H   UNL A   1      41.834  28.628  28.851  1.00  0.00     0.167 HD
ATOM     49  C   UNL A   1      45.721  28.180  26.995  1.00  0.00     0.034 A 
ATOM     50  C   UNL A   1      39.893  30.029  30.318  1.00  0.00     0.034 A 
ATOM     51  C   UNL A   1      45.686  29.550  27.435  1.00  0.00     0.049 A 
ATOM     52  C   UNL A   1      41.042  30.988  30.152  1.00  0.00     0.074 A 
ATOM     53  C   UNL A   1      46.661  30.524  27.298  1.00  0.00     0.029 A 
ATOM     54  N   UNL A   1      44.632  30.141  28.115  1.00  0.00    -0.354 N 
ATOM     55  N   UNL A   1      42.170  30.821  29.507  1.00  0.00    -0.248 NA
ATOM     56  C   UNL A   1      40.888  32.321  30.755  1.00  0.00     0.031 C 
ATOM     57  C   UNL A   1      46.210  31.693  27.922  1.00  0.00     0.029 A 
ATOM     58  C   UNL A   1      44.936  31.461  28.412  1.00  0.00     0.049 A 
ATOM     59  H   UNL A   1      43.790  29.689  28.352  1.00  0.00     0.167 HD
ATOM     60  C   UNL A   1      42.840  32.038  29.589  1.00  0.00     0.074 A 
ATOM     61  C   UNL A   1      41.980  32.939  30.327  1.00  0.00     0.031 C 
ATOM     62  C   UNL A   1      44.061  32.373  29.103  1.00  0.00     0.034 A 
BRANCH  49  63
ATOM     63  C   UNL A   1      46.980  27.688  26.323  1.00  0.00     0.023 A 
ATOM     64  C   UNL A   1      47.934  26.969  27.072  1.00  0.00     0.012 A 
ATOM     65  C   UNL A   1      47.191  27.877  24.942  1.00  0.00     0.148 A 
ATOM     66  C   UNL A   1      49.096  26.484  26.471  1.00  0.00     0.002 A 
ATOM     67  C   UNL A   1      48.327  27.349  24.339  1.00  0.00     0.091 A 
ATOM     68  F   UNL A   1      46.281  28.572  24.245  1.00  0.00    -0.205 F 
ATOM     69  C   UNL A   1      49.287  26.666  25.105  1.00  0.00     0.022 A 
BRANCH  67  70
ATOM     70  S   UNL A   1      48.629  27.454  22.572  1.00  0.00     0.127 S 
ATOM     71  O   UNL A   1      48.651  26.043  22.191  1.00  0.00    -0.237 OA
ATOM     72  O   UNL A   1      47.457  28.194  22.104  1.00  0.00    -0.237 OA
ATOM     73  O   UNL A   1      49.895  28.161  22.422  1.00  0.00    -0.744 OA
ENDBRANCH  67  70
ENDBRANCH  49  63
BRANCH  50  74
ATOM     74  C   UNL A   1      38.659  30.450  31.045  1.00  0.00     0.023 A 
ATOM     75  C   UNL A   1      38.514  30.144  32.414  1.00  0.00     0.012 A 
ATOM     76  C   UNL A   1      37.632  31.153  30.388  1.00  0.00     0.148 A 
ATOM     77  C   UNL A   1      37.351  30.495  33.102  1.00  0.00     0.002 A 
ATOM     78  C   UNL A   1      36.503  31.552  31.094  1.00  0.00     0.091 A 
ATOM     79  F   UNL A   1      37.783  31.424  29.084  1.00  0.00    -0.205 F 
ATOM     80  C   UNL A   1      36.351  31.207  32.445  1.00  0.00     0.022 A 
BRANCH  78  81
ATOM     81  S   UNL A   1      35.226  32.583  30.367  1.00  0.00     0.127 S 
ATOM     82  O   UNL A   1      35.967  33.799  30.048  1.00  0.00    -0.237 OA
ATOM     83  O   UNL A   1      34.818  31.785  29.211  1.00  0.00    -0.237 OA
ATOM     84  O   UNL A   1      34.198  32.720  31.393  1.00  0.00    -0.744 OA
ENDBRANCH  78  81
ENDBRANCH  50  74
BRANCH  62  85
ATOM     85  C   UNL A   1      44.531  33.793  29.303  1.00  0.00     0.023 A 
ATOM     86  C   UNL A   1      45.343  34.125  30.407  1.00  0.00     0.012 A 
ATOM     87  C   UNL A   1      44.207  34.793  28.364  1.00  0.00     0.148 A 
ATOM     88  C   UNL A   1      45.782  35.435  30.598  1.00  0.00     0.002 A 
ATOM     89  C   UNL A   1      44.694  36.084  28.531  1.00  0.00     0.091 A 
ATOM     90  F   UNL A   1      43.418  34.467  27.330  1.00  0.00    -0.205 F 
ATOM     91  C   UNL A   1      45.468  36.411  29.655  1.00  0.00     0.022 A 
BRANCH  89  92
ATOM     92  S   UNL A   1      44.422  37.379  27.315  1.00  0.00     0.127 S 
ATOM     93  O   UNL A   1      44.375  38.573  28.157  1.00  0.00    -0.237 OA
ATOM     94  O   UNL A   1      45.615  37.272  26.475  1.00  0.00    -0.237 OA
ATOM     95  O   UNL A   1      43.177  37.038  26.640  1.00  0.00    -0.744 OA
ENDBRANCH  89  92
ENDBRANCH  62  85
ENDBRANCH  36  37
ENDBRANCH  28  31
ENDBRANCH  26  27
ENDBRANCH  25  26
ENDBRANCH   1  25
TORSDOF 17
ENDMDL
MODEL 2
REMARK VINA RESULT:     -11.9      1.605      3.104
REMARK SMILES C#CCNC(=O)N[C@@]1(C(=O)NCCCCNC(=O)c2ccc(-c3c4nc(c(-c5cccc(S(=O)(=O)[O-])c5F)c5ccc([nH]5)c(-c5cccc(S(=O)(=O)[O-])c5F)c5nc(c(-c6cccc(S(=O)(=O)[O-])c6F)c6ccc3[nH]6)C=C5)C=C4)cc2)CCc2ccccc21
REMARK SMILES IDX 13 1 12 2 11 3 9 4 10 5 8 7 82 8 89 9 83 10 84 11 88 12
REMARK SMILES IDX 85 13 87 14 86 15 7 16 4 17 5 18 6 20 3 22 2 23 1 24 14 25
REMARK SMILES IDX 15 26 16 27 17 28 18 30 19 31 20 32 81 33 21 34 80 35 22 36
REMARK SMILES IDX 23 37 24 38 74 39 25 40 79 41 73 42 75 43 26 44 78 45 72 46
REMARK SMILES IDX 71 47 27 49 59 50 39 51 58 52 40 53 43 54 57 55 76 56 41 57
REMARK SMILES IDX 42 58 56 60 77 61 44 62 28 63 29 64 37 65 30 66 32 67 38 68
REMARK SMILES IDX 31 69 33 70 34 71 35 72 36 73 60 74 61 75 69 76 62 77 64 78
REMARK SMILES IDX 70 79 63 80 65 81 66 82 67 83 68 84 45 85 46 86 54 87 47 88
REMARK SMILES IDX 49 89 55 90 48 91 50 92 51 93 52 94 53 95
REMARK H PARENT 11 6 4 19 7 21 16 29 75 48 43 59
REMARK Flexibility Score: inf
ROOT
ATOM      1  C   UNL A   1      35.657  22.636  23.634  1.00  0.00     0.023 C 
ENDROOT
BRANCH   1   2
ATOM      2  C   UNL A   1      35.488  24.094  24.145  1.00  0.00     0.116 C 
BRANCH   2   3
ATOM      3  N   UNL A   1      34.557  24.987  23.434  1.00  0.00    -0.354 N 
ATOM      4  C   UNL A   1      33.191  25.222  23.443  1.00  0.00     0.250 C 
ATOM      5  O   UNL A   1      32.845  26.168  22.713  1.00  0.00    -0.272 OA
ATOM      6  H   UNL A   1      35.024  25.566  22.788  1.00  0.00     0.163 HD
BRANCH   4   7
ATOM      7  C   UNL A   1      32.050  24.457  24.324  1.00  0.00     0.146 C 
ATOM      8  C   UNL A   1      32.229  24.382  25.871  1.00  0.00     0.048 C 
ATOM      9  C   UNL A   1      32.118  22.959  23.999  1.00  0.00    -0.010 A 
ATOM     10  C   UNL A   1      31.830  22.992  26.362  1.00  0.00     0.039 C 
ATOM     11  C   UNL A   1      32.072  22.168  25.149  1.00  0.00    -0.042 A 
ATOM     12  C   UNL A   1      32.076  22.365  22.742  1.00  0.00     0.007 A 
ATOM     13  C   UNL A   1      32.127  20.787  25.076  1.00  0.00     0.004 A 
ATOM     14  C   UNL A   1      32.108  20.974  22.655  1.00  0.00     0.000 A 
ATOM     15  C   UNL A   1      32.168  20.191  23.816  1.00  0.00     0.000 A 
BRANCH   7  16
ATOM     16  N   UNL A   1      30.660  24.850  23.957  1.00  0.00    -0.320 N 
ATOM     17  N   UNL A   1      30.368  27.082  24.590  1.00  0.00    -0.327 N 
ATOM     18  C   UNL A   1      29.893  25.936  24.106  1.00  0.00     0.316 C 
ATOM     19  H   UNL A   1      29.738  27.839  24.576  1.00  0.00     0.166 HD
ATOM     20  O   UNL A   1      28.708  25.879  23.787  1.00  0.00    -0.249 OA
ATOM     21  H   UNL A   1      30.187  24.128  23.485  1.00  0.00     0.166 HD
BRANCH  17  22
ATOM     22  C   UNL A   1      31.649  27.370  25.119  1.00  0.00     0.207 C 
BRANCH  22  23
ATOM     23  C   UNL A   1      31.574  27.871  26.552  1.00  0.00    -0.085 C 
ATOM     24  C   UNL A   1      31.509  28.299  27.782  1.00  0.00     0.006 C 
ENDBRANCH  22  23
ENDBRANCH  17  22
ENDBRANCH   7  16
ENDBRANCH   4   7
ENDBRANCH   2   3
ENDBRANCH   1   2
BRANCH   1  25
ATOM     25  C   UNL A   1      35.676  21.407  24.569  1.00  0.00     0.023 C 
BRANCH  25  26
ATOM     26  C   UNL A   1      36.755  21.256  25.653  1.00  0.00     0.116 C 
BRANCH  26  27
ATOM     27  N   UNL A   1      37.992  20.571  25.369  1.00  0.00    -0.352 N 
ATOM     28  C   UNL A   1      39.214  20.768  25.994  1.00  0.00     0.251 C 
ATOM     29  H   UNL A   1      37.966  19.892  24.656  1.00  0.00     0.163 HD
ATOM     30  O   UNL A   1      40.004  19.829  26.064  1.00  0.00    -0.269 OA
BRANCH  28  31
ATOM     31  C   UNL A   1      39.661  22.116  26.448  1.00  0.00     0.039 A 
ATOM     32  C   UNL A   1      40.679  22.131  27.407  1.00  0.00     0.014 A 
ATOM     33  C   UNL A   1      39.114  23.331  26.023  1.00  0.00     0.014 A 
ATOM     34  C   UNL A   1      41.200  23.342  27.875  1.00  0.00     0.010 A 
ATOM     35  C   UNL A   1      39.679  24.550  26.452  1.00  0.00     0.010 A 
ATOM     36  C   UNL A   1      40.740  24.571  27.375  1.00  0.00    -0.014 A 
BRANCH  36  37
ATOM     37  C   UNL A   1      41.415  25.835  27.811  1.00  0.00     0.031 A 
ATOM     38  C   UNL A   1      42.841  26.146  27.436  1.00  0.00     0.074 A 
ATOM     39  C   UNL A   1      40.725  26.738  28.543  1.00  0.00     0.049 A 
ATOM     40  N   UNL A   1      43.520  27.252  27.621  1.00  0.00    -0.248 NA
ATOM     41  C   UNL A   1      43.611  25.079  26.780  1.00  0.00     0.031 C 
ATOM     42  C   UNL A   1      39.363  26.549  29.045  1.00  0.00     0.029 A 
ATOM     43  N   UNL A   1      41.068  27.994  28.987  1.00  0.00    -0.354 N 
ATOM     44  C   UNL A   1      44.796  27.013  27.121  1.00  0.00     0.074 A 
ATOM     45  C   UNL A   1      44.806  25.641  26.658  1.00  0.00     0.031 C 
ATOM     46  C   UNL A   1      38.977  27.655  29.701  1.00  0.00     0.029 A 
ATOM     47  C   UNL A   1      40.067  28.627  29.689  1.00  0.00     0.049 A 
ATOM     48  H   UNL A   1      41.948  28.403  28.818  1.00  0.00     0.167 HD
ATOM     49  C   UNL A   1      45.853  27.860  27.026  1.00  0.00     0.034 A 
ATOM     50  C   UNL A   1      40.019  29.851  30.255  1.00  0.00     0.034 A 
ATOM     51  C   UNL A   1      45.844  29.230  27.467  1.00  0.00     0.049 A 
ATOM     52  C   UNL A   1      41.194  30.781  30.109  1.00  0.00     0.074 A 
ATOM     53  C   UNL A   1      46.846  30.179  27.347  1.00  0.00     0.029 A 
ATOM     54  N   UNL A   1      44.795  29.847  28.130  1.00  0.00    -0.354 N 
ATOM     55  N   UNL A   1      42.328  30.586  29.482  1.00  0.00    -0.248 NA
ATOM     56  C   UNL A   1      41.064  32.117  30.710  1.00  0.00     0.031 C 
ATOM     57  C   UNL A   1      46.415  31.359  27.965  1.00  0.00     0.029 A 
ATOM     58  C   UNL A   1      45.127  31.158  28.434  1.00  0.00     0.049 A 
ATOM     59  H   UNL A   1      43.938  29.416  28.353  1.00  0.00     0.167 HD
ATOM     60  C   UNL A   1      43.027  31.787  29.577  1.00  0.00     0.074 A 
ATOM     61  C   UNL A   1      42.178  32.709  30.302  1.00  0.00     0.031 C 
ATOM     62  C   UNL A   1      44.264  32.091  29.111  1.00  0.00     0.034 A 
BRANCH  49  63
ATOM     63  C   UNL A   1      47.110  27.336  26.374  1.00  0.00     0.023 A 
ATOM     64  C   UNL A   1      47.373  27.642  25.023  1.00  0.00     0.012 A 
ATOM     65  C   UNL A   1      48.061  26.602  27.111  1.00  0.00     0.148 A 
ATOM     66  C   UNL A   1      48.538  27.189  24.403  1.00  0.00     0.002 A 
ATOM     67  C   UNL A   1      49.242  26.196  26.500  1.00  0.00     0.091 A 
ATOM     68  F   UNL A   1      47.791  26.310  28.391  1.00  0.00    -0.205 F 
ATOM     69  C   UNL A   1      49.475  26.476  25.143  1.00  0.00     0.022 A 
BRANCH  67  70
ATOM     70  S   UNL A   1      50.552  25.343  27.386  1.00  0.00     0.127 S 
ATOM     71  O   UNL A   1      50.951  26.352  28.366  1.00  0.00    -0.237 OA
ATOM     72  O   UNL A   1      49.844  24.194  27.948  1.00  0.00    -0.237 OA
ATOM     73  O   UNL A   1      51.561  25.009  26.388  1.00  0.00    -0.744 OA
ENDBRANCH  67  70
ENDBRANCH  49  63
BRANCH  50  74
ATOM     74  C   UNL A   1      38.784  30.302  30.962  1.00  0.00     0.023 A 
ATOM     75  C   UNL A   1      38.623  30.028  32.336  1.00  0.00     0.012 A 
ATOM     76  C   UNL A   1      37.771  31.003  30.281  1.00  0.00     0.148 A 
ATOM     77  C   UNL A   1      37.460  30.407  33.007  1.00  0.00     0.002 A 
ATOM     78  C   UNL A   1      36.641  31.431  30.969  1.00  0.00     0.091 A 
ATOM     79  F   UNL A   1      37.936  31.245  28.973  1.00  0.00    -0.205 F 
ATOM     80  C   UNL A   1      36.474  31.117  32.326  1.00  0.00     0.022 A 
BRANCH  78  81
ATOM     81  S   UNL A   1      35.383  32.461  30.209  1.00  0.00     0.127 S 
ATOM     82  O   UNL A   1      35.042  31.689  29.018  1.00  0.00    -0.237 OA
ATOM     83  O   UNL A   1      34.351  32.489  31.245  1.00  0.00    -0.237 OA
ATOM     84  O   UNL A   1      36.022  33.750  29.965  1.00  0.00    -0.744 OA
ENDBRANCH  78  81
ENDBRANCH  50  74
BRANCH  62  85
ATOM     85  C   UNL A   1      44.766  33.499  29.321  1.00  0.00     0.023 A 
ATOM     86  C   UNL A   1      45.466  33.837  30.497  1.00  0.00     0.012 A 
ATOM     87  C   UNL A   1      44.585  34.478  28.323  1.00  0.00     0.148 A 
ATOM     88  C   UNL A   1      45.934  35.136  30.697  1.00  0.00     0.002 A 
ATOM     89  C   UNL A   1      45.103  35.755  28.506  1.00  0.00     0.091 A 
ATOM     90  F   UNL A   1      43.901  34.148  27.219  1.00  0.00    -0.205 F 
ATOM     91  C   UNL A   1      45.763  36.090  29.698  1.00  0.00     0.022 A 
BRANCH  89  92
ATOM     92  S   UNL A   1      45.016  37.019  27.231  1.00  0.00     0.127 S 
ATOM     93  O   UNL A   1      45.927  36.486  26.220  1.00  0.00    -0.237 OA
ATOM     94  O   UNL A   1      43.602  36.985  26.857  1.00  0.00    -0.237 OA
ATOM     95  O   UNL A   1      45.441  38.259  27.867  1.00  0.00    -0.744 OA
ENDBRANCH  89  92
ENDBRANCH  62  85
ENDBRANCH  36  37
ENDBRANCH  28  31
ENDBRANCH  26  27
ENDBRANCH  25  26
ENDBRANCH   1  25
TORSDOF 17
ENDMDL
MODEL 3
REMARK VINA RESULT:     -11.9      1.155      1.971
REMARK SMILES C#CCNC(=O)N[C@@]1(C(=O)NCCCCNC(=O)c2ccc(-c3c4nc(c(-c5cccc(S(=O)(=O)[O-])c5F)c5ccc([nH]5)c(-c5cccc(S(=O)(=O)[O-])c5F)c5nc(c(-c6cccc(S(=O)(=O)[O-])c6F)c6ccc3[nH]6)C=C5)C=C4)cc2)CCc2ccccc21
REMARK SMILES IDX 13 1 12 2 11 3 9 4 10 5 8 7 82 8 89 9 83 10 84 11 88 12
REMARK SMILES IDX 85 13 87 14 86 15 7 16 4 17 5 18 6 20 3 22 2 23 1 24 14 25
REMARK SMILES IDX 15 26 16 27 17 28 18 30 19 31 20 32 81 33 21 34 80 35 22 36
REMARK SMILES IDX 23 37 24 38 74 39 25 40 79 41 73 42 75 43 26 44 78 45 72 46
REMARK SMILES IDX 71 47 27 49 59 50 39 51 58 52 40 53 43 54 57 55 76 56 41 57
REMARK SMILES IDX 42 58 56 60 77 61 44 62 28 63 29 64 37 65 30 66 32 67 38 68
REMARK SMILES IDX 31 69 33 70 34 71 35 72 36 73 60 74 61 75 69 76 62 77 64 78
REMARK SMILES IDX 70 79 63 80 65 81 66 82 67 83 68 84 45 85 46 86 54 87 47 88
REMARK SMILES IDX 49 89 55 90 48 91 50 92 51 93 52 94 53 95
REMARK H PARENT 11 6 4 19 7 21 16 29 75 48 43 59
REMARK Flexibility Score: inf
ROOT
ATOM      1  C   UNL A   1      36.983  22.771  23.769  1.00  0.00     0.023 C 
ENDROOT
BRANCH   1   2
ATOM      2  C   UNL A   1      35.882  23.791  24.171  1.00  0.00     0.116 C 
BRANCH   2   3
ATOM      3  N   UNL A   1      34.616  23.798  23.416  1.00  0.00    -0.354 N 
ATOM      4  C   UNL A   1      33.267  23.870  23.723  1.00  0.00     0.250 C 
ATOM      5  O   UNL A   1      32.532  23.937  22.722  1.00  0.00    -0.272 OA
ATOM      6  H   UNL A   1      34.768  23.736  22.445  1.00  0.00     0.163 HD
BRANCH   4   7
ATOM      7  C   UNL A   1      32.580  23.938  25.202  1.00  0.00     0.146 C 
ATOM      8  C   UNL A   1      31.050  23.668  25.326  1.00  0.00     0.048 C 
ATOM      9  C   UNL A   1      32.609  25.396  25.676  1.00  0.00    -0.010 A 
ATOM     10  C   UNL A   1      30.437  24.657  26.315  1.00  0.00     0.039 C 
ATOM     11  C   UNL A   1      31.385  25.798  26.220  1.00  0.00    -0.042 A 
ATOM     12  C   UNL A   1      33.711  26.242  25.741  1.00  0.00     0.007 A 
ATOM     13  C   UNL A   1      31.198  27.081  26.702  1.00  0.00     0.004 A 
ATOM     14  C   UNL A   1      33.541  27.531  26.246  1.00  0.00     0.000 A 
ATOM     15  C   UNL A   1      32.282  27.958  26.691  1.00  0.00     0.000 A 
BRANCH   7  16
ATOM     16  N   UNL A   1      33.347  23.197  26.243  1.00  0.00    -0.320 N 
ATOM     17  N   UNL A   1      33.226  20.921  25.724  1.00  0.00    -0.327 N 
ATOM     18  C   UNL A   1      33.595  21.915  26.530  1.00  0.00     0.316 C 
ATOM     19  H   UNL A   1      33.534  20.024  25.991  1.00  0.00     0.166 HD
ATOM     20  O   UNL A   1      34.184  21.638  27.572  1.00  0.00    -0.249 OA
ATOM     21  H   UNL A   1      33.782  23.807  26.882  1.00  0.00     0.166 HD
BRANCH  17  22
ATOM     22  C   UNL A   1      32.456  20.967  24.537  1.00  0.00     0.207 C 
BRANCH  22  23
ATOM     23  C   UNL A   1      32.444  19.632  23.812  1.00  0.00    -0.085 C 
ATOM     24  C   UNL A   1      32.435  18.486  23.189  1.00  0.00     0.006 C 
ENDBRANCH  22  23
ENDBRANCH  17  22
ENDBRANCH   7  16
ENDBRANCH   4   7
ENDBRANCH   2   3
ENDBRANCH   1   2
BRANCH   1  25
ATOM     25  C   UNL A   1      37.017  21.315  24.280  1.00  0.00     0.023 C 
BRANCH  25  26
ATOM     26  C   UNL A   1      37.705  20.961  25.609  1.00  0.00     0.116 C 
BRANCH  26  27
ATOM     27  N   UNL A   1      38.992  20.310  25.619  1.00  0.00    -0.352 N 
ATOM     28  C   UNL A   1      40.076  20.625  26.425  1.00  0.00     0.251 C 
ATOM     29  H   UNL A   1      39.114  19.563  24.989  1.00  0.00     0.163 HD
ATOM     30  O   UNL A   1      40.868  19.736  26.731  1.00  0.00    -0.269 OA
BRANCH  28  31
ATOM     31  C   UNL A   1      40.395  22.032  26.806  1.00  0.00     0.039 A 
ATOM     32  C   UNL A   1      41.190  22.190  27.946  1.00  0.00     0.014 A 
ATOM     33  C   UNL A   1      39.928  23.171  26.142  1.00  0.00     0.014 A 
ATOM     34  C   UNL A   1      41.580  23.465  28.371  1.00  0.00     0.010 A 
ATOM     35  C   UNL A   1      40.371  24.450  26.538  1.00  0.00     0.010 A 
ATOM     36  C   UNL A   1      41.214  24.613  27.650  1.00  0.00    -0.014 A 
BRANCH  36  37
ATOM     37  C   UNL A   1      41.762  25.942  28.070  1.00  0.00     0.031 A 
ATOM     38  C   UNL A   1      43.174  26.360  27.748  1.00  0.00     0.074 A 
ATOM     39  C   UNL A   1      40.966  26.808  28.737  1.00  0.00     0.049 A 
ATOM     40  N   UNL A   1      43.750  27.524  27.923  1.00  0.00    -0.248 NA
ATOM     41  C   UNL A   1      44.059  25.340  27.167  1.00  0.00     0.031 C 
ATOM     42  C   UNL A   1      39.601  26.522  29.184  1.00  0.00     0.029 A 
ATOM     43  N   UNL A   1      41.182  28.102  29.150  1.00  0.00    -0.354 N 
ATOM     44  C   UNL A   1      45.063  27.377  27.490  1.00  0.00     0.074 A 
ATOM     45  C   UNL A   1      45.209  25.996  27.078  1.00  0.00     0.031 C 
ATOM     46  C   UNL A   1      39.095  27.612  29.782  1.00  0.00     0.029 A 
ATOM     47  C   UNL A   1      40.101  28.671  29.784  1.00  0.00     0.049 A 
ATOM     48  H   UNL A   1      42.033  28.578  29.006  1.00  0.00     0.167 HD
ATOM     49  C   UNL A   1      46.050  28.305  27.411  1.00  0.00     0.034 A 
ATOM     50  C   UNL A   1      39.925  29.905  30.302  1.00  0.00     0.034 A 
ATOM     51  C   UNL A   1      45.908  29.684  27.802  1.00  0.00     0.049 A 
ATOM     52  C   UNL A   1      41.026  30.925  30.175  1.00  0.00     0.074 A 
ATOM     53  C   UNL A   1      46.834  30.709  27.692  1.00  0.00     0.029 A 
ATOM     54  N   UNL A   1      44.782  30.232  28.395  1.00  0.00    -0.354 N 
ATOM     55  N   UNL A   1      42.201  30.805  29.607  1.00  0.00    -0.248 NA
ATOM     56  C   UNL A   1      40.757  32.264  30.721  1.00  0.00     0.031 C 
ATOM     57  C   UNL A   1      46.277  31.868  28.247  1.00  0.00     0.029 A 
ATOM     58  C   UNL A   1      44.990  31.575  28.665  1.00  0.00     0.049 A 
ATOM     59  H   UNL A   1      43.953  29.738  28.595  1.00  0.00     0.167 HD
ATOM     60  C   UNL A   1      42.793  32.063  29.689  1.00  0.00     0.074 A 
ATOM     61  C   UNL A   1      41.838  32.933  30.342  1.00  0.00     0.031 C 
ATOM     62  C   UNL A   1      44.021  32.454  29.269  1.00  0.00     0.034 A 
BRANCH  49  63
ATOM     63  C   UNL A   1      47.376  27.869  26.836  1.00  0.00     0.023 A 
ATOM     64  C   UNL A   1      48.402  27.438  27.701  1.00  0.00     0.012 A 
ATOM     65  C   UNL A   1      47.585  27.821  25.443  1.00  0.00     0.148 A 
ATOM     66  C   UNL A   1      49.630  27.009  27.194  1.00  0.00     0.002 A 
ATOM     67  C   UNL A   1      48.793  27.346  24.943  1.00  0.00     0.091 A 
ATOM     68  F   UNL A   1      46.604  28.244  24.634  1.00  0.00    -0.205 F 
ATOM     69  C   UNL A   1      49.820  26.954  25.817  1.00  0.00     0.022 A 
BRANCH  67  70
ATOM     70  S   UNL A   1      49.111  27.156  23.186  1.00  0.00     0.127 S 
ATOM     71  O   UNL A   1      50.571  27.080  23.155  1.00  0.00    -0.237 OA
ATOM     72  O   UNL A   1      48.429  25.898  22.884  1.00  0.00    -0.237 OA
ATOM     73  O   UNL A   1      48.534  28.330  22.544  1.00  0.00    -0.744 OA
ENDBRANCH  67  70
ENDBRANCH  49  63
BRANCH  50  74
ATOM     74  C   UNL A   1      38.626  30.274  30.936  1.00  0.00     0.023 A 
ATOM     75  C   UNL A   1      38.348  29.863  32.256  1.00  0.00     0.012 A 
ATOM     76  C   UNL A   1      37.666  31.031  30.239  1.00  0.00     0.148 A 
ATOM     77  C   UNL A   1      37.123  30.164  32.854  1.00  0.00     0.002 A 
ATOM     78  C   UNL A   1      36.472  31.379  30.861  1.00  0.00     0.091 A 
ATOM     79  F   UNL A   1      37.942  31.402  28.981  1.00  0.00    -0.205 F 
ATOM     80  C   UNL A   1      36.190  30.930  32.160  1.00  0.00     0.022 A 
BRANCH  78  81
ATOM     81  S   UNL A   1      35.268  32.470  30.096  1.00  0.00     0.127 S 
ATOM     82  O   UNL A   1      34.827  31.675  28.954  1.00  0.00    -0.237 OA
ATOM     83  O   UNL A   1      34.281  32.623  31.164  1.00  0.00    -0.237 OA
ATOM     84  O   UNL A   1      35.995  33.693  29.772  1.00  0.00    -0.744 OA
ENDBRANCH  78  81
ENDBRANCH  50  74
BRANCH  62  85
ATOM     85  C   UNL A   1      44.395  33.905  29.449  1.00  0.00     0.023 A 
ATOM     86  C   UNL A   1      44.884  34.365  30.689  1.00  0.00     0.012 A 
ATOM     87  C   UNL A   1      44.308  34.806  28.368  1.00  0.00     0.148 A 
ATOM     88  C   UNL A   1      45.233  35.704  30.864  1.00  0.00     0.002 A 
ATOM     89  C   UNL A   1      44.711  36.126  28.534  1.00  0.00     0.091 A 
ATOM     90  F   UNL A   1      43.824  34.359  27.201  1.00  0.00    -0.205 F 
ATOM     91  C   UNL A   1      45.157  36.581  29.784  1.00  0.00     0.022 A 
BRANCH  89  92
ATOM     92  S   UNL A   1      44.740  37.300  27.173  1.00  0.00     0.127 S 
ATOM     93  O   UNL A   1      45.656  36.650  26.239  1.00  0.00    -0.237 OA
ATOM     94  O   UNL A   1      43.341  37.314  26.746  1.00  0.00    -0.237 OA
ATOM     95  O   UNL A   1      45.210  38.557  27.740  1.00  0.00    -0.744 OA
ENDBRANCH  89  92
ENDBRANCH  62  85
ENDBRANCH  36  37
ENDBRANCH  28  31
ENDBRANCH  26  27
ENDBRANCH  25  26
ENDBRANCH   1  25
TORSDOF 17
ENDMDL
