MODEL 1
REMARK VINA RESULT:     -12.8      0.000      0.000
REMARK SMILES Cc1nc(Oc2ccc(F)cc2)c(C(=O)NCCCCNC(=O)c2ccc(-c3c4nc(c(-c5cccc(S(=O)(=O)[O-])c5F)c5ccc([nH]5)c(-c5cccc(S(=O)(=O)[O-])c5F)c5nc(c(-c6cccc(S(=O)(=O)[O-])c6F)c6ccc3[nH]6)C=C5)C=C4)cc2)c(C)c1Cl
REMARK SMILES IDX 19 1 18 2 17 3 16 4 14 5 15 6 13 8 1 9 2 10 3 11 89 12 4 13
REMARK SMILES IDX 87 14 90 15 88 16 5 17 6 18 7 19 12 20 8 21 11 22 9 23 10 24
REMARK SMILES IDX 20 25 21 26 22 27 23 29 24 30 25 31 86 32 26 33 85 34 27 35
REMARK SMILES IDX 28 36 29 37 79 38 30 39 84 40 78 41 80 42 31 43 83 44 77 45
REMARK SMILES IDX 76 46 32 48 64 49 44 50 63 51 45 52 48 53 62 54 81 55 46 56
REMARK SMILES IDX 47 57 61 59 82 60 49 61 33 62 34 63 42 64 35 65 37 66 43 67
REMARK SMILES IDX 36 68 38 69 39 70 40 71 41 72 65 73 66 74 74 75 67 76 69 77
REMARK SMILES IDX 75 78 68 79 70 80 71 81 72 82 73 83 50 84 51 85 59 86 52 87
REMARK SMILES IDX 54 88 60 89 53 90 55 91 56 92 57 93 58 94
REMARK H PARENT 16 7 21 28 80 47 48 58
REMARK Flexibility Score: inf
ROOT
ATOM      1  C   UNL A   1      32.285  29.479  25.304  1.00  0.00     0.023 C 
ENDROOT
BRANCH   1   2
ATOM      2  C   UNL A   1      33.602  29.231  24.574  1.00  0.00     0.023 C 
BRANCH   2   3
ATOM      3  C   UNL A   1      33.571  29.117  23.057  1.00  0.00     0.116 C 
BRANCH   3   4
ATOM      4  N   UNL A   1      34.012  27.866  22.476  1.00  0.00    -0.352 N 
ATOM      5  C   UNL A   1      33.180  26.801  22.171  1.00  0.00     0.257 C 
ATOM      6  O   UNL A   1      33.253  26.244  21.080  1.00  0.00    -0.269 OA
ATOM      7  H   UNL A   1      34.973  27.765  22.286  1.00  0.00     0.163 HD
BRANCH   5   8
ATOM      8  C   UNL A   1      32.222  26.277  23.171  1.00  0.00     0.106 A 
ATOM      9  C   UNL A   1      29.372  25.303  26.202  1.00  0.00     0.068 C 
ATOM     10  C   UNL A   1      30.403  25.553  25.138  1.00  0.00     0.060 A 
ATOM     11  N   UNL A   1      29.983  26.286  24.084  1.00  0.00    -0.216 NA
ATOM     12  C   UNL A   1      31.727  25.141  25.269  1.00  0.00     0.066 A 
ATOM     13  C   UNL A   1      30.869  26.654  23.117  1.00  0.00     0.232 A 
ATOM     14  C   UNL A   1      32.673  25.546  24.303  1.00  0.00    -0.012 A 
ATOM     15  Cl  UNL A   1      32.196  24.166  26.626  1.00  0.00    -0.082 Cl
ATOM     16  C   UNL A   1      34.131  25.238  24.542  1.00  0.00     0.047 C 
BRANCH  13  17
ATOM     17  O   UNL A   1      30.248  27.532  22.267  1.00  0.00    -0.438 OA
BRANCH  17  18
ATOM     18  C   UNL A   1      29.481  28.572  22.703  1.00  0.00     0.129 A 
ATOM     19  C   UNL A   1      28.103  28.345  22.783  1.00  0.00     0.050 A 
ATOM     20  C   UNL A   1      30.006  29.846  22.920  1.00  0.00     0.050 A 
ATOM     21  C   UNL A   1      27.248  29.379  23.154  1.00  0.00     0.043 A 
ATOM     22  C   UNL A   1      29.146  30.882  23.287  1.00  0.00     0.043 A 
ATOM     23  C   UNL A   1      27.779  30.637  23.408  1.00  0.00     0.123 A 
ATOM     24  F   UNL A   1      26.958  31.633  23.763  1.00  0.00    -0.207 F 
ENDBRANCH  17  18
ENDBRANCH  13  17
ENDBRANCH   5   8
ENDBRANCH   3   4
ENDBRANCH   2   3
ENDBRANCH   1   2
BRANCH   1  25
ATOM     25  C   UNL A   1      32.355  29.917  26.763  1.00  0.00     0.116 C 
BRANCH  25  26
ATOM     26  N   UNL A   1      32.266  31.356  26.977  1.00  0.00    -0.352 N 
ATOM     27  C   UNL A   1      33.248  32.220  27.418  1.00  0.00     0.251 C 
ATOM     28  H   UNL A   1      31.392  31.764  26.781  1.00  0.00     0.163 HD
ATOM     29  O   UNL A   1      33.030  33.416  27.530  1.00  0.00    -0.269 OA
BRANCH  27  30
ATOM     30  C   UNL A   1      34.553  31.651  27.808  1.00  0.00     0.039 A 
ATOM     31  C   UNL A   1      35.627  32.523  28.005  1.00  0.00     0.014 A 
ATOM     32  C   UNL A   1      34.665  30.292  28.107  1.00  0.00     0.014 A 
ATOM     33  C   UNL A   1      36.794  32.044  28.600  1.00  0.00     0.010 A 
ATOM     34  C   UNL A   1      35.806  29.832  28.755  1.00  0.00     0.010 A 
ATOM     35  C   UNL A   1      36.873  30.706  29.019  1.00  0.00    -0.014 A 
BRANCH  35  36
ATOM     36  C   UNL A   1      38.063  30.201  29.743  1.00  0.00     0.031 A 
ATOM     37  C   UNL A   1      38.334  30.672  31.142  1.00  0.00     0.074 A 
ATOM     38  C   UNL A   1      38.932  29.379  29.121  1.00  0.00     0.049 A 
ATOM     39  N   UNL A   1      39.341  30.385  31.923  1.00  0.00    -0.248 NA
ATOM     40  C   UNL A   1      37.358  31.603  31.734  1.00  0.00     0.031 C 
ATOM     41  C   UNL A   1      38.810  28.903  27.741  1.00  0.00     0.029 A 
ATOM     42  N   UNL A   1      40.100  28.811  29.564  1.00  0.00    -0.354 N 
ATOM     43  C   UNL A   1      39.134  31.117  33.085  1.00  0.00     0.074 A 
ATOM     44  C   UNL A   1      37.925  31.887  32.897  1.00  0.00     0.031 C 
ATOM     45  C   UNL A   1      39.853  28.104  27.457  1.00  0.00     0.029 A 
ATOM     46  C   UNL A   1      40.725  28.024  28.624  1.00  0.00     0.049 A 
ATOM     47  H   UNL A   1      40.456  28.952  30.471  1.00  0.00     0.167 HD
ATOM     48  C   UNL A   1      39.864  31.117  34.222  1.00  0.00     0.034 A 
ATOM     49  C   UNL A   1      41.867  27.312  28.701  1.00  0.00     0.034 A 
ATOM     50  C   UNL A   1      41.030  30.309  34.432  1.00  0.00     0.049 A 
ATOM     51  C   UNL A   1      42.642  27.303  29.991  1.00  0.00     0.074 A 
ATOM     52  C   UNL A   1      41.792  30.186  35.580  1.00  0.00     0.029 A 
ATOM     53  N   UNL A   1      41.595  29.478  33.479  1.00  0.00    -0.354 N 
ATOM     54  N   UNL A   1      42.363  27.906  31.120  1.00  0.00    -0.248 NA
ATOM     55  C   UNL A   1      43.872  26.496  30.029  1.00  0.00     0.031 C 
ATOM     56  C   UNL A   1      42.820  29.275  35.320  1.00  0.00     0.029 A 
ATOM     57  C   UNL A   1      42.696  28.834  34.012  1.00  0.00     0.049 A 
ATOM     58  H   UNL A   1      41.264  29.364  32.559  1.00  0.00     0.167 HD
ATOM     59  C   UNL A   1      43.363  27.532  32.011  1.00  0.00     0.074 A 
ATOM     60  C   UNL A   1      44.252  26.642  31.293  1.00  0.00     0.031 C 
ATOM     61  C   UNL A   1      43.535  27.906  33.301  1.00  0.00     0.034 A 
BRANCH  48  62
ATOM     62  C   UNL A   1      39.370  31.958  35.364  1.00  0.00     0.023 A 
ATOM     63  C   UNL A   1      38.469  31.388  36.285  1.00  0.00     0.012 A 
ATOM     64  C   UNL A   1      39.840  33.268  35.565  1.00  0.00     0.148 A 
ATOM     65  C   UNL A   1      38.029  32.118  37.387  1.00  0.00     0.002 A 
ATOM     66  C   UNL A   1      39.419  33.980  36.681  1.00  0.00     0.091 A 
ATOM     67  F   UNL A   1      40.683  33.789  34.663  1.00  0.00    -0.205 F 
ATOM     68  C   UNL A   1      38.510  33.409  37.590  1.00  0.00     0.022 A 
BRANCH  66  69
ATOM     69  S   UNL A   1      40.010  35.631  37.065  1.00  0.00     0.127 S 
ATOM     70  O   UNL A   1      39.288  35.922  38.305  1.00  0.00    -0.237 OA
ATOM     71  O   UNL A   1      41.446  35.409  37.232  1.00  0.00    -0.237 OA
ATOM     72  O   UNL A   1      39.645  36.465  35.929  1.00  0.00    -0.744 OA
ENDBRANCH  66  69
ENDBRANCH  48  62
BRANCH  49  73
ATOM     73  C   UNL A   1      42.292  26.470  27.549  1.00  0.00     0.023 A 
ATOM     74  C   UNL A   1      43.094  27.046  26.545  1.00  0.00     0.012 A 
ATOM     75  C   UNL A   1      41.951  25.107  27.463  1.00  0.00     0.148 A 
ATOM     76  C   UNL A   1      43.540  26.283  25.466  1.00  0.00     0.002 A 
ATOM     77  C   UNL A   1      42.427  24.344  26.403  1.00  0.00     0.091 A 
ATOM     78  F   UNL A   1      41.183  24.583  28.429  1.00  0.00    -0.205 F 
ATOM     79  C   UNL A   1      43.214  24.932  25.399  1.00  0.00     0.022 A 
BRANCH  77  80
ATOM     80  S   UNL A   1      42.143  22.574  26.271  1.00  0.00     0.127 S 
ATOM     81  O   UNL A   1      42.805  22.258  25.007  1.00  0.00    -0.237 OA
ATOM     82  O   UNL A   1      42.823  22.073  27.465  1.00  0.00    -0.237 OA
ATOM     83  O   UNL A   1      40.697  22.403  26.280  1.00  0.00    -0.744 OA
ENDBRANCH  77  80
ENDBRANCH  49  73
BRANCH  61  84
ATOM     84  C   UNL A   1      44.715  27.355  34.050  1.00  0.00     0.023 A 
ATOM     85  C   UNL A   1      45.921  28.080  34.058  1.00  0.00     0.012 A 
ATOM     86  C   UNL A   1      44.579  26.213  34.863  1.00  0.00     0.148 A 
ATOM     87  C   UNL A   1      46.981  27.674  34.868  1.00  0.00     0.002 A 
ATOM     88  C   UNL A   1      45.628  25.834  35.693  1.00  0.00     0.091 A 
ATOM     89  F   UNL A   1      43.421  25.539  34.828  1.00  0.00    -0.205 F 
ATOM     90  C   UNL A   1      46.830  26.563  35.694  1.00  0.00     0.022 A 
BRANCH  88  91
ATOM     91  S   UNL A   1      45.501  24.468  36.851  1.00  0.00     0.127 S 
ATOM     92  O   UNL A   1      44.400  24.904  37.707  1.00  0.00    -0.237 OA
ATOM     93  O   UNL A   1      45.181  23.344  35.970  1.00  0.00    -0.237 OA
ATOM     94  O   UNL A   1      46.798  24.375  37.510  1.00  0.00    -0.744 OA
ENDBRANCH  88  91
ENDBRANCH  61  84
ENDBRANCH  35  36
ENDBRANCH  27  30
ENDBRANCH  25  26
ENDBRANCH   1  25
TORSDOF 16
ENDMDL
MODEL 2
REMARK VINA RESULT:     -12.5      2.309      7.920
REMARK SMILES Cc1nc(Oc2ccc(F)cc2)c(C(=O)NCCCCNC(=O)c2ccc(-c3c4nc(c(-c5cccc(S(=O)(=O)[O-])c5F)c5ccc([nH]5)c(-c5cccc(S(=O)(=O)[O-])c5F)c5nc(c(-c6cccc(S(=O)(=O)[O-])c6F)c6ccc3[nH]6)C=C5)C=C4)cc2)c(C)c1Cl
REMARK SMILES IDX 19 1 18 2 17 3 16 4 14 5 15 6 13 8 1 9 2 10 3 11 89 12 4 13
REMARK SMILES IDX 87 14 90 15 88 16 5 17 6 18 7 19 12 20 8 21 11 22 9 23 10 24
REMARK SMILES IDX 20 25 21 26 22 27 23 29 24 30 25 31 86 32 26 33 85 34 27 35
REMARK SMILES IDX 28 36 29 37 79 38 30 39 84 40 78 41 80 42 31 43 83 44 77 45
REMARK SMILES IDX 76 46 32 48 64 49 44 50 63 51 45 52 48 53 62 54 81 55 46 56
REMARK SMILES IDX 47 57 61 59 82 60 49 61 33 62 34 63 42 64 35 65 37 66 43 67
REMARK SMILES IDX 36 68 38 69 39 70 40 71 41 72 65 73 66 74 74 75 67 76 69 77
REMARK SMILES IDX 75 78 68 79 70 80 71 81 72 82 73 83 50 84 51 85 59 86 52 87
REMARK SMILES IDX 54 88 60 89 53 90 55 91 56 92 57 93 58 94
REMARK H PARENT 16 7 21 28 80 47 48 58
REMARK Flexibility Score: inf
ROOT
ATOM      1  C   UNL A   1      32.534  31.220  27.298  1.00  0.00     0.023 C 
ENDROOT
BRANCH   1   2
ATOM      2  C   UNL A   1      31.473  31.124  26.205  1.00  0.00     0.023 C 
BRANCH   2   3
ATOM      3  C   UNL A   1      31.576  29.982  25.203  1.00  0.00     0.116 C 
BRANCH   3   4
ATOM      4  N   UNL A   1      32.876  29.731  24.616  1.00  0.00    -0.352 N 
ATOM      5  C   UNL A   1      33.120  28.813  23.607  1.00  0.00     0.257 C 
ATOM      6  O   UNL A   1      33.785  29.127  22.626  1.00  0.00    -0.269 OA
ATOM      7  H   UNL A   1      33.640  30.248  24.959  1.00  0.00     0.163 HD
BRANCH   5   8
ATOM      8  C   UNL A   1      32.631  27.419  23.715  1.00  0.00     0.106 A 
ATOM      9  C   UNL A   1      30.718  23.624  24.155  1.00  0.00     0.068 C 
ATOM     10  C   UNL A   1      31.476  24.913  24.008  1.00  0.00     0.060 A 
ATOM     11  N   UNL A   1      31.041  25.733  23.026  1.00  0.00    -0.216 NA
ATOM     12  C   UNL A   1      32.496  25.284  24.881  1.00  0.00     0.066 A 
ATOM     13  C   UNL A   1      31.595  26.969  22.879  1.00  0.00     0.232 A 
ATOM     14  C   UNL A   1      33.055  26.575  24.777  1.00  0.00    -0.012 A 
ATOM     15  Cl  UNL A   1      33.037  24.170  26.096  1.00  0.00    -0.082 Cl
ATOM     16  C   UNL A   1      34.037  27.028  25.830  1.00  0.00     0.047 C 
BRANCH  13  17
ATOM     17  O   UNL A   1      30.869  27.665  21.948  1.00  0.00    -0.438 OA
BRANCH  17  18
ATOM     18  C   UNL A   1      29.886  28.548  22.282  1.00  0.00     0.129 A 
ATOM     19  C   UNL A   1      30.106  29.889  21.947  1.00  0.00     0.050 A 
ATOM     20  C   UNL A   1      28.780  28.179  23.048  1.00  0.00     0.050 A 
ATOM     21  C   UNL A   1      29.179  30.860  22.315  1.00  0.00     0.043 A 
ATOM     22  C   UNL A   1      27.854  29.156  23.421  1.00  0.00     0.043 A 
ATOM     23  C   UNL A   1      28.058  30.483  23.044  1.00  0.00     0.123 A 
ATOM     24  F   UNL A   1      27.167  31.415  23.401  1.00  0.00    -0.207 F 
ENDBRANCH  17  18
ENDBRANCH  13  17
ENDBRANCH   5   8
ENDBRANCH   3   4
ENDBRANCH   2   3
ENDBRANCH   1   2
BRANCH   1  25
ATOM     25  C   UNL A   1      33.456  32.435  27.285  1.00  0.00     0.116 C 
BRANCH  25  26
ATOM     26  N   UNL A   1      32.813  33.696  27.634  1.00  0.00    -0.352 N 
ATOM     27  C   UNL A   1      33.174  34.602  28.612  1.00  0.00     0.251 C 
ATOM     28  H   UNL A   1      32.020  33.934  27.102  1.00  0.00     0.163 HD
ATOM     29  O   UNL A   1      32.546  35.635  28.775  1.00  0.00    -0.269 OA
BRANCH  27  30
ATOM     30  C   UNL A   1      34.305  34.258  29.496  1.00  0.00     0.039 A 
ATOM     31  C   UNL A   1      34.042  33.534  30.661  1.00  0.00     0.014 A 
ATOM     32  C   UNL A   1      35.615  34.531  29.097  1.00  0.00     0.014 A 
ATOM     33  C   UNL A   1      35.107  32.994  31.384  1.00  0.00     0.010 A 
ATOM     34  C   UNL A   1      36.670  33.940  29.785  1.00  0.00     0.010 A 
ATOM     35  C   UNL A   1      36.424  33.156  30.924  1.00  0.00    -0.014 A 
BRANCH  35  36
ATOM     36  C   UNL A   1      37.560  32.507  31.619  1.00  0.00     0.031 A 
ATOM     37  C   UNL A   1      38.273  31.362  30.963  1.00  0.00     0.074 A 
ATOM     38  C   UNL A   1      37.904  32.902  32.861  1.00  0.00     0.049 A 
ATOM     39  N   UNL A   1      39.256  30.635  31.424  1.00  0.00    -0.248 NA
ATOM     40  C   UNL A   1      37.808  30.966  29.622  1.00  0.00     0.031 C 
ATOM     41  C   UNL A   1      37.245  33.961  33.629  1.00  0.00     0.029 A 
ATOM     42  N   UNL A   1      38.885  32.445  33.706  1.00  0.00    -0.354 N 
ATOM     43  C   UNL A   1      39.510  29.684  30.445  1.00  0.00     0.074 A 
ATOM     44  C   UNL A   1      38.558  29.901  29.378  1.00  0.00     0.031 C 
ATOM     45  C   UNL A   1      37.850  34.081  34.823  1.00  0.00     0.029 A 
ATOM     46  C   UNL A   1      38.926  33.100  34.915  1.00  0.00     0.049 A 
ATOM     47  H   UNL A   1      39.503  31.716  33.467  1.00  0.00     0.167 HD
ATOM     48  C   UNL A   1      40.475  28.738  30.418  1.00  0.00     0.034 A 
ATOM     49  C   UNL A   1      39.744  32.932  35.972  1.00  0.00     0.034 A 
ATOM     50  C   UNL A   1      41.457  28.560  31.447  1.00  0.00     0.049 A 
ATOM     51  C   UNL A   1      40.832  31.895  35.902  1.00  0.00     0.074 A 
ATOM     52  C   UNL A   1      42.521  27.676  31.473  1.00  0.00     0.029 A 
ATOM     53  N   UNL A   1      41.504  29.284  32.627  1.00  0.00    -0.354 N 
ATOM     54  N   UNL A   1      41.133  31.087  34.915  1.00  0.00    -0.248 NA
ATOM     55  C   UNL A   1      41.711  31.764  37.075  1.00  0.00     0.031 C 
ATOM     56  C   UNL A   1      43.215  27.870  32.670  1.00  0.00     0.029 A 
ATOM     57  C   UNL A   1      42.581  28.872  33.388  1.00  0.00     0.049 A 
ATOM     58  H   UNL A   1      40.864  29.986  32.885  1.00  0.00     0.167 HD
ATOM     59  C   UNL A   1      42.249  30.372  35.334  1.00  0.00     0.074 A 
ATOM     60  C   UNL A   1      42.578  30.847  36.662  1.00  0.00     0.031 C 
ATOM     61  C   UNL A   1      42.928  29.398  34.682  1.00  0.00     0.034 A 
BRANCH  48  62
ATOM     62  C   UNL A   1      40.569  27.877  29.191  1.00  0.00     0.023 A 
ATOM     63  C   UNL A   1      39.687  26.787  29.058  1.00  0.00     0.012 A 
ATOM     64  C   UNL A   1      41.468  28.180  28.152  1.00  0.00     0.148 A 
ATOM     65  C   UNL A   1      39.707  25.997  27.911  1.00  0.00     0.002 A 
ATOM     66  C   UNL A   1      41.463  27.405  26.999  1.00  0.00     0.091 A 
ATOM     67  F   UNL A   1      42.306  29.213  28.314  1.00  0.00    -0.205 F 
ATOM     68  C   UNL A   1      40.588  26.311  26.879  1.00  0.00     0.022 A 
BRANCH  66  69
ATOM     69  S   UNL A   1      42.521  27.747  25.590  1.00  0.00     0.127 S 
ATOM     70  O   UNL A   1      42.348  26.534  24.789  1.00  0.00    -0.237 OA
ATOM     71  O   UNL A   1      41.900  28.945  25.025  1.00  0.00    -0.237 OA
ATOM     72  O   UNL A   1      43.860  27.946  26.128  1.00  0.00    -0.744 OA
ENDBRANCH  66  69
ENDBRANCH  48  62
BRANCH  49  73
ATOM     73  C   UNL A   1      39.626  33.837  37.149  1.00  0.00     0.023 A 
ATOM     74  C   UNL A   1      40.105  35.157  37.042  1.00  0.00     0.012 A 
ATOM     75  C   UNL A   1      39.009  33.421  38.343  1.00  0.00     0.148 A 
ATOM     76  C   UNL A   1      39.984  36.046  38.109  1.00  0.00     0.002 A 
ATOM     77  C   UNL A   1      38.860  34.323  39.392  1.00  0.00     0.091 A 
ATOM     78  F   UNL A   1      38.565  32.159  38.422  1.00  0.00    -0.205 F 
ATOM     79  C   UNL A   1      39.355  35.633  39.280  1.00  0.00     0.022 A 
BRANCH  77  80
ATOM     80  S   UNL A   1      37.984  33.919  40.907  1.00  0.00     0.127 S 
ATOM     81  O   UNL A   1      38.878  32.937  41.518  1.00  0.00    -0.237 OA
ATOM     82  O   UNL A   1      37.941  35.216  41.583  1.00  0.00    -0.237 OA
ATOM     83  O   UNL A   1      36.685  33.409  40.491  1.00  0.00    -0.744 OA
ENDBRANCH  77  80
ENDBRANCH  49  73
BRANCH  61  84
ATOM     84  C   UNL A   1      44.111  28.775  35.367  1.00  0.00     0.023 A 
ATOM     85  C   UNL A   1      45.383  29.354  35.200  1.00  0.00     0.012 A 
ATOM     86  C   UNL A   1      43.936  27.724  36.288  1.00  0.00     0.148 A 
ATOM     87  C   UNL A   1      46.469  28.894  35.944  1.00  0.00     0.002 A 
ATOM     88  C   UNL A   1      45.016  27.294  37.049  1.00  0.00     0.091 A 
ATOM     89  F   UNL A   1      42.715  27.187  36.419  1.00  0.00    -0.205 F 
ATOM     90  C   UNL A   1      46.283  27.876  36.876  1.00  0.00     0.022 A 
BRANCH  88  91
ATOM     91  S   UNL A   1      44.860  26.046  38.332  1.00  0.00     0.127 S 
ATOM     92  O   UNL A   1      46.221  25.994  38.864  1.00  0.00    -0.237 OA
ATOM     93  O   UNL A   1      43.876  26.649  39.232  1.00  0.00    -0.237 OA
ATOM     94  O   UNL A   1      44.410  24.833  37.664  1.00  0.00    -0.744 OA
ENDBRANCH  88  91
ENDBRANCH  61  84
ENDBRANCH  35  36
ENDBRANCH  27  30
ENDBRANCH  25  26
ENDBRANCH   1  25
TORSDOF 16
ENDMDL
MODEL 3
REMARK VINA RESULT:     -12.5      1.627      2.015
REMARK SMILES Cc1nc(Oc2ccc(F)cc2)c(C(=O)NCCCCNC(=O)c2ccc(-c3c4nc(c(-c5cccc(S(=O)(=O)[O-])c5F)c5ccc([nH]5)c(-c5cccc(S(=O)(=O)[O-])c5F)c5nc(c(-c6cccc(S(=O)(=O)[O-])c6F)c6ccc3[nH]6)C=C5)C=C4)cc2)c(C)c1Cl
REMARK SMILES IDX 19 1 18 2 17 3 16 4 14 5 15 6 13 8 1 9 2 10 3 11 89 12 4 13
REMARK SMILES IDX 87 14 90 15 88 16 5 17 6 18 7 19 12 20 8 21 11 22 9 23 10 24
REMARK SMILES IDX 20 25 21 26 22 27 23 29 24 30 25 31 86 32 26 33 85 34 27 35
REMARK SMILES IDX 28 36 29 37 79 38 30 39 84 40 78 41 80 42 31 43 83 44 77 45
REMARK SMILES IDX 76 46 32 48 64 49 44 50 63 51 45 52 48 53 62 54 81 55 46 56
REMARK SMILES IDX 47 57 61 59 82 60 49 61 33 62 34 63 42 64 35 65 37 66 43 67
REMARK SMILES IDX 36 68 38 69 39 70 40 71 41 72 65 73 66 74 74 75 67 76 69 77
REMARK SMILES IDX 75 78 68 79 70 80 71 81 72 82 73 83 50 84 51 85 59 86 52 87
REMARK SMILES IDX 54 88 60 89 53 90 55 91 56 92 57 93 58 94
REMARK H PARENT 16 7 21 28 80 47 48 58
REMARK Flexibility Score: inf
ROOT
ATOM      1  C   UNL A   1      31.034  32.184  26.207  1.00  0.00     0.023 C 
ENDROOT
BRANCH   1   2
ATOM      2  C   UNL A   1      30.949  30.948  25.316  1.00  0.00     0.023 C 
BRANCH   2   3
ATOM      3  C   UNL A   1      31.854  29.768  25.638  1.00  0.00     0.116 C 
BRANCH   3   4
ATOM      4  N   UNL A   1      33.039  29.599  24.823  1.00  0.00    -0.352 N 
ATOM      5  C   UNL A   1      33.110  28.806  23.689  1.00  0.00     0.257 C 
ATOM      6  O   UNL A   1      33.610  29.238  22.656  1.00  0.00    -0.269 OA
ATOM      7  H   UNL A   1      33.853  30.082  25.096  1.00  0.00     0.163 HD
BRANCH   5   8
ATOM      8  C   UNL A   1      32.634  27.404  23.714  1.00  0.00     0.106 A 
ATOM      9  C   UNL A   1      30.755  23.572  23.919  1.00  0.00     0.068 C 
ATOM     10  C   UNL A   1      31.502  24.874  23.853  1.00  0.00     0.060 A 
ATOM     11  N   UNL A   1      31.069  25.744  22.913  1.00  0.00    -0.216 NA
ATOM     12  C   UNL A   1      32.507  25.206  24.757  1.00  0.00     0.066 A 
ATOM     13  C   UNL A   1      31.612  26.991  22.842  1.00  0.00     0.232 A 
ATOM     14  C   UNL A   1      33.055  26.506  24.732  1.00  0.00    -0.012 A 
ATOM     15  Cl  UNL A   1      33.047  24.031  25.914  1.00  0.00    -0.082 Cl
ATOM     16  C   UNL A   1      34.020  26.908  25.820  1.00  0.00     0.047 C 
BRANCH  13  17
ATOM     17  O   UNL A   1      30.889  27.731  21.943  1.00  0.00    -0.438 OA
BRANCH  17  18
ATOM     18  C   UNL A   1      30.006  28.699  22.318  1.00  0.00     0.129 A 
ATOM     19  C   UNL A   1      28.916  28.289  23.094  1.00  0.00     0.050 A 
ATOM     20  C   UNL A   1      30.086  30.008  21.840  1.00  0.00     0.050 A 
ATOM     21  C   UNL A   1      27.936  29.208  23.458  1.00  0.00     0.043 A 
ATOM     22  C   UNL A   1      29.099  30.926  22.202  1.00  0.00     0.043 A 
ATOM     23  C   UNL A   1      28.040  30.520  23.012  1.00  0.00     0.123 A 
ATOM     24  F   UNL A   1      27.097  31.405  23.360  1.00  0.00    -0.207 F 
ENDBRANCH  17  18
ENDBRANCH  13  17
ENDBRANCH   5   8
ENDBRANCH   3   4
ENDBRANCH   2   3
ENDBRANCH   1   2
BRANCH   1  25
ATOM     25  C   UNL A   1      32.339  32.427  26.959  1.00  0.00     0.116 C 
BRANCH  25  26
ATOM     26  N   UNL A   1      32.494  33.771  27.500  1.00  0.00    -0.352 N 
ATOM     27  C   UNL A   1      33.552  34.290  28.220  1.00  0.00     0.251 C 
ATOM     28  H   UNL A   1      31.749  34.390  27.328  1.00  0.00     0.163 HD
ATOM     29  O   UNL A   1      33.550  35.451  28.593  1.00  0.00    -0.269 OA
BRANCH  27  30
ATOM     30  C   UNL A   1      34.660  33.383  28.580  1.00  0.00     0.039 A 
ATOM     31  C   UNL A   1      35.952  33.715  28.166  1.00  0.00     0.014 A 
ATOM     32  C   UNL A   1      34.432  32.301  29.432  1.00  0.00     0.014 A 
ATOM     33  C   UNL A   1      37.038  33.013  28.690  1.00  0.00     0.010 A 
ATOM     34  C   UNL A   1      35.519  31.643  29.999  1.00  0.00     0.010 A 
ATOM     35  C   UNL A   1      36.829  32.003  29.644  1.00  0.00    -0.014 A 
BRANCH  35  36
ATOM     36  C   UNL A   1      37.972  31.313  30.288  1.00  0.00     0.031 A 
ATOM     37  C   UNL A   1      38.350  31.664  31.697  1.00  0.00     0.074 A 
ATOM     38  C   UNL A   1      38.706  30.427  29.586  1.00  0.00     0.049 A 
ATOM     39  N   UNL A   1      39.340  31.210  32.418  1.00  0.00    -0.248 NA
ATOM     40  C   UNL A   1      37.521  32.674  32.379  1.00  0.00     0.031 C 
ATOM     41  C   UNL A   1      38.476  30.051  28.189  1.00  0.00     0.029 A 
ATOM     42  N   UNL A   1      39.808  29.693  29.947  1.00  0.00    -0.354 N 
ATOM     43  C   UNL A   1      39.269  31.893  33.624  1.00  0.00     0.074 A 
ATOM     44  C   UNL A   1      38.161  32.816  33.530  1.00  0.00     0.031 C 
ATOM     45  C   UNL A   1      39.399  29.147  27.818  1.00  0.00     0.029 A 
ATOM     46  C   UNL A   1      40.295  28.891  28.942  1.00  0.00     0.049 A 
ATOM     47  H   UNL A   1      40.212  29.737  30.845  1.00  0.00     0.167 HD
ATOM     48  C   UNL A   1      40.034  31.736  34.728  1.00  0.00     0.034 A 
ATOM     49  C   UNL A   1      41.340  28.040  28.931  1.00  0.00     0.034 A 
ATOM     50  C   UNL A   1      41.095  30.778  34.844  1.00  0.00     0.049 A 
ATOM     51  C   UNL A   1      42.153  27.860  30.184  1.00  0.00     0.074 A 
ATOM     52  C   UNL A   1      41.877  30.495  35.950  1.00  0.00     0.029 A 
ATOM     53  N   UNL A   1      41.516  29.941  33.825  1.00  0.00    -0.354 N 
ATOM     54  N   UNL A   1      41.993  28.426  31.355  1.00  0.00    -0.248 NA
ATOM     55  C   UNL A   1      43.272  26.905  30.126  1.00  0.00     0.031 C 
ATOM     56  C   UNL A   1      42.771  29.481  35.598  1.00  0.00     0.029 A 
ATOM     57  C   UNL A   1      42.545  29.135  34.275  1.00  0.00     0.049 A 
ATOM     58  H   UNL A   1      41.140  29.923  32.915  1.00  0.00     0.167 HD
ATOM     59  C   UNL A   1      42.969  27.879  32.180  1.00  0.00     0.074 A 
ATOM     60  C   UNL A   1      43.712  26.929  31.379  1.00  0.00     0.031 C 
ATOM     61  C   UNL A   1      43.233  28.153  33.480  1.00  0.00     0.034 A 
BRANCH  48  62
ATOM     62  C   UNL A   1      39.691  32.564  35.933  1.00  0.00     0.023 A 
ATOM     63  C   UNL A   1      40.287  33.833  36.076  1.00  0.00     0.012 A 
ATOM     64  C   UNL A   1      38.742  32.127  36.875  1.00  0.00     0.148 A 
ATOM     65  C   UNL A   1      39.954  34.652  37.151  1.00  0.00     0.002 A 
ATOM     66  C   UNL A   1      38.394  32.962  37.929  1.00  0.00     0.091 A 
ATOM     67  F   UNL A   1      38.204  30.910  36.721  1.00  0.00    -0.205 F 
ATOM     68  C   UNL A   1      39.002  34.222  38.072  1.00  0.00     0.022 A 
BRANCH  66  69
ATOM     69  S   UNL A   1      37.147  32.529  39.146  1.00  0.00     0.127 S 
ATOM     70  O   UNL A   1      35.911  32.807  38.413  1.00  0.00    -0.237 OA
ATOM     71  O   UNL A   1      37.418  31.109  39.367  1.00  0.00    -0.237 OA
ATOM     72  O   UNL A   1      37.389  33.387  40.297  1.00  0.00    -0.744 OA
ENDBRANCH  66  69
ENDBRANCH  48  62
BRANCH  49  73
ATOM     73  C   UNL A   1      41.613  27.220  27.719  1.00  0.00     0.023 A 
ATOM     74  C   UNL A   1      42.149  27.849  26.579  1.00  0.00     0.012 A 
ATOM     75  C   UNL A   1      41.392  25.830  27.700  1.00  0.00     0.148 A 
ATOM     76  C   UNL A   1      42.450  27.111  25.434  1.00  0.00     0.002 A 
ATOM     77  C   UNL A   1      41.726  25.095  26.567  1.00  0.00     0.091 A 
ATOM     78  F   UNL A   1      40.877  25.255  28.795  1.00  0.00    -0.205 F 
ATOM     79  C   UNL A   1      42.246  25.735  25.431  1.00  0.00     0.022 A 
BRANCH  77  80
ATOM     80  S   UNL A   1      41.589  23.305  26.493  1.00  0.00     0.127 S 
ATOM     81  O   UNL A   1      40.139  23.116  26.464  1.00  0.00    -0.237 OA
ATOM     82  O   UNL A   1      42.273  23.005  25.235  1.00  0.00    -0.237 OA
ATOM     83  O   UNL A   1      42.262  22.805  27.684  1.00  0.00    -0.744 OA
ENDBRANCH  77  80
ENDBRANCH  49  73
BRANCH  61  84
ATOM     84  C   UNL A   1      44.361  27.417  34.147  1.00  0.00     0.023 A 
ATOM     85  C   UNL A   1      45.660  27.952  34.085  1.00  0.00     0.012 A 
ATOM     86  C   UNL A   1      44.104  26.293  34.957  1.00  0.00     0.148 A 
ATOM     87  C   UNL A   1      46.695  27.377  34.822  1.00  0.00     0.002 A 
ATOM     88  C   UNL A   1      45.133  25.746  35.714  1.00  0.00     0.091 A 
ATOM     89  F   UNL A   1      42.858  25.802  34.990  1.00  0.00    -0.205 F 
ATOM     90  C   UNL A   1      46.429  26.285  35.645  1.00  0.00     0.022 A 
BRANCH  88  91
ATOM     91  S   UNL A   1      44.873  24.393  36.866  1.00  0.00     0.127 S 
ATOM     92  O   UNL A   1      44.422  23.326  35.975  1.00  0.00    -0.237 OA
ATOM     93  O   UNL A   1      46.212  24.199  37.422  1.00  0.00    -0.237 OA
ATOM     94  O   UNL A   1      43.879  24.861  37.823  1.00  0.00    -0.744 OA
ENDBRANCH  88  91
ENDBRANCH  61  84
ENDBRANCH  35  36
ENDBRANCH  27  30
ENDBRANCH  25  26
ENDBRANCH   1  25
TORSDOF 16
ENDMDL
