MODEL 1
REMARK VINA RESULT:     -10.7      0.000      0.000
REMARK SMILES CC[NH2+]C(C)(C)C(=O)N[C@@](C)(C(=O)NCCCCNC(=O)c1ccc(-c2c3nc(c(-c4cccc(S(=O)(=O)[O-])c4F)c4ccc([nH]4)c(-c4cccc(S(=O)(=O)[O-])c4F)c4nc(c(-c5cccc(S(=O)(=O)[O-])c5F)c5ccc2[nH]5)C=C4)C=C3)cc1)C(F)(F)F
REMARK SMILES IDX 16 1 15 2 14 3 12 4 13 5 10 7 11 8 9 9 7 10 8 11 4 13 5 14
REMARK SMILES IDX 6 15 3 16 2 19 1 20 85 21 86 22 87 23 88 24 17 25 18 26
REMARK SMILES IDX 19 27 20 28 21 30 22 31 23 32 84 33 24 34 83 35 25 36 26 37
REMARK SMILES IDX 27 38 77 39 28 40 82 41 76 42 78 43 29 44 81 45 75 46 74 47
REMARK SMILES IDX 30 49 62 50 42 51 61 52 43 53 46 54 60 55 79 56 44 57 45 58
REMARK SMILES IDX 59 60 80 61 47 62 31 63 32 64 40 65 33 66 35 67 41 68 34 69
REMARK SMILES IDX 36 70 37 71 38 72 39 73 63 74 64 75 72 76 65 77 67 78 73 79
REMARK SMILES IDX 66 80 68 81 69 82 70 83 71 84 48 85 49 86 57 87 50 88 52 89
REMARK SMILES IDX 58 90 51 91 53 92 54 93 55 94 56 95
REMARK H PARENT 14 6 9 12 3 17 3 18 19 29 78 48 46 59
REMARK Flexibility Score: inf
ROOT
ATOM      1  C   UNL A   1      32.253  27.785  27.096  1.00  0.00     0.023 C 
ENDROOT
BRANCH   1   2
ATOM      2  C   UNL A   1      31.270  26.912  26.324  1.00  0.00     0.116 C 
BRANCH   2   3
ATOM      3  N   UNL A   1      30.978  27.442  25.002  1.00  0.00    -0.354 N 
ATOM      4  C   UNL A   1      31.208  27.002  23.730  1.00  0.00     0.254 C 
ATOM      5  O   UNL A   1      30.739  27.718  22.841  1.00  0.00    -0.272 OA
ATOM      6  H   UNL A   1      30.512  28.309  25.031  1.00  0.00     0.163 HD
BRANCH   4   7
ATOM      7  C   UNL A   1      32.006  25.716  23.405  1.00  0.00     0.212 C 
ATOM      8  C   UNL A   1      31.895  25.344  21.907  1.00  0.00     0.056 C 
BRANCH   7   9
ATOM      9  N   UNL A   1      31.337  24.600  24.195  1.00  0.00    -0.329 N 
ATOM     10  C   UNL A   1      31.531  23.353  24.702  1.00  0.00     0.281 C 
ATOM     11  O   UNL A   1      30.650  23.026  25.509  1.00  0.00    -0.268 OA
ATOM     12  H   UNL A   1      30.424  24.888  24.424  1.00  0.00     0.165 HD
BRANCH  10  13
ATOM     13  C   UNL A   1      32.677  22.390  24.288  1.00  0.00     0.169 C 
ATOM     14  C   UNL A   1      32.788  22.325  22.759  1.00  0.00     0.090 C 
ATOM     15  C   UNL A   1      32.370  21.026  24.948  1.00  0.00     0.090 C 
BRANCH  13  16
ATOM     16  N   UNL A   1      34.005  22.726  24.889  1.00  0.00    -0.334 N 
ATOM     17  H   UNL A   1      34.085  23.742  24.893  1.00  0.00     0.347 HD
ATOM     18  H   UNL A   1      33.988  22.274  25.802  1.00  0.00     0.347 HD
BRANCH  16  19
ATOM     19  C   UNL A   1      35.210  22.201  24.251  1.00  0.00     0.257 C 
ATOM     20  C   UNL A   1      36.244  23.323  24.181  1.00  0.00     0.071 C 
ENDBRANCH  16  19
ENDBRANCH  13  16
ENDBRANCH  10  13
ENDBRANCH   7   9
BRANCH   7  21
ATOM     21  C   UNL A   1      33.506  26.110  23.576  1.00  0.00     0.420 C 
ATOM     22  F   UNL A   1      34.367  25.492  22.754  1.00  0.00    -0.168 F 
ATOM     23  F   UNL A   1      33.689  27.444  23.396  1.00  0.00    -0.168 F 
ATOM     24  F   UNL A   1      33.933  25.875  24.846  1.00  0.00    -0.168 F 
ENDBRANCH   7  21
ENDBRANCH   4   7
ENDBRANCH   2   3
ENDBRANCH   1   2
BRANCH   1  25
ATOM     25  C   UNL A   1      31.916  29.276  27.129  1.00  0.00     0.023 C 
BRANCH  25  26
ATOM     26  C   UNL A   1      32.889  30.186  26.387  1.00  0.00     0.116 C 
BRANCH  26  27
ATOM     27  N   UNL A   1      32.823  31.574  26.824  1.00  0.00    -0.352 N 
ATOM     28  C   UNL A   1      33.690  32.266  27.636  1.00  0.00     0.251 C 
ATOM     29  H   UNL A   1      32.052  32.088  26.491  1.00  0.00     0.163 HD
ATOM     30  O   UNL A   1      33.418  33.409  27.997  1.00  0.00    -0.269 OA
BRANCH  28  31
ATOM     31  C   UNL A   1      34.932  31.613  28.099  1.00  0.00     0.039 A 
ATOM     32  C   UNL A   1      36.102  32.371  28.192  1.00  0.00     0.014 A 
ATOM     33  C   UNL A   1      34.927  30.271  28.487  1.00  0.00     0.014 A 
ATOM     34  C   UNL A   1      37.250  31.803  28.751  1.00  0.00     0.010 A 
ATOM     35  C   UNL A   1      36.049  29.730  29.108  1.00  0.00     0.010 A 
ATOM     36  C   UNL A   1      37.219  30.492  29.253  1.00  0.00    -0.014 A 
BRANCH  36  37
ATOM     37  C   UNL A   1      38.384  29.904  29.964  1.00  0.00     0.031 A 
ATOM     38  C   UNL A   1      38.761  30.397  31.335  1.00  0.00     0.074 A 
ATOM     39  C   UNL A   1      39.170  29.011  29.328  1.00  0.00     0.049 A 
ATOM     40  N   UNL A   1      39.795  30.078  32.070  1.00  0.00    -0.248 NA
ATOM     41  C   UNL A   1      37.877  31.401  31.950  1.00  0.00     0.031 C 
ATOM     42  C   UNL A   1      38.957  28.514  27.967  1.00  0.00     0.029 A 
ATOM     43  N   UNL A   1      40.328  28.391  29.728  1.00  0.00    -0.354 N 
ATOM     44  C   UNL A   1      39.712  30.872  33.207  1.00  0.00     0.074 A 
ATOM     45  C   UNL A   1      38.539  31.704  33.057  1.00  0.00     0.031 C 
ATOM     46  C   UNL A   1      39.951  27.670  27.646  1.00  0.00     0.029 A 
ATOM     47  C   UNL A   1      40.890  27.591  28.760  1.00  0.00     0.049 A 
ATOM     48  H   UNL A   1      40.720  28.508  30.624  1.00  0.00     0.167 HD
ATOM     49  C   UNL A   1      40.526  30.889  34.288  1.00  0.00     0.034 A 
ATOM     50  C   UNL A   1      42.038  26.885  28.762  1.00  0.00     0.034 A 
ATOM     51  C   UNL A   1      41.658  30.019  34.459  1.00  0.00     0.049 A 
ATOM     52  C   UNL A   1      42.901  26.894  29.995  1.00  0.00     0.074 A 
ATOM     53  C   UNL A   1      42.471  29.878  35.569  1.00  0.00     0.029 A 
ATOM     54  N   UNL A   1      42.145  29.154  33.494  1.00  0.00    -0.354 N 
ATOM     55  N   UNL A   1      42.706  27.514  31.134  1.00  0.00    -0.248 NA
ATOM     56  C   UNL A   1      44.128  26.083  29.957  1.00  0.00     0.031 C 
ATOM     57  C   UNL A   1      43.468  28.946  35.264  1.00  0.00     0.029 A 
ATOM     58  C   UNL A   1      43.260  28.489  33.973  1.00  0.00     0.049 A 
ATOM     59  H   UNL A   1      41.756  29.031  32.597  1.00  0.00     0.167 HD
ATOM     60  C   UNL A   1      43.763  27.141  31.957  1.00  0.00     0.074 A 
ATOM     61  C   UNL A   1      44.584  26.225  31.195  1.00  0.00     0.031 C 
ATOM     62  C   UNL A   1      44.036  27.535  33.225  1.00  0.00     0.034 A 
BRANCH  49  63
ATOM     63  C   UNL A   1      40.193  31.843  35.404  1.00  0.00     0.023 A 
ATOM     64  C   UNL A   1      40.913  33.049  35.529  1.00  0.00     0.012 A 
ATOM     65  C   UNL A   1      39.121  31.584  36.282  1.00  0.00     0.148 A 
ATOM     66  C   UNL A   1      40.592  33.968  36.526  1.00  0.00     0.002 A 
ATOM     67  C   UNL A   1      38.779  32.525  37.246  1.00  0.00     0.091 A 
ATOM     68  F   UNL A   1      38.462  30.423  36.160  1.00  0.00    -0.205 F 
ATOM     69  C   UNL A   1      39.519  33.711  37.376  1.00  0.00     0.022 A 
BRANCH  67  70
ATOM     70  S   UNL A   1      37.367  32.324  38.337  1.00  0.00     0.127 S 
ATOM     71  O   UNL A   1      37.200  30.872  38.339  1.00  0.00    -0.237 OA
ATOM     72  O   UNL A   1      37.867  32.883  39.594  1.00  0.00    -0.237 OA
ATOM     73  O   UNL A   1      36.279  33.078  37.728  1.00  0.00    -0.744 OA
ENDBRANCH  67  70
ENDBRANCH  49  63
BRANCH  50  74
ATOM     74  C   UNL A   1      42.414  26.062  27.577  1.00  0.00     0.023 A 
ATOM     75  C   UNL A   1      43.188  26.643  26.554  1.00  0.00     0.012 A 
ATOM     76  C   UNL A   1      42.026  24.714  27.463  1.00  0.00     0.148 A 
ATOM     77  C   UNL A   1      43.540  25.907  25.422  1.00  0.00     0.002 A 
ATOM     78  C   UNL A   1      42.427  23.970  26.359  1.00  0.00     0.091 A 
ATOM     79  F   UNL A   1      41.277  24.182  28.438  1.00  0.00    -0.205 F 
ATOM     80  C   UNL A   1      43.168  24.568  25.328  1.00  0.00     0.022 A 
BRANCH  78  81
ATOM     81  S   UNL A   1      42.105  22.208  26.221  1.00  0.00     0.127 S 
ATOM     82  O   UNL A   1      42.653  21.704  27.478  1.00  0.00    -0.237 OA
ATOM     83  O   UNL A   1      40.645  22.171  26.127  1.00  0.00    -0.237 OA
ATOM     84  O   UNL A   1      42.793  21.779  25.011  1.00  0.00    -0.744 OA
ENDBRANCH  78  81
ENDBRANCH  50  74
BRANCH  62  85
ATOM     85  C   UNL A   1      45.256  26.956  33.893  1.00  0.00     0.023 A 
ATOM     86  C   UNL A   1      46.475  27.659  33.854  1.00  0.00     0.012 A 
ATOM     87  C   UNL A   1      45.169  25.761  34.636  1.00  0.00     0.148 A 
ATOM     88  C   UNL A   1      47.597  27.170  34.522  1.00  0.00     0.002 A 
ATOM     89  C   UNL A   1      46.277  25.306  35.339  1.00  0.00     0.091 A 
ATOM     90  F   UNL A   1      44.003  25.099  34.647  1.00  0.00    -0.205 F 
ATOM     91  C   UNL A   1      47.494  26.003  35.274  1.00  0.00     0.022 A 
BRANCH  89  92
ATOM     92  S   UNL A   1      46.214  23.867  36.412  1.00  0.00     0.127 S 
ATOM     93  O   UNL A   1      45.960  22.792  35.455  1.00  0.00    -0.237 OA
ATOM     94  O   UNL A   1      47.556  23.858  36.998  1.00  0.00    -0.237 OA
ATOM     95  O   UNL A   1      45.141  24.121  37.364  1.00  0.00    -0.744 OA
ENDBRANCH  89  92
ENDBRANCH  62  85
ENDBRANCH  36  37
ENDBRANCH  28  31
ENDBRANCH  26  27
ENDBRANCH  25  26
ENDBRANCH   1  25
TORSDOF 19
ENDMDL
MODEL 2
REMARK VINA RESULT:     -10.7      2.270      8.130
REMARK SMILES CC[NH2+]C(C)(C)C(=O)N[C@@](C)(C(=O)NCCCCNC(=O)c1ccc(-c2c3nc(c(-c4cccc(S(=O)(=O)[O-])c4F)c4ccc([nH]4)c(-c4cccc(S(=O)(=O)[O-])c4F)c4nc(c(-c5cccc(S(=O)(=O)[O-])c5F)c5ccc2[nH]5)C=C4)C=C3)cc1)C(F)(F)F
REMARK SMILES IDX 16 1 15 2 14 3 12 4 13 5 10 7 11 8 9 9 7 10 8 11 4 13 5 14
REMARK SMILES IDX 6 15 3 16 2 19 1 20 85 21 86 22 87 23 88 24 17 25 18 26
REMARK SMILES IDX 19 27 20 28 21 30 22 31 23 32 84 33 24 34 83 35 25 36 26 37
REMARK SMILES IDX 27 38 77 39 28 40 82 41 76 42 78 43 29 44 81 45 75 46 74 47
REMARK SMILES IDX 30 49 62 50 42 51 61 52 43 53 46 54 60 55 79 56 44 57 45 58
REMARK SMILES IDX 59 60 80 61 47 62 31 63 32 64 40 65 33 66 35 67 41 68 34 69
REMARK SMILES IDX 36 70 37 71 38 72 39 73 63 74 64 75 72 76 65 77 67 78 73 79
REMARK SMILES IDX 66 80 68 81 69 82 70 83 71 84 48 85 49 86 57 87 50 88 52 89
REMARK SMILES IDX 58 90 51 91 53 92 54 93 55 94 56 95
REMARK H PARENT 14 6 9 12 3 17 3 18 19 29 78 48 46 59
REMARK Flexibility Score: inf
ROOT
ATOM      1  C   UNL A   1      31.636  30.618  25.545  1.00  0.00     0.023 C 
ENDROOT
BRANCH   1   2
ATOM      2  C   UNL A   1      31.549  29.120  25.274  1.00  0.00     0.116 C 
BRANCH   2   3
ATOM      3  N   UNL A   1      31.055  28.827  23.939  1.00  0.00    -0.354 N 
ATOM      4  C   UNL A   1      31.107  27.730  23.126  1.00  0.00     0.254 C 
ATOM      5  O   UNL A   1      30.497  27.847  22.059  1.00  0.00    -0.272 OA
ATOM      6  H   UNL A   1      30.578  29.585  23.531  1.00  0.00     0.163 HD
BRANCH   4   7
ATOM      7  C   UNL A   1      31.878  26.438  23.488  1.00  0.00     0.212 C 
ATOM      8  C   UNL A   1      31.549  25.289  22.506  1.00  0.00     0.056 C 
BRANCH   7   9
ATOM      9  N   UNL A   1      31.368  26.018  24.859  1.00  0.00    -0.329 N 
ATOM     10  C   UNL A   1      31.605  25.180  25.903  1.00  0.00     0.281 C 
ATOM     11  O   UNL A   1      30.947  25.476  26.909  1.00  0.00    -0.268 OA
ATOM     12  H   UNL A   1      30.567  26.551  25.067  1.00  0.00     0.165 HD
BRANCH  10  13
ATOM     13  C   UNL A   1      32.538  23.939  25.856  1.00  0.00     0.169 C 
ATOM     14  C   UNL A   1      32.213  22.988  27.015  1.00  0.00     0.090 C 
ATOM     15  C   UNL A   1      33.988  24.473  25.878  1.00  0.00     0.090 C 
BRANCH  13  16
ATOM     16  N   UNL A   1      32.506  23.198  24.556  1.00  0.00    -0.334 N 
ATOM     17  H   UNL A   1      31.789  22.479  24.637  1.00  0.00     0.347 HD
ATOM     18  H   UNL A   1      32.338  23.924  23.859  1.00  0.00     0.347 HD
BRANCH  16  19
ATOM     19  C   UNL A   1      33.729  22.540  24.100  1.00  0.00     0.257 C 
ATOM     20  C   UNL A   1      33.573  21.037  24.316  1.00  0.00     0.071 C 
ENDBRANCH  16  19
ENDBRANCH  13  16
ENDBRANCH  10  13
ENDBRANCH   7   9
BRANCH   7  21
ATOM     21  C   UNL A   1      33.376  26.758  23.190  1.00  0.00     0.420 C 
ATOM     22  F   UNL A   1      34.111  27.142  24.245  1.00  0.00    -0.168 F 
ATOM     23  F   UNL A   1      34.010  25.687  22.645  1.00  0.00    -0.168 F 
ATOM     24  F   UNL A   1      33.491  27.736  22.251  1.00  0.00    -0.168 F 
ENDBRANCH   7  21
ENDBRANCH   4   7
ENDBRANCH   2   3
ENDBRANCH   1   2
BRANCH   1  25
ATOM     25  C   UNL A   1      31.929  31.004  26.995  1.00  0.00     0.023 C 
BRANCH  25  26
ATOM     26  C   UNL A   1      33.084  31.979  27.196  1.00  0.00     0.116 C 
BRANCH  26  27
ATOM     27  N   UNL A   1      32.647  33.348  27.427  1.00  0.00    -0.352 N 
ATOM     28  C   UNL A   1      33.122  34.265  28.334  1.00  0.00     0.251 C 
ATOM     29  H   UNL A   1      31.910  33.661  26.854  1.00  0.00     0.163 HD
ATOM     30  O   UNL A   1      32.556  35.347  28.473  1.00  0.00    -0.269 OA
BRANCH  28  31
ATOM     31  C   UNL A   1      34.296  33.926  29.166  1.00  0.00     0.039 A 
ATOM     32  C   UNL A   1      34.101  33.231  30.362  1.00  0.00     0.014 A 
ATOM     33  C   UNL A   1      35.586  34.251  28.739  1.00  0.00     0.014 A 
ATOM     34  C   UNL A   1      35.208  32.790  31.092  1.00  0.00     0.010 A 
ATOM     35  C   UNL A   1      36.686  33.749  29.430  1.00  0.00     0.010 A 
ATOM     36  C   UNL A   1      36.508  33.008  30.609  1.00  0.00    -0.014 A 
BRANCH  36  37
ATOM     37  C   UNL A   1      37.699  32.444  31.297  1.00  0.00     0.031 A 
ATOM     38  C   UNL A   1      38.462  31.305  30.677  1.00  0.00     0.074 A 
ATOM     39  C   UNL A   1      38.021  32.878  32.533  1.00  0.00     0.049 A 
ATOM     40  N   UNL A   1      39.462  30.620  31.167  1.00  0.00    -0.248 NA
ATOM     41  C   UNL A   1      38.028  30.859  29.342  1.00  0.00     0.031 C 
ATOM     42  C   UNL A   1      37.309  33.920  33.276  1.00  0.00     0.029 A 
ATOM     43  N   UNL A   1      39.006  32.471  33.398  1.00  0.00    -0.354 N 
ATOM     44  C   UNL A   1      39.745  29.635  30.228  1.00  0.00     0.074 A 
ATOM     45  C   UNL A   1      38.798  29.798  29.146  1.00  0.00     0.031 C 
ATOM     46  C   UNL A   1      37.879  34.068  34.483  1.00  0.00     0.029 A 
ATOM     47  C   UNL A   1      38.971  33.110  34.616  1.00  0.00     0.049 A 
ATOM     48  H   UNL A   1      39.675  31.785  33.168  1.00  0.00     0.167 HD
ATOM     49  C   UNL A   1      40.720  28.697  30.252  1.00  0.00     0.034 A 
ATOM     50  C   UNL A   1      39.724  32.936  35.720  1.00  0.00     0.034 A 
ATOM     51  C   UNL A   1      41.695  28.576  31.301  1.00  0.00     0.049 A 
ATOM     52  C   UNL A   1      40.826  31.910  35.701  1.00  0.00     0.074 A 
ATOM     53  C   UNL A   1      42.793  27.735  31.358  1.00  0.00     0.029 A 
ATOM     54  N   UNL A   1      41.685  29.302  32.480  1.00  0.00    -0.354 N 
ATOM     55  N   UNL A   1      41.193  31.112  34.728  1.00  0.00    -0.248 NA
ATOM     56  C   UNL A   1      41.638  31.781  36.921  1.00  0.00     0.031 C 
ATOM     57  C   UNL A   1      43.432  27.936  32.586  1.00  0.00     0.029 A 
ATOM     58  C   UNL A   1      42.746  28.918  33.282  1.00  0.00     0.049 A 
ATOM     59  H   UNL A   1      41.021  29.991  32.714  1.00  0.00     0.167 HD
ATOM     60  C   UNL A   1      42.297  30.414  35.204  1.00  0.00     0.074 A 
ATOM     61  C   UNL A   1      42.553  30.898  36.544  1.00  0.00     0.031 C 
ATOM     62  C   UNL A   1      43.025  29.448  34.590  1.00  0.00     0.034 A 
BRANCH  49  63
ATOM     63  C   UNL A   1      40.819  27.755  29.082  1.00  0.00     0.023 A 
ATOM     64  C   UNL A   1      39.985  26.620  29.027  1.00  0.00     0.012 A 
ATOM     65  C   UNL A   1      41.682  28.032  28.002  1.00  0.00     0.148 A 
ATOM     66  C   UNL A   1      40.028  25.760  27.931  1.00  0.00     0.002 A 
ATOM     67  C   UNL A   1      41.688  27.193  26.894  1.00  0.00     0.091 A 
ATOM     68  F   UNL A   1      42.482  29.105  28.082  1.00  0.00    -0.205 F 
ATOM     69  C   UNL A   1      40.870  26.052  26.862  1.00  0.00     0.022 A 
BRANCH  67  70
ATOM     70  S   UNL A   1      42.678  27.525  25.432  1.00  0.00     0.127 S 
ATOM     71  O   UNL A   1      42.394  26.349  24.612  1.00  0.00    -0.237 OA
ATOM     72  O   UNL A   1      42.089  28.771  24.938  1.00  0.00    -0.237 OA
ATOM     73  O   UNL A   1      44.053  27.648  25.898  1.00  0.00    -0.744 OA
ENDBRANCH  67  70
ENDBRANCH  49  63
BRANCH  50  74
ATOM     74  C   UNL A   1      39.501  33.790  36.921  1.00  0.00     0.023 A 
ATOM     75  C   UNL A   1      39.906  35.139  36.892  1.00  0.00     0.012 A 
ATOM     76  C   UNL A   1      38.882  33.284  38.081  1.00  0.00     0.148 A 
ATOM     77  C   UNL A   1      39.730  35.960  38.006  1.00  0.00     0.002 A 
ATOM     78  C   UNL A   1      38.659  34.123  39.167  1.00  0.00     0.091 A 
ATOM     79  F   UNL A   1      38.517  31.995  38.097  1.00  0.00    -0.205 F 
ATOM     80  C   UNL A   1      39.098  35.456  39.140  1.00  0.00     0.022 A 
BRANCH  78  81
ATOM     81  S   UNL A   1      37.736  33.593  40.614  1.00  0.00     0.127 S 
ATOM     82  O   UNL A   1      37.694  34.817  41.409  1.00  0.00    -0.237 OA
ATOM     83  O   UNL A   1      36.455  33.193  40.030  1.00  0.00    -0.237 OA
ATOM     84  O   UNL A   1      38.503  32.492  41.183  1.00  0.00    -0.744 OA
ENDBRANCH  78  81
ENDBRANCH  50  74
BRANCH  62  85
ATOM     85  C   UNL A   1      44.192  28.863  35.342  1.00  0.00     0.023 A 
ATOM     86  C   UNL A   1      45.469  29.442  35.211  1.00  0.00     0.012 A 
ATOM     87  C   UNL A   1      44.003  27.798  36.246  1.00  0.00     0.148 A 
ATOM     88  C   UNL A   1      46.547  28.955  35.949  1.00  0.00     0.002 A 
ATOM     89  C   UNL A   1      45.071  27.351  37.014  1.00  0.00     0.091 A 
ATOM     90  F   UNL A   1      42.784  27.251  36.343  1.00  0.00    -0.205 F 
ATOM     91  C   UNL A   1      46.345  27.920  36.858  1.00  0.00     0.022 A 
BRANCH  89  92
ATOM     92  S   UNL A   1      44.887  26.090  38.280  1.00  0.00     0.127 S 
ATOM     93  O   UNL A   1      46.278  25.725  38.542  1.00  0.00    -0.237 OA
ATOM     94  O   UNL A   1      44.236  26.831  39.362  1.00  0.00    -0.237 OA
ATOM     95  O   UNL A   1      44.067  25.041  37.688  1.00  0.00    -0.744 OA
ENDBRANCH  89  92
ENDBRANCH  62  85
ENDBRANCH  36  37
ENDBRANCH  28  31
ENDBRANCH  26  27
ENDBRANCH  25  26
ENDBRANCH   1  25
TORSDOF 19
ENDMDL
MODEL 3
REMARK VINA RESULT:     -10.5      5.915      8.842
REMARK SMILES CC[NH2+]C(C)(C)C(=O)N[C@@](C)(C(=O)NCCCCNC(=O)c1ccc(-c2c3nc(c(-c4cccc(S(=O)(=O)[O-])c4F)c4ccc([nH]4)c(-c4cccc(S(=O)(=O)[O-])c4F)c4nc(c(-c5cccc(S(=O)(=O)[O-])c5F)c5ccc2[nH]5)C=C4)C=C3)cc1)C(F)(F)F
REMARK SMILES IDX 16 1 15 2 14 3 12 4 13 5 10 7 11 8 9 9 7 10 8 11 4 13 5 14
REMARK SMILES IDX 6 15 3 16 2 19 1 20 85 21 86 22 87 23 88 24 17 25 18 26
REMARK SMILES IDX 19 27 20 28 21 30 22 31 23 32 84 33 24 34 83 35 25 36 26 37
REMARK SMILES IDX 27 38 77 39 28 40 82 41 76 42 78 43 29 44 81 45 75 46 74 47
REMARK SMILES IDX 30 49 62 50 42 51 61 52 43 53 46 54 60 55 79 56 44 57 45 58
REMARK SMILES IDX 59 60 80 61 47 62 31 63 32 64 40 65 33 66 35 67 41 68 34 69
REMARK SMILES IDX 36 70 37 71 38 72 39 73 63 74 64 75 72 76 65 77 67 78 73 79
REMARK SMILES IDX 66 80 68 81 69 82 70 83 71 84 48 85 49 86 57 87 50 88 52 89
REMARK SMILES IDX 58 90 51 91 53 92 54 93 55 94 56 95
REMARK H PARENT 14 6 9 12 3 17 3 18 19 29 78 48 46 59
REMARK Flexibility Score: inf
ROOT
ATOM      1  C   UNL A   1      37.322  21.680  24.266  1.00  0.00     0.023 C 
ENDROOT
BRANCH   1   2
ATOM      2  C   UNL A   1      35.867  22.094  24.461  1.00  0.00     0.116 C 
BRANCH   2   3
ATOM      3  N   UNL A   1      35.423  21.929  25.836  1.00  0.00    -0.354 N 
ATOM      4  C   UNL A   1      34.248  21.543  26.415  1.00  0.00     0.254 C 
ATOM      5  O   UNL A   1      34.281  21.461  27.647  1.00  0.00    -0.272 OA
ATOM      6  H   UNL A   1      36.124  22.143  26.493  1.00  0.00     0.163 HD
BRANCH   4   7
ATOM      7  C   UNL A   1      32.960  21.243  25.611  1.00  0.00     0.212 C 
ATOM      8  C   UNL A   1      33.002  21.898  24.210  1.00  0.00     0.056 C 
BRANCH   7   9
ATOM      9  N   UNL A   1      31.825  21.903  26.381  1.00  0.00    -0.329 N 
ATOM     10  C   UNL A   1      31.143  23.070  26.534  1.00  0.00     0.281 C 
ATOM     11  O   UNL A   1      30.097  22.926  27.182  1.00  0.00    -0.268 OA
ATOM     12  H   UNL A   1      31.444  21.238  26.999  1.00  0.00     0.165 HD
BRANCH  10  13
ATOM     13  C   UNL A   1      31.622  24.457  26.028  1.00  0.00     0.169 C 
ATOM     14  C   UNL A   1      31.347  24.597  24.525  1.00  0.00     0.090 C 
ATOM     15  C   UNL A   1      33.119  24.571  26.399  1.00  0.00     0.090 C 
BRANCH  13  16
ATOM     16  N   UNL A   1      31.036  25.616  26.771  1.00  0.00    -0.334 N 
ATOM     17  H   UNL A   1      30.041  25.425  26.888  1.00  0.00     0.347 HD
ATOM     18  H   UNL A   1      31.587  25.668  27.627  1.00  0.00     0.347 HD
BRANCH  16  19
ATOM     19  C   UNL A   1      31.154  26.949  26.186  1.00  0.00     0.257 C 
ATOM     20  C   UNL A   1      31.630  27.910  27.274  1.00  0.00     0.071 C 
ENDBRANCH  16  19
ENDBRANCH  13  16
ENDBRANCH  10  13
ENDBRANCH   7   9
BRANCH   7  21
ATOM     21  C   UNL A   1      33.016  19.714  25.304  1.00  0.00     0.420 C 
ATOM     22  F   UNL A   1      32.107  19.264  24.425  1.00  0.00    -0.168 F 
ATOM     23  F   UNL A   1      34.233  19.352  24.823  1.00  0.00    -0.168 F 
ATOM     24  F   UNL A   1      32.865  18.980  26.440  1.00  0.00    -0.168 F 
ENDBRANCH   7  21
ENDBRANCH   4   7
ENDBRANCH   2   3
ENDBRANCH   1   2
BRANCH   1  25
ATOM     25  C   UNL A   1      37.790  20.511  25.132  1.00  0.00     0.023 C 
BRANCH  25  26
ATOM     26  C   UNL A   1      39.088  20.739  25.898  1.00  0.00     0.116 C 
BRANCH  26  27
ATOM     27  N   UNL A   1      39.962  19.573  25.907  1.00  0.00    -0.352 N 
ATOM     28  C   UNL A   1      41.324  19.517  26.079  1.00  0.00     0.251 C 
ATOM     29  H   UNL A   1      39.515  18.706  25.770  1.00  0.00     0.163 HD
ATOM     30  O   UNL A   1      41.920  18.451  25.942  1.00  0.00    -0.269 OA
BRANCH  28  31
ATOM     31  C   UNL A   1      42.071  20.753  26.395  1.00  0.00     0.039 A 
ATOM     32  C   UNL A   1      42.509  21.566  25.347  1.00  0.00     0.014 A 
ATOM     33  C   UNL A   1      42.292  21.129  27.722  1.00  0.00     0.014 A 
ATOM     34  C   UNL A   1      43.100  22.800  25.632  1.00  0.00     0.010 A 
ATOM     35  C   UNL A   1      42.815  22.388  28.002  1.00  0.00     0.010 A 
ATOM     36  C   UNL A   1      43.218  23.239  26.960  1.00  0.00    -0.014 A 
BRANCH  36  37
ATOM     37  C   UNL A   1      43.726  24.597  27.289  1.00  0.00     0.031 A 
ATOM     38  C   UNL A   1      42.782  25.658  27.785  1.00  0.00     0.074 A 
ATOM     39  C   UNL A   1      45.013  24.906  27.028  1.00  0.00     0.049 A 
ATOM     40  N   UNL A   1      43.018  26.921  28.030  1.00  0.00    -0.248 NA
ATOM     41  C   UNL A   1      41.383  25.256  28.009  1.00  0.00     0.031 C 
ATOM     42  C   UNL A   1      46.008  23.988  26.469  1.00  0.00     0.029 A 
ATOM     43  N   UNL A   1      45.695  26.090  27.162  1.00  0.00    -0.354 N 
ATOM     44  C   UNL A   1      41.795  27.473  28.390  1.00  0.00     0.074 A 
ATOM     45  C   UNL A   1      40.813  26.414  28.311  1.00  0.00     0.031 C 
ATOM     46  C   UNL A   1      47.169  24.642  26.307  1.00  0.00     0.029 A 
ATOM     47  C   UNL A   1      46.995  26.032  26.716  1.00  0.00     0.049 A 
ATOM     48  H   UNL A   1      45.292  26.904  27.543  1.00  0.00     0.167 HD
ATOM     49  C   UNL A   1      41.519  28.742  28.774  1.00  0.00     0.034 A 
ATOM     50  C   UNL A   1      47.937  26.992  26.630  1.00  0.00     0.034 A 
ATOM     51  C   UNL A   1      42.507  29.777  28.907  1.00  0.00     0.049 A 
ATOM     52  C   UNL A   1      47.610  28.384  27.102  1.00  0.00     0.074 A 
ATOM     53  C   UNL A   1      42.345  31.058  29.402  1.00  0.00     0.029 A 
ATOM     54  N   UNL A   1      43.835  29.657  28.532  1.00  0.00    -0.354 N 
ATOM     55  N   UNL A   1      46.492  28.840  27.612  1.00  0.00    -0.248 NA
ATOM     56  C   UNL A   1      48.683  29.387  27.016  1.00  0.00     0.031 C 
ATOM     57  C   UNL A   1      43.572  31.723  29.301  1.00  0.00     0.029 A 
ATOM     58  C   UNL A   1      44.502  30.846  28.766  1.00  0.00     0.049 A 
ATOM     59  H   UNL A   1      44.244  28.845  28.153  1.00  0.00     0.167 HD
ATOM     60  C   UNL A   1      46.736  30.169  27.940  1.00  0.00     0.074 A 
ATOM     61  C   UNL A   1      48.115  30.439  27.590  1.00  0.00     0.031 C 
ATOM     62  C   UNL A   1      45.890  31.086  28.468  1.00  0.00     0.034 A 
BRANCH  49  63
ATOM     63  C   UNL A   1      40.095  29.074  29.134  1.00  0.00     0.023 A 
ATOM     64  C   UNL A   1      39.154  29.311  28.111  1.00  0.00     0.012 A 
ATOM     65  C   UNL A   1      39.670  29.075  30.478  1.00  0.00     0.148 A 
ATOM     66  C   UNL A   1      37.821  29.575  28.420  1.00  0.00     0.002 A 
ATOM     67  C   UNL A   1      38.331  29.296  30.775  1.00  0.00     0.091 A 
ATOM     68  F   UNL A   1      40.584  28.867  31.436  1.00  0.00    -0.205 F 
ATOM     69  C   UNL A   1      37.408  29.556  29.750  1.00  0.00     0.022 A 
BRANCH  67  70
ATOM     70  S   UNL A   1      37.684  29.215  32.449  1.00  0.00     0.127 S 
ATOM     71  O   UNL A   1      38.565  30.148  33.150  1.00  0.00    -0.237 OA
ATOM     72  O   UNL A   1      36.311  29.688  32.272  1.00  0.00    -0.237 OA
ATOM     73  O   UNL A   1      37.798  27.821  32.856  1.00  0.00    -0.744 OA
ENDBRANCH  67  70
ENDBRANCH  49  63
BRANCH  50  74
ATOM     74  C   UNL A   1      49.301  26.661  26.127  1.00  0.00     0.023 A 
ATOM     75  C   UNL A   1      50.158  25.879  26.926  1.00  0.00     0.012 A 
ATOM     76  C   UNL A   1      49.749  27.100  24.866  1.00  0.00     0.148 A 
ATOM     77  C   UNL A   1      51.448  25.568  26.494  1.00  0.00     0.002 A 
ATOM     78  C   UNL A   1      51.015  26.739  24.418  1.00  0.00     0.091 A 
ATOM     79  F   UNL A   1      48.927  27.855  24.126  1.00  0.00    -0.205 F 
ATOM     80  C   UNL A   1      51.873  25.989  25.237  1.00  0.00     0.022 A 
BRANCH  78  81
ATOM     81  S   UNL A   1      51.592  27.126  22.762  1.00  0.00     0.127 S 
ATOM     82  O   UNL A   1      50.447  26.732  21.945  1.00  0.00    -0.237 OA
ATOM     83  O   UNL A   1      51.820  28.569  22.848  1.00  0.00    -0.237 OA
ATOM     84  O   UNL A   1      52.805  26.340  22.578  1.00  0.00    -0.744 OA
ENDBRANCH  78  81
ENDBRANCH  50  74
BRANCH  62  85
ATOM     85  C   UNL A   1      46.429  32.467  28.737  1.00  0.00     0.023 A 
ATOM     86  C   UNL A   1      47.021  32.757  29.982  1.00  0.00     0.012 A 
ATOM     87  C   UNL A   1      46.429  33.448  27.725  1.00  0.00     0.148 A 
ATOM     88  C   UNL A   1      47.583  34.009  30.224  1.00  0.00     0.002 A 
ATOM     89  C   UNL A   1      47.035  34.676  27.957  1.00  0.00     0.091 A 
ATOM     90  F   UNL A   1      45.846  33.157  26.553  1.00  0.00    -0.205 F 
ATOM     91  C   UNL A   1      47.602  34.962  29.209  1.00  0.00     0.022 A 
BRANCH  89  92
ATOM     92  S   UNL A   1      47.194  35.930  26.680  1.00  0.00     0.127 S 
ATOM     93  O   UNL A   1      48.418  36.617  27.088  1.00  0.00    -0.237 OA
ATOM     94  O   UNL A   1      47.325  35.121  25.467  1.00  0.00    -0.237 OA
ATOM     95  O   UNL A   1      45.978  36.729  26.746  1.00  0.00    -0.744 OA
ENDBRANCH  89  92
ENDBRANCH  62  85
ENDBRANCH  36  37
ENDBRANCH  28  31
ENDBRANCH  26  27
ENDBRANCH  25  26
ENDBRANCH   1  25
TORSDOF 19
ENDMDL
