MODEL 1
REMARK VINA RESULT:     -10.9      0.000      0.000
REMARK SMILES CC(C)(C)C[C@@H](O)[C@@H](F)C(=O)NCCCCNC(=O)c1ccc(-c2c3nc(c(-c4cccc(S(=O)(=O)[O-])c4F)c4ccc([nH]4)c(-c4cccc(S(=O)(=O)[O-])c4F)c4nc(c(-c5cccc(S(=O)(=O)[O-])c5F)c5ccc2[nH]5)C=C4)C=C3)cc1
REMARK SMILES IDX 14 1 13 2 12 3 10 4 11 5 8 7 9 8 6 9 5 10 2 11 1 12 3 13
REMARK SMILES IDX 4 14 7 15 15 17 16 18 17 19 18 20 19 22 20 23 21 24 82 25
REMARK SMILES IDX 22 26 81 27 23 28 24 29 25 30 75 31 26 32 80 33 74 34 76 35
REMARK SMILES IDX 27 36 79 37 73 38 72 39 28 41 60 42 40 43 59 44 41 45 44 46
REMARK SMILES IDX 58 47 77 48 42 49 43 50 57 52 78 53 45 54 29 55 30 56 38 57
REMARK SMILES IDX 31 58 33 59 39 60 32 61 34 62 35 63 36 64 37 65 61 66 62 67
REMARK SMILES IDX 70 68 63 69 65 70 71 71 64 72 66 73 67 74 68 75 69 76 46 77
REMARK SMILES IDX 47 78 55 79 48 80 50 81 56 82 49 83 51 84 52 85 53 86 54 87
REMARK H PARENT 12 6 7 16 17 21 76 40 44 51
REMARK Flexibility Score: inf
ROOT
ATOM      1  C   UNL A   1      33.742  28.658  25.329  1.00  0.00     0.023 C 
ENDROOT
BRANCH   1   2
ATOM      2  C   UNL A   1      34.047  28.307  23.870  1.00  0.00     0.116 C 
BRANCH   2   3
ATOM      3  N   UNL A   1      33.304  27.137  23.435  1.00  0.00    -0.353 N 
ATOM      4  C   UNL A   1      31.955  26.909  23.460  1.00  0.00     0.257 C 
ATOM      5  O   UNL A   1      31.547  25.820  23.053  1.00  0.00    -0.272 OA
ATOM      6  H   UNL A   1      33.849  26.403  23.071  1.00  0.00     0.163 HD
BRANCH   4   7
ATOM      7  C   UNL A   1      30.996  27.966  24.006  1.00  0.00     0.283 C 
ATOM      8  F   UNL A   1      29.967  27.380  24.692  1.00  0.00    -0.234 F 
BRANCH   7   9
ATOM      9  C   UNL A   1      30.431  28.850  22.879  1.00  0.00     0.159 C 
BRANCH   9  10
ATOM     10  C   UNL A   1      29.618  30.028  23.444  1.00  0.00     0.041 C 
BRANCH  10  11
ATOM     11  C   UNL A   1      28.201  30.243  22.828  1.00  0.00    -0.036 C 
ATOM     12  C   UNL A   1      28.230  30.279  21.293  1.00  0.00     0.011 C 
ATOM     13  C   UNL A   1      27.666  31.595  23.338  1.00  0.00     0.011 C 
ATOM     14  C   UNL A   1      27.227  29.139  23.285  1.00  0.00     0.011 C 
ENDBRANCH  10  11
ENDBRANCH   9  10
BRANCH   9  15
ATOM     15  O   UNL A   1      31.493  29.382  22.081  1.00  0.00    -0.390 OA
ATOM     16  H   UNL A   1      31.646  28.803  21.319  1.00  0.00     0.211 HD
ENDBRANCH   9  15
ENDBRANCH   7   9
ENDBRANCH   4   7
ENDBRANCH   2   3
ENDBRANCH   1   2
BRANCH   1  17
ATOM     17  C   UNL A   1      32.911  29.926  25.526  1.00  0.00     0.023 C 
BRANCH  17  18
ATOM     18  C   UNL A   1      32.745  30.374  26.973  1.00  0.00     0.116 C 
BRANCH  18  19
ATOM     19  N   UNL A   1      32.817  31.817  27.128  1.00  0.00    -0.352 N 
ATOM     20  C   UNL A   1      33.768  32.578  27.763  1.00  0.00     0.251 C 
ATOM     21  H   UNL A   1      32.077  32.322  26.720  1.00  0.00     0.163 HD
ATOM     22  O   UNL A   1      33.577  33.781  27.909  1.00  0.00    -0.269 OA
BRANCH  20  23
ATOM     23  C   UNL A   1      34.998  31.948  28.292  1.00  0.00     0.039 A 
ATOM     24  C   UNL A   1      36.179  32.695  28.297  1.00  0.00     0.014 A 
ATOM     25  C   UNL A   1      35.001  30.636  28.774  1.00  0.00     0.014 A 
ATOM     26  C   UNL A   1      37.345  32.143  28.830  1.00  0.00     0.010 A 
ATOM     27  C   UNL A   1      36.144  30.119  29.382  1.00  0.00     0.010 A 
ATOM     28  C   UNL A   1      37.331  30.861  29.407  1.00  0.00    -0.014 A 
BRANCH  28  29
ATOM     29  C   UNL A   1      38.554  30.313  30.050  1.00  0.00     0.031 A 
ATOM     30  C   UNL A   1      38.961  30.745  31.434  1.00  0.00     0.074 A 
ATOM     31  C   UNL A   1      39.325  29.445  29.365  1.00  0.00     0.049 A 
ATOM     32  N   UNL A   1      39.970  30.336  32.160  1.00  0.00    -0.248 NA
ATOM     33  C   UNL A   1      38.147  31.788  32.081  1.00  0.00     0.031 C 
ATOM     34  C   UNL A   1      39.098  29.025  27.980  1.00  0.00     0.029 A 
ATOM     35  N   UNL A   1      40.461  28.770  29.733  1.00  0.00    -0.354 N 
ATOM     36  C   UNL A   1      39.922  31.075  33.335  1.00  0.00     0.074 A 
ATOM     37  C   UNL A   1      38.814  31.996  33.207  1.00  0.00     0.031 C 
ATOM     38  C   UNL A   1      40.053  28.153  27.622  1.00  0.00     0.029 A 
ATOM     39  C   UNL A   1      40.974  27.970  28.739  1.00  0.00     0.049 A 
ATOM     40  H   UNL A   1      40.871  28.850  30.624  1.00  0.00     0.167 HD
ATOM     41  C   UNL A   1      40.700  30.971  34.440  1.00  0.00     0.034 A 
ATOM     42  C   UNL A   1      42.063  27.176  28.727  1.00  0.00     0.034 A 
ATOM     43  C   UNL A   1      41.787  30.039  34.575  1.00  0.00     0.049 A 
ATOM     44  C   UNL A   1      42.882  27.042  29.981  1.00  0.00     0.074 A 
ATOM     45  C   UNL A   1      42.595  29.811  35.675  1.00  0.00     0.029 A 
ATOM     46  N   UNL A   1      42.225  29.182  33.577  1.00  0.00    -0.354 N 
ATOM     47  N   UNL A   1      42.717  27.632  31.140  1.00  0.00    -0.248 NA
ATOM     48  C   UNL A   1      44.008  26.099  29.940  1.00  0.00     0.031 C 
ATOM     49  C   UNL A   1      43.536  28.834  35.335  1.00  0.00     0.029 A 
ATOM     50  C   UNL A   1      43.293  28.426  34.033  1.00  0.00     0.049 A 
ATOM     51  H   UNL A   1      41.834  29.119  32.675  1.00  0.00     0.167 HD
ATOM     52  C   UNL A   1      43.699  27.111  31.974  1.00  0.00     0.074 A 
ATOM     53  C   UNL A   1      44.430  26.131  31.196  1.00  0.00     0.031 C 
ATOM     54  C   UNL A   1      43.985  27.426  33.262  1.00  0.00     0.034 A 
BRANCH  41  55
ATOM     55  C   UNL A   1      40.360  31.848  35.619  1.00  0.00     0.023 A 
ATOM     56  C   UNL A   1      41.145  32.991  35.879  1.00  0.00     0.012 A 
ATOM     57  C   UNL A   1      39.237  31.586  36.428  1.00  0.00     0.148 A 
ATOM     58  C   UNL A   1      40.841  33.840  36.942  1.00  0.00     0.002 A 
ATOM     59  C   UNL A   1      38.912  32.462  37.458  1.00  0.00     0.091 A 
ATOM     60  F   UNL A   1      38.512  30.487  36.179  1.00  0.00    -0.205 F 
ATOM     61  C   UNL A   1      39.720  33.581  37.724  1.00  0.00     0.022 A 
BRANCH  59  62
ATOM     62  S   UNL A   1      37.445  32.267  38.476  1.00  0.00     0.127 S 
ATOM     63  O   UNL A   1      36.446  32.997  37.697  1.00  0.00    -0.237 OA
ATOM     64  O   UNL A   1      37.269  30.814  38.485  1.00  0.00    -0.237 OA
ATOM     65  O   UNL A   1      37.772  32.849  39.769  1.00  0.00    -0.744 OA
ENDBRANCH  59  62
ENDBRANCH  41  55
BRANCH  42  66
ATOM     66  C   UNL A   1      42.408  26.403  27.500  1.00  0.00     0.023 A 
ATOM     67  C   UNL A   1      43.066  27.040  26.430  1.00  0.00     0.012 A 
ATOM     68  C   UNL A   1      42.100  25.032  27.397  1.00  0.00     0.148 A 
ATOM     69  C   UNL A   1      43.374  26.337  25.264  1.00  0.00     0.002 A 
ATOM     70  C   UNL A   1      42.465  24.323  26.259  1.00  0.00     0.091 A 
ATOM     71  F   UNL A   1      41.464  24.445  28.421  1.00  0.00    -0.205 F 
ATOM     72  C   UNL A   1      43.083  24.978  25.183  1.00  0.00     0.022 A 
BRANCH  70  73
ATOM     73  S   UNL A   1      42.257  22.545  26.131  1.00  0.00     0.127 S 
ATOM     74  O   UNL A   1      42.942  22.076  27.333  1.00  0.00    -0.237 OA
ATOM     75  O   UNL A   1      40.800  22.408  26.158  1.00  0.00    -0.237 OA
ATOM     76  O   UNL A   1      42.869  22.169  24.864  1.00  0.00    -0.744 OA
ENDBRANCH  70  73
ENDBRANCH  42  66
BRANCH  54  77
ATOM     77  C   UNL A   1      45.119  26.683  33.921  1.00  0.00     0.023 A 
ATOM     78  C   UNL A   1      46.433  27.187  33.841  1.00  0.00     0.012 A 
ATOM     79  C   UNL A   1      44.876  25.502  34.652  1.00  0.00     0.148 A 
ATOM     80  C   UNL A   1      47.494  26.502  34.432  1.00  0.00     0.002 A 
ATOM     81  C   UNL A   1      45.930  24.854  35.284  1.00  0.00     0.091 A 
ATOM     82  F   UNL A   1      43.624  25.027  34.704  1.00  0.00    -0.205 F 
ATOM     83  C   UNL A   1      47.242  25.342  35.162  1.00  0.00     0.022 A 
BRANCH  81  84
ATOM     84  S   UNL A   1      45.686  23.409  36.323  1.00  0.00     0.127 S 
ATOM     85  O   UNL A   1      47.061  22.974  36.556  1.00  0.00    -0.237 OA
ATOM     86  O   UNL A   1      45.020  23.979  37.496  1.00  0.00    -0.237 OA
ATOM     87  O   UNL A   1      44.860  22.495  35.547  1.00  0.00    -0.744 OA
ENDBRANCH  81  84
ENDBRANCH  54  77
ENDBRANCH  28  29
ENDBRANCH  20  23
ENDBRANCH  18  19
ENDBRANCH  17  18
ENDBRANCH   1  17
TORSDOF 18
ENDMDL
MODEL 2
REMARK VINA RESULT:     -10.9      2.481      2.946
REMARK SMILES CC(C)(C)C[C@@H](O)[C@@H](F)C(=O)NCCCCNC(=O)c1ccc(-c2c3nc(c(-c4cccc(S(=O)(=O)[O-])c4F)c4ccc([nH]4)c(-c4cccc(S(=O)(=O)[O-])c4F)c4nc(c(-c5cccc(S(=O)(=O)[O-])c5F)c5ccc2[nH]5)C=C4)C=C3)cc1
REMARK SMILES IDX 14 1 13 2 12 3 10 4 11 5 8 7 9 8 6 9 5 10 2 11 1 12 3 13
REMARK SMILES IDX 4 14 7 15 15 17 16 18 17 19 18 20 19 22 20 23 21 24 82 25
REMARK SMILES IDX 22 26 81 27 23 28 24 29 25 30 75 31 26 32 80 33 74 34 76 35
REMARK SMILES IDX 27 36 79 37 73 38 72 39 28 41 60 42 40 43 59 44 41 45 44 46
REMARK SMILES IDX 58 47 77 48 42 49 43 50 57 52 78 53 45 54 29 55 30 56 38 57
REMARK SMILES IDX 31 58 33 59 39 60 32 61 34 62 35 63 36 64 37 65 61 66 62 67
REMARK SMILES IDX 70 68 63 69 65 70 71 71 64 72 66 73 67 74 68 75 69 76 46 77
REMARK SMILES IDX 47 78 55 79 48 80 50 81 56 82 49 83 51 84 52 85 53 86 54 87
REMARK H PARENT 12 6 7 16 17 21 76 40 44 51
REMARK Flexibility Score: inf
ROOT
ATOM      1  C   UNL A   1      33.241  26.708  26.041  1.00  0.00     0.023 C 
ENDROOT
BRANCH   1   2
ATOM      2  C   UNL A   1      32.346  26.662  24.800  1.00  0.00     0.116 C 
BRANCH   2   3
ATOM      3  N   UNL A   1      33.121  26.774  23.577  1.00  0.00    -0.353 N 
ATOM      4  C   UNL A   1      33.123  27.771  22.640  1.00  0.00     0.257 C 
ATOM      5  O   UNL A   1      33.858  27.639  21.659  1.00  0.00    -0.272 OA
ATOM      6  H   UNL A   1      33.733  26.024  23.396  1.00  0.00     0.163 HD
BRANCH   4   7
ATOM      7  C   UNL A   1      32.216  28.990  22.798  1.00  0.00     0.283 C 
ATOM      8  F   UNL A   1      32.303  29.499  24.065  1.00  0.00    -0.234 F 
BRANCH   7   9
ATOM      9  C   UNL A   1      30.750  28.648  22.476  1.00  0.00     0.159 C 
BRANCH   9  10
ATOM     10  C   UNL A   1      30.042  29.818  21.770  1.00  0.00     0.041 C 
BRANCH  10  11
ATOM     11  C   UNL A   1      28.783  30.393  22.489  1.00  0.00    -0.036 C 
ATOM     12  C   UNL A   1      28.102  31.504  21.675  1.00  0.00     0.011 C 
ATOM     13  C   UNL A   1      29.240  30.984  23.836  1.00  0.00     0.011 C 
ATOM     14  C   UNL A   1      27.755  29.282  22.777  1.00  0.00     0.011 C 
ENDBRANCH  10  11
ENDBRANCH   9  10
BRANCH   9  15
ATOM     15  O   UNL A   1      30.680  27.502  21.622  1.00  0.00    -0.390 OA
ATOM     16  H   UNL A   1      31.322  27.595  20.903  1.00  0.00     0.211 HD
ENDBRANCH   9  15
ENDBRANCH   7   9
ENDBRANCH   4   7
ENDBRANCH   2   3
ENDBRANCH   1   2
BRANCH   1  17
ATOM     17  C   UNL A   1      33.930  28.049  26.291  1.00  0.00     0.023 C 
BRANCH  17  18
ATOM     18  C   UNL A   1      33.332  28.886  27.415  1.00  0.00     0.116 C 
BRANCH  18  19
ATOM     19  N   UNL A   1      33.576  30.308  27.250  1.00  0.00    -0.352 N 
ATOM     20  C   UNL A   1      34.675  31.050  27.608  1.00  0.00     0.251 C 
ATOM     21  H   UNL A   1      32.849  30.814  26.820  1.00  0.00     0.163 HD
ATOM     22  O   UNL A   1      34.634  32.272  27.511  1.00  0.00    -0.269 OA
BRANCH  20  23
ATOM     23  C   UNL A   1      35.888  30.384  28.132  1.00  0.00     0.039 A 
ATOM     24  C   UNL A   1      37.035  30.367  27.335  1.00  0.00     0.014 A 
ATOM     25  C   UNL A   1      35.905  29.776  29.391  1.00  0.00     0.014 A 
ATOM     26  C   UNL A   1      38.207  29.784  27.821  1.00  0.00     0.010 A 
ATOM     27  C   UNL A   1      37.098  29.272  29.906  1.00  0.00     0.010 A 
ATOM     28  C   UNL A   1      38.259  29.260  29.124  1.00  0.00    -0.014 A 
BRANCH  28  29
ATOM     29  C   UNL A   1      39.533  28.720  29.667  1.00  0.00     0.031 A 
ATOM     30  C   UNL A   1      40.179  29.332  30.881  1.00  0.00     0.074 A 
ATOM     31  C   UNL A   1      40.132  27.689  29.037  1.00  0.00     0.049 A 
ATOM     32  N   UNL A   1      41.264  28.961  31.511  1.00  0.00    -0.248 NA
ATOM     33  C   UNL A   1      39.542  30.533  31.449  1.00  0.00     0.031 C 
ATOM     34  C   UNL A   1      39.664  27.071  27.794  1.00  0.00     0.029 A 
ATOM     35  N   UNL A   1      41.269  26.987  29.347  1.00  0.00    -0.354 N 
ATOM     36  C   UNL A   1      41.447  29.881  32.536  1.00  0.00     0.074 A 
ATOM     37  C   UNL A   1      40.390  30.862  32.412  1.00  0.00     0.031 C 
ATOM     38  C   UNL A   1      40.496  26.074  27.457  1.00  0.00     0.029 A 
ATOM     39  C   UNL A   1      41.569  25.995  28.441  1.00  0.00     0.049 A 
ATOM     40  H   UNL A   1      41.819  27.174  30.141  1.00  0.00     0.167 HD
ATOM     41  C   UNL A   1      42.382  29.890  33.516  1.00  0.00     0.034 A 
ATOM     42  C   UNL A   1      42.592  25.119  28.408  1.00  0.00     0.034 A 
ATOM     43  C   UNL A   1      43.419  28.902  33.651  1.00  0.00     0.049 A 
ATOM     44  C   UNL A   1      43.590  25.120  29.534  1.00  0.00     0.074 A 
ATOM     45  C   UNL A   1      44.376  28.786  34.644  1.00  0.00     0.029 A 
ATOM     46  N   UNL A   1      43.641  27.860  32.763  1.00  0.00    -0.354 N 
ATOM     47  N   UNL A   1      43.646  25.901  30.585  1.00  0.00    -0.248 NA
ATOM     48  C   UNL A   1      44.636  24.088  29.492  1.00  0.00     0.031 C 
ATOM     49  C   UNL A   1      45.190  27.689  34.344  1.00  0.00     0.029 A 
ATOM     50  C   UNL A   1      44.720  27.099  33.182  1.00  0.00     0.049 A 
ATOM     51  H   UNL A   1      43.109  27.687  31.952  1.00  0.00     0.167 HD
ATOM     52  C   UNL A   1      44.715  25.438  31.344  1.00  0.00     0.074 A 
ATOM     53  C   UNL A   1      45.252  24.286  30.650  1.00  0.00     0.031 C 
ATOM     54  C   UNL A   1      45.219  25.932  32.503  1.00  0.00     0.034 A 
BRANCH  41  55
ATOM     55  C   UNL A   1      42.287  30.972  34.563  1.00  0.00     0.023 A 
ATOM     56  C   UNL A   1      41.583  30.716  35.759  1.00  0.00     0.012 A 
ATOM     57  C   UNL A   1      42.939  32.210  34.400  1.00  0.00     0.148 A 
ATOM     58  C   UNL A   1      41.500  31.683  36.760  1.00  0.00     0.002 A 
ATOM     59  C   UNL A   1      42.892  33.152  35.421  1.00  0.00     0.091 A 
ATOM     60  F   UNL A   1      43.589  32.444  33.251  1.00  0.00    -0.205 F 
ATOM     61  C   UNL A   1      42.163  32.895  36.596  1.00  0.00     0.022 A 
BRANCH  59  62
ATOM     62  S   UNL A   1      43.775  34.714  35.348  1.00  0.00     0.127 S 
ATOM     63  O   UNL A   1      43.079  35.396  34.258  1.00  0.00    -0.237 OA
ATOM     64  O   UNL A   1      43.522  35.272  36.677  1.00  0.00    -0.237 OA
ATOM     65  O   UNL A   1      45.167  34.378  35.084  1.00  0.00    -0.744 OA
ENDBRANCH  59  62
ENDBRANCH  41  55
BRANCH  42  66
ATOM     66  C   UNL A   1      42.691  24.131  27.296  1.00  0.00     0.023 A 
ATOM     67  C   UNL A   1      43.469  24.428  26.160  1.00  0.00     0.012 A 
ATOM     68  C   UNL A   1      42.029  22.890  27.370  1.00  0.00     0.148 A 
ATOM     69  C   UNL A   1      43.552  23.525  25.100  1.00  0.00     0.002 A 
ATOM     70  C   UNL A   1      42.167  21.969  26.337  1.00  0.00     0.091 A 
ATOM     71  F   UNL A   1      41.285  22.629  28.454  1.00  0.00    -0.205 F 
ATOM     72  C   UNL A   1      42.911  22.293  25.192  1.00  0.00     0.022 A 
BRANCH  70  73
ATOM     73  S   UNL A   1      41.493  20.308  26.440  1.00  0.00     0.127 S 
ATOM     74  O   UNL A   1      40.066  20.552  26.247  1.00  0.00    -0.237 OA
ATOM     75  O   UNL A   1      42.161  19.641  25.322  1.00  0.00    -0.237 OA
ATOM     76  O   UNL A   1      41.881  19.809  27.752  1.00  0.00    -0.744 OA
ENDBRANCH  70  73
ENDBRANCH  42  66
BRANCH  54  77
ATOM     77  C   UNL A   1      46.396  25.210  33.108  1.00  0.00     0.023 A 
ATOM     78  C   UNL A   1      47.703  25.691  32.895  1.00  0.00     0.012 A 
ATOM     79  C   UNL A   1      46.203  24.073  33.918  1.00  0.00     0.148 A 
ATOM     80  C   UNL A   1      48.803  25.025  33.436  1.00  0.00     0.002 A 
ATOM     81  C   UNL A   1      47.299  23.445  34.498  1.00  0.00     0.091 A 
ATOM     82  F   UNL A   1      44.955  23.617  34.096  1.00  0.00    -0.205 F 
ATOM     83  C   UNL A   1      48.600  23.909  34.245  1.00  0.00     0.022 A 
BRANCH  81  84
ATOM     84  S   UNL A   1      47.126  22.061  35.629  1.00  0.00     0.127 S 
ATOM     85  O   UNL A   1      46.248  22.622  36.654  1.00  0.00    -0.237 OA
ATOM     86  O   UNL A   1      46.502  21.044  34.782  1.00  0.00    -0.237 OA
ATOM     87  O   UNL A   1      48.475  21.733  36.069  1.00  0.00    -0.744 OA
ENDBRANCH  81  84
ENDBRANCH  54  77
ENDBRANCH  28  29
ENDBRANCH  20  23
ENDBRANCH  18  19
ENDBRANCH  17  18
ENDBRANCH   1  17
TORSDOF 18
ENDMDL
MODEL 3
REMARK VINA RESULT:     -10.8      1.874      2.469
REMARK SMILES CC(C)(C)C[C@@H](O)[C@@H](F)C(=O)NCCCCNC(=O)c1ccc(-c2c3nc(c(-c4cccc(S(=O)(=O)[O-])c4F)c4ccc([nH]4)c(-c4cccc(S(=O)(=O)[O-])c4F)c4nc(c(-c5cccc(S(=O)(=O)[O-])c5F)c5ccc2[nH]5)C=C4)C=C3)cc1
REMARK SMILES IDX 14 1 13 2 12 3 10 4 11 5 8 7 9 8 6 9 5 10 2 11 1 12 3 13
REMARK SMILES IDX 4 14 7 15 15 17 16 18 17 19 18 20 19 22 20 23 21 24 82 25
REMARK SMILES IDX 22 26 81 27 23 28 24 29 25 30 75 31 26 32 80 33 74 34 76 35
REMARK SMILES IDX 27 36 79 37 73 38 72 39 28 41 60 42 40 43 59 44 41 45 44 46
REMARK SMILES IDX 58 47 77 48 42 49 43 50 57 52 78 53 45 54 29 55 30 56 38 57
REMARK SMILES IDX 31 58 33 59 39 60 32 61 34 62 35 63 36 64 37 65 61 66 62 67
REMARK SMILES IDX 70 68 63 69 65 70 71 71 64 72 66 73 67 74 68 75 69 76 46 77
REMARK SMILES IDX 47 78 55 79 48 80 50 81 56 82 49 83 51 84 52 85 53 86 54 87
REMARK H PARENT 12 6 7 16 17 21 76 40 44 51
REMARK Flexibility Score: inf
ROOT
ATOM      1  C   UNL A   1      33.634  27.142  24.834  1.00  0.00     0.023 C 
ENDROOT
BRANCH   1   2
ATOM      2  C   UNL A   1      32.332  26.572  25.402  1.00  0.00     0.116 C 
BRANCH   2   3
ATOM      3  N   UNL A   1      31.746  25.587  24.510  1.00  0.00    -0.353 N 
ATOM      4  C   UNL A   1      30.548  25.620  23.851  1.00  0.00     0.257 C 
ATOM      5  O   UNL A   1      30.245  24.648  23.156  1.00  0.00    -0.272 OA
ATOM      6  H   UNL A   1      32.288  24.780  24.359  1.00  0.00     0.163 HD
BRANCH   4   7
ATOM      7  C   UNL A   1      29.607  26.815  24.004  1.00  0.00     0.283 C 
ATOM      8  F   UNL A   1      28.308  26.399  24.107  1.00  0.00    -0.234 F 
BRANCH   7   9
ATOM      9  C   UNL A   1      29.747  27.796  22.826  1.00  0.00     0.159 C 
BRANCH   9  10
ATOM     10  C   UNL A   1      29.915  29.244  23.318  1.00  0.00     0.041 C 
BRANCH  10  11
ATOM     11  C   UNL A   1      28.810  30.252  22.877  1.00  0.00    -0.036 C 
ATOM     12  C   UNL A   1      28.847  31.554  23.693  1.00  0.00     0.011 C 
ATOM     13  C   UNL A   1      27.443  29.577  23.099  1.00  0.00     0.011 C 
ATOM     14  C   UNL A   1      28.938  30.594  21.381  1.00  0.00     0.011 C 
ENDBRANCH  10  11
ENDBRANCH   9  10
BRANCH   9  15
ATOM     15  O   UNL A   1      30.885  27.459  22.027  1.00  0.00    -0.390 OA
ATOM     16  H   UNL A   1      30.772  27.819  21.134  1.00  0.00     0.211 HD
ENDBRANCH   9  15
ENDBRANCH   7   9
ENDBRANCH   4   7
ENDBRANCH   2   3
ENDBRANCH   1   2
BRANCH   1  17
ATOM     17  C   UNL A   1      34.471  27.951  25.825  1.00  0.00     0.023 C 
BRANCH  17  18
ATOM     18  C   UNL A   1      33.770  28.301  27.131  1.00  0.00     0.116 C 
BRANCH  18  19
ATOM     19  N   UNL A   1      33.546  29.729  27.286  1.00  0.00    -0.352 N 
ATOM     20  C   UNL A   1      34.343  30.675  27.882  1.00  0.00     0.251 C 
ATOM     21  H   UNL A   1      32.701  30.066  26.909  1.00  0.00     0.163 HD
ATOM     22  O   UNL A   1      33.912  31.813  28.037  1.00  0.00    -0.269 OA
BRANCH  20  23
ATOM     23  C   UNL A   1      35.698  30.318  28.359  1.00  0.00     0.039 A 
ATOM     24  C   UNL A   1      35.821  29.677  29.594  1.00  0.00     0.014 A 
ATOM     25  C   UNL A   1      36.840  30.611  27.608  1.00  0.00     0.014 A 
ATOM     26  C   UNL A   1      37.083  29.289  30.049  1.00  0.00     0.010 A 
ATOM     27  C   UNL A   1      38.086  30.147  28.024  1.00  0.00     0.010 A 
ATOM     28  C   UNL A   1      38.224  29.491  29.254  1.00  0.00    -0.014 A 
BRANCH  28  29
ATOM     29  C   UNL A   1      39.552  28.999  29.705  1.00  0.00     0.031 A 
ATOM     30  C   UNL A   1      40.292  29.681  30.825  1.00  0.00     0.074 A 
ATOM     31  C   UNL A   1      40.113  27.947  29.074  1.00  0.00     0.049 A 
ATOM     32  N   UNL A   1      41.436  29.359  31.372  1.00  0.00    -0.248 NA
ATOM     33  C   UNL A   1      39.684  30.899  31.390  1.00  0.00     0.031 C 
ATOM     34  C   UNL A   1      39.548  27.262  27.909  1.00  0.00     0.029 A 
ATOM     35  N   UNL A   1      41.287  27.279  29.313  1.00  0.00    -0.354 N 
ATOM     36  C   UNL A   1      41.691  30.332  32.330  1.00  0.00     0.074 A 
ATOM     37  C   UNL A   1      40.608  31.288  32.256  1.00  0.00     0.031 C 
ATOM     38  C   UNL A   1      40.367  26.262  27.547  1.00  0.00     0.029 A 
ATOM     39  C   UNL A   1      41.525  26.249  28.434  1.00  0.00     0.049 A 
ATOM     40  H   UNL A   1      41.902  27.514  30.045  1.00  0.00     0.167 HD
ATOM     41  C   UNL A   1      42.710  30.404  33.221  1.00  0.00     0.034 A 
ATOM     42  C   UNL A   1      42.558  25.388  28.351  1.00  0.00     0.034 A 
ATOM     43  C   UNL A   1      43.774  29.441  33.308  1.00  0.00     0.049 A 
ATOM     44  C   UNL A   1      43.652  25.461  29.380  1.00  0.00     0.074 A 
ATOM     45  C   UNL A   1      44.818  29.389  34.215  1.00  0.00     0.029 A 
ATOM     46  N   UNL A   1      43.937  28.359  32.455  1.00  0.00    -0.354 N 
ATOM     47  N   UNL A   1      43.787  26.294  30.383  1.00  0.00    -0.248 NA
ATOM     48  C   UNL A   1      44.711  24.445  29.294  1.00  0.00     0.031 C 
ATOM     49  C   UNL A   1      45.624  28.291  33.897  1.00  0.00     0.029 A 
ATOM     50  C   UNL A   1      45.064  27.637  32.811  1.00  0.00     0.049 A 
ATOM     51  H   UNL A   1      43.338  28.138  31.705  1.00  0.00     0.167 HD
ATOM     52  C   UNL A   1      44.928  25.887  31.064  1.00  0.00     0.074 A 
ATOM     53  C   UNL A   1      45.424  24.710  30.380  1.00  0.00     0.031 C 
ATOM     54  C   UNL A   1      45.524  26.445  32.147  1.00  0.00     0.034 A 
BRANCH  41  55
ATOM     55  C   UNL A   1      42.687  31.535  34.218  1.00  0.00     0.023 A 
ATOM     56  C   UNL A   1      43.369  32.734  33.919  1.00  0.00     0.012 A 
ATOM     57  C   UNL A   1      41.945  31.445  35.413  1.00  0.00     0.148 A 
ATOM     58  C   UNL A   1      43.343  33.810  34.806  1.00  0.00     0.002 A 
ATOM     59  C   UNL A   1      41.885  32.538  36.269  1.00  0.00     0.091 A 
ATOM     60  F   UNL A   1      41.317  30.294  35.689  1.00  0.00    -0.205 F 
ATOM     61  C   UNL A   1      42.594  33.716  35.974  1.00  0.00     0.022 A 
BRANCH  59  62
ATOM     62  S   UNL A   1      40.886  32.552  37.761  1.00  0.00     0.127 S 
ATOM     63  O   UNL A   1      41.739  31.820  38.696  1.00  0.00    -0.237 OA
ATOM     64  O   UNL A   1      40.768  33.985  38.037  1.00  0.00    -0.237 OA
ATOM     65  O   UNL A   1      39.634  31.895  37.415  1.00  0.00    -0.744 OA
ENDBRANCH  59  62
ENDBRANCH  41  55
BRANCH  42  66
ATOM     66  C   UNL A   1      42.577  24.348  27.283  1.00  0.00     0.023 A 
ATOM     67  C   UNL A   1      43.222  24.610  26.058  1.00  0.00     0.012 A 
ATOM     68  C   UNL A   1      41.973  23.092  27.485  1.00  0.00     0.148 A 
ATOM     69  C   UNL A   1      43.227  23.656  25.040  1.00  0.00     0.002 A 
ATOM     70  C   UNL A   1      42.036  22.124  26.490  1.00  0.00     0.091 A 
ATOM     71  F   UNL A   1      41.355  22.864  28.653  1.00  0.00    -0.205 F 
ATOM     72  C   UNL A   1      42.644  22.411  25.258  1.00  0.00     0.022 A 
BRANCH  70  73
ATOM     73  S   UNL A   1      41.437  20.451  26.743  1.00  0.00     0.127 S 
ATOM     74  O   UNL A   1      41.787  19.813  25.476  1.00  0.00    -0.237 OA
ATOM     75  O   UNL A   1      42.231  20.015  27.892  1.00  0.00    -0.237 OA
ATOM     76  O   UNL A   1      40.013  20.581  27.016  1.00  0.00    -0.744 OA
ENDBRANCH  70  73
ENDBRANCH  42  66
BRANCH  54  77
ATOM     77  C   UNL A   1      46.765  25.773  32.678  1.00  0.00     0.023 A 
ATOM     78  C   UNL A   1      48.037  26.200  32.247  1.00  0.00     0.012 A 
ATOM     79  C   UNL A   1      46.670  24.740  33.632  1.00  0.00     0.148 A 
ATOM     80  C   UNL A   1      49.192  25.577  32.717  1.00  0.00     0.002 A 
ATOM     81  C   UNL A   1      47.828  24.160  34.137  1.00  0.00     0.091 A 
ATOM     82  F   UNL A   1      45.453  24.334  34.018  1.00  0.00    -0.205 F 
ATOM     83  C   UNL A   1      49.089  24.565  33.668  1.00  0.00     0.022 A 
BRANCH  81  84
ATOM     84  S   UNL A   1      47.793  22.918  35.433  1.00  0.00     0.127 S 
ATOM     85  O   UNL A   1      49.208  22.568  35.548  1.00  0.00    -0.237 OA
ATOM     86  O   UNL A   1      47.257  23.669  36.569  1.00  0.00    -0.237 OA
ATOM     87  O   UNL A   1      46.922  21.857  34.948  1.00  0.00    -0.744 OA
ENDBRANCH  81  84
ENDBRANCH  54  77
ENDBRANCH  28  29
ENDBRANCH  20  23
ENDBRANCH  18  19
ENDBRANCH  17  18
ENDBRANCH   1  17
TORSDOF 18
ENDMDL
