MODEL 1
REMARK VINA RESULT:     -11.5      0.000      0.000
REMARK SMILES CC(C)[C@@](C)(CC(=O)N[C@H]1CCCC1(C)C)C(=O)NCCCCNC(=O)c1ccc(-c2c3nc(c(-c4cccc(S(=O)(=O)[O-])c4F)c4ccc([nH]4)c(-c4cccc(S(=O)(=O)[O-])c4F)c4nc(c(-c5cccc(S(=O)(=O)[O-])c5F)c5ccc2[nH]5)C=C4)C=C3)cc1
REMARK SMILES IDX 21 1 20 2 19 3 17 4 18 5 4 7 5 8 2 9 1 10 3 11 6 12 7 13
REMARK SMILES IDX 8 14 9 15 10 17 11 18 14 19 12 20 13 21 15 22 16 23 22 24
REMARK SMILES IDX 23 25 24 26 25 27 26 29 27 30 28 31 89 32 29 33 88 34 30 35
REMARK SMILES IDX 31 36 32 37 82 38 33 39 87 40 81 41 83 42 34 43 86 44 80 45
REMARK SMILES IDX 79 46 35 48 67 49 47 50 66 51 48 52 51 53 65 54 84 55 49 56
REMARK SMILES IDX 50 57 64 59 85 60 52 61 36 62 37 63 45 64 38 65 40 66 46 67
REMARK SMILES IDX 39 68 41 69 42 70 43 71 44 72 68 73 69 74 77 75 70 76 72 77
REMARK SMILES IDX 78 78 71 79 73 80 74 81 75 82 76 83 53 84 54 85 62 86 55 87
REMARK SMILES IDX 57 88 63 89 56 90 58 91 59 92 60 93 61 94
REMARK H PARENT 19 6 9 16 24 28 83 47 51 58
REMARK Flexibility Score: inf
ROOT
ATOM      1  C   UNL A   1      32.265  27.059  24.984  1.00  0.00     0.023 C 
ENDROOT
BRANCH   1   2
ATOM      2  C   UNL A   1      32.859  25.983  25.895  1.00  0.00     0.116 C 
BRANCH   2   3
ATOM      3  N   UNL A   1      34.057  25.352  25.362  1.00  0.00    -0.356 N 
ATOM      4  C   UNL A   1      34.313  24.130  24.818  1.00  0.00     0.226 C 
ATOM      5  O   UNL A   1      35.499  23.923  24.545  1.00  0.00    -0.274 OA
ATOM      6  H   UNL A   1      34.851  25.932  25.405  1.00  0.00     0.163 HD
BRANCH   4   7
ATOM      7  C   UNL A   1      33.221  23.021  24.630  1.00  0.00     0.057 C 
ATOM      8  C   UNL A   1      32.122  23.221  25.747  1.00  0.00     0.022 C 
BRANCH   7   9
ATOM      9  C   UNL A   1      32.341  23.452  23.263  1.00  0.00    -0.002 C 
ATOM     10  C   UNL A   1      30.871  23.884  23.607  1.00  0.00     0.008 C 
ATOM     11  C   UNL A   1      32.740  24.572  22.265  1.00  0.00     0.008 C 
ENDBRANCH   7   9
BRANCH   7  12
ATOM     12  C   UNL A   1      34.005  21.612  25.048  1.00  0.00     0.116 C 
BRANCH  12  13
ATOM     13  C   UNL A   1      34.914  20.314  24.850  1.00  0.00     0.221 C 
ATOM     14  O   UNL A   1      36.112  20.559  24.581  1.00  0.00    -0.275 OA
ATOM     15  N   UNL A   1      34.745  18.983  25.028  1.00  0.00    -0.353 N 
ATOM     16  H   UNL A   1      35.612  18.519  25.071  1.00  0.00     0.163 HD
BRANCH  15  17
ATOM     17  C   UNL A   1      33.620  18.030  25.178  1.00  0.00     0.087 C 
ATOM     18  C   UNL A   1      32.428  18.453  24.348  1.00  0.00     0.025 C 
ATOM     19  C   UNL A   1      34.030  16.672  24.654  1.00  0.00    -0.015 C 
ATOM     20  C   UNL A   1      32.819  18.022  22.944  1.00  0.00     0.003 C 
ATOM     21  C   UNL A   1      34.005  17.037  23.125  1.00  0.00     0.008 C 
ATOM     22  C   UNL A   1      35.234  16.348  25.589  1.00  0.00     0.013 C 
ATOM     23  C   UNL A   1      33.054  15.488  24.756  1.00  0.00     0.013 C 
ENDBRANCH  15  17
ENDBRANCH  12  13
ENDBRANCH   7  12
ENDBRANCH   4   7
ENDBRANCH   2   3
ENDBRANCH   1   2
BRANCH   1  24
ATOM     24  C   UNL A   1      31.946  28.383  25.663  1.00  0.00     0.023 C 
BRANCH  24  25
ATOM     25  C   UNL A   1      33.102  29.368  25.695  1.00  0.00     0.116 C 
BRANCH  25  26
ATOM     26  N   UNL A   1      32.713  30.692  26.165  1.00  0.00    -0.352 N 
ATOM     27  C   UNL A   1      33.342  31.478  27.095  1.00  0.00     0.251 C 
ATOM     28  H   UNL A   1      31.896  31.067  25.765  1.00  0.00     0.163 HD
ATOM     29  O   UNL A   1      32.833  32.537  27.465  1.00  0.00    -0.269 OA
BRANCH  27  30
ATOM     30  C   UNL A   1      34.617  31.015  27.670  1.00  0.00     0.039 A 
ATOM     31  C   UNL A   1      35.645  31.938  27.867  1.00  0.00     0.014 A 
ATOM     32  C   UNL A   1      34.761  29.686  28.078  1.00  0.00     0.014 A 
ATOM     33  C   UNL A   1      36.807  31.534  28.524  1.00  0.00     0.010 A 
ATOM     34  C   UNL A   1      35.874  29.315  28.818  1.00  0.00     0.010 A 
ATOM     35  C   UNL A   1      36.918  30.229  29.028  1.00  0.00    -0.014 A 
BRANCH  35  36
ATOM     36  C   UNL A   1      38.132  29.784  29.755  1.00  0.00     0.031 A 
ATOM     37  C   UNL A   1      38.384  30.277  31.154  1.00  0.00     0.074 A 
ATOM     38  C   UNL A   1      39.038  29.007  29.134  1.00  0.00     0.049 A 
ATOM     39  N   UNL A   1      39.399  30.038  31.943  1.00  0.00    -0.248 NA
ATOM     40  C   UNL A   1      37.380  31.187  31.732  1.00  0.00     0.031 C 
ATOM     41  C   UNL A   1      38.944  28.532  27.752  1.00  0.00     0.029 A 
ATOM     42  N   UNL A   1      40.231  28.496  29.580  1.00  0.00    -0.354 N 
ATOM     43  C   UNL A   1      39.177  30.797  33.085  1.00  0.00     0.074 A 
ATOM     44  C   UNL A   1      37.956  31.541  32.869  1.00  0.00     0.031 C 
ATOM     45  C   UNL A   1      40.022  27.784  27.470  1.00  0.00     0.029 A 
ATOM     46  C   UNL A   1      40.899  27.752  28.636  1.00  0.00     0.049 A 
ATOM     47  H   UNL A   1      40.575  28.647  30.490  1.00  0.00     0.167 HD
ATOM     48  C   UNL A   1      39.904  30.847  34.226  1.00  0.00     0.034 A 
ATOM     49  C   UNL A   1      42.085  27.117  28.706  1.00  0.00     0.034 A 
ATOM     50  C   UNL A   1      41.093  30.073  34.448  1.00  0.00     0.049 A 
ATOM     51  C   UNL A   1      42.856  27.152  29.997  1.00  0.00     0.074 A 
ATOM     52  C   UNL A   1      41.855  29.976  35.597  1.00  0.00     0.029 A 
ATOM     53  N   UNL A   1      41.701  29.269  33.496  1.00  0.00    -0.354 N 
ATOM     54  N   UNL A   1      42.551  27.749  31.124  1.00  0.00    -0.248 NA
ATOM     55  C   UNL A   1      44.114  26.395  30.039  1.00  0.00     0.031 C 
ATOM     56  C   UNL A   1      42.944  29.139  35.330  1.00  0.00     0.029 A 
ATOM     57  C   UNL A   1      42.836  28.682  34.025  1.00  0.00     0.049 A 
ATOM     58  H   UNL A   1      41.372  29.135  32.577  1.00  0.00     0.167 HD
ATOM     59  C   UNL A   1      43.555  27.405  32.023  1.00  0.00     0.074 A 
ATOM     60  C   UNL A   1      44.470  26.536  31.310  1.00  0.00     0.031 C 
ATOM     61  C   UNL A   1      43.709  27.779  33.317  1.00  0.00     0.034 A 
BRANCH  48  62
ATOM     62  C   UNL A   1      39.403  31.744  35.329  1.00  0.00     0.023 A 
ATOM     63  C   UNL A   1      38.454  31.259  36.254  1.00  0.00     0.012 A 
ATOM     64  C   UNL A   1      39.883  33.062  35.464  1.00  0.00     0.148 A 
ATOM     65  C   UNL A   1      37.953  32.083  37.259  1.00  0.00     0.002 A 
ATOM     66  C   UNL A   1      39.418  33.860  36.502  1.00  0.00     0.091 A 
ATOM     67  F   UNL A   1      40.767  33.517  34.564  1.00  0.00    -0.205 F 
ATOM     68  C   UNL A   1      38.441  33.379  37.390  1.00  0.00     0.022 A 
BRANCH  66  69
ATOM     69  S   UNL A   1      40.050  35.514  36.805  1.00  0.00     0.127 S 
ATOM     70  O   UNL A   1      39.535  36.243  35.647  1.00  0.00    -0.237 OA
ATOM     71  O   UNL A   1      39.410  35.859  38.076  1.00  0.00    -0.237 OA
ATOM     72  O   UNL A   1      41.498  35.384  36.872  1.00  0.00    -0.744 OA
ENDBRANCH  66  69
ENDBRANCH  48  62
BRANCH  49  73
ATOM     73  C   UNL A   1      42.570  26.323  27.542  1.00  0.00     0.023 A 
ATOM     74  C   UNL A   1      43.432  26.929  26.606  1.00  0.00     0.012 A 
ATOM     75  C   UNL A   1      42.219  24.969  27.376  1.00  0.00     0.148 A 
ATOM     76  C   UNL A   1      43.911  26.210  25.510  1.00  0.00     0.002 A 
ATOM     77  C   UNL A   1      42.743  24.244  26.313  1.00  0.00     0.091 A 
ATOM     78  F   UNL A   1      41.396  24.414  28.277  1.00  0.00    -0.205 F 
ATOM     79  C   UNL A   1      43.575  24.867  25.369  1.00  0.00     0.022 A 
BRANCH  77  80
ATOM     80  S   UNL A   1      42.467  22.480  26.113  1.00  0.00     0.127 S 
ATOM     81  O   UNL A   1      43.240  22.191  24.909  1.00  0.00    -0.237 OA
ATOM     82  O   UNL A   1      43.034  21.948  27.353  1.00  0.00    -0.237 OA
ATOM     83  O   UNL A   1      41.026  22.316  25.990  1.00  0.00    -0.744 OA
ENDBRANCH  77  80
ENDBRANCH  49  73
BRANCH  61  84
ATOM     84  C   UNL A   1      44.883  27.213  34.074  1.00  0.00     0.023 A 
ATOM     85  C   UNL A   1      46.125  27.878  34.054  1.00  0.00     0.012 A 
ATOM     86  C   UNL A   1      44.729  26.059  34.867  1.00  0.00     0.148 A 
ATOM     87  C   UNL A   1      47.205  27.381  34.783  1.00  0.00     0.002 A 
ATOM     88  C   UNL A   1      45.793  25.601  35.634  1.00  0.00     0.091 A 
ATOM     89  F   UNL A   1      43.545  25.431  34.858  1.00  0.00    -0.205 F 
ATOM     90  C   UNL A   1      47.036  26.252  35.582  1.00  0.00     0.022 A 
BRANCH  88  91
ATOM     91  S   UNL A   1      45.635  24.218  36.768  1.00  0.00     0.127 S 
ATOM     92  O   UNL A   1      45.301  23.124  35.859  1.00  0.00    -0.237 OA
ATOM     93  O   UNL A   1      46.975  24.140  37.350  1.00  0.00    -0.237 OA
ATOM     94  O   UNL A   1      44.590  24.590  37.712  1.00  0.00    -0.744 OA
ENDBRANCH  88  91
ENDBRANCH  61  84
ENDBRANCH  35  36
ENDBRANCH  27  30
ENDBRANCH  25  26
ENDBRANCH  24  25
ENDBRANCH   1  24
TORSDOF 18
ENDMDL
MODEL 2
REMARK VINA RESULT:     -11.4      1.590      2.395
REMARK SMILES CC(C)[C@@](C)(CC(=O)N[C@H]1CCCC1(C)C)C(=O)NCCCCNC(=O)c1ccc(-c2c3nc(c(-c4cccc(S(=O)(=O)[O-])c4F)c4ccc([nH]4)c(-c4cccc(S(=O)(=O)[O-])c4F)c4nc(c(-c5cccc(S(=O)(=O)[O-])c5F)c5ccc2[nH]5)C=C4)C=C3)cc1
REMARK SMILES IDX 21 1 20 2 19 3 17 4 18 5 4 7 5 8 2 9 1 10 3 11 6 12 7 13
REMARK SMILES IDX 8 14 9 15 10 17 11 18 14 19 12 20 13 21 15 22 16 23 22 24
REMARK SMILES IDX 23 25 24 26 25 27 26 29 27 30 28 31 89 32 29 33 88 34 30 35
REMARK SMILES IDX 31 36 32 37 82 38 33 39 87 40 81 41 83 42 34 43 86 44 80 45
REMARK SMILES IDX 79 46 35 48 67 49 47 50 66 51 48 52 51 53 65 54 84 55 49 56
REMARK SMILES IDX 50 57 64 59 85 60 52 61 36 62 37 63 45 64 38 65 40 66 46 67
REMARK SMILES IDX 39 68 41 69 42 70 43 71 44 72 68 73 69 74 77 75 70 76 72 77
REMARK SMILES IDX 78 78 71 79 73 80 74 81 75 82 76 83 53 84 54 85 62 86 55 87
REMARK SMILES IDX 57 88 63 89 56 90 58 91 59 92 60 93 61 94
REMARK H PARENT 19 6 9 16 24 28 83 47 51 58
REMARK Flexibility Score: inf
ROOT
ATOM      1  C   UNL A   1      33.727  28.862  25.171  1.00  0.00     0.023 C 
ENDROOT
BRANCH   1   2
ATOM      2  C   UNL A   1      33.537  27.352  25.334  1.00  0.00     0.116 C 
BRANCH   2   3
ATOM      3  N   UNL A   1      32.325  26.982  26.047  1.00  0.00    -0.356 N 
ATOM      4  C   UNL A   1      31.188  26.322  25.690  1.00  0.00     0.226 C 
ATOM      5  O   UNL A   1      30.324  26.264  26.570  1.00  0.00    -0.274 OA
ATOM      6  H   UNL A   1      32.327  27.270  26.989  1.00  0.00     0.163 HD
BRANCH   4   7
ATOM      7  C   UNL A   1      30.935  25.754  24.251  1.00  0.00     0.057 C 
ATOM      8  C   UNL A   1      29.379  25.789  23.977  1.00  0.00     0.022 C 
BRANCH   7   9
ATOM      9  C   UNL A   1      31.455  26.939  23.177  1.00  0.00    -0.002 C 
ATOM     10  C   UNL A   1      32.227  26.338  21.948  1.00  0.00     0.008 C 
ATOM     11  C   UNL A   1      30.529  27.957  22.458  1.00  0.00     0.008 C 
ENDBRANCH   7   9
BRANCH   7  12
ATOM     12  C   UNL A   1      31.310  24.137  24.388  1.00  0.00     0.116 C 
BRANCH  12  13
ATOM     13  C   UNL A   1      32.021  22.831  24.969  1.00  0.00     0.221 C 
ATOM     14  O   UNL A   1      31.324  22.183  25.782  1.00  0.00    -0.275 OA
ATOM     15  N   UNL A   1      33.165  22.157  24.704  1.00  0.00    -0.353 N 
ATOM     16  H   UNL A   1      33.132  21.245  25.071  1.00  0.00     0.163 HD
BRANCH  15  17
ATOM     17  C   UNL A   1      34.453  22.411  24.016  1.00  0.00     0.087 C 
ATOM     18  C   UNL A   1      34.728  23.893  23.894  1.00  0.00     0.025 C 
ATOM     19  C   UNL A   1      35.589  21.845  24.837  1.00  0.00    -0.015 C 
ATOM     20  C   UNL A   1      35.212  24.268  25.284  1.00  0.00     0.003 C 
ATOM     21  C   UNL A   1      35.562  22.925  25.980  1.00  0.00     0.008 C 
ATOM     22  C   UNL A   1      35.202  20.335  24.873  1.00  0.00     0.013 C 
ATOM     23  C   UNL A   1      37.030  21.923  24.304  1.00  0.00     0.013 C 
ENDBRANCH  15  17
ENDBRANCH  12  13
ENDBRANCH   7  12
ENDBRANCH   4   7
ENDBRANCH   2   3
ENDBRANCH   1   2
BRANCH   1  24
ATOM     24  C   UNL A   1      32.476  29.702  25.383  1.00  0.00     0.023 C 
BRANCH  24  25
ATOM     25  C   UNL A   1      32.287  30.202  26.804  1.00  0.00     0.116 C 
BRANCH  25  26
ATOM     26  N   UNL A   1      32.223  31.656  26.895  1.00  0.00    -0.352 N 
ATOM     27  C   UNL A   1      33.136  32.510  27.455  1.00  0.00     0.251 C 
ATOM     28  H   UNL A   1      31.422  32.076  26.507  1.00  0.00     0.163 HD
ATOM     29  O   UNL A   1      32.893  33.713  27.548  1.00  0.00    -0.269 OA
BRANCH  27  30
ATOM     30  C   UNL A   1      34.398  31.956  27.978  1.00  0.00     0.039 A 
ATOM     31  C   UNL A   1      35.504  32.797  28.109  1.00  0.00     0.014 A 
ATOM     32  C   UNL A   1      34.457  30.626  28.405  1.00  0.00     0.014 A 
ATOM     33  C   UNL A   1      36.661  32.313  28.718  1.00  0.00     0.010 A 
ATOM     34  C   UNL A   1      35.572  30.179  29.099  1.00  0.00     0.010 A 
ATOM     35  C   UNL A   1      36.694  31.010  29.242  1.00  0.00    -0.014 A 
BRANCH  35  36
ATOM     36  C   UNL A   1      37.902  30.482  29.919  1.00  0.00     0.031 A 
ATOM     37  C   UNL A   1      38.223  30.924  31.321  1.00  0.00     0.074 A 
ATOM     38  C   UNL A   1      38.746  29.673  29.251  1.00  0.00     0.049 A 
ATOM     39  N   UNL A   1      39.247  30.610  32.070  1.00  0.00    -0.248 NA
ATOM     40  C   UNL A   1      37.289  31.872  31.951  1.00  0.00     0.031 C 
ATOM     41  C   UNL A   1      38.583  29.240  27.861  1.00  0.00     0.029 A 
ATOM     42  N   UNL A   1      39.921  29.087  29.646  1.00  0.00    -0.354 N 
ATOM     43  C   UNL A   1      39.102  31.350  33.237  1.00  0.00     0.074 A 
ATOM     44  C   UNL A   1      37.918  32.165  33.078  1.00  0.00     0.031 C 
ATOM     45  C   UNL A   1      39.610  28.442  27.527  1.00  0.00     0.029 A 
ATOM     46  C   UNL A   1      40.519  28.333  28.663  1.00  0.00     0.049 A 
ATOM     47  H   UNL A   1      40.301  29.195  30.547  1.00  0.00     0.167 HD
ATOM     48  C   UNL A   1      39.865  31.332  34.355  1.00  0.00     0.034 A 
ATOM     49  C   UNL A   1      41.670  27.632  28.680  1.00  0.00     0.034 A 
ATOM     50  C   UNL A   1      41.016  30.488  34.521  1.00  0.00     0.049 A 
ATOM     51  C   UNL A   1      42.481  27.593  29.947  1.00  0.00     0.074 A 
ATOM     52  C   UNL A   1      41.806  30.321  35.643  1.00  0.00     0.029 A 
ATOM     53  N   UNL A   1      41.549  29.678  33.531  1.00  0.00    -0.354 N 
ATOM     54  N   UNL A   1      42.243  28.176  31.097  1.00  0.00    -0.248 NA
ATOM     55  C   UNL A   1      43.695  26.768  29.931  1.00  0.00     0.031 C 
ATOM     56  C   UNL A   1      42.839  29.433  35.321  1.00  0.00     0.029 A 
ATOM     57  C   UNL A   1      42.666  29.016  34.010  1.00  0.00     0.049 A 
ATOM     58  H   UNL A   1      41.187  29.585  32.620  1.00  0.00     0.167 HD
ATOM     59  C   UNL A   1      43.253  27.755  31.955  1.00  0.00     0.074 A 
ATOM     60  C   UNL A   1      44.097  26.856  31.193  1.00  0.00     0.031 C 
ATOM     61  C   UNL A   1      43.467  28.087  33.253  1.00  0.00     0.034 A 
BRANCH  48  62
ATOM     62  C   UNL A   1      39.448  32.225  35.495  1.00  0.00     0.023 A 
ATOM     63  C   UNL A   1      38.586  31.731  36.497  1.00  0.00     0.012 A 
ATOM     64  C   UNL A   1      39.921  33.549  35.587  1.00  0.00     0.148 A 
ATOM     65  C   UNL A   1      38.161  32.551  37.540  1.00  0.00     0.002 A 
ATOM     66  C   UNL A   1      39.535  34.344  36.660  1.00  0.00     0.091 A 
ATOM     67  F   UNL A   1      40.721  34.013  34.616  1.00  0.00    -0.205 F 
ATOM     68  C   UNL A   1      38.643  33.854  37.627  1.00  0.00     0.022 A 
BRANCH  66  69
ATOM     69  S   UNL A   1      40.170  36.006  36.906  1.00  0.00     0.127 S 
ATOM     70  O   UNL A   1      39.506  36.394  38.150  1.00  0.00    -0.237 OA
ATOM     71  O   UNL A   1      41.609  35.770  37.031  1.00  0.00    -0.237 OA
ATOM     72  O   UNL A   1      39.781  36.763  35.725  1.00  0.00    -0.744 OA
ENDBRANCH  66  69
ENDBRANCH  48  62
BRANCH  49  73
ATOM     73  C   UNL A   1      42.075  26.844  27.483  1.00  0.00     0.023 A 
ATOM     74  C   UNL A   1      42.745  27.492  26.426  1.00  0.00     0.012 A 
ATOM     75  C   UNL A   1      41.839  25.458  27.399  1.00  0.00     0.148 A 
ATOM     76  C   UNL A   1      43.146  26.780  25.295  1.00  0.00     0.002 A 
ATOM     77  C   UNL A   1      42.289  24.745  26.295  1.00  0.00     0.091 A 
ATOM     78  F   UNL A   1      41.198  24.863  28.415  1.00  0.00    -0.205 F 
ATOM     79  C   UNL A   1      42.927  25.407  25.233  1.00  0.00     0.022 A 
BRANCH  77  80
ATOM     80  S   UNL A   1      42.163  22.957  26.178  1.00  0.00     0.127 S 
ATOM     81  O   UNL A   1      42.758  22.700  24.869  1.00  0.00    -0.237 OA
ATOM     82  O   UNL A   1      42.972  22.527  27.319  1.00  0.00    -0.237 OA
ATOM     83  O   UNL A   1      40.744  22.652  26.295  1.00  0.00    -0.744 OA
ENDBRANCH  77  80
ENDBRANCH  49  73
BRANCH  61  84
ATOM     84  C   UNL A   1      44.630  27.439  33.957  1.00  0.00     0.023 A 
ATOM     85  C   UNL A   1      45.920  27.995  33.854  1.00  0.00     0.012 A 
ATOM     86  C   UNL A   1      44.425  26.317  34.786  1.00  0.00     0.148 A 
ATOM     87  C   UNL A   1      46.994  27.424  34.535  1.00  0.00     0.002 A 
ATOM     88  C   UNL A   1      45.489  25.787  35.505  1.00  0.00     0.091 A 
ATOM     89  F   UNL A   1      43.194  25.791  34.857  1.00  0.00    -0.205 F 
ATOM     90  C   UNL A   1      46.777  26.329  35.369  1.00  0.00     0.022 A 
BRANCH  88  91
ATOM     91  S   UNL A   1      45.281  24.445  36.680  1.00  0.00     0.127 S 
ATOM     92  O   UNL A   1      45.435  23.271  35.822  1.00  0.00    -0.237 OA
ATOM     93  O   UNL A   1      46.389  24.671  37.609  1.00  0.00    -0.237 OA
ATOM     94  O   UNL A   1      43.959  24.623  37.264  1.00  0.00    -0.744 OA
ENDBRANCH  88  91
ENDBRANCH  61  84
ENDBRANCH  35  36
ENDBRANCH  27  30
ENDBRANCH  25  26
ENDBRANCH  24  25
ENDBRANCH   1  24
TORSDOF 18
ENDMDL
MODEL 3
REMARK VINA RESULT:     -11.3      1.736      2.412
REMARK SMILES CC(C)[C@@](C)(CC(=O)N[C@H]1CCCC1(C)C)C(=O)NCCCCNC(=O)c1ccc(-c2c3nc(c(-c4cccc(S(=O)(=O)[O-])c4F)c4ccc([nH]4)c(-c4cccc(S(=O)(=O)[O-])c4F)c4nc(c(-c5cccc(S(=O)(=O)[O-])c5F)c5ccc2[nH]5)C=C4)C=C3)cc1
REMARK SMILES IDX 21 1 20 2 19 3 17 4 18 5 4 7 5 8 2 9 1 10 3 11 6 12 7 13
REMARK SMILES IDX 8 14 9 15 10 17 11 18 14 19 12 20 13 21 15 22 16 23 22 24
REMARK SMILES IDX 23 25 24 26 25 27 26 29 27 30 28 31 89 32 29 33 88 34 30 35
REMARK SMILES IDX 31 36 32 37 82 38 33 39 87 40 81 41 83 42 34 43 86 44 80 45
REMARK SMILES IDX 79 46 35 48 67 49 47 50 66 51 48 52 51 53 65 54 84 55 49 56
REMARK SMILES IDX 50 57 64 59 85 60 52 61 36 62 37 63 45 64 38 65 40 66 46 67
REMARK SMILES IDX 39 68 41 69 42 70 43 71 44 72 68 73 69 74 77 75 70 76 72 77
REMARK SMILES IDX 78 78 71 79 73 80 74 81 75 82 76 83 53 84 54 85 62 86 55 87
REMARK SMILES IDX 57 88 63 89 56 90 58 91 59 92 60 93 61 94
REMARK H PARENT 19 6 9 16 24 28 83 47 51 58
REMARK Flexibility Score: inf
ROOT
ATOM      1  C   UNL A   1      31.966  28.313  27.604  1.00  0.00     0.023 C 
ENDROOT
BRANCH   1   2
ATOM      2  C   UNL A   1      31.762  26.971  26.898  1.00  0.00     0.116 C 
BRANCH   2   3
ATOM      3  N   UNL A   1      30.595  26.930  26.030  1.00  0.00    -0.356 N 
ATOM      4  C   UNL A   1      30.252  26.173  24.952  1.00  0.00     0.226 C 
ATOM      5  O   UNL A   1      29.186  26.488  24.416  1.00  0.00    -0.274 OA
ATOM      6  H   UNL A   1      29.908  27.592  26.275  1.00  0.00     0.163 HD
BRANCH   4   7
ATOM      7  C   UNL A   1      31.166  25.044  24.362  1.00  0.00     0.057 C 
ATOM      8  C   UNL A   1      30.392  24.362  23.166  1.00  0.00     0.022 C 
BRANCH   7   9
ATOM      9  C   UNL A   1      32.394  25.824  23.518  1.00  0.00    -0.002 C 
ATOM     10  C   UNL A   1      31.930  27.198  22.917  1.00  0.00     0.008 C 
ATOM     11  C   UNL A   1      33.768  26.227  24.118  1.00  0.00     0.008 C 
ENDBRANCH   7   9
BRANCH   7  12
ATOM     12  C   UNL A   1      31.202  23.891  25.563  1.00  0.00     0.116 C 
BRANCH  12  13
ATOM     13  C   UNL A   1      31.695  22.587  26.343  1.00  0.00     0.221 C 
ATOM     14  O   UNL A   1      31.722  22.711  27.588  1.00  0.00    -0.275 OA
ATOM     15  N   UNL A   1      31.975  21.308  26.001  1.00  0.00    -0.353 N 
ATOM     16  H   UNL A   1      31.978  20.722  26.792  1.00  0.00     0.163 HD
BRANCH  15  17
ATOM     17  C   UNL A   1      32.278  20.543  24.769  1.00  0.00     0.087 C 
ATOM     18  C   UNL A   1      32.781  21.450  23.668  1.00  0.00     0.025 C 
ATOM     19  C   UNL A   1      33.397  19.562  25.041  1.00  0.00    -0.015 C 
ATOM     20  C   UNL A   1      34.227  21.699  24.063  1.00  0.00     0.003 C 
ATOM     21  C   UNL A   1      34.564  20.613  25.119  1.00  0.00     0.008 C 
ATOM     22  C   UNL A   1      32.755  18.688  26.160  1.00  0.00     0.013 C 
ATOM     23  C   UNL A   1      33.855  18.600  23.931  1.00  0.00     0.013 C 
ENDBRANCH  15  17
ENDBRANCH  12  13
ENDBRANCH   7  12
ENDBRANCH   4   7
ENDBRANCH   2   3
ENDBRANCH   1   2
BRANCH   1  24
ATOM     24  C   UNL A   1      31.764  29.544  26.733  1.00  0.00     0.023 C 
BRANCH  24  25
ATOM     25  C   UNL A   1      33.027  30.350  26.482  1.00  0.00     0.116 C 
BRANCH  25  26
ATOM     26  N   UNL A   1      32.897  31.751  26.865  1.00  0.00    -0.352 N 
ATOM     27  C   UNL A   1      33.732  32.491  27.660  1.00  0.00     0.251 C 
ATOM     28  H   UNL A   1      32.111  32.223  26.508  1.00  0.00     0.163 HD
ATOM     29  O   UNL A   1      33.435  33.643  27.979  1.00  0.00    -0.269 OA
BRANCH  27  30
ATOM     30  C   UNL A   1      34.973  31.871  28.158  1.00  0.00     0.039 A 
ATOM     31  C   UNL A   1      36.148  32.624  28.173  1.00  0.00     0.014 A 
ATOM     32  C   UNL A   1      34.951  30.572  28.673  1.00  0.00     0.014 A 
ATOM     33  C   UNL A   1      37.295  32.088  28.756  1.00  0.00     0.010 A 
ATOM     34  C   UNL A   1      36.064  30.082  29.340  1.00  0.00     0.010 A 
ATOM     35  C   UNL A   1      37.254  30.825  29.369  1.00  0.00    -0.014 A 
BRANCH  35  36
ATOM     36  C   UNL A   1      38.453  30.245  30.020  1.00  0.00     0.031 A 
ATOM     37  C   UNL A   1      38.852  30.710  31.394  1.00  0.00     0.074 A 
ATOM     38  C   UNL A   1      39.220  29.364  29.351  1.00  0.00     0.049 A 
ATOM     39  N   UNL A   1      39.882  30.357  32.117  1.00  0.00    -0.248 NA
ATOM     40  C   UNL A   1      38.001  31.734  32.025  1.00  0.00     0.031 C 
ATOM     41  C   UNL A   1      38.980  28.898  27.983  1.00  0.00     0.029 A 
ATOM     42  N   UNL A   1      40.372  28.720  29.724  1.00  0.00    -0.354 N 
ATOM     43  C   UNL A   1      39.825  31.142  33.262  1.00  0.00     0.074 A 
ATOM     44  C   UNL A   1      38.688  32.023  33.118  1.00  0.00     0.031 C 
ATOM     45  C   UNL A   1      39.943  28.028  27.640  1.00  0.00     0.029 A 
ATOM     46  C   UNL A   1      40.886  27.899  28.747  1.00  0.00     0.049 A 
ATOM     47  H   UNL A   1      40.790  28.833  30.607  1.00  0.00     0.167 HD
ATOM     48  C   UNL A   1      40.627  31.112  34.353  1.00  0.00     0.034 A 
ATOM     49  C   UNL A   1      41.992  27.130  28.747  1.00  0.00     0.034 A 
ATOM     50  C   UNL A   1      41.731  30.205  34.507  1.00  0.00     0.049 A 
ATOM     51  C   UNL A   1      42.845  27.081  29.985  1.00  0.00     0.074 A 
ATOM     52  C   UNL A   1      42.550  30.025  35.605  1.00  0.00     0.029 A 
ATOM     53  N   UNL A   1      42.176  29.332  33.526  1.00  0.00    -0.354 N 
ATOM     54  N   UNL A   1      42.686  27.714  31.123  1.00  0.00    -0.248 NA
ATOM     55  C   UNL A   1      44.006  26.182  29.954  1.00  0.00     0.031 C 
ATOM     56  C   UNL A   1      43.514  29.065  35.277  1.00  0.00     0.029 A 
ATOM     57  C   UNL A   1      43.268  28.619  33.988  1.00  0.00     0.049 A 
ATOM     58  H   UNL A   1      41.775  29.233  32.632  1.00  0.00     0.167 HD
ATOM     59  C   UNL A   1      43.701  27.259  31.958  1.00  0.00     0.074 A 
ATOM     60  C   UNL A   1      44.459  26.286  31.198  1.00  0.00     0.031 C 
ATOM     61  C   UNL A   1      43.982  27.617  33.235  1.00  0.00     0.034 A 
BRANCH  48  62
ATOM     62  C   UNL A   1      40.308  32.065  35.476  1.00  0.00     0.023 A 
ATOM     63  C   UNL A   1      41.086  33.231  35.651  1.00  0.00     0.012 A 
ATOM     64  C   UNL A   1      39.229  31.821  36.349  1.00  0.00     0.148 A 
ATOM     65  C   UNL A   1      40.829  34.107  36.704  1.00  0.00     0.002 A 
ATOM     66  C   UNL A   1      38.947  32.728  37.364  1.00  0.00     0.091 A 
ATOM     67  F   UNL A   1      38.514  30.699  36.185  1.00  0.00    -0.205 F 
ATOM     68  C   UNL A   1      39.755  33.861  37.553  1.00  0.00     0.022 A 
BRANCH  66  69
ATOM     69  S   UNL A   1      37.533  32.544  38.456  1.00  0.00     0.127 S 
ATOM     70  O   UNL A   1      37.634  31.135  38.834  1.00  0.00    -0.237 OA
ATOM     71  O   UNL A   1      37.849  33.487  39.530  1.00  0.00    -0.237 OA
ATOM     72  O   UNL A   1      36.365  32.898  37.662  1.00  0.00    -0.744 OA
ENDBRANCH  66  69
ENDBRANCH  48  62
BRANCH  49  73
ATOM     73  C   UNL A   1      42.304  26.280  27.563  1.00  0.00     0.023 A 
ATOM     74  C   UNL A   1      43.036  26.832  26.493  1.00  0.00     0.012 A 
ATOM     75  C   UNL A   1      41.917  24.928  27.506  1.00  0.00     0.148 A 
ATOM     76  C   UNL A   1      43.353  26.060  25.375  1.00  0.00     0.002 A 
ATOM     77  C   UNL A   1      42.281  24.150  26.414  1.00  0.00     0.091 A 
ATOM     78  F   UNL A   1      41.218  24.425  28.533  1.00  0.00    -0.205 F 
ATOM     79  C   UNL A   1      42.984  24.718  25.339  1.00  0.00     0.022 A 
BRANCH  77  80
ATOM     80  S   UNL A   1      41.960  22.385  26.330  1.00  0.00     0.127 S 
ATOM     81  O   UNL A   1      40.501  22.348  26.289  1.00  0.00    -0.237 OA
ATOM     82  O   UNL A   1      42.622  22.021  25.076  1.00  0.00    -0.237 OA
ATOM     83  O   UNL A   1      42.570  21.814  27.522  1.00  0.00    -0.744 OA
ENDBRANCH  77  80
ENDBRANCH  49  73
BRANCH  61  84
ATOM     84  C   UNL A   1      45.130  26.921  33.920  1.00  0.00     0.023 A 
ATOM     85  C   UNL A   1      46.415  27.499  33.913  1.00  0.00     0.012 A 
ATOM     86  C   UNL A   1      44.912  25.728  34.637  1.00  0.00     0.148 A 
ATOM     87  C   UNL A   1      47.472  26.881  34.578  1.00  0.00     0.002 A 
ATOM     88  C   UNL A   1      45.958  25.147  35.343  1.00  0.00     0.091 A 
ATOM     89  F   UNL A   1      43.687  25.184  34.618  1.00  0.00    -0.205 F 
ATOM     90  C   UNL A   1      47.242  25.713  35.302  1.00  0.00     0.022 A 
BRANCH  88  91
ATOM     91  S   UNL A   1      45.728  23.702  36.386  1.00  0.00     0.127 S 
ATOM     92  O   UNL A   1      45.386  24.314  37.669  1.00  0.00    -0.237 OA
ATOM     93  O   UNL A   1      44.620  23.015  35.723  1.00  0.00    -0.237 OA
ATOM     94  O   UNL A   1      46.991  22.978  36.354  1.00  0.00    -0.744 OA
ENDBRANCH  88  91
ENDBRANCH  61  84
ENDBRANCH  35  36
ENDBRANCH  27  30
ENDBRANCH  25  26
ENDBRANCH  24  25
ENDBRANCH   1  24
TORSDOF 18
ENDMDL
