MODEL 1
REMARK VINA RESULT:     -11.3      0.000      0.000
REMARK SMILES O=C(NCCCCNC(=O)[C@H]1CC[C@@H](C[NH2+]C[C@H]2CCCOC2)CC1)c1ccc(-c2c3nc(c(-c4cccc(S(=O)(=O)[O-])c4F)c4ccc([nH]4)c(-c4cccc(S(=O)(=O)[O-])c4F)c4nc(c(-c5cccc(S(=O)(=O)[O-])c5F)c5ccc2[nH]5)C=C4)C=C3)cc1
REMARK SMILES IDX 6 1 5 2 4 3 3 4 1 5 2 6 26 8 27 9 88 10 28 11 87 12 29 13
REMARK SMILES IDX 30 14 31 15 81 16 32 17 86 18 80 19 82 20 33 21 85 22 79 23
REMARK SMILES IDX 78 24 34 26 66 27 46 28 65 29 47 30 50 31 64 32 83 33 48 34
REMARK SMILES IDX 49 35 63 37 84 38 51 39 35 40 36 41 44 42 37 43 39 44 45 45
REMARK SMILES IDX 38 46 40 47 41 48 42 49 43 50 67 51 68 52 76 53 69 54 71 55
REMARK SMILES IDX 77 56 70 57 72 58 73 59 74 60 75 61 52 62 53 63 61 64 54 65
REMARK SMILES IDX 56 66 62 67 55 68 57 69 58 70 59 71 60 72 7 73 8 74 9 75
REMARK SMILES IDX 10 77 11 78 25 79 12 80 24 81 13 82 14 83 15 84 16 85 17 88
REMARK SMILES IDX 18 89 19 90 23 91 20 92 22 93 21 94
REMARK H PARENT 3 7 82 25 50 36 8 76 16 86 16 87
REMARK Flexibility Score: inf
ROOT
ATOM      1  C   UNL A   1      31.720  28.268  27.070  1.00  0.00     0.023 C 
ENDROOT
BRANCH   1   2
ATOM      2  C   UNL A   1      33.243  28.151  27.173  1.00  0.00     0.023 C 
BRANCH   2   3
ATOM      3  C   UNL A   1      34.035  29.105  26.286  1.00  0.00     0.116 C 
BRANCH   3   4
ATOM      4  N   UNL A   1      33.886  30.494  26.689  1.00  0.00    -0.352 N 
ATOM      5  O   UNL A   1      34.215  32.338  27.933  1.00  0.00    -0.269 OA
ATOM      6  C   UNL A   1      34.608  31.220  27.603  1.00  0.00     0.251 C 
ATOM      7  H   UNL A   1      33.162  30.985  26.240  1.00  0.00     0.163 HD
BRANCH   6   8
ATOM      8  C   UNL A   1      35.830  30.648  28.201  1.00  0.00     0.039 A 
ATOM      9  C   UNL A   1      37.078  30.838  27.601  1.00  0.00     0.014 A 
ATOM     10  C   UNL A   1      35.725  29.919  29.389  1.00  0.00     0.014 A 
ATOM     11  C   UNL A   1      38.199  30.191  28.111  1.00  0.00     0.010 A 
ATOM     12  C   UNL A   1      36.864  29.335  29.942  1.00  0.00     0.010 A 
ATOM     13  C   UNL A   1      38.105  29.442  29.293  1.00  0.00    -0.014 A 
BRANCH  13  14
ATOM     14  C   UNL A   1      39.315  28.822  29.887  1.00  0.00     0.031 A 
ATOM     15  C   UNL A   1      39.961  29.413  31.108  1.00  0.00     0.074 A 
ATOM     16  C   UNL A   1      39.870  27.760  29.275  1.00  0.00     0.049 A 
ATOM     17  N   UNL A   1      41.077  29.068  31.697  1.00  0.00    -0.248 NA
ATOM     18  C   UNL A   1      39.270  30.546  31.742  1.00  0.00     0.031 C 
ATOM     19  C   UNL A   1      39.349  27.122  28.064  1.00  0.00     0.029 A 
ATOM     20  N   UNL A   1      41.013  27.055  29.557  1.00  0.00    -0.354 N 
ATOM     21  C   UNL A   1      41.252  29.972  32.738  1.00  0.00     0.074 A 
ATOM     22  C   UNL A   1      40.125  30.880  32.699  1.00  0.00     0.031 C 
ATOM     23  C   UNL A   1      40.178  26.136  27.695  1.00  0.00     0.029 A 
ATOM     24  C   UNL A   1      41.319  26.112  28.605  1.00  0.00     0.049 A 
ATOM     25  H   UNL A   1      41.560  27.211  30.362  1.00  0.00     0.167 HD
ATOM     26  C   UNL A   1      42.257  30.035  33.644  1.00  0.00     0.034 A 
ATOM     27  C   UNL A   1      42.413  25.345  28.447  1.00  0.00     0.034 A 
ATOM     28  C   UNL A   1      43.366  29.117  33.678  1.00  0.00     0.049 A 
ATOM     29  C   UNL A   1      43.519  25.433  29.458  1.00  0.00     0.074 A 
ATOM     30  C   UNL A   1      44.396  29.047  34.600  1.00  0.00     0.029 A 
ATOM     31  N   UNL A   1      43.606  28.129  32.735  1.00  0.00    -0.354 N 
ATOM     32  N   UNL A   1      43.609  26.209  30.511  1.00  0.00    -0.248 NA
ATOM     33  C   UNL A   1      44.660  24.524  29.281  1.00  0.00     0.031 C 
ATOM     34  C   UNL A   1      45.282  28.048  34.187  1.00  0.00     0.029 A 
ATOM     35  C   UNL A   1      44.778  27.458  33.039  1.00  0.00     0.049 A 
ATOM     36  H   UNL A   1      43.027  27.933  31.962  1.00  0.00     0.167 HD
ATOM     37  C   UNL A   1      44.794  25.857  31.144  1.00  0.00     0.074 A 
ATOM     38  C   UNL A   1      45.388  24.795  30.356  1.00  0.00     0.031 C 
ATOM     39  C   UNL A   1      45.337  26.370  32.274  1.00  0.00     0.034 A 
BRANCH  26  40
ATOM     40  C   UNL A   1      42.205  31.137  34.673  1.00  0.00     0.023 A 
ATOM     41  C   UNL A   1      41.607  30.903  35.929  1.00  0.00     0.012 A 
ATOM     42  C   UNL A   1      42.777  32.396  34.406  1.00  0.00     0.148 A 
ATOM     43  C   UNL A   1      41.533  31.920  36.881  1.00  0.00     0.002 A 
ATOM     44  C   UNL A   1      42.743  33.389  35.379  1.00  0.00     0.091 A 
ATOM     45  F   UNL A   1      43.326  32.610  33.202  1.00  0.00    -0.205 F 
ATOM     46  C   UNL A   1      42.107  33.159  36.609  1.00  0.00     0.022 A 
BRANCH  44  47
ATOM     47  S   UNL A   1      43.529  34.988  35.151  1.00  0.00     0.127 S 
ATOM     48  O   UNL A   1      43.120  35.693  36.365  1.00  0.00    -0.237 OA
ATOM     49  O   UNL A   1      44.948  34.632  35.103  1.00  0.00    -0.237 OA
ATOM     50  O   UNL A   1      42.998  35.520  33.904  1.00  0.00    -0.744 OA
ENDBRANCH  44  47
ENDBRANCH  26  40
BRANCH  27  51
ATOM     51  C   UNL A   1      42.487  24.423  27.281  1.00  0.00     0.023 A 
ATOM     52  C   UNL A   1      43.143  24.834  26.108  1.00  0.00     0.012 A 
ATOM     53  C   UNL A   1      41.991  23.107  27.372  1.00  0.00     0.148 A 
ATOM     54  C   UNL A   1      43.294  23.954  25.037  1.00  0.00     0.002 A 
ATOM     55  C   UNL A   1      42.195  22.219  26.324  1.00  0.00     0.091 A 
ATOM     56  F   UNL A   1      41.369  22.741  28.501  1.00  0.00    -0.205 F 
ATOM     57  C   UNL A   1      42.832  22.645  25.149  1.00  0.00     0.022 A 
BRANCH  55  58
ATOM     58  S   UNL A   1      41.765  20.478  26.434  1.00  0.00     0.127 S 
ATOM     59  O   UNL A   1      42.420  19.934  25.247  1.00  0.00    -0.237 OA
ATOM     60  O   UNL A   1      42.382  20.100  27.706  1.00  0.00    -0.237 OA
ATOM     61  O   UNL A   1      40.310  20.426  26.428  1.00  0.00    -0.744 OA
ENDBRANCH  55  58
ENDBRANCH  27  51
BRANCH  39  62
ATOM     62  C   UNL A   1      46.615  25.761  32.784  1.00  0.00     0.023 A 
ATOM     63  C   UNL A   1      47.860  26.314  32.425  1.00  0.00     0.012 A 
ATOM     64  C   UNL A   1      46.569  24.707  33.720  1.00  0.00     0.148 A 
ATOM     65  C   UNL A   1      49.039  25.818  32.982  1.00  0.00     0.002 A 
ATOM     66  C   UNL A   1      47.741  24.255  34.309  1.00  0.00     0.091 A 
ATOM     67  F   UNL A   1      45.373  24.184  34.031  1.00  0.00    -0.205 F 
ATOM     68  C   UNL A   1      48.979  24.802  33.933  1.00  0.00     0.022 A 
BRANCH  66  69
ATOM     69  S   UNL A   1      47.752  23.027  35.620  1.00  0.00     0.127 S 
ATOM     70  O   UNL A   1      49.166  22.660  35.672  1.00  0.00    -0.237 OA
ATOM     71  O   UNL A   1      47.278  23.799  36.769  1.00  0.00    -0.237 OA
ATOM     72  O   UNL A   1      46.853  21.965  35.189  1.00  0.00    -0.744 OA
ENDBRANCH  66  69
ENDBRANCH  39  62
ENDBRANCH  13  14
ENDBRANCH   6   8
ENDBRANCH   3   4
ENDBRANCH   2   3
ENDBRANCH   1   2
BRANCH   1  73
ATOM     73  C   UNL A   1      31.053  27.314  26.083  1.00  0.00     0.116 C 
BRANCH  73  74
ATOM     74  N   UNL A   1      30.828  25.998  26.644  1.00  0.00    -0.356 N 
ATOM     75  C   UNL A   1      31.574  24.867  26.497  1.00  0.00     0.223 C 
ATOM     76  H   UNL A   1      30.026  25.908  27.208  1.00  0.00     0.163 HD
ATOM     77  O   UNL A   1      31.312  23.912  27.230  1.00  0.00    -0.275 OA
BRANCH  75  78
ATOM     78  C   UNL A   1      32.649  24.800  25.408  1.00  0.00     0.078 C 
ATOM     79  C   UNL A   1      34.026  24.598  26.049  1.00  0.00     0.014 C 
ATOM     80  C   UNL A   1      32.278  23.701  24.400  1.00  0.00     0.014 C 
ATOM     81  C   UNL A   1      35.101  24.305  25.007  1.00  0.00     0.010 C 
ATOM     82  C   UNL A   1      33.423  23.094  23.585  1.00  0.00     0.010 C 
ATOM     83  C   UNL A   1      34.812  23.005  24.237  1.00  0.00     0.044 C 
BRANCH  83  84
ATOM     84  C   UNL A   1      35.139  21.788  25.144  1.00  0.00     0.263 C 
BRANCH  84  85
ATOM     85  N   UNL A   1      34.045  20.869  25.457  1.00  0.00    -0.346 N 
ATOM     86  H   UNL A   1      33.174  21.255  25.092  1.00  0.00     0.346 HD
ATOM     87  H   UNL A   1      33.997  20.760  26.470  1.00  0.00     0.346 HD
BRANCH  85  88
ATOM     88  C   UNL A   1      34.268  19.545  24.860  1.00  0.00     0.266 C 
BRANCH  88  89
ATOM     89  C   UNL A   1      33.038  18.699  24.419  1.00  0.00     0.070 C 
ATOM     90  C   UNL A   1      33.224  17.855  23.149  1.00  0.00     0.014 C 
ATOM     91  C   UNL A   1      32.520  17.800  25.543  1.00  0.00     0.169 C 
ATOM     92  C   UNL A   1      33.919  16.523  23.404  1.00  0.00     0.029 C 
ATOM     93  O   UNL A   1      33.410  16.711  25.775  1.00  0.00    -0.381 OA
ATOM     94  C   UNL A   1      33.436  15.818  24.662  1.00  0.00     0.160 C 
ENDBRANCH  88  89
ENDBRANCH  85  88
ENDBRANCH  84  85
ENDBRANCH  83  84
ENDBRANCH  75  78
ENDBRANCH  73  74
ENDBRANCH   1  73
TORSDOF 18
ENDMDL
MODEL 2
REMARK VINA RESULT:     -11.2      5.147      8.967
REMARK SMILES O=C(NCCCCNC(=O)[C@H]1CC[C@@H](C[NH2+]C[C@H]2CCCOC2)CC1)c1ccc(-c2c3nc(c(-c4cccc(S(=O)(=O)[O-])c4F)c4ccc([nH]4)c(-c4cccc(S(=O)(=O)[O-])c4F)c4nc(c(-c5cccc(S(=O)(=O)[O-])c5F)c5ccc2[nH]5)C=C4)C=C3)cc1
REMARK SMILES IDX 6 1 5 2 4 3 3 4 1 5 2 6 26 8 27 9 88 10 28 11 87 12 29 13
REMARK SMILES IDX 30 14 31 15 81 16 32 17 86 18 80 19 82 20 33 21 85 22 79 23
REMARK SMILES IDX 78 24 34 26 66 27 46 28 65 29 47 30 50 31 64 32 83 33 48 34
REMARK SMILES IDX 49 35 63 37 84 38 51 39 35 40 36 41 44 42 37 43 39 44 45 45
REMARK SMILES IDX 38 46 40 47 41 48 42 49 43 50 67 51 68 52 76 53 69 54 71 55
REMARK SMILES IDX 77 56 70 57 72 58 73 59 74 60 75 61 52 62 53 63 61 64 54 65
REMARK SMILES IDX 56 66 62 67 55 68 57 69 58 70 59 71 60 72 7 73 8 74 9 75
REMARK SMILES IDX 10 77 11 78 25 79 12 80 24 81 13 82 14 83 15 84 16 85 17 88
REMARK SMILES IDX 18 89 19 90 23 91 20 92 22 93 21 94
REMARK H PARENT 3 7 82 25 50 36 8 76 16 86 16 87
REMARK Flexibility Score: inf
ROOT
ATOM      1  C   UNL A   1      36.386  20.534  24.987  1.00  0.00     0.023 C 
ENDROOT
BRANCH   1   2
ATOM      2  C   UNL A   1      37.789  19.974  24.743  1.00  0.00     0.023 C 
BRANCH   2   3
ATOM      3  C   UNL A   1      38.847  20.390  25.758  1.00  0.00     0.116 C 
BRANCH   3   4
ATOM      4  N   UNL A   1      39.924  19.419  25.872  1.00  0.00    -0.352 N 
ATOM      5  O   UNL A   1      42.043  18.679  26.005  1.00  0.00    -0.269 OA
ATOM      6  C   UNL A   1      41.258  19.619  26.121  1.00  0.00     0.251 C 
ATOM      7  H   UNL A   1      39.655  18.480  25.751  1.00  0.00     0.163 HD
BRANCH   6   8
ATOM      8  C   UNL A   1      41.745  20.961  26.500  1.00  0.00     0.039 A 
ATOM      9  C   UNL A   1      42.108  21.244  27.820  1.00  0.00     0.014 A 
ATOM     10  C   UNL A   1      41.850  21.945  25.515  1.00  0.00     0.014 A 
ATOM     11  C   UNL A   1      42.448  22.544  28.182  1.00  0.00     0.010 A 
ATOM     12  C   UNL A   1      42.266  23.229  25.866  1.00  0.00     0.010 A 
ATOM     13  C   UNL A   1      42.541  23.547  27.206  1.00  0.00    -0.014 A 
BRANCH  13  14
ATOM     14  C   UNL A   1      42.986  24.913  27.575  1.00  0.00     0.031 A 
ATOM     15  C   UNL A   1      42.040  25.881  28.227  1.00  0.00     0.074 A 
ATOM     16  C   UNL A   1      44.235  25.300  27.252  1.00  0.00     0.049 A 
ATOM     17  N   UNL A   1      42.226  27.142  28.520  1.00  0.00    -0.248 NA
ATOM     18  C   UNL A   1      40.709  25.368  28.586  1.00  0.00     0.031 C 
ATOM     19  C   UNL A   1      45.229  24.456  26.586  1.00  0.00     0.029 A 
ATOM     20  N   UNL A   1      44.867  26.509  27.399  1.00  0.00    -0.354 N 
ATOM     21  C   UNL A   1      41.021  27.590  29.049  1.00  0.00     0.074 A 
ATOM     22  C   UNL A   1      40.112  26.463  29.036  1.00  0.00     0.031 C 
ATOM     23  C   UNL A   1      46.338  25.176  26.363  1.00  0.00     0.029 A 
ATOM     24  C   UNL A   1      46.110  26.545  26.814  1.00  0.00     0.049 A 
ATOM     25  H   UNL A   1      44.469  27.273  27.877  1.00  0.00     0.167 HD
ATOM     26  C   UNL A   1      40.706  28.826  29.505  1.00  0.00     0.034 A 
ATOM     27  C   UNL A   1      46.957  27.572  26.612  1.00  0.00     0.034 A 
ATOM     28  C   UNL A   1      41.624  29.934  29.523  1.00  0.00     0.049 A 
ATOM     29  C   UNL A   1      46.587  28.935  27.121  1.00  0.00     0.074 A 
ATOM     30  C   UNL A   1      41.427  31.205  30.035  1.00  0.00     0.029 A 
ATOM     31  N   UNL A   1      42.900  29.914  28.982  1.00  0.00    -0.354 N 
ATOM     32  N   UNL A   1      45.491  29.313  27.732  1.00  0.00    -0.248 NA
ATOM     33  C   UNL A   1      47.576  30.006  26.940  1.00  0.00     0.031 C 
ATOM     34  C   UNL A   1      42.568  31.966  29.761  1.00  0.00     0.029 A 
ATOM     35  C   UNL A   1      43.496  31.156  29.127  1.00  0.00     0.049 A 
ATOM     36  H   UNL A   1      43.322  29.132  28.557  1.00  0.00     0.167 HD
ATOM     37  C   UNL A   1      45.671  30.654  28.045  1.00  0.00     0.074 A 
ATOM     38  C   UNL A   1      46.986  31.022  27.556  1.00  0.00     0.031 C 
ATOM     39  C   UNL A   1      44.824  31.499  28.679  1.00  0.00     0.034 A 
BRANCH  26  40
ATOM     40  C   UNL A   1      39.305  29.045  30.022  1.00  0.00     0.023 A 
ATOM     41  C   UNL A   1      38.944  28.582  31.304  1.00  0.00     0.012 A 
ATOM     42  C   UNL A   1      38.354  29.738  29.247  1.00  0.00     0.148 A 
ATOM     43  C   UNL A   1      37.646  28.759  31.784  1.00  0.00     0.002 A 
ATOM     44  C   UNL A   1      37.077  29.954  29.753  1.00  0.00     0.091 A 
ATOM     45  F   UNL A   1      38.706  30.157  28.023  1.00  0.00    -0.205 F 
ATOM     46  C   UNL A   1      36.716  29.451  31.013  1.00  0.00     0.022 A 
BRANCH  44  47
ATOM     47  S   UNL A   1      35.838  30.908  28.867  1.00  0.00     0.127 S 
ATOM     48  O   UNL A   1      35.094  29.855  28.178  1.00  0.00    -0.237 OA
ATOM     49  O   UNL A   1      35.108  31.556  29.958  1.00  0.00    -0.237 OA
ATOM     50  O   UNL A   1      36.578  31.822  28.009  1.00  0.00    -0.744 OA
ENDBRANCH  44  47
ENDBRANCH  26  40
BRANCH  27  51
ATOM     51  C   UNL A   1      48.241  27.320  25.904  1.00  0.00     0.023 A 
ATOM     52  C   UNL A   1      49.334  26.789  26.610  1.00  0.00     0.012 A 
ATOM     53  C   UNL A   1      48.346  27.517  24.511  1.00  0.00     0.148 A 
ATOM     54  C   UNL A   1      50.518  26.469  25.944  1.00  0.00     0.002 A 
ATOM     55  C   UNL A   1      49.505  27.143  23.847  1.00  0.00     0.091 A 
ATOM     56  F   UNL A   1      47.289  28.025  23.862  1.00  0.00    -0.205 F 
ATOM     57  C   UNL A   1      50.599  26.633  24.564  1.00  0.00     0.022 A 
BRANCH  55  58
ATOM     58  S   UNL A   1      49.650  27.183  22.057  1.00  0.00     0.127 S 
ATOM     59  O   UNL A   1      49.383  28.589  21.767  1.00  0.00    -0.237 OA
ATOM     60  O   UNL A   1      51.040  26.767  21.862  1.00  0.00    -0.237 OA
ATOM     61  O   UNL A   1      48.660  26.241  21.556  1.00  0.00    -0.744 OA
ENDBRANCH  55  58
ENDBRANCH  27  51
BRANCH  39  62
ATOM     62  C   UNL A   1      45.295  32.903  28.949  1.00  0.00     0.023 A 
ATOM     63  C   UNL A   1      46.020  33.198  30.120  1.00  0.00     0.012 A 
ATOM     64  C   UNL A   1      45.117  33.905  27.973  1.00  0.00     0.148 A 
ATOM     65  C   UNL A   1      46.549  34.473  30.320  1.00  0.00     0.002 A 
ATOM     66  C   UNL A   1      45.692  35.155  28.155  1.00  0.00     0.091 A 
ATOM     67  F   UNL A   1      44.406  33.605  26.875  1.00  0.00    -0.205 F 
ATOM     68  C   UNL A   1      46.399  35.445  29.332  1.00  0.00     0.022 A 
BRANCH  66  69
ATOM     69  S   UNL A   1      45.642  36.433  26.892  1.00  0.00     0.127 S 
ATOM     70  O   UNL A   1      46.304  37.546  27.571  1.00  0.00    -0.237 OA
ATOM     71  O   UNL A   1      46.421  35.827  25.812  1.00  0.00    -0.237 OA
ATOM     72  O   UNL A   1      44.235  36.645  26.584  1.00  0.00    -0.744 OA
ENDBRANCH  66  69
ENDBRANCH  39  62
ENDBRANCH  13  14
ENDBRANCH   6   8
ENDBRANCH   3   4
ENDBRANCH   2   3
ENDBRANCH   1   2
BRANCH   1  73
ATOM     73  C   UNL A   1      36.157  21.965  24.506  1.00  0.00     0.116 C 
BRANCH  73  74
ATOM     74  N   UNL A   1      35.581  22.812  25.530  1.00  0.00    -0.356 N 
ATOM     75  C   UNL A   1      34.352  23.400  25.562  1.00  0.00     0.223 C 
ATOM     76  H   UNL A   1      36.156  22.988  26.309  1.00  0.00     0.163 HD
ATOM     77  O   UNL A   1      33.991  23.909  26.623  1.00  0.00    -0.275 OA
BRANCH  75  78
ATOM     78  C   UNL A   1      33.505  23.459  24.287  1.00  0.00     0.078 C 
ATOM     79  C   UNL A   1      32.061  23.054  24.604  1.00  0.00     0.014 C 
ATOM     80  C   UNL A   1      33.622  24.860  23.668  1.00  0.00     0.014 C 
ATOM     81  C   UNL A   1      31.128  23.306  23.424  1.00  0.00     0.010 C 
ATOM     82  C   UNL A   1      32.479  25.313  22.755  1.00  0.00     0.010 C 
ATOM     83  C   UNL A   1      31.063  24.797  23.055  1.00  0.00     0.044 C 
BRANCH  83  84
ATOM     84  C   UNL A   1      30.196  25.548  24.102  1.00  0.00     0.263 C 
BRANCH  84  85
ATOM     85  N   UNL A   1      30.803  26.692  24.782  1.00  0.00    -0.346 N 
ATOM     86  H   UNL A   1      30.104  27.428  24.880  1.00  0.00     0.346 HD
ATOM     87  H   UNL A   1      31.594  27.014  24.224  1.00  0.00     0.346 HD
BRANCH  85  88
ATOM     88  C   UNL A   1      31.299  26.323  26.116  1.00  0.00     0.266 C 
BRANCH  88  89
ATOM     89  C   UNL A   1      32.321  27.256  26.826  1.00  0.00     0.070 C 
ATOM     90  C   UNL A   1      33.684  27.409  26.135  1.00  0.00     0.014 C 
ATOM     91  C   UNL A   1      31.744  28.646  27.101  1.00  0.00     0.169 C 
ATOM     92  C   UNL A   1      33.681  28.439  25.012  1.00  0.00     0.029 C 
ATOM     93  O   UNL A   1      31.627  29.397  25.895  1.00  0.00    -0.381 OA
ATOM     94  C   UNL A   1      32.910  29.705  25.352  1.00  0.00     0.160 C 
ENDBRANCH  88  89
ENDBRANCH  85  88
ENDBRANCH  84  85
ENDBRANCH  83  84
ENDBRANCH  75  78
ENDBRANCH  73  74
ENDBRANCH   1  73
TORSDOF 18
ENDMDL
MODEL 3
REMARK VINA RESULT:     -11.0      4.749      8.652
REMARK SMILES O=C(NCCCCNC(=O)[C@H]1CC[C@@H](C[NH2+]C[C@H]2CCCOC2)CC1)c1ccc(-c2c3nc(c(-c4cccc(S(=O)(=O)[O-])c4F)c4ccc([nH]4)c(-c4cccc(S(=O)(=O)[O-])c4F)c4nc(c(-c5cccc(S(=O)(=O)[O-])c5F)c5ccc2[nH]5)C=C4)C=C3)cc1
REMARK SMILES IDX 6 1 5 2 4 3 3 4 1 5 2 6 26 8 27 9 88 10 28 11 87 12 29 13
REMARK SMILES IDX 30 14 31 15 81 16 32 17 86 18 80 19 82 20 33 21 85 22 79 23
REMARK SMILES IDX 78 24 34 26 66 27 46 28 65 29 47 30 50 31 64 32 83 33 48 34
REMARK SMILES IDX 49 35 63 37 84 38 51 39 35 40 36 41 44 42 37 43 39 44 45 45
REMARK SMILES IDX 38 46 40 47 41 48 42 49 43 50 67 51 68 52 76 53 69 54 71 55
REMARK SMILES IDX 77 56 70 57 72 58 73 59 74 60 75 61 52 62 53 63 61 64 54 65
REMARK SMILES IDX 56 66 62 67 55 68 57 69 58 70 59 71 60 72 7 73 8 74 9 75
REMARK SMILES IDX 10 77 11 78 25 79 12 80 24 81 13 82 14 83 15 84 16 85 17 88
REMARK SMILES IDX 18 89 19 90 23 91 20 92 22 93 21 94
REMARK H PARENT 3 7 82 25 50 36 8 76 16 86 16 87
REMARK Flexibility Score: inf
ROOT
ATOM      1  C   UNL A   1      33.501  21.728  25.446  1.00  0.00     0.023 C 
ENDROOT
BRANCH   1   2
ATOM      2  C   UNL A   1      34.749  22.536  25.083  1.00  0.00     0.023 C 
BRANCH   2   3
ATOM      3  C   UNL A   1      35.872  22.508  26.115  1.00  0.00     0.116 C 
BRANCH   3   4
ATOM      4  N   UNL A   1      36.823  21.435  25.874  1.00  0.00    -0.352 N 
ATOM      5  O   UNL A   1      38.825  20.489  25.487  1.00  0.00    -0.269 OA
ATOM      6  C   UNL A   1      38.195  21.465  25.889  1.00  0.00     0.251 C 
ATOM      7  H   UNL A   1      36.424  20.559  25.671  1.00  0.00     0.163 HD
BRANCH   6   8
ATOM      8  C   UNL A   1      38.902  22.673  26.360  1.00  0.00     0.039 A 
ATOM      9  C   UNL A   1      38.515  23.944  25.927  1.00  0.00     0.014 A 
ATOM     10  C   UNL A   1      39.962  22.528  27.259  1.00  0.00     0.014 A 
ATOM     11  C   UNL A   1      39.268  25.058  26.286  1.00  0.00     0.010 A 
ATOM     12  C   UNL A   1      40.668  23.655  27.678  1.00  0.00     0.010 A 
ATOM     13  C   UNL A   1      40.346  24.926  27.174  1.00  0.00    -0.014 A 
BRANCH  13  14
ATOM     14  C   UNL A   1      41.097  26.123  27.626  1.00  0.00     0.031 A 
ATOM     15  C   UNL A   1      40.415  27.208  28.409  1.00  0.00     0.074 A 
ATOM     16  C   UNL A   1      42.386  26.258  27.262  1.00  0.00     0.049 A 
ATOM     17  N   UNL A   1      40.886  28.366  28.793  1.00  0.00    -0.248 NA
ATOM     18  C   UNL A   1      39.018  26.965  28.802  1.00  0.00     0.031 C 
ATOM     19  C   UNL A   1      43.142  25.283  26.472  1.00  0.00     0.029 A 
ATOM     20  N   UNL A   1      43.276  27.282  27.470  1.00  0.00    -0.354 N 
ATOM     21  C   UNL A   1      39.833  29.014  29.426  1.00  0.00     0.074 A 
ATOM     22  C   UNL A   1      38.697  28.117  29.375  1.00  0.00     0.031 C 
ATOM     23  C   UNL A   1      44.373  25.764  26.244  1.00  0.00     0.029 A 
ATOM     24  C   UNL A   1      44.472  27.102  26.817  1.00  0.00     0.049 A 
ATOM     25  H   UNL A   1      43.076  28.066  28.031  1.00  0.00     0.167 HD
ATOM     26  C   UNL A   1      39.816  30.241  30.000  1.00  0.00     0.034 A 
ATOM     27  C   UNL A   1      45.516  27.935  26.651  1.00  0.00     0.034 A 
ATOM     28  C   UNL A   1      40.957  31.117  30.054  1.00  0.00     0.049 A 
ATOM     29  C   UNL A   1      45.477  29.292  27.289  1.00  0.00     0.074 A 
ATOM     30  C   UNL A   1      41.067  32.347  30.678  1.00  0.00     0.029 A 
ATOM     31  N   UNL A   1      42.175  30.871  29.439  1.00  0.00    -0.354 N 
ATOM     32  N   UNL A   1      44.517  29.841  27.994  1.00  0.00    -0.248 NA
ATOM     33  C   UNL A   1      46.670  30.136  27.139  1.00  0.00     0.031 C 
ATOM     34  C   UNL A   1      42.336  32.865  30.400  1.00  0.00     0.029 A 
ATOM     35  C   UNL A   1      43.036  31.935  29.649  1.00  0.00     0.049 A 
ATOM     36  H   UNL A   1      42.396  30.059  28.927  1.00  0.00     0.167 HD
ATOM     37  C   UNL A   1      45.002  31.076  28.403  1.00  0.00     0.074 A 
ATOM     38  C   UNL A   1      46.345  31.194  27.869  1.00  0.00     0.031 C 
ATOM     39  C   UNL A   1      44.388  32.023  29.153  1.00  0.00     0.034 A 
BRANCH  26  40
ATOM     40  C   UNL A   1      38.520  30.710  30.614  1.00  0.00     0.023 A 
ATOM     41  C   UNL A   1      38.256  30.467  31.978  1.00  0.00     0.012 A 
ATOM     42  C   UNL A   1      37.577  31.420  29.845  1.00  0.00     0.148 A 
ATOM     43  C   UNL A   1      37.052  30.876  32.552  1.00  0.00     0.002 A 
ATOM     44  C   UNL A   1      36.401  31.867  30.438  1.00  0.00     0.091 A 
ATOM     45  F   UNL A   1      37.834  31.628  28.546  1.00  0.00    -0.205 F 
ATOM     46  C   UNL A   1      36.130  31.582  31.785  1.00  0.00     0.022 A 
BRANCH  44  47
ATOM     47  S   UNL A   1      35.192  32.857  29.551  1.00  0.00     0.127 S 
ATOM     48  O   UNL A   1      34.735  31.917  28.529  1.00  0.00    -0.237 OA
ATOM     49  O   UNL A   1      34.207  33.150  30.593  1.00  0.00    -0.237 OA
ATOM     50  O   UNL A   1      35.914  34.022  29.058  1.00  0.00    -0.744 OA
ENDBRANCH  44  47
ENDBRANCH  26  40
BRANCH  27  51
ATOM     51  C   UNL A   1      46.684  27.477  25.849  1.00  0.00     0.023 A 
ATOM     52  C   UNL A   1      46.755  27.789  24.480  1.00  0.00     0.012 A 
ATOM     53  C   UNL A   1      47.767  26.819  26.467  1.00  0.00     0.148 A 
ATOM     54  C   UNL A   1      47.880  27.440  23.733  1.00  0.00     0.002 A 
ATOM     55  C   UNL A   1      48.906  26.526  25.730  1.00  0.00     0.091 A 
ATOM     56  F   UNL A   1      47.673  26.533  27.773  1.00  0.00    -0.205 F 
ATOM     57  C   UNL A   1      48.959  26.822  24.359  1.00  0.00     0.022 A 
BRANCH  55  58
ATOM     58  S   UNL A   1      50.399  25.864  26.480  1.00  0.00     0.127 S 
ATOM     59  O   UNL A   1      51.210  25.554  25.305  1.00  0.00    -0.237 OA
ATOM     60  O   UNL A   1      50.867  27.004  27.268  1.00  0.00    -0.237 OA
ATOM     61  O   UNL A   1      49.973  24.716  27.267  1.00  0.00    -0.744 OA
ENDBRANCH  55  58
ENDBRANCH  27  51
BRANCH  39  62
ATOM     62  C   UNL A   1      45.168  33.260  29.508  1.00  0.00     0.023 A 
ATOM     63  C   UNL A   1      45.969  33.288  30.667  1.00  0.00     0.012 A 
ATOM     64  C   UNL A   1      45.196  34.354  28.619  1.00  0.00     0.148 A 
ATOM     65  C   UNL A   1      46.776  34.392  30.940  1.00  0.00     0.002 A 
ATOM     66  C   UNL A   1      46.041  35.426  28.871  1.00  0.00     0.091 A 
ATOM     67  F   UNL A   1      44.409  34.311  27.533  1.00  0.00    -0.205 F 
ATOM     68  C   UNL A   1      46.823  35.452  30.036  1.00  0.00     0.022 A 
BRANCH  66  69
ATOM     69  S   UNL A   1      46.248  36.783  27.713  1.00  0.00     0.127 S 
ATOM     70  O   UNL A   1      45.054  37.585  27.978  1.00  0.00    -0.237 OA
ATOM     71  O   UNL A   1      47.502  37.386  28.167  1.00  0.00    -0.237 OA
ATOM     72  O   UNL A   1      46.307  36.181  26.387  1.00  0.00    -0.744 OA
ENDBRANCH  66  69
ENDBRANCH  39  62
ENDBRANCH  13  14
ENDBRANCH   6   8
ENDBRANCH   3   4
ENDBRANCH   2   3
ENDBRANCH   1   2
BRANCH   1  73
ATOM     73  C   UNL A   1      32.329  22.539  25.993  1.00  0.00     0.116 C 
BRANCH  73  74
ATOM     74  N   UNL A   1      31.575  23.202  24.950  1.00  0.00    -0.356 N 
ATOM     75  C   UNL A   1      31.552  24.524  24.621  1.00  0.00     0.223 C 
ATOM     76  H   UNL A   1      31.001  22.619  24.405  1.00  0.00     0.163 HD
ATOM     77  O   UNL A   1      30.999  24.840  23.568  1.00  0.00    -0.275 OA
BRANCH  75  78
ATOM     78  C   UNL A   1      32.148  25.557  25.582  1.00  0.00     0.078 C 
ATOM     79  C   UNL A   1      33.247  26.355  24.872  1.00  0.00     0.014 C 
ATOM     80  C   UNL A   1      31.020  26.439  26.139  1.00  0.00     0.014 C 
ATOM     81  C   UNL A   1      33.721  27.540  25.707  1.00  0.00     0.010 C 
ATOM     82  C   UNL A   1      31.412  27.828  26.648  1.00  0.00     0.010 C 
ATOM     83  C   UNL A   1      32.588  28.546  25.967  1.00  0.00     0.044 C 
BRANCH  83  84
ATOM     84  C   UNL A   1      32.322  29.364  24.674  1.00  0.00     0.263 C 
BRANCH  84  85
ATOM     85  N   UNL A   1      31.111  30.182  24.633  1.00  0.00    -0.346 N 
ATOM     86  H   UNL A   1      31.375  31.160  24.520  1.00  0.00     0.346 HD
ATOM     87  H   UNL A   1      30.599  30.042  25.505  1.00  0.00     0.346 HD
BRANCH  85  88
ATOM     88  C   UNL A   1      30.236  29.792  23.518  1.00  0.00     0.266 C 
BRANCH  88  89
ATOM     89  C   UNL A   1      28.777  30.330  23.478  1.00  0.00     0.070 C 
ATOM     90  C   UNL A   1      28.627  31.854  23.358  1.00  0.00     0.014 C 
ATOM     91  C   UNL A   1      27.941  29.660  22.386  1.00  0.00     0.169 C 
ATOM     92  C   UNL A   1      28.744  32.362  21.926  1.00  0.00     0.029 C 
ATOM     93  O   UNL A   1      28.333  30.115  21.093  1.00  0.00    -0.381 OA
ATOM     94  C   UNL A   1      28.015  31.494  20.912  1.00  0.00     0.160 C 
ENDBRANCH  88  89
ENDBRANCH  85  88
ENDBRANCH  84  85
ENDBRANCH  83  84
ENDBRANCH  75  78
ENDBRANCH  73  74
ENDBRANCH   1  73
TORSDOF 18
ENDMDL
