MODEL 1
REMARK VINA RESULT:     -12.0      0.000      0.000
REMARK SMILES CCc1ccc(C(=O)N2CC[C@H](C(=O)NCCCCNC(=O)c3ccc(-c4c5nc(c(-c6cccc(S(=O)(=O)[O-])c6F)c6ccc([nH]6)c(-c6cccc(S(=O)(=O)[O-])c6F)c6nc(c(-c7cccc(S(=O)(=O)[O-])c7F)c7ccc4[nH]7)C=C6)C=C5)cc3)[C@@H]2C)s1
REMARK SMILES IDX 17 1 16 2 15 3 13 4 14 5 12 7 9 8 10 9 86 10 11 11 87 12
REMARK SMILES IDX 7 13 8 14 6 15 3 16 4 17 88 18 5 19 2 20 1 21 18 22 19 23
REMARK SMILES IDX 20 24 21 25 22 27 23 28 24 29 85 30 25 31 84 32 26 33 27 34
REMARK SMILES IDX 28 35 78 36 29 37 83 38 77 39 79 40 30 41 82 42 76 43 75 44
REMARK SMILES IDX 31 46 63 47 43 48 62 49 44 50 47 51 61 52 80 53 45 54 46 55
REMARK SMILES IDX 60 57 81 58 48 59 32 60 33 61 41 62 34 63 36 64 42 65 35 66
REMARK SMILES IDX 37 67 38 68 39 69 40 70 64 71 65 72 73 73 66 74 68 75 74 76
REMARK SMILES IDX 67 77 69 78 70 79 71 80 72 81 49 82 50 83 58 84 51 85 53 86
REMARK SMILES IDX 59 87 52 88 54 89 55 90 56 91 57 92
REMARK H PARENT 15 6 20 26 79 45 47 56
REMARK Flexibility Score: inf
ROOT
ATOM      1  C   UNL A   1      32.616  29.327  24.224  1.00  0.00     0.023 C 
ENDROOT
BRANCH   1   2
ATOM      2  C   UNL A   1      31.944  28.963  22.899  1.00  0.00     0.116 C 
BRANCH   2   3
ATOM      3  N   UNL A   1      32.738  27.989  22.177  1.00  0.00    -0.356 N 
ATOM      4  C   UNL A   1      32.898  26.653  22.388  1.00  0.00     0.225 C 
ATOM      5  O   UNL A   1      33.749  26.064  21.722  1.00  0.00    -0.275 OA
ATOM      6  H   UNL A   1      33.243  28.350  21.412  1.00  0.00     0.163 HD
BRANCH   4   7
ATOM      7  C   UNL A   1      31.990  25.924  23.372  1.00  0.00     0.102 C 
ATOM      8  N   UNL A   1      32.532  23.901  24.531  1.00  0.00    -0.334 N 
ATOM      9  C   UNL A   1      32.287  23.547  23.152  1.00  0.00     0.121 C 
ATOM     10  C   UNL A   1      32.626  25.358  24.669  1.00  0.00     0.094 C 
ATOM     11  C   UNL A   1      31.377  24.675  22.700  1.00  0.00     0.037 C 
ATOM     12  C   UNL A   1      34.066  25.753  24.978  1.00  0.00     0.032 C 
BRANCH   8  13
ATOM     13  C   UNL A   1      32.689  22.928  25.511  1.00  0.00     0.264 C 
ATOM     14  O   UNL A   1      32.213  23.094  26.635  1.00  0.00    -0.268 OA
BRANCH  13  15
ATOM     15  C   UNL A   1      33.506  21.767  25.180  1.00  0.00     0.092 A 
ATOM     16  C   UNL A   1      34.250  19.468  24.628  1.00  0.00     0.005 A 
ATOM     17  C   UNL A   1      35.300  20.282  25.001  1.00  0.00     0.016 A 
ATOM     18  S   UNL A   1      32.763  20.321  24.641  1.00  0.00    -0.135 S 
ATOM     19  C   UNL A   1      34.870  21.596  25.335  1.00  0.00     0.026 A 
BRANCH  16  20
ATOM     20  C   UNL A   1      34.291  18.006  24.294  1.00  0.00     0.043 C 
ATOM     21  C   UNL A   1      32.906  17.377  24.275  1.00  0.00     0.010 C 
ENDBRANCH  16  20
ENDBRANCH  13  15
ENDBRANCH   8  13
ENDBRANCH   4   7
ENDBRANCH   2   3
ENDBRANCH   1   2
BRANCH   1  22
ATOM     22  C   UNL A   1      31.702  29.260  25.445  1.00  0.00     0.023 C 
BRANCH  22  23
ATOM     23  C   UNL A   1      32.313  29.820  26.720  1.00  0.00     0.116 C 
BRANCH  23  24
ATOM     24  N   UNL A   1      32.348  31.277  26.723  1.00  0.00    -0.352 N 
ATOM     25  C   UNL A   1      33.266  32.122  27.302  1.00  0.00     0.251 C 
ATOM     26  H   UNL A   1      31.610  31.719  26.244  1.00  0.00     0.163 HD
ATOM     27  O   UNL A   1      33.043  33.328  27.356  1.00  0.00    -0.269 OA
BRANCH  25  28
ATOM     28  C   UNL A   1      34.509  31.565  27.873  1.00  0.00     0.039 A 
ATOM     29  C   UNL A   1      35.582  32.418  28.143  1.00  0.00     0.014 A 
ATOM     30  C   UNL A   1      34.598  30.202  28.167  1.00  0.00     0.014 A 
ATOM     31  C   UNL A   1      36.719  31.915  28.781  1.00  0.00     0.010 A 
ATOM     32  C   UNL A   1      35.691  29.723  28.877  1.00  0.00     0.010 A 
ATOM     33  C   UNL A   1      36.764  30.572  29.186  1.00  0.00    -0.014 A 
BRANCH  33  34
ATOM     34  C   UNL A   1      37.923  30.009  29.924  1.00  0.00     0.031 A 
ATOM     35  C   UNL A   1      38.184  30.449  31.339  1.00  0.00     0.074 A 
ATOM     36  C   UNL A   1      38.806  29.217  29.284  1.00  0.00     0.049 A 
ATOM     37  N   UNL A   1      39.221  30.213  32.098  1.00  0.00    -0.248 NA
ATOM     38  C   UNL A   1      37.164  31.308  31.968  1.00  0.00     0.031 C 
ATOM     39  C   UNL A   1      38.712  28.795  27.886  1.00  0.00     0.029 A 
ATOM     40  N   UNL A   1      39.977  28.651  29.722  1.00  0.00    -0.354 N 
ATOM     41  C   UNL A   1      39.015  30.950  33.257  1.00  0.00     0.074 A 
ATOM     42  C   UNL A   1      37.760  31.651  33.100  1.00  0.00     0.031 C 
ATOM     43  C   UNL A   1      39.778  28.034  27.582  1.00  0.00     0.029 A 
ATOM     44  C   UNL A   1      40.640  27.931  28.756  1.00  0.00     0.049 A 
ATOM     45  H   UNL A   1      40.312  28.752  30.643  1.00  0.00     0.167 HD
ATOM     46  C   UNL A   1      39.786  31.013  34.368  1.00  0.00     0.034 A 
ATOM     47  C   UNL A   1      41.807  27.261  28.812  1.00  0.00     0.034 A 
ATOM     48  C   UNL A   1      40.970  30.226  34.566  1.00  0.00     0.049 A 
ATOM     49  C   UNL A   1      42.568  27.232  30.110  1.00  0.00     0.074 A 
ATOM     50  C   UNL A   1      41.760  30.129  35.699  1.00  0.00     0.029 A 
ATOM     51  N   UNL A   1      41.518  29.378  33.619  1.00  0.00    -0.354 N 
ATOM     52  N   UNL A   1      42.280  27.819  31.247  1.00  0.00    -0.248 NA
ATOM     53  C   UNL A   1      43.793  26.419  30.148  1.00  0.00     0.031 C 
ATOM     54  C   UNL A   1      42.776  29.202  35.440  1.00  0.00     0.029 A 
ATOM     55  C   UNL A   1      42.623  28.735  34.144  1.00  0.00     0.049 A 
ATOM     56  H   UNL A   1      41.172  29.251  32.706  1.00  0.00     0.167 HD
ATOM     57  C   UNL A   1      43.266  27.423  32.141  1.00  0.00     0.074 A 
ATOM     58  C   UNL A   1      44.151  26.530  31.421  1.00  0.00     0.031 C 
ATOM     59  C   UNL A   1      43.439  27.786  33.434  1.00  0.00     0.034 A 
BRANCH  46  60
ATOM     60  C   UNL A   1      39.319  31.900  35.490  1.00  0.00     0.023 A 
ATOM     61  C   UNL A   1      39.631  33.272  35.454  1.00  0.00     0.012 A 
ATOM     62  C   UNL A   1      38.541  31.391  36.547  1.00  0.00     0.148 A 
ATOM     63  C   UNL A   1      39.198  34.124  36.468  1.00  0.00     0.002 A 
ATOM     64  C   UNL A   1      38.086  32.253  37.538  1.00  0.00     0.091 A 
ATOM     65  F   UNL A   1      38.280  30.076  36.579  1.00  0.00    -0.205 F 
ATOM     66  C   UNL A   1      38.418  33.617  37.504  1.00  0.00     0.022 A 
BRANCH  64  67
ATOM     67  S   UNL A   1      37.024  31.699  38.879  1.00  0.00     0.127 S 
ATOM     68  O   UNL A   1      36.707  30.335  38.460  1.00  0.00    -0.237 OA
ATOM     69  O   UNL A   1      37.910  31.790  40.040  1.00  0.00    -0.237 OA
ATOM     70  O   UNL A   1      35.903  32.629  38.903  1.00  0.00    -0.744 OA
ENDBRANCH  64  67
ENDBRANCH  46  60
BRANCH  47  71
ATOM     71  C   UNL A   1      42.268  26.473  27.637  1.00  0.00     0.023 A 
ATOM     72  C   UNL A   1      43.085  27.100  26.675  1.00  0.00     0.012 A 
ATOM     73  C   UNL A   1      41.948  25.112  27.479  1.00  0.00     0.148 A 
ATOM     74  C   UNL A   1      43.554  26.395  25.568  1.00  0.00     0.002 A 
ATOM     75  C   UNL A   1      42.456  24.402  26.394  1.00  0.00     0.091 A 
ATOM     76  F   UNL A   1      41.156  24.527  28.390  1.00  0.00    -0.205 F 
ATOM     77  C   UNL A   1      43.248  25.043  25.431  1.00  0.00     0.022 A 
BRANCH  75  78
ATOM     78  S   UNL A   1      42.195  22.631  26.246  1.00  0.00     0.127 S 
ATOM     79  O   UNL A   1      42.796  22.130  27.477  1.00  0.00    -0.237 OA
ATOM     80  O   UNL A   1      40.736  22.524  26.186  1.00  0.00    -0.237 OA
ATOM     81  O   UNL A   1      42.865  22.270  25.001  1.00  0.00    -0.744 OA
ENDBRANCH  75  78
ENDBRANCH  47  71
BRANCH  59  82
ATOM     82  C   UNL A   1      44.607  27.199  34.174  1.00  0.00     0.023 A 
ATOM     83  C   UNL A   1      45.857  27.843  34.109  1.00  0.00     0.012 A 
ATOM     84  C   UNL A   1      44.445  26.078  35.009  1.00  0.00     0.148 A 
ATOM     85  C   UNL A   1      46.934  27.371  34.855  1.00  0.00     0.002 A 
ATOM     86  C   UNL A   1      45.516  25.632  35.777  1.00  0.00     0.091 A 
ATOM     87  F   UNL A   1      43.253  25.463  35.037  1.00  0.00    -0.205 F 
ATOM     88  C   UNL A   1      46.761  26.275  35.699  1.00  0.00     0.022 A 
BRANCH  86  89
ATOM     89  S   UNL A   1      45.333  24.279  36.944  1.00  0.00     0.127 S 
ATOM     90  O   UNL A   1      44.207  24.731  37.757  1.00  0.00    -0.237 OA
ATOM     91  O   UNL A   1      45.036  23.140  36.071  1.00  0.00    -0.237 OA
ATOM     92  O   UNL A   1      46.617  24.183  37.628  1.00  0.00    -0.744 OA
ENDBRANCH  86  89
ENDBRANCH  59  82
ENDBRANCH  33  34
ENDBRANCH  25  28
ENDBRANCH  23  24
ENDBRANCH  22  23
ENDBRANCH   1  22
TORSDOF 17
ENDMDL
MODEL 2
REMARK VINA RESULT:     -11.9      1.608      7.745
REMARK SMILES CCc1ccc(C(=O)N2CC[C@H](C(=O)NCCCCNC(=O)c3ccc(-c4c5nc(c(-c6cccc(S(=O)(=O)[O-])c6F)c6ccc([nH]6)c(-c6cccc(S(=O)(=O)[O-])c6F)c6nc(c(-c7cccc(S(=O)(=O)[O-])c7F)c7ccc4[nH]7)C=C6)C=C5)cc3)[C@@H]2C)s1
REMARK SMILES IDX 17 1 16 2 15 3 13 4 14 5 12 7 9 8 10 9 86 10 11 11 87 12
REMARK SMILES IDX 7 13 8 14 6 15 3 16 4 17 88 18 5 19 2 20 1 21 18 22 19 23
REMARK SMILES IDX 20 24 21 25 22 27 23 28 24 29 85 30 25 31 84 32 26 33 27 34
REMARK SMILES IDX 28 35 78 36 29 37 83 38 77 39 79 40 30 41 82 42 76 43 75 44
REMARK SMILES IDX 31 46 63 47 43 48 62 49 44 50 47 51 61 52 80 53 45 54 46 55
REMARK SMILES IDX 60 57 81 58 48 59 32 60 33 61 41 62 34 63 36 64 42 65 35 66
REMARK SMILES IDX 37 67 38 68 39 69 40 70 64 71 65 72 73 73 66 74 68 75 74 76
REMARK SMILES IDX 67 77 69 78 70 79 71 80 72 81 49 82 50 83 58 84 51 85 53 86
REMARK SMILES IDX 59 87 52 88 54 89 55 90 56 91 57 92
REMARK H PARENT 15 6 20 26 79 45 47 56
REMARK Flexibility Score: inf
ROOT
ATOM      1  C   UNL A   1      31.231  28.896  23.737  1.00  0.00     0.023 C 
ENDROOT
BRANCH   1   2
ATOM      2  C   UNL A   1      30.963  27.751  22.758  1.00  0.00     0.116 C 
BRANCH   2   3
ATOM      3  N   UNL A   1      32.184  27.369  22.076  1.00  0.00    -0.356 N 
ATOM      4  C   UNL A   1      32.946  26.247  22.196  1.00  0.00     0.225 C 
ATOM      5  O   UNL A   1      34.027  26.221  21.609  1.00  0.00    -0.275 OA
ATOM      6  H   UNL A   1      32.516  28.026  21.422  1.00  0.00     0.163 HD
BRANCH   4   7
ATOM      7  C   UNL A   1      32.420  25.051  22.982  1.00  0.00     0.102 C 
ATOM      8  N   UNL A   1      33.763  23.451  24.150  1.00  0.00    -0.334 N 
ATOM      9  C   UNL A   1      33.923  23.188  22.738  1.00  0.00     0.121 C 
ATOM     10  C   UNL A   1      33.076  24.731  24.351  1.00  0.00     0.094 C 
ATOM     11  C   UNL A   1      32.632  23.753  22.171  1.00  0.00     0.037 C 
ATOM     12  C   UNL A   1      34.051  25.755  24.921  1.00  0.00     0.032 C 
BRANCH   8  13
ATOM     13  C   UNL A   1      34.265  22.580  25.110  1.00  0.00     0.264 C 
ATOM     14  O   UNL A   1      35.157  22.945  25.877  1.00  0.00    -0.268 OA
BRANCH  13  15
ATOM     15  C   UNL A   1      33.760  21.212  25.104  1.00  0.00     0.092 A 
ATOM     16  C   UNL A   1      33.566  18.755  24.842  1.00  0.00     0.005 A 
ATOM     17  C   UNL A   1      32.338  19.362  25.008  1.00  0.00     0.016 A 
ATOM     18  S   UNL A   1      34.841  19.900  24.898  1.00  0.00    -0.135 S 
ATOM     19  C   UNL A   1      32.448  20.774  25.140  1.00  0.00     0.026 A 
BRANCH  16  20
ATOM     20  C   UNL A   1      33.849  17.305  24.585  1.00  0.00     0.043 C 
ATOM     21  C   UNL A   1      34.162  17.027  23.122  1.00  0.00     0.010 C 
ENDBRANCH  16  20
ENDBRANCH  13  15
ENDBRANCH   8  13
ENDBRANCH   4   7
ENDBRANCH   2   3
ENDBRANCH   1   2
BRANCH   1  22
ATOM     22  C   UNL A   1      31.811  28.466  25.082  1.00  0.00     0.023 C 
BRANCH  22  23
ATOM     23  C   UNL A   1      32.925  29.362  25.600  1.00  0.00     0.116 C 
BRANCH  23  24
ATOM     24  N   UNL A   1      32.430  30.654  26.057  1.00  0.00    -0.352 N 
ATOM     25  C   UNL A   1      32.947  31.493  27.016  1.00  0.00     0.251 C 
ATOM     26  H   UNL A   1      31.608  30.972  25.617  1.00  0.00     0.163 HD
ATOM     27  O   UNL A   1      32.300  32.464  27.399  1.00  0.00    -0.269 OA
BRANCH  25  28
ATOM     28  C   UNL A   1      34.276  31.205  27.594  1.00  0.00     0.039 A 
ATOM     29  C   UNL A   1      35.202  32.242  27.732  1.00  0.00     0.014 A 
ATOM     30  C   UNL A   1      34.590  29.915  28.025  1.00  0.00     0.014 A 
ATOM     31  C   UNL A   1      36.419  31.998  28.375  1.00  0.00     0.010 A 
ATOM     32  C   UNL A   1      35.761  29.695  28.740  1.00  0.00     0.010 A 
ATOM     33  C   UNL A   1      36.690  30.732  28.916  1.00  0.00    -0.014 A 
BRANCH  33  34
ATOM     34  C   UNL A   1      37.939  30.444  29.663  1.00  0.00     0.031 A 
ATOM     35  C   UNL A   1      38.964  29.519  29.063  1.00  0.00     0.074 A 
ATOM     36  C   UNL A   1      38.090  30.900  30.922  1.00  0.00     0.049 A 
ATOM     37  N   UNL A   1      40.033  29.007  29.612  1.00  0.00    -0.248 NA
ATOM     38  C   UNL A   1      38.728  29.073  27.679  1.00  0.00     0.031 C 
ATOM     39  C   UNL A   1      37.125  31.729  31.648  1.00  0.00     0.029 A 
ATOM     40  N   UNL A   1      39.101  30.701  31.828  1.00  0.00    -0.354 N 
ATOM     41  C   UNL A   1      40.554  28.126  28.672  1.00  0.00     0.074 A 
ATOM     42  C   UNL A   1      39.679  28.164  27.521  1.00  0.00     0.031 C 
ATOM     43  C   UNL A   1      37.593  31.971  32.884  1.00  0.00     0.029 A 
ATOM     44  C   UNL A   1      38.879  31.299  33.047  1.00  0.00     0.049 A 
ATOM     45  H   UNL A   1      39.911  30.178  31.625  1.00  0.00     0.167 HD
ATOM     46  C   UNL A   1      41.679  27.377  28.745  1.00  0.00     0.034 A 
ATOM     47  C   UNL A   1      39.629  31.307  34.166  1.00  0.00     0.034 A 
ATOM     48  C   UNL A   1      42.607  27.432  29.840  1.00  0.00     0.049 A 
ATOM     49  C   UNL A   1      40.947  30.582  34.164  1.00  0.00     0.074 A 
ATOM     50  C   UNL A   1      43.832  26.801  29.962  1.00  0.00     0.029 A 
ATOM     51  N   UNL A   1      42.424  28.183  30.989  1.00  0.00    -0.354 N 
ATOM     52  N   UNL A   1      41.494  29.871  33.208  1.00  0.00    -0.248 NA
ATOM     53  C   UNL A   1      41.770  30.688  35.379  1.00  0.00     0.031 C 
ATOM     54  C   UNL A   1      44.401  27.191  31.180  1.00  0.00     0.029 A 
ATOM     55  C   UNL A   1      43.521  28.051  31.818  1.00  0.00     0.049 A 
ATOM     56  H   UNL A   1      41.629  28.730  31.186  1.00  0.00     0.167 HD
ATOM     57  C   UNL A   1      42.734  29.473  33.690  1.00  0.00     0.074 A 
ATOM     58  C   UNL A   1      42.869  30.037  35.018  1.00  0.00     0.031 C 
ATOM     59  C   UNL A   1      43.668  28.691  33.099  1.00  0.00     0.034 A 
BRANCH  46  60
ATOM     60  C   UNL A   1      42.011  26.503  27.568  1.00  0.00     0.023 A 
ATOM     61  C   UNL A   1      42.701  27.061  26.474  1.00  0.00     0.012 A 
ATOM     62  C   UNL A   1      41.686  25.133  27.560  1.00  0.00     0.148 A 
ATOM     63  C   UNL A   1      43.042  26.274  25.375  1.00  0.00     0.002 A 
ATOM     64  C   UNL A   1      42.057  24.348  26.474  1.00  0.00     0.091 A 
ATOM     65  F   UNL A   1      41.003  24.629  28.597  1.00  0.00    -0.205 F 
ATOM     66  C   UNL A   1      42.729  24.917  25.380  1.00  0.00     0.022 A 
BRANCH  64  67
ATOM     67  S   UNL A   1      41.749  22.578  26.420  1.00  0.00     0.127 S 
ATOM     68  O   UNL A   1      40.288  22.533  26.393  1.00  0.00    -0.237 OA
ATOM     69  O   UNL A   1      42.394  22.184  25.167  1.00  0.00    -0.237 OA
ATOM     70  O   UNL A   1      42.376  22.033  27.616  1.00  0.00    -0.744 OA
ENDBRANCH  64  67
ENDBRANCH  46  60
BRANCH  47  71
ATOM     71  C   UNL A   1      39.204  32.119  35.339  1.00  0.00     0.023 A 
ATOM     72  C   UNL A   1      38.341  31.539  36.290  1.00  0.00     0.012 A 
ATOM     73  C   UNL A   1      39.670  33.430  35.548  1.00  0.00     0.148 A 
ATOM     74  C   UNL A   1      37.931  32.257  37.413  1.00  0.00     0.002 A 
ATOM     75  C   UNL A   1      39.291  34.125  36.694  1.00  0.00     0.091 A 
ATOM     76  F   UNL A   1      40.476  33.980  34.629  1.00  0.00    -0.205 F 
ATOM     77  C   UNL A   1      38.413  33.546  37.621  1.00  0.00     0.022 A 
BRANCH  75  78
ATOM     78  S   UNL A   1      39.989  35.738  37.067  1.00  0.00     0.127 S 
ATOM     79  O   UNL A   1      39.627  36.509  35.883  1.00  0.00    -0.237 OA
ATOM     80  O   UNL A   1      39.281  36.121  38.290  1.00  0.00    -0.237 OA
ATOM     81  O   UNL A   1      41.411  35.479  37.266  1.00  0.00    -0.744 OA
ENDBRANCH  75  78
ENDBRANCH  47  71
BRANCH  59  82
ATOM     82  C   UNL A   1      44.935  28.417  33.859  1.00  0.00     0.023 A 
ATOM     83  C   UNL A   1      46.030  29.289  33.708  1.00  0.00     0.012 A 
ATOM     84  C   UNL A   1      45.005  27.366  34.792  1.00  0.00     0.148 A 
ATOM     85  C   UNL A   1      47.184  29.110  34.467  1.00  0.00     0.002 A 
ATOM     86  C   UNL A   1      46.148  27.214  35.570  1.00  0.00     0.091 A 
ATOM     87  F   UNL A   1      43.961  26.531  34.902  1.00  0.00    -0.205 F 
ATOM     88  C   UNL A   1      47.238  28.082  35.407  1.00  0.00     0.022 A 
BRANCH  86  89
ATOM     89  S   UNL A   1      46.247  25.961  36.854  1.00  0.00     0.127 S 
ATOM     90  O   UNL A   1      45.108  26.307  37.701  1.00  0.00    -0.237 OA
ATOM     91  O   UNL A   1      46.090  24.715  36.101  1.00  0.00    -0.237 OA
ATOM     92  O   UNL A   1      47.564  26.130  37.457  1.00  0.00    -0.744 OA
ENDBRANCH  86  89
ENDBRANCH  59  82
ENDBRANCH  33  34
ENDBRANCH  25  28
ENDBRANCH  23  24
ENDBRANCH  22  23
ENDBRANCH   1  22
TORSDOF 17
ENDMDL
MODEL 3
REMARK VINA RESULT:     -11.9      2.316      8.162
REMARK SMILES CCc1ccc(C(=O)N2CC[C@H](C(=O)NCCCCNC(=O)c3ccc(-c4c5nc(c(-c6cccc(S(=O)(=O)[O-])c6F)c6ccc([nH]6)c(-c6cccc(S(=O)(=O)[O-])c6F)c6nc(c(-c7cccc(S(=O)(=O)[O-])c7F)c7ccc4[nH]7)C=C6)C=C5)cc3)[C@@H]2C)s1
REMARK SMILES IDX 17 1 16 2 15 3 13 4 14 5 12 7 9 8 10 9 86 10 11 11 87 12
REMARK SMILES IDX 7 13 8 14 6 15 3 16 4 17 88 18 5 19 2 20 1 21 18 22 19 23
REMARK SMILES IDX 20 24 21 25 22 27 23 28 24 29 85 30 25 31 84 32 26 33 27 34
REMARK SMILES IDX 28 35 78 36 29 37 83 38 77 39 79 40 30 41 82 42 76 43 75 44
REMARK SMILES IDX 31 46 63 47 43 48 62 49 44 50 47 51 61 52 80 53 45 54 46 55
REMARK SMILES IDX 60 57 81 58 48 59 32 60 33 61 41 62 34 63 36 64 42 65 35 66
REMARK SMILES IDX 37 67 38 68 39 69 40 70 64 71 65 72 73 73 66 74 68 75 74 76
REMARK SMILES IDX 67 77 69 78 70 79 71 80 72 81 49 82 50 83 58 84 51 85 53 86
REMARK SMILES IDX 59 87 52 88 54 89 55 90 56 91 57 92
REMARK H PARENT 15 6 20 26 79 45 47 56
REMARK Flexibility Score: inf
ROOT
ATOM      1  C   UNL A   1      31.848  30.378  26.793  1.00  0.00     0.023 C 
ENDROOT
BRANCH   1   2
ATOM      2  C   UNL A   1      32.345  29.719  25.505  1.00  0.00     0.116 C 
BRANCH   2   3
ATOM      3  N   UNL A   1      31.441  28.666  25.090  1.00  0.00    -0.356 N 
ATOM      4  C   UNL A   1      31.703  27.431  24.580  1.00  0.00     0.225 C 
ATOM      5  O   UNL A   1      30.753  26.768  24.163  1.00  0.00    -0.275 OA
ATOM      6  H   UNL A   1      30.484  28.878  25.191  1.00  0.00     0.163 HD
BRANCH   4   7
ATOM      7  C   UNL A   1      33.125  26.884  24.604  1.00  0.00     0.102 C 
ATOM      8  N   UNL A   1      33.759  24.628  24.119  1.00  0.00    -0.334 N 
ATOM      9  C   UNL A   1      33.119  24.619  25.414  1.00  0.00     0.121 C 
ATOM     10  C   UNL A   1      33.557  25.924  23.464  1.00  0.00     0.094 C 
ATOM     11  C   UNL A   1      33.348  26.045  25.882  1.00  0.00     0.037 C 
ATOM     12  C   UNL A   1      32.607  25.761  22.283  1.00  0.00     0.032 C 
BRANCH   8  13
ATOM     13  C   UNL A   1      34.412  23.503  23.627  1.00  0.00     0.264 C 
ATOM     14  O   UNL A   1      35.484  23.617  23.032  1.00  0.00    -0.268 OA
BRANCH  13  15
ATOM     15  C   UNL A   1      33.735  22.219  23.767  1.00  0.00     0.092 A 
ATOM     16  C   UNL A   1      33.224  19.850  24.285  1.00  0.00     0.005 A 
ATOM     17  C   UNL A   1      32.295  20.411  23.433  1.00  0.00     0.016 A 
ATOM     18  S   UNL A   1      34.425  20.987  24.735  1.00  0.00    -0.135 S 
ATOM     19  C   UNL A   1      32.599  21.765  23.121  1.00  0.00     0.026 A 
BRANCH  16  20
ATOM     20  C   UNL A   1      33.294  18.431  24.766  1.00  0.00     0.043 C 
ATOM     21  C   UNL A   1      34.608  17.759  24.398  1.00  0.00     0.010 C 
ENDBRANCH  16  20
ENDBRANCH  13  15
ENDBRANCH   8  13
ENDBRANCH   4   7
ENDBRANCH   2   3
ENDBRANCH   1   2
BRANCH   1  22
ATOM     22  C   UNL A   1      31.747  31.900  26.736  1.00  0.00     0.023 C 
BRANCH  22  23
ATOM     23  C   UNL A   1      32.901  32.633  27.403  1.00  0.00     0.116 C 
BRANCH  23  24
ATOM     24  N   UNL A   1      32.584  34.027  27.683  1.00  0.00    -0.352 N 
ATOM     25  C   UNL A   1      33.102  34.858  28.648  1.00  0.00     0.251 C 
ATOM     26  H   UNL A   1      31.902  34.432  27.099  1.00  0.00     0.163 HD
ATOM     27  O   UNL A   1      32.590  35.955  28.855  1.00  0.00    -0.269 OA
BRANCH  25  28
ATOM     28  C   UNL A   1      34.264  34.413  29.444  1.00  0.00     0.039 A 
ATOM     29  C   UNL A   1      34.052  33.793  30.679  1.00  0.00     0.014 A 
ATOM     30  C   UNL A   1      35.560  34.583  28.952  1.00  0.00     0.014 A 
ATOM     31  C   UNL A   1      35.141  33.275  31.386  1.00  0.00     0.010 A 
ATOM     32  C   UNL A   1      36.628  33.991  29.612  1.00  0.00     0.010 A 
ATOM     33  C   UNL A   1      36.431  33.337  30.838  1.00  0.00    -0.014 A 
BRANCH  33  34
ATOM     34  C   UNL A   1      37.607  32.743  31.521  1.00  0.00     0.031 A 
ATOM     35  C   UNL A   1      38.347  31.607  30.867  1.00  0.00     0.074 A 
ATOM     36  C   UNL A   1      37.923  33.129  32.773  1.00  0.00     0.049 A 
ATOM     37  N   UNL A   1      39.285  30.842  31.359  1.00  0.00    -0.248 NA
ATOM     38  C   UNL A   1      37.945  31.254  29.494  1.00  0.00     0.031 C 
ATOM     39  C   UNL A   1      37.224  34.155  33.549  1.00  0.00     0.029 A 
ATOM     40  N   UNL A   1      38.898  32.677  33.627  1.00  0.00    -0.354 N 
ATOM     41  C   UNL A   1      39.532  29.877  30.391  1.00  0.00     0.074 A 
ATOM     42  C   UNL A   1      38.638  30.144  29.286  1.00  0.00     0.031 C 
ATOM     43  C   UNL A   1      37.795  34.257  34.761  1.00  0.00     0.029 A 
ATOM     44  C   UNL A   1      38.885  33.291  34.857  1.00  0.00     0.049 A 
ATOM     45  H   UNL A   1      39.546  31.977  33.381  1.00  0.00     0.167 HD
ATOM     46  C   UNL A   1      40.443  28.877  30.406  1.00  0.00     0.034 A 
ATOM     47  C   UNL A   1      39.667  33.100  35.938  1.00  0.00     0.034 A 
ATOM     48  C   UNL A   1      41.408  28.688  31.453  1.00  0.00     0.049 A 
ATOM     49  C   UNL A   1      40.768  32.076  35.867  1.00  0.00     0.074 A 
ATOM     50  C   UNL A   1      42.448  27.778  31.511  1.00  0.00     0.029 A 
ATOM     51  N   UNL A   1      41.467  29.443  32.613  1.00  0.00    -0.354 N 
ATOM     52  N   UNL A   1      41.081  31.270  34.882  1.00  0.00    -0.248 NA
ATOM     53  C   UNL A   1      41.649  31.962  37.040  1.00  0.00     0.031 C 
ATOM     54  C   UNL A   1      43.151  27.998  32.701  1.00  0.00     0.029 A 
ATOM     55  C   UNL A   1      42.538  29.036  33.386  1.00  0.00     0.049 A 
ATOM     56  H   UNL A   1      40.839  30.162  32.851  1.00  0.00     0.167 HD
ATOM     57  C   UNL A   1      42.209  30.576  35.300  1.00  0.00     0.074 A 
ATOM     58  C   UNL A   1      42.538  31.069  36.622  1.00  0.00     0.031 C 
ATOM     59  C   UNL A   1      42.896  29.600  34.660  1.00  0.00     0.034 A 
BRANCH  46  60
ATOM     60  C   UNL A   1      40.498  27.968  29.210  1.00  0.00     0.023 A 
ATOM     61  C   UNL A   1      39.595  26.891  29.126  1.00  0.00     0.012 A 
ATOM     62  C   UNL A   1      41.403  28.200  28.156  1.00  0.00     0.148 A 
ATOM     63  C   UNL A   1      39.606  26.040  28.022  1.00  0.00     0.002 A 
ATOM     64  C   UNL A   1      41.387  27.366  27.044  1.00  0.00     0.091 A 
ATOM     65  F   UNL A   1      42.275  29.212  28.269  1.00  0.00    -0.205 F 
ATOM     66  C   UNL A   1      40.495  26.283  26.978  1.00  0.00     0.022 A 
BRANCH  64  67
ATOM     67  S   UNL A   1      42.454  27.639  25.624  1.00  0.00     0.127 S 
ATOM     68  O   UNL A   1      43.777  27.655  26.247  1.00  0.00    -0.237 OA
ATOM     69  O   UNL A   1      42.184  26.463  24.796  1.00  0.00    -0.237 OA
ATOM     70  O   UNL A   1      42.016  28.899  25.039  1.00  0.00    -0.744 OA
ENDBRANCH  64  67
ENDBRANCH  46  60
BRANCH  47  71
ATOM     71  C   UNL A   1      39.508  33.971  37.133  1.00  0.00     0.023 A 
ATOM     72  C   UNL A   1      39.936  35.312  37.060  1.00  0.00     0.012 A 
ATOM     73  C   UNL A   1      38.905  33.510  38.318  1.00  0.00     0.148 A 
ATOM     74  C   UNL A   1      39.791  36.168  38.150  1.00  0.00     0.002 A 
ATOM     75  C   UNL A   1      38.723  34.383  39.388  1.00  0.00     0.091 A 
ATOM     76  F   UNL A   1      38.516  32.229  38.385  1.00  0.00    -0.205 F 
ATOM     77  C   UNL A   1      39.175  35.708  39.311  1.00  0.00     0.022 A 
BRANCH  75  78
ATOM     78  S   UNL A   1      37.821  33.870  40.854  1.00  0.00     0.127 S 
ATOM     79  O   UNL A   1      36.637  33.240  40.280  1.00  0.00    -0.237 OA
ATOM     80  O   UNL A   1      38.756  32.948  41.502  1.00  0.00    -0.237 OA
ATOM     81  O   UNL A   1      37.605  35.107  41.596  1.00  0.00    -0.744 OA
ENDBRANCH  75  78
ENDBRANCH  47  71
BRANCH  59  82
ATOM     82  C   UNL A   1      44.092  29.016  35.356  1.00  0.00     0.023 A 
ATOM     83  C   UNL A   1      45.350  29.627  35.191  1.00  0.00     0.012 A 
ATOM     84  C   UNL A   1      43.955  27.934  36.245  1.00  0.00     0.148 A 
ATOM     85  C   UNL A   1      46.459  29.160  35.893  1.00  0.00     0.002 A 
ATOM     86  C   UNL A   1      45.059  27.495  36.967  1.00  0.00     0.091 A 
ATOM     87  F   UNL A   1      42.754  27.350  36.368  1.00  0.00    -0.205 F 
ATOM     88  C   UNL A   1      46.311  28.104  36.791  1.00  0.00     0.022 A 
BRANCH  86  89
ATOM     89  S   UNL A   1      44.916  26.195  38.199  1.00  0.00     0.127 S 
ATOM     90  O   UNL A   1      43.982  26.785  39.154  1.00  0.00    -0.237 OA
ATOM     91  O   UNL A   1      44.371  25.077  37.425  1.00  0.00    -0.237 OA
ATOM     92  O   UNL A   1      46.272  25.974  38.686  1.00  0.00    -0.744 OA
ENDBRANCH  86  89
ENDBRANCH  59  82
ENDBRANCH  33  34
ENDBRANCH  25  28
ENDBRANCH  23  24
ENDBRANCH  22  23
ENDBRANCH   1  22
TORSDOF 17
ENDMDL
