MODEL 1
REMARK VINA RESULT:     -13.2      0.000      0.000
REMARK SMILES O=C(NCCCCNC(=O)c1cc(S(=O)(=O)NNC(=O)[C@H]2C=C(c3ccccc3)N=N2)ccc1F)c1ccc(-c2c3nc(c(-c4cccc(S(=O)(=O)[O-])c4F)c4ccc([nH]4)c(-c4cccc(S(=O)(=O)[O-])c4F)c4nc(c(-c5cccc(S(=O)(=O)[O-])c5F)c5ccc2[nH]5)C=C4)C=C3)cc1
REMARK SMILES IDX 6 1 5 2 4 3 3 4 1 5 2 6 36 8 37 9 98 10 38 11 97 12 39 13
REMARK SMILES IDX 40 14 41 15 91 16 42 17 96 18 90 19 92 20 43 21 95 22 89 23
REMARK SMILES IDX 88 24 44 26 76 27 56 28 75 29 57 30 60 31 74 32 93 33 58 34
REMARK SMILES IDX 59 35 73 37 94 38 61 39 45 40 46 41 54 42 47 43 49 44 55 45
REMARK SMILES IDX 48 46 50 47 51 48 52 49 53 50 77 51 78 52 86 53 79 54 81 55
REMARK SMILES IDX 87 56 80 57 82 58 83 59 84 60 85 61 62 62 63 63 71 64 64 65
REMARK SMILES IDX 66 66 72 67 65 68 67 69 68 70 69 71 70 72 7 73 8 74 9 75
REMARK SMILES IDX 10 77 11 78 12 79 34 80 13 81 33 82 35 83 32 84 14 85 15 86
REMARK SMILES IDX 16 87 17 88 18 90 19 91 20 93 21 94 22 95 31 96 23 97 30 98
REMARK SMILES IDX 24 99 25 100 29 101 26 102 28 103 27 104
REMARK H PARENT 3 7 92 25 60 36 8 76 17 89 18 92
REMARK Flexibility Score: inf
ROOT
ATOM      1  C   UNL A   1      38.367  24.085  26.371  1.00  0.00     0.023 C 
ENDROOT
BRANCH   1   2
ATOM      2  C   UNL A   1      39.404  23.825  27.464  1.00  0.00     0.023 C 
BRANCH   2   3
ATOM      3  C   UNL A   1      40.401  22.710  27.151  1.00  0.00     0.116 C 
BRANCH   3   4
ATOM      4  N   UNL A   1      41.364  23.039  26.120  1.00  0.00    -0.352 N 
ATOM      5  O   UNL A   1      43.031  23.932  24.985  1.00  0.00    -0.269 OA
ATOM      6  C   UNL A   1      42.242  24.071  25.923  1.00  0.00     0.251 C 
ATOM      7  H   UNL A   1      41.393  22.371  25.399  1.00  0.00     0.163 HD
BRANCH   6   8
ATOM      8  C   UNL A   1      42.248  25.344  26.693  1.00  0.00     0.039 A 
ATOM      9  C   UNL A   1      42.961  25.582  27.870  1.00  0.00     0.014 A 
ATOM     10  C   UNL A   1      41.445  26.377  26.172  1.00  0.00     0.014 A 
ATOM     11  C   UNL A   1      42.801  26.781  28.559  1.00  0.00     0.010 A 
ATOM     12  C   UNL A   1      41.293  27.582  26.849  1.00  0.00     0.010 A 
ATOM     13  C   UNL A   1      41.946  27.769  28.062  1.00  0.00    -0.014 A 
BRANCH  13  14
ATOM     14  C   UNL A   1      41.920  29.064  28.737  1.00  0.00     0.031 A 
ATOM     15  C   UNL A   1      42.999  29.994  28.290  1.00  0.00     0.074 A 
ATOM     16  C   UNL A   1      40.935  29.452  29.573  1.00  0.00     0.049 A 
ATOM     17  N   UNL A   1      43.963  30.493  28.993  1.00  0.00    -0.248 NA
ATOM     18  C   UNL A   1      43.100  30.287  26.851  1.00  0.00     0.031 C 
ATOM     19  C   UNL A   1      39.679  28.754  29.858  1.00  0.00     0.029 A 
ATOM     20  N   UNL A   1      40.787  30.632  30.245  1.00  0.00    -0.354 N 
ATOM     21  C   UNL A   1      44.660  31.344  28.133  1.00  0.00     0.074 A 
ATOM     22  C   UNL A   1      44.205  31.033  26.806  1.00  0.00     0.031 C 
ATOM     23  C   UNL A   1      38.806  29.621  30.421  1.00  0.00     0.029 A 
ATOM     24  C   UNL A   1      39.478  30.885  30.657  1.00  0.00     0.049 A 
ATOM     25  H   UNL A   1      41.535  31.247  30.422  1.00  0.00     0.167 HD
ATOM     26  C   UNL A   1      45.381  32.398  28.605  1.00  0.00     0.034 A 
ATOM     27  C   UNL A   1      38.974  32.074  31.079  1.00  0.00     0.034 A 
ATOM     28  C   UNL A   1      45.649  32.254  30.013  1.00  0.00     0.049 A 
ATOM     29  C   UNL A   1      40.117  32.914  31.496  1.00  0.00     0.074 A 
ATOM     30  C   UNL A   1      46.313  31.338  30.803  1.00  0.00     0.029 A 
ATOM     31  N   UNL A   1      44.874  32.999  30.866  1.00  0.00    -0.354 N 
ATOM     32  N   UNL A   1      40.868  32.651  32.526  1.00  0.00    -0.248 NA
ATOM     33  C   UNL A   1      40.682  33.826  30.516  1.00  0.00     0.031 C 
ATOM     34  C   UNL A   1      45.547  31.269  32.002  1.00  0.00     0.029 A 
ATOM     35  C   UNL A   1      44.501  32.187  31.899  1.00  0.00     0.049 A 
ATOM     36  H   UNL A   1      44.631  33.946  30.753  1.00  0.00     0.167 HD
ATOM     37  C   UNL A   1      42.149  32.972  32.099  1.00  0.00     0.074 A 
ATOM     38  C   UNL A   1      41.959  33.788  30.901  1.00  0.00     0.031 C 
ATOM     39  C   UNL A   1      43.234  32.302  32.583  1.00  0.00     0.034 A 
BRANCH  26  40
ATOM     40  C   UNL A   1      45.511  33.752  27.928  1.00  0.00     0.023 A 
ATOM     41  C   UNL A   1      46.825  34.194  27.635  1.00  0.00     0.012 A 
ATOM     42  C   UNL A   1      44.486  34.722  27.843  1.00  0.00     0.148 A 
ATOM     43  C   UNL A   1      47.116  35.538  27.378  1.00  0.00     0.002 A 
ATOM     44  C   UNL A   1      44.771  36.044  27.517  1.00  0.00     0.091 A 
ATOM     45  F   UNL A   1      43.236  34.414  28.191  1.00  0.00    -0.205 F 
ATOM     46  C   UNL A   1      46.087  36.466  27.322  1.00  0.00     0.022 A 
BRANCH  44  47
ATOM     47  S   UNL A   1      43.476  37.286  27.380  1.00  0.00     0.127 S 
ATOM     48  O   UNL A   1      43.022  37.387  28.763  1.00  0.00    -0.237 OA
ATOM     49  O   UNL A   1      44.226  38.442  26.887  1.00  0.00    -0.237 OA
ATOM     50  O   UNL A   1      42.514  36.749  26.427  1.00  0.00    -0.744 OA
ENDBRANCH  44  47
ENDBRANCH  26  40
BRANCH  27  51
ATOM     51  C   UNL A   1      37.633  32.676  30.863  1.00  0.00     0.023 A 
ATOM     52  C   UNL A   1      36.893  32.334  29.710  1.00  0.00     0.012 A 
ATOM     53  C   UNL A   1      36.949  33.309  31.924  1.00  0.00     0.148 A 
ATOM     54  C   UNL A   1      35.514  32.570  29.636  1.00  0.00     0.002 A 
ATOM     55  C   UNL A   1      35.578  33.539  31.847  1.00  0.00     0.091 A 
ATOM     56  F   UNL A   1      37.623  33.594  33.046  1.00  0.00    -0.205 F 
ATOM     57  C   UNL A   1      34.855  33.159  30.710  1.00  0.00     0.022 A 
BRANCH  55  58
ATOM     58  S   UNL A   1      34.648  34.246  33.215  1.00  0.00     0.127 S 
ATOM     59  O   UNL A   1      33.281  34.222  32.693  1.00  0.00    -0.237 OA
ATOM     60  O   UNL A   1      34.913  33.288  34.285  1.00  0.00    -0.237 OA
ATOM     61  O   UNL A   1      35.189  35.583  33.417  1.00  0.00    -0.744 OA
ENDBRANCH  55  58
ENDBRANCH  27  51
BRANCH  39  62
ATOM     62  C   UNL A   1      43.049  31.403  33.777  1.00  0.00     0.023 A 
ATOM     63  C   UNL A   1      43.028  31.892  35.100  1.00  0.00     0.012 A 
ATOM     64  C   UNL A   1      42.677  30.072  33.535  1.00  0.00     0.148 A 
ATOM     65  C   UNL A   1      42.646  31.063  36.159  1.00  0.00     0.002 A 
ATOM     66  C   UNL A   1      42.244  29.269  34.581  1.00  0.00     0.091 A 
ATOM     67  F   UNL A   1      42.710  29.627  32.269  1.00  0.00    -0.205 F 
ATOM     68  C   UNL A   1      42.236  29.757  35.897  1.00  0.00     0.022 A 
BRANCH  66  69
ATOM     69  S   UNL A   1      41.559  27.639  34.283  1.00  0.00     0.127 S 
ATOM     70  O   UNL A   1      40.445  27.936  33.385  1.00  0.00    -0.237 OA
ATOM     71  O   UNL A   1      42.681  26.940  33.656  1.00  0.00    -0.237 OA
ATOM     72  O   UNL A   1      41.187  27.113  35.591  1.00  0.00    -0.744 OA
ENDBRANCH  66  69
ENDBRANCH  39  62
ENDBRANCH  13  14
ENDBRANCH   6   8
ENDBRANCH   3   4
ENDBRANCH   2   3
ENDBRANCH   1   2
BRANCH   1  73
ATOM     73  C   UNL A   1      37.753  22.841  25.742  1.00  0.00     0.116 C 
BRANCH  73  74
ATOM     74  N   UNL A   1      37.368  23.024  24.349  1.00  0.00    -0.352 N 
ATOM     75  C   UNL A   1      36.139  22.816  23.775  1.00  0.00     0.254 C 
ATOM     76  H   UNL A   1      38.080  23.335  23.743  1.00  0.00     0.163 HD
ATOM     77  O   UNL A   1      35.954  22.968  22.573  1.00  0.00    -0.269 OA
BRANCH  75  78
ATOM     78  C   UNL A   1      35.041  22.318  24.616  1.00  0.00     0.076 A 
ATOM     79  C   UNL A   1      34.046  23.212  25.007  1.00  0.00     0.038 A 
ATOM     80  C   UNL A   1      34.955  20.971  24.963  1.00  0.00     0.136 A 
ATOM     81  C   UNL A   1      32.919  22.716  25.666  1.00  0.00     0.085 A 
ATOM     82  C   UNL A   1      33.813  20.476  25.584  1.00  0.00     0.041 A 
ATOM     83  F   UNL A   1      35.937  20.115  24.652  1.00  0.00    -0.206 F 
ATOM     84  C   UNL A   1      32.774  21.346  25.914  1.00  0.00     0.025 A 
BRANCH  81  85
ATOM     85  S   UNL A   1      31.759  23.903  26.270  1.00  0.00     0.257 S 
ATOM     86  O   UNL A   1      31.151  23.335  27.450  1.00  0.00    -0.205 OA
ATOM     87  O   UNL A   1      32.414  25.193  26.268  1.00  0.00    -0.205 OA
BRANCH  85  88
ATOM     88  N   UNL A   1      30.553  23.985  25.064  1.00  0.00    -0.123 NA
ATOM     89  H   UNL A   1      29.844  24.643  25.387  1.00  0.00     0.167 HD
BRANCH  88  90
ATOM     90  N   UNL A   1      30.960  24.402  23.729  1.00  0.00    -0.275 N 
ATOM     91  C   UNL A   1      30.852  25.686  23.247  1.00  0.00     0.265 C 
ATOM     92  H   UNL A   1      31.338  23.717  23.130  1.00  0.00     0.186 HD
ATOM     93  O   UNL A   1      31.375  25.963  22.164  1.00  0.00    -0.271 OA
BRANCH  91  94
ATOM     94  C   UNL A   1      30.129  26.729  24.107  1.00  0.00     0.244 C 
ATOM     95  C   UNL A   1      30.373  28.126  23.664  1.00  0.00     0.042 C 
ATOM     96  N   UNL A   1      28.661  26.595  23.899  1.00  0.00    -0.171 NA
ATOM     97  C   UNL A   1      29.190  28.587  23.250  1.00  0.00     0.091 C 
ATOM     98  N   UNL A   1      28.199  27.646  23.386  1.00  0.00    -0.155 NA
BRANCH  97  99
ATOM     99  C   UNL A   1      28.875  29.947  22.790  1.00  0.00     0.002 A 
ATOM    100  C   UNL A   1      28.365  30.123  21.492  1.00  0.00     0.010 A 
ATOM    101  C   UNL A   1      29.068  31.085  23.588  1.00  0.00     0.010 A 
ATOM    102  C   UNL A   1      28.036  31.391  21.011  1.00  0.00     0.001 A 
ATOM    103  C   UNL A   1      28.740  32.356  23.104  1.00  0.00     0.001 A 
ATOM    104  C   UNL A   1      28.221  32.508  21.819  1.00  0.00     0.000 A 
ENDBRANCH  97  99
ENDBRANCH  91  94
ENDBRANCH  88  90
ENDBRANCH  85  88
ENDBRANCH  81  85
ENDBRANCH  75  78
ENDBRANCH  73  74
ENDBRANCH   1  73
TORSDOF 19
ENDMDL
MODEL 2
REMARK VINA RESULT:     -13.0      2.687      3.717
REMARK SMILES O=C(NCCCCNC(=O)c1cc(S(=O)(=O)NNC(=O)[C@H]2C=C(c3ccccc3)N=N2)ccc1F)c1ccc(-c2c3nc(c(-c4cccc(S(=O)(=O)[O-])c4F)c4ccc([nH]4)c(-c4cccc(S(=O)(=O)[O-])c4F)c4nc(c(-c5cccc(S(=O)(=O)[O-])c5F)c5ccc2[nH]5)C=C4)C=C3)cc1
REMARK SMILES IDX 6 1 5 2 4 3 3 4 1 5 2 6 36 8 37 9 98 10 38 11 97 12 39 13
REMARK SMILES IDX 40 14 41 15 91 16 42 17 96 18 90 19 92 20 43 21 95 22 89 23
REMARK SMILES IDX 88 24 44 26 76 27 56 28 75 29 57 30 60 31 74 32 93 33 58 34
REMARK SMILES IDX 59 35 73 37 94 38 61 39 45 40 46 41 54 42 47 43 49 44 55 45
REMARK SMILES IDX 48 46 50 47 51 48 52 49 53 50 77 51 78 52 86 53 79 54 81 55
REMARK SMILES IDX 87 56 80 57 82 58 83 59 84 60 85 61 62 62 63 63 71 64 64 65
REMARK SMILES IDX 66 66 72 67 65 68 67 69 68 70 69 71 70 72 7 73 8 74 9 75
REMARK SMILES IDX 10 77 11 78 12 79 34 80 13 81 33 82 35 83 32 84 14 85 15 86
REMARK SMILES IDX 16 87 17 88 18 90 19 91 20 93 21 94 22 95 31 96 23 97 30 98
REMARK SMILES IDX 24 99 25 100 29 101 26 102 28 103 27 104
REMARK H PARENT 3 7 92 25 60 36 8 76 17 89 18 92
REMARK Flexibility Score: inf
ROOT
ATOM      1  C   UNL A   1      35.474  21.269  25.829  1.00  0.00     0.023 C 
ENDROOT
BRANCH   1   2
ATOM      2  C   UNL A   1      35.647  22.696  25.309  1.00  0.00     0.023 C 
BRANCH   2   3
ATOM      3  C   UNL A   1      37.062  23.048  24.855  1.00  0.00     0.116 C 
BRANCH   3   4
ATOM      4  N   UNL A   1      38.067  22.067  25.210  1.00  0.00    -0.352 N 
ATOM      5  O   UNL A   1      39.684  20.962  26.223  1.00  0.00    -0.269 OA
ATOM      6  C   UNL A   1      39.132  22.054  26.069  1.00  0.00     0.251 C 
ATOM      7  H   UNL A   1      37.959  21.218  24.723  1.00  0.00     0.163 HD
BRANCH   6   8
ATOM      8  C   UNL A   1      39.700  23.253  26.742  1.00  0.00     0.039 A 
ATOM      9  C   UNL A   1      40.787  23.259  27.618  1.00  0.00     0.014 A 
ATOM     10  C   UNL A   1      39.055  24.473  26.463  1.00  0.00     0.014 A 
ATOM     11  C   UNL A   1      41.157  24.431  28.273  1.00  0.00     0.010 A 
ATOM     12  C   UNL A   1      39.430  25.649  27.102  1.00  0.00     0.010 A 
ATOM     13  C   UNL A   1      40.461  25.619  28.034  1.00  0.00    -0.014 A 
BRANCH  13  14
ATOM     14  C   UNL A   1      40.973  26.851  28.627  1.00  0.00     0.031 A 
ATOM     15  C   UNL A   1      42.328  27.237  28.132  1.00  0.00     0.074 A 
ATOM     16  C   UNL A   1      40.245  27.655  29.430  1.00  0.00     0.049 A 
ATOM     17  N   UNL A   1      43.424  27.343  28.811  1.00  0.00    -0.248 NA
ATOM     18  C   UNL A   1      42.513  27.377  26.679  1.00  0.00     0.031 C 
ATOM     19  C   UNL A   1      38.819  27.543  29.748  1.00  0.00     0.029 A 
ATOM     20  N   UNL A   1      40.599  28.831  30.027  1.00  0.00    -0.354 N 
ATOM     21  C   UNL A   1      44.390  27.786  27.905  1.00  0.00     0.074 A 
ATOM     22  C   UNL A   1      43.824  27.608  26.596  1.00  0.00     0.031 C 
ATOM     23  C   UNL A   1      38.382  28.721  30.250  1.00  0.00     0.029 A 
ATOM     24  C   UNL A   1      39.512  29.617  30.413  1.00  0.00     0.049 A 
ATOM     25  H   UNL A   1      41.535  29.100  30.171  1.00  0.00     0.167 HD
ATOM     26  C   UNL A   1      45.485  28.484  28.317  1.00  0.00     0.034 A 
ATOM     27  C   UNL A   1      39.540  30.931  30.756  1.00  0.00     0.034 A 
ATOM     28  C   UNL A   1      45.697  28.328  29.732  1.00  0.00     0.049 A 
ATOM     29  C   UNL A   1      40.933  31.259  31.128  1.00  0.00     0.074 A 
ATOM     30  C   UNL A   1      45.948  27.271  30.583  1.00  0.00     0.029 A 
ATOM     31  N   UNL A   1      45.304  29.373  30.532  1.00  0.00    -0.354 N 
ATOM     32  N   UNL A   1      41.531  30.777  32.179  1.00  0.00    -0.248 NA
ATOM     33  C   UNL A   1      41.800  31.803  30.098  1.00  0.00     0.031 C 
ATOM     34  C   UNL A   1      45.240  27.589  31.778  1.00  0.00     0.029 A 
ATOM     35  C   UNL A   1      44.654  28.845  31.610  1.00  0.00     0.049 A 
ATOM     36  H   UNL A   1      45.464  30.328  30.359  1.00  0.00     0.167 HD
ATOM     37  C   UNL A   1      42.824  30.525  31.743  1.00  0.00     0.074 A 
ATOM     38  C   UNL A   1      42.960  31.275  30.495  1.00  0.00     0.031 C 
ATOM     39  C   UNL A   1      43.554  29.503  32.275  1.00  0.00     0.034 A 
BRANCH  26  40
ATOM     40  C   UNL A   1      46.139  29.626  27.557  1.00  0.00     0.023 A 
ATOM     41  C   UNL A   1      47.554  29.697  27.608  1.00  0.00     0.012 A 
ATOM     42  C   UNL A   1      45.468  30.772  27.072  1.00  0.00     0.148 A 
ATOM     43  C   UNL A   1      48.249  30.869  27.297  1.00  0.00     0.002 A 
ATOM     44  C   UNL A   1      46.170  31.913  26.695  1.00  0.00     0.091 A 
ATOM     45  F   UNL A   1      44.135  30.825  27.078  1.00  0.00    -0.205 F 
ATOM     46  C   UNL A   1      47.556  31.981  26.843  1.00  0.00     0.022 A 
BRANCH  44  47
ATOM     47  S   UNL A   1      45.334  33.371  26.053  1.00  0.00     0.127 S 
ATOM     48  O   UNL A   1      44.668  33.875  27.249  1.00  0.00    -0.237 OA
ATOM     49  O   UNL A   1      46.462  34.176  25.585  1.00  0.00    -0.237 OA
ATOM     50  O   UNL A   1      44.463  32.889  24.989  1.00  0.00    -0.744 OA
ENDBRANCH  44  47
ENDBRANCH  26  40
BRANCH  27  51
ATOM     51  C   UNL A   1      38.553  32.010  30.493  1.00  0.00     0.023 A 
ATOM     52  C   UNL A   1      38.072  32.210  29.180  1.00  0.00     0.012 A 
ATOM     53  C   UNL A   1      37.845  32.613  31.556  1.00  0.00     0.148 A 
ATOM     54  C   UNL A   1      36.901  32.941  28.940  1.00  0.00     0.002 A 
ATOM     55  C   UNL A   1      36.681  33.337  31.312  1.00  0.00     0.091 A 
ATOM     56  F   UNL A   1      38.257  32.392  32.810  1.00  0.00    -0.205 F 
ATOM     57  C   UNL A   1      36.199  33.491  30.007  1.00  0.00     0.022 A 
BRANCH  55  58
ATOM     58  S   UNL A   1      35.691  34.031  32.644  1.00  0.00     0.127 S 
ATOM     59  O   UNL A   1      35.389  32.843  33.444  1.00  0.00    -0.237 OA
ATOM     60  O   UNL A   1      36.630  34.964  33.261  1.00  0.00    -0.237 OA
ATOM     61  O   UNL A   1      34.530  34.635  32.004  1.00  0.00    -0.744 OA
ENDBRANCH  55  58
ENDBRANCH  27  51
BRANCH  39  62
ATOM     62  C   UNL A   1      43.043  28.829  33.522  1.00  0.00     0.023 A 
ATOM     63  C   UNL A   1      42.054  27.823  33.491  1.00  0.00     0.012 A 
ATOM     64  C   UNL A   1      43.735  29.071  34.719  1.00  0.00     0.148 A 
ATOM     65  C   UNL A   1      41.761  27.079  34.637  1.00  0.00     0.002 A 
ATOM     66  C   UNL A   1      43.481  28.291  35.838  1.00  0.00     0.091 A 
ATOM     67  F   UNL A   1      44.668  30.036  34.725  1.00  0.00    -0.205 F 
ATOM     68  C   UNL A   1      42.488  27.300  35.806  1.00  0.00     0.022 A 
BRANCH  66  69
ATOM     69  S   UNL A   1      44.489  28.425  37.315  1.00  0.00     0.127 S 
ATOM     70  O   UNL A   1      45.839  28.255  36.780  1.00  0.00    -0.237 OA
ATOM     71  O   UNL A   1      44.182  29.778  37.781  1.00  0.00    -0.237 OA
ATOM     72  O   UNL A   1      44.033  27.370  38.212  1.00  0.00    -0.744 OA
ENDBRANCH  66  69
ENDBRANCH  39  62
ENDBRANCH  13  14
ENDBRANCH   6   8
ENDBRANCH   3   4
ENDBRANCH   2   3
ENDBRANCH   1   2
BRANCH   1  73
ATOM     73  C   UNL A   1      35.241  20.208  24.761  1.00  0.00     0.116 C 
BRANCH  73  74
ATOM     74  N   UNL A   1      34.256  19.205  25.143  1.00  0.00    -0.352 N 
ATOM     75  C   UNL A   1      32.887  19.315  25.134  1.00  0.00     0.254 C 
ATOM     76  H   UNL A   1      34.617  18.341  25.446  1.00  0.00     0.163 HD
ATOM     77  O   UNL A   1      32.165  18.404  25.522  1.00  0.00    -0.269 OA
BRANCH  75  78
ATOM     78  C   UNL A   1      32.283  20.591  24.726  1.00  0.00     0.076 A 
ATOM     79  C   UNL A   1      31.936  21.508  25.717  1.00  0.00     0.038 A 
ATOM     80  C   UNL A   1      32.119  20.912  23.380  1.00  0.00     0.136 A 
ATOM     81  C   UNL A   1      31.513  22.783  25.334  1.00  0.00     0.085 A 
ATOM     82  C   UNL A   1      31.737  22.196  23.004  1.00  0.00     0.041 A 
ATOM     83  F   UNL A   1      32.385  20.016  22.421  1.00  0.00    -0.206 F 
ATOM     84  C   UNL A   1      31.459  23.148  23.984  1.00  0.00     0.025 A 
BRANCH  81  85
ATOM     85  S   UNL A   1      30.945  23.856  26.616  1.00  0.00     0.257 S 
ATOM     86  O   UNL A   1      29.611  23.428  26.964  1.00  0.00    -0.205 OA
ATOM     87  O   UNL A   1      32.010  23.975  27.589  1.00  0.00    -0.205 OA
BRANCH  85  88
ATOM     88  N   UNL A   1      30.812  25.388  25.874  1.00  0.00    -0.123 NA
ATOM     89  H   UNL A   1      31.536  25.444  25.158  1.00  0.00     0.167 HD
BRANCH  88  90
ATOM     90  N   UNL A   1      29.545  25.724  25.240  1.00  0.00    -0.275 N 
ATOM     91  C   UNL A   1      29.408  26.597  24.186  1.00  0.00     0.265 C 
ATOM     92  H   UNL A   1      28.729  25.296  25.590  1.00  0.00     0.186 HD
ATOM     93  O   UNL A   1      28.314  26.684  23.620  1.00  0.00    -0.271 OA
BRANCH  91  94
ATOM     94  C   UNL A   1      30.641  27.385  23.728  1.00  0.00     0.244 C 
ATOM     95  C   UNL A   1      30.989  28.508  24.636  1.00  0.00     0.042 C 
ATOM     96  N   UNL A   1      31.843  26.514  23.844  1.00  0.00    -0.171 NA
ATOM     97  C   UNL A   1      32.178  28.197  25.159  1.00  0.00     0.091 C 
ATOM     98  N   UNL A   1      32.647  26.998  24.681  1.00  0.00    -0.155 NA
BRANCH  97  99
ATOM     99  C   UNL A   1      33.001  29.020  26.057  1.00  0.00     0.002 A 
ATOM    100  C   UNL A   1      34.256  28.535  26.463  1.00  0.00     0.010 A 
ATOM    101  C   UNL A   1      32.585  30.271  26.537  1.00  0.00     0.010 A 
ATOM    102  C   UNL A   1      35.081  29.281  27.304  1.00  0.00     0.001 A 
ATOM    103  C   UNL A   1      33.413  31.018  27.381  1.00  0.00     0.001 A 
ATOM    104  C   UNL A   1      34.661  30.526  27.760  1.00  0.00     0.000 A 
ENDBRANCH  97  99
ENDBRANCH  91  94
ENDBRANCH  88  90
ENDBRANCH  85  88
ENDBRANCH  81  85
ENDBRANCH  75  78
ENDBRANCH  73  74
ENDBRANCH   1  73
TORSDOF 19
ENDMDL
MODEL 3
REMARK VINA RESULT:     -13.0      3.165      8.512
REMARK SMILES O=C(NCCCCNC(=O)c1cc(S(=O)(=O)NNC(=O)[C@H]2C=C(c3ccccc3)N=N2)ccc1F)c1ccc(-c2c3nc(c(-c4cccc(S(=O)(=O)[O-])c4F)c4ccc([nH]4)c(-c4cccc(S(=O)(=O)[O-])c4F)c4nc(c(-c5cccc(S(=O)(=O)[O-])c5F)c5ccc2[nH]5)C=C4)C=C3)cc1
REMARK SMILES IDX 6 1 5 2 4 3 3 4 1 5 2 6 36 8 37 9 98 10 38 11 97 12 39 13
REMARK SMILES IDX 40 14 41 15 91 16 42 17 96 18 90 19 92 20 43 21 95 22 89 23
REMARK SMILES IDX 88 24 44 26 76 27 56 28 75 29 57 30 60 31 74 32 93 33 58 34
REMARK SMILES IDX 59 35 73 37 94 38 61 39 45 40 46 41 54 42 47 43 49 44 55 45
REMARK SMILES IDX 48 46 50 47 51 48 52 49 53 50 77 51 78 52 86 53 79 54 81 55
REMARK SMILES IDX 87 56 80 57 82 58 83 59 84 60 85 61 62 62 63 63 71 64 64 65
REMARK SMILES IDX 66 66 72 67 65 68 67 69 68 70 69 71 70 72 7 73 8 74 9 75
REMARK SMILES IDX 10 77 11 78 12 79 34 80 13 81 33 82 35 83 32 84 14 85 15 86
REMARK SMILES IDX 16 87 17 88 18 90 19 91 20 93 21 94 22 95 31 96 23 97 30 98
REMARK SMILES IDX 24 99 25 100 29 101 26 102 28 103 27 104
REMARK H PARENT 3 7 92 25 60 36 8 76 17 89 18 92
REMARK Flexibility Score: inf
ROOT
ATOM      1  C   UNL A   1      31.824  27.711  27.206  1.00  0.00     0.023 C 
ENDROOT
BRANCH   1   2
ATOM      2  C   UNL A   1      32.010  28.962  26.346  1.00  0.00     0.023 C 
BRANCH   2   3
ATOM      3  C   UNL A   1      33.364  29.653  26.503  1.00  0.00     0.116 C 
BRANCH   3   4
ATOM      4  N   UNL A   1      33.323  30.883  27.266  1.00  0.00    -0.352 N 
ATOM      5  O   UNL A   1      33.876  32.719  28.358  1.00  0.00    -0.269 OA
ATOM      6  C   UNL A   1      34.254  31.618  27.950  1.00  0.00     0.251 C 
ATOM      7  H   UNL A   1      32.423  31.281  27.302  1.00  0.00     0.163 HD
BRANCH   6   8
ATOM      8  C   UNL A   1      35.625  31.151  28.292  1.00  0.00     0.039 A 
ATOM      9  C   UNL A   1      36.719  31.971  28.574  1.00  0.00     0.014 A 
ATOM     10  C   UNL A   1      35.808  29.755  28.312  1.00  0.00     0.014 A 
ATOM     11  C   UNL A   1      37.981  31.418  28.773  1.00  0.00     0.010 A 
ATOM     12  C   UNL A   1      37.063  29.197  28.525  1.00  0.00     0.010 A 
ATOM     13  C   UNL A   1      38.156  30.033  28.722  1.00  0.00    -0.014 A 
BRANCH  13  14
ATOM     14  C   UNL A   1      39.463  29.488  29.081  1.00  0.00     0.031 A 
ATOM     15  C   UNL A   1      39.805  29.651  30.525  1.00  0.00     0.074 A 
ATOM     16  C   UNL A   1      40.232  28.770  28.236  1.00  0.00     0.049 A 
ATOM     17  N   UNL A   1      40.781  30.323  31.042  1.00  0.00    -0.248 NA
ATOM     18  C   UNL A   1      38.857  29.121  31.518  1.00  0.00     0.031 C 
ATOM     19  C   UNL A   1      39.880  28.291  26.897  1.00  0.00     0.029 A 
ATOM     20  N   UNL A   1      41.453  28.196  28.453  1.00  0.00    -0.354 N 
ATOM     21  C   UNL A   1      40.700  30.112  32.420  1.00  0.00     0.074 A 
ATOM     22  C   UNL A   1      39.408  29.532  32.661  1.00  0.00     0.031 C 
ATOM     23  C   UNL A   1      40.734  27.304  26.538  1.00  0.00     0.029 A 
ATOM     24  C   UNL A   1      41.765  27.177  27.553  1.00  0.00     0.049 A 
ATOM     25  H   UNL A   1      42.056  28.475  29.179  1.00  0.00     0.167 HD
ATOM     26  C   UNL A   1      41.797  30.213  33.221  1.00  0.00     0.034 A 
ATOM     27  C   UNL A   1      42.747  26.248  27.685  1.00  0.00     0.034 A 
ATOM     28  C   UNL A   1      42.857  30.932  32.561  1.00  0.00     0.049 A 
ATOM     29  C   UNL A   1      43.725  26.777  28.660  1.00  0.00     0.074 A 
ATOM     30  C   UNL A   1      43.015  32.200  32.042  1.00  0.00     0.029 A 
ATOM     31  N   UNL A   1      43.879  30.179  32.041  1.00  0.00    -0.354 N 
ATOM     32  N   UNL A   1      44.476  27.816  28.437  1.00  0.00    -0.248 NA
ATOM     33  C   UNL A   1      43.569  26.394  30.052  1.00  0.00     0.031 C 
ATOM     34  C   UNL A   1      43.824  32.020  30.882  1.00  0.00     0.029 A 
ATOM     35  C   UNL A   1      44.161  30.668  30.798  1.00  0.00     0.049 A 
ATOM     36  H   UNL A   1      44.328  29.423  32.484  1.00  0.00     0.167 HD
ATOM     37  C   UNL A   1      44.493  28.485  29.653  1.00  0.00     0.074 A 
ATOM     38  C   UNL A   1      44.012  27.511  30.632  1.00  0.00     0.031 C 
ATOM     39  C   UNL A   1      44.610  29.843  29.701  1.00  0.00     0.034 A 
BRANCH  26  40
ATOM     40  C   UNL A   1      42.090  29.340  34.429  1.00  0.00     0.023 A 
ATOM     41  C   UNL A   1      42.532  30.002  35.601  1.00  0.00     0.012 A 
ATOM     42  C   UNL A   1      42.253  27.935  34.399  1.00  0.00     0.148 A 
ATOM     43  C   UNL A   1      43.191  29.324  36.633  1.00  0.00     0.002 A 
ATOM     44  C   UNL A   1      42.844  27.256  35.459  1.00  0.00     0.091 A 
ATOM     45  F   UNL A   1      41.949  27.246  33.298  1.00  0.00    -0.205 F 
ATOM     46  C   UNL A   1      43.350  27.949  36.560  1.00  0.00     0.022 A 
BRANCH  44  47
ATOM     47  S   UNL A   1      43.037  25.467  35.448  1.00  0.00     0.127 S 
ATOM     48  O   UNL A   1      43.660  25.249  34.146  1.00  0.00    -0.237 OA
ATOM     49  O   UNL A   1      43.916  25.257  36.599  1.00  0.00    -0.237 OA
ATOM     50  O   UNL A   1      41.695  24.925  35.615  1.00  0.00    -0.744 OA
ENDBRANCH  44  47
ENDBRANCH  26  40
BRANCH  27  51
ATOM     51  C   UNL A   1      42.768  24.815  27.294  1.00  0.00     0.023 A 
ATOM     52  C   UNL A   1      41.580  24.055  27.366  1.00  0.00     0.012 A 
ATOM     53  C   UNL A   1      43.846  24.287  26.550  1.00  0.00     0.148 A 
ATOM     54  C   UNL A   1      41.453  22.839  26.682  1.00  0.00     0.002 A 
ATOM     55  C   UNL A   1      43.715  23.080  25.869  1.00  0.00     0.091 A 
ATOM     56  F   UNL A   1      44.962  25.017  26.427  1.00  0.00    -0.205 F 
ATOM     57  C   UNL A   1      42.515  22.359  25.922  1.00  0.00     0.022 A 
BRANCH  55  58
ATOM     58  S   UNL A   1      45.023  22.423  24.825  1.00  0.00     0.127 S 
ATOM     59  O   UNL A   1      46.039  22.054  25.813  1.00  0.00    -0.237 OA
ATOM     60  O   UNL A   1      44.356  21.295  24.181  1.00  0.00    -0.237 OA
ATOM     61  O   UNL A   1      45.414  23.513  23.942  1.00  0.00    -0.744 OA
ENDBRANCH  55  58
ENDBRANCH  27  51
BRANCH  39  62
ATOM     62  C   UNL A   1      44.991  30.576  28.442  1.00  0.00     0.023 A 
ATOM     63  C   UNL A   1      44.035  31.070  27.531  1.00  0.00     0.012 A 
ATOM     64  C   UNL A   1      46.335  30.956  28.295  1.00  0.00     0.148 A 
ATOM     65  C   UNL A   1      44.416  31.922  26.490  1.00  0.00     0.002 A 
ATOM     66  C   UNL A   1      46.700  31.847  27.296  1.00  0.00     0.091 A 
ATOM     67  F   UNL A   1      47.228  30.469  29.170  1.00  0.00    -0.205 F 
ATOM     68  C   UNL A   1      45.746  32.326  26.385  1.00  0.00     0.022 A 
BRANCH  66  69
ATOM     69  S   UNL A   1      48.360  32.520  27.209  1.00  0.00     0.127 S 
ATOM     70  O   UNL A   1      48.423  33.333  28.422  1.00  0.00    -0.237 OA
ATOM     71  O   UNL A   1      49.187  31.313  27.236  1.00  0.00    -0.237 OA
ATOM     72  O   UNL A   1      48.430  33.260  25.955  1.00  0.00    -0.744 OA
ENDBRANCH  66  69
ENDBRANCH  39  62
ENDBRANCH  13  14
ENDBRANCH   6   8
ENDBRANCH   3   4
ENDBRANCH   2   3
ENDBRANCH   1   2
BRANCH   1  73
ATOM     73  C   UNL A   1      32.002  26.385  26.478  1.00  0.00     0.116 C 
BRANCH  73  74
ATOM     74  N   UNL A   1      31.008  25.384  26.841  1.00  0.00    -0.352 N 
ATOM     75  C   UNL A   1      31.143  24.018  26.850  1.00  0.00     0.254 C 
ATOM     76  H   UNL A   1      30.127  25.732  27.113  1.00  0.00     0.163 HD
ATOM     77  O   UNL A   1      30.209  23.279  27.139  1.00  0.00    -0.269 OA
BRANCH  75  78
ATOM     78  C   UNL A   1      32.421  23.432  26.422  1.00  0.00     0.076 A 
ATOM     79  C   UNL A   1      32.799  23.568  25.086  1.00  0.00     0.038 A 
ATOM     80  C   UNL A   1      33.271  22.812  27.335  1.00  0.00     0.136 A 
ATOM     81  C   UNL A   1      34.079  23.158  24.706  1.00  0.00     0.085 A 
ATOM     82  C   UNL A   1      34.559  22.443  26.960  1.00  0.00     0.041 A 
ATOM     83  F   UNL A   1      32.892  22.615  28.605  1.00  0.00    -0.206 F 
ATOM     84  C   UNL A   1      34.978  22.642  25.646  1.00  0.00     0.025 A 
BRANCH  81  85
ATOM     85  S   UNL A   1      34.456  23.213  22.982  1.00  0.00     0.257 S 
ATOM     86  O   UNL A   1      35.879  23.010  22.855  1.00  0.00    -0.205 OA
ATOM     87  O   UNL A   1      33.482  22.392  22.295  1.00  0.00    -0.205 OA
BRANCH  85  88
ATOM     88  N   UNL A   1      34.128  24.823  22.516  1.00  0.00    -0.123 NA
ATOM     89  H   UNL A   1      35.010  25.242  22.224  1.00  0.00     0.167 HD
BRANCH  88  90
ATOM     90  N   UNL A   1      33.169  25.033  21.440  1.00  0.00    -0.275 N 
ATOM     91  C   UNL A   1      32.073  25.859  21.524  1.00  0.00     0.265 C 
ATOM     92  H   UNL A   1      33.316  24.549  20.594  1.00  0.00     0.186 HD
ATOM     93  O   UNL A   1      31.419  26.090  20.501  1.00  0.00    -0.271 OA
BRANCH  91  94
ATOM     94  C   UNL A   1      31.744  26.499  22.877  1.00  0.00     0.244 C 
ATOM     95  C   UNL A   1      31.414  27.945  22.777  1.00  0.00     0.042 C 
ATOM     96  N   UNL A   1      30.467  25.929  23.385  1.00  0.00    -0.171 NA
ATOM     97  C   UNL A   1      30.133  28.050  23.141  1.00  0.00     0.091 C 
ATOM     98  N   UNL A   1      29.596  26.832  23.478  1.00  0.00    -0.155 NA
BRANCH  97  99
ATOM     99  C   UNL A   1      29.347  29.283  23.291  1.00  0.00     0.002 A 
ATOM    100  C   UNL A   1      28.020  29.303  22.828  1.00  0.00     0.010 A 
ATOM    101  C   UNL A   1      29.865  30.451  23.871  1.00  0.00     0.010 A 
ATOM    102  C   UNL A   1      27.226  30.442  22.958  1.00  0.00     0.001 A 
ATOM    103  C   UNL A   1      29.069  31.593  23.999  1.00  0.00     0.001 A 
ATOM    104  C   UNL A   1      27.750  31.588  23.547  1.00  0.00     0.000 A 
ENDBRANCH  97  99
ENDBRANCH  91  94
ENDBRANCH  88  90
ENDBRANCH  85  88
ENDBRANCH  81  85
ENDBRANCH  75  78
ENDBRANCH  73  74
ENDBRANCH   1  73
TORSDOF 19
ENDMDL
