MODEL 1
REMARK VINA RESULT:     -12.0      0.000      0.000
REMARK SMILES CSCC[C@@H](NS(=O)(=O)c1ccc(F)c(C)c1)C(=O)NCCCCNC(=O)c1ccc(-c2c3nc(c(-c4cccc(S(=O)(=O)[O-])c4F)c4ccc([nH]4)c(-c4cccc(S(=O)(=O)[O-])c4F)c4nc(c(-c5cccc(S(=O)(=O)[O-])c5F)c5ccc2[nH]5)C=C4)C=C3)cc1
REMARK SMILES IDX 22 1 21 2 20 3 18 4 19 5 5 7 4 8 3 9 2 10 1 11 6 12 7 14
REMARK SMILES IDX 8 15 9 16 10 17 11 18 17 19 12 20 15 21 13 22 16 23 14 24
REMARK SMILES IDX 23 25 24 26 25 27 26 28 27 30 28 31 29 32 90 33 30 34 89 35
REMARK SMILES IDX 31 36 32 37 33 38 83 39 34 40 88 41 82 42 84 43 35 44 87 45
REMARK SMILES IDX 81 46 80 47 36 49 68 50 48 51 67 52 49 53 52 54 66 55 85 56
REMARK SMILES IDX 50 57 51 58 65 60 86 61 53 62 37 63 38 64 46 65 39 66 41 67
REMARK SMILES IDX 47 68 40 69 42 70 43 71 44 72 45 73 69 74 70 75 78 76 71 77
REMARK SMILES IDX 73 78 79 79 72 80 74 81 75 82 76 83 77 84 54 85 55 86 63 87
REMARK SMILES IDX 56 88 58 89 64 90 57 91 59 92 60 93 61 94 62 95
REMARK H PARENT 20 6 6 13 25 29 84 48 52 59
REMARK Flexibility Score: inf
ROOT
ATOM      1  C   UNL A   1      31.809  29.883  25.894  1.00  0.00     0.023 C 
ENDROOT
BRANCH   1   2
ATOM      2  C   UNL A   1      32.349  29.192  24.639  1.00  0.00     0.116 C 
BRANCH   2   3
ATOM      3  N   UNL A   1      31.378  29.246  23.553  1.00  0.00    -0.355 N 
ATOM      4  C   UNL A   1      30.763  28.256  22.843  1.00  0.00     0.238 C 
ATOM      5  O   UNL A   1      29.977  28.590  21.952  1.00  0.00    -0.273 OA
ATOM      6  H   UNL A   1      31.121  30.158  23.285  1.00  0.00     0.163 HD
BRANCH   4   7
ATOM      7  C   UNL A   1      31.027  26.778  23.143  1.00  0.00     0.159 C 
BRANCH   7   8
ATOM      8  C   UNL A   1      29.811  26.170  23.865  1.00  0.00     0.041 C 
BRANCH   8   9
ATOM      9  C   UNL A   1      29.918  25.942  25.369  1.00  0.00     0.071 C 
BRANCH   9  10
ATOM     10  S   UNL A   1      30.827  24.439  25.844  1.00  0.00    -0.165 SA
ATOM     11  C   UNL A   1      32.452  25.153  26.183  1.00  0.00     0.085 C 
ENDBRANCH   9  10
ENDBRANCH   8   9
ENDBRANCH   7   8
BRANCH   7  12
ATOM     12  N   UNL A   1      31.417  26.063  21.917  1.00  0.00    -0.199 NA
ATOM     13  H   UNL A   1      31.077  26.623  21.135  1.00  0.00     0.142 HD
BRANCH  12  14
ATOM     14  S   UNL A   1      33.027  25.706  21.578  1.00  0.00     0.241 S 
ATOM     15  O   UNL A   1      33.082  25.301  20.191  1.00  0.00    -0.207 OA
ATOM     16  O   UNL A   1      33.787  26.843  22.054  1.00  0.00    -0.207 OA
BRANCH  14  17
ATOM     17  C   UNL A   1      33.498  24.313  22.577  1.00  0.00     0.082 A 
ATOM     18  C   UNL A   1      34.691  24.320  23.300  1.00  0.00     0.025 A 
ATOM     19  C   UNL A   1      32.652  23.194  22.635  1.00  0.00     0.028 A 
ATOM     20  C   UNL A   1      34.970  23.286  24.193  1.00  0.00     0.041 A 
ATOM     21  C   UNL A   1      32.980  22.105  23.460  1.00  0.00    -0.014 A 
ATOM     22  C   UNL A   1      34.109  22.199  24.277  1.00  0.00     0.126 A 
ATOM     23  C   UNL A   1      32.162  20.850  23.473  1.00  0.00     0.047 C 
ATOM     24  F   UNL A   1      34.387  21.217  25.147  1.00  0.00    -0.207 F 
ENDBRANCH  14  17
ENDBRANCH  12  14
ENDBRANCH   7  12
ENDBRANCH   4   7
ENDBRANCH   2   3
ENDBRANCH   1   2
BRANCH   1  25
ATOM     25  C   UNL A   1      32.460  29.423  27.205  1.00  0.00     0.023 C 
BRANCH  25  26
ATOM     26  C   UNL A   1      33.931  29.778  27.290  1.00  0.00     0.116 C 
BRANCH  26  27
ATOM     27  N   UNL A   1      34.162  31.082  27.909  1.00  0.00    -0.352 N 
ATOM     28  C   UNL A   1      35.037  31.365  28.940  1.00  0.00     0.251 C 
ATOM     29  H   UNL A   1      33.640  31.837  27.553  1.00  0.00     0.163 HD
ATOM     30  O   UNL A   1      34.842  32.283  29.730  1.00  0.00    -0.269 OA
BRANCH  28  31
ATOM     31  C   UNL A   1      36.242  30.528  29.042  1.00  0.00     0.039 A 
ATOM     32  C   UNL A   1      36.519  29.709  30.142  1.00  0.00     0.014 A 
ATOM     33  C   UNL A   1      37.155  30.647  27.999  1.00  0.00     0.014 A 
ATOM     34  C   UNL A   1      37.726  29.013  30.168  1.00  0.00     0.010 A 
ATOM     35  C   UNL A   1      38.182  29.771  27.893  1.00  0.00     0.010 A 
ATOM     36  C   UNL A   1      38.545  29.071  29.036  1.00  0.00    -0.014 A 
BRANCH  36  37
ATOM     37  C   UNL A   1      39.904  28.579  28.948  1.00  0.00     0.031 A 
ATOM     38  C   UNL A   1      40.140  27.167  28.678  1.00  0.00     0.074 A 
ATOM     39  C   UNL A   1      40.863  29.533  28.966  1.00  0.00     0.049 A 
ATOM     40  N   UNL A   1      41.099  26.480  29.183  1.00  0.00    -0.248 NA
ATOM     41  C   UNL A   1      39.243  26.382  27.835  1.00  0.00     0.031 C 
ATOM     42  C   UNL A   1      42.263  29.483  28.596  1.00  0.00     0.029 A 
ATOM     43  N   UNL A   1      40.707  30.827  29.453  1.00  0.00    -0.354 N 
ATOM     44  C   UNL A   1      41.202  25.356  28.394  1.00  0.00     0.074 A 
ATOM     45  C   UNL A   1      39.917  25.229  27.746  1.00  0.00     0.031 C 
ATOM     46  C   UNL A   1      42.888  30.562  29.113  1.00  0.00     0.029 A 
ATOM     47  C   UNL A   1      41.925  31.288  29.936  1.00  0.00     0.049 A 
ATOM     48  H   UNL A   1      39.865  31.337  29.454  1.00  0.00     0.167 HD
ATOM     49  C   UNL A   1      42.439  24.831  28.151  1.00  0.00     0.034 A 
ATOM     50  C   UNL A   1      42.022  31.534  31.278  1.00  0.00     0.034 A 
ATOM     51  C   UNL A   1      43.466  25.668  28.771  1.00  0.00     0.049 A 
ATOM     52  C   UNL A   1      42.892  30.485  31.925  1.00  0.00     0.074 A 
ATOM     53  C   UNL A   1      44.311  26.628  28.235  1.00  0.00     0.029 A 
ATOM     54  N   UNL A   1      43.474  25.864  30.146  1.00  0.00    -0.354 N 
ATOM     55  N   UNL A   1      43.021  29.268  31.468  1.00  0.00    -0.248 NA
ATOM     56  C   UNL A   1      43.723  30.744  33.092  1.00  0.00     0.031 C 
ATOM     57  C   UNL A   1      44.785  27.439  29.295  1.00  0.00     0.029 A 
ATOM     58  C   UNL A   1      44.230  26.972  30.475  1.00  0.00     0.049 A 
ATOM     59  H   UNL A   1      43.006  25.292  30.797  1.00  0.00     0.167 HD
ATOM     60  C   UNL A   1      43.987  28.618  32.190  1.00  0.00     0.074 A 
ATOM     61  C   UNL A   1      44.374  29.574  33.212  1.00  0.00     0.031 C 
ATOM     62  C   UNL A   1      44.419  27.364  31.866  1.00  0.00     0.034 A 
BRANCH  49  63
ATOM     63  C   UNL A   1      42.736  23.812  27.066  1.00  0.00     0.023 A 
ATOM     64  C   UNL A   1      43.538  24.104  25.942  1.00  0.00     0.012 A 
ATOM     65  C   UNL A   1      42.214  22.498  27.122  1.00  0.00     0.148 A 
ATOM     66  C   UNL A   1      43.905  23.130  25.002  1.00  0.00     0.002 A 
ATOM     67  C   UNL A   1      42.554  21.536  26.171  1.00  0.00     0.091 A 
ATOM     68  F   UNL A   1      41.363  22.149  28.094  1.00  0.00    -0.205 F 
ATOM     69  C   UNL A   1      43.418  21.837  25.119  1.00  0.00     0.022 A 
BRANCH  67  70
ATOM     70  S   UNL A   1      41.845  19.892  26.306  1.00  0.00     0.127 S 
ATOM     71  O   UNL A   1      40.413  20.145  26.171  1.00  0.00    -0.237 OA
ATOM     72  O   UNL A   1      42.491  19.160  25.223  1.00  0.00    -0.237 OA
ATOM     73  O   UNL A   1      42.254  19.460  27.645  1.00  0.00    -0.744 OA
ENDBRANCH  67  70
ENDBRANCH  49  63
BRANCH  50  74
ATOM     74  C   UNL A   1      40.729  32.072  31.840  1.00  0.00     0.023 A 
ATOM     75  C   UNL A   1      40.565  33.450  32.077  1.00  0.00     0.012 A 
ATOM     76  C   UNL A   1      39.933  31.166  32.582  1.00  0.00     0.148 A 
ATOM     77  C   UNL A   1      39.723  33.894  33.111  1.00  0.00     0.002 A 
ATOM     78  C   UNL A   1      39.180  31.608  33.670  1.00  0.00     0.091 A 
ATOM     79  F   UNL A   1      40.034  29.854  32.307  1.00  0.00    -0.205 F 
ATOM     80  C   UNL A   1      39.070  32.976  33.937  1.00  0.00     0.022 A 
BRANCH  78  81
ATOM     81  S   UNL A   1      38.634  30.416  34.910  1.00  0.00     0.127 S 
ATOM     82  O   UNL A   1      37.846  31.237  35.822  1.00  0.00    -0.237 OA
ATOM     83  O   UNL A   1      37.904  29.413  34.140  1.00  0.00    -0.237 OA
ATOM     84  O   UNL A   1      39.881  29.892  35.471  1.00  0.00    -0.744 OA
ENDBRANCH  78  81
ENDBRANCH  50  74
BRANCH  62  85
ATOM     85  C   UNL A   1      45.201  26.428  32.757  1.00  0.00     0.023 A 
ATOM     86  C   UNL A   1      46.617  26.399  32.629  1.00  0.00     0.012 A 
ATOM     87  C   UNL A   1      44.638  25.494  33.632  1.00  0.00     0.148 A 
ATOM     88  C   UNL A   1      47.419  25.491  33.318  1.00  0.00     0.002 A 
ATOM     89  C   UNL A   1      45.450  24.679  34.419  1.00  0.00     0.091 A 
ATOM     90  F   UNL A   1      43.312  25.321  33.685  1.00  0.00    -0.205 F 
ATOM     91  C   UNL A   1      46.835  24.644  34.244  1.00  0.00     0.022 A 
BRANCH  89  92
ATOM     92  S   UNL A   1      44.688  23.787  35.772  1.00  0.00     0.127 S 
ATOM     93  O   UNL A   1      43.973  22.719  35.079  1.00  0.00    -0.237 OA
ATOM     94  O   UNL A   1      45.823  23.380  36.594  1.00  0.00    -0.237 OA
ATOM     95  O   UNL A   1      43.820  24.788  36.393  1.00  0.00    -0.744 OA
ENDBRANCH  89  92
ENDBRANCH  62  85
ENDBRANCH  36  37
ENDBRANCH  28  31
ENDBRANCH  26  27
ENDBRANCH  25  26
ENDBRANCH   1  25
TORSDOF 20
ENDMDL
MODEL 2
REMARK VINA RESULT:     -11.6      1.735      2.857
REMARK SMILES CSCC[C@@H](NS(=O)(=O)c1ccc(F)c(C)c1)C(=O)NCCCCNC(=O)c1ccc(-c2c3nc(c(-c4cccc(S(=O)(=O)[O-])c4F)c4ccc([nH]4)c(-c4cccc(S(=O)(=O)[O-])c4F)c4nc(c(-c5cccc(S(=O)(=O)[O-])c5F)c5ccc2[nH]5)C=C4)C=C3)cc1
REMARK SMILES IDX 22 1 21 2 20 3 18 4 19 5 5 7 4 8 3 9 2 10 1 11 6 12 7 14
REMARK SMILES IDX 8 15 9 16 10 17 11 18 17 19 12 20 15 21 13 22 16 23 14 24
REMARK SMILES IDX 23 25 24 26 25 27 26 28 27 30 28 31 29 32 90 33 30 34 89 35
REMARK SMILES IDX 31 36 32 37 33 38 83 39 34 40 88 41 82 42 84 43 35 44 87 45
REMARK SMILES IDX 81 46 80 47 36 49 68 50 48 51 67 52 49 53 52 54 66 55 85 56
REMARK SMILES IDX 50 57 51 58 65 60 86 61 53 62 37 63 38 64 46 65 39 66 41 67
REMARK SMILES IDX 47 68 40 69 42 70 43 71 44 72 45 73 69 74 70 75 78 76 71 77
REMARK SMILES IDX 73 78 79 79 72 80 74 81 75 82 76 83 77 84 54 85 55 86 63 87
REMARK SMILES IDX 56 88 58 89 64 90 57 91 59 92 60 93 61 94 62 95
REMARK H PARENT 20 6 6 13 25 29 84 48 52 59
REMARK Flexibility Score: inf
ROOT
ATOM      1  C   UNL A   1      32.314  27.516  26.596  1.00  0.00     0.023 C 
ENDROOT
BRANCH   1   2
ATOM      2  C   UNL A   1      33.062  26.209  26.318  1.00  0.00     0.116 C 
BRANCH   2   3
ATOM      3  N   UNL A   1      32.134  25.091  26.197  1.00  0.00    -0.355 N 
ATOM      4  C   UNL A   1      32.105  24.033  25.335  1.00  0.00     0.238 C 
ATOM      5  O   UNL A   1      31.180  23.224  25.450  1.00  0.00    -0.273 OA
ATOM      6  H   UNL A   1      31.399  25.102  26.852  1.00  0.00     0.163 HD
BRANCH   4   7
ATOM      7  C   UNL A   1      33.185  23.845  24.267  1.00  0.00     0.159 C 
BRANCH   7   8
ATOM      8  C   UNL A   1      33.593  22.362  24.198  1.00  0.00     0.041 C 
BRANCH   8   9
ATOM      9  C   UNL A   1      35.064  22.019  24.410  1.00  0.00     0.071 C 
BRANCH   9  10
ATOM     10  S   UNL A   1      36.212  23.402  24.126  1.00  0.00    -0.165 SA
ATOM     11  C   UNL A   1      36.787  23.680  25.817  1.00  0.00     0.085 C 
ENDBRANCH   9  10
ENDBRANCH   8   9
ENDBRANCH   7   8
BRANCH   7  12
ATOM     12  N   UNL A   1      32.744  24.407  22.980  1.00  0.00    -0.199 NA
ATOM     13  H   UNL A   1      31.724  24.369  22.983  1.00  0.00     0.142 HD
BRANCH  12  14
ATOM     14  S   UNL A   1      33.158  25.969  22.511  1.00  0.00     0.241 S 
ATOM     15  O   UNL A   1      34.240  26.390  23.373  1.00  0.00    -0.207 OA
ATOM     16  O   UNL A   1      33.325  25.915  21.075  1.00  0.00    -0.207 OA
BRANCH  14  17
ATOM     17  C   UNL A   1      31.761  27.022  22.831  1.00  0.00     0.082 A 
ATOM     18  C   UNL A   1      31.861  28.406  22.696  1.00  0.00     0.025 A 
ATOM     19  C   UNL A   1      30.543  26.443  23.224  1.00  0.00     0.028 A 
ATOM     20  C   UNL A   1      30.720  29.201  22.802  1.00  0.00     0.041 A 
ATOM     21  C   UNL A   1      29.413  27.253  23.429  1.00  0.00    -0.014 A 
ATOM     22  C   UNL A   1      29.507  28.619  23.152  1.00  0.00     0.126 A 
ATOM     23  C   UNL A   1      28.124  26.693  23.949  1.00  0.00     0.047 C 
ATOM     24  F   UNL A   1      28.417  29.395  23.242  1.00  0.00    -0.207 F 
ENDBRANCH  14  17
ENDBRANCH  12  14
ENDBRANCH   7  12
ENDBRANCH   4   7
ENDBRANCH   2   3
ENDBRANCH   1   2
BRANCH   1  25
ATOM     25  C   UNL A   1      33.090  28.786  26.220  1.00  0.00     0.023 C 
BRANCH  25  26
ATOM     26  C   UNL A   1      34.365  28.958  27.021  1.00  0.00     0.116 C 
BRANCH  26  27
ATOM     27  N   UNL A   1      34.715  30.361  27.230  1.00  0.00    -0.352 N 
ATOM     28  C   UNL A   1      35.709  30.852  28.057  1.00  0.00     0.251 C 
ATOM     29  H   UNL A   1      34.190  31.026  26.729  1.00  0.00     0.163 HD
ATOM     30  O   UNL A   1      35.639  31.960  28.576  1.00  0.00    -0.269 OA
BRANCH  28  31
ATOM     31  C   UNL A   1      36.882  29.991  28.273  1.00  0.00     0.039 A 
ATOM     32  C   UNL A   1      37.089  29.253  29.444  1.00  0.00     0.014 A 
ATOM     33  C   UNL A   1      37.839  30.003  27.264  1.00  0.00     0.014 A 
ATOM     34  C   UNL A   1      38.272  28.528  29.574  1.00  0.00     0.010 A 
ATOM     35  C   UNL A   1      38.841  29.093  27.269  1.00  0.00     0.010 A 
ATOM     36  C   UNL A   1      39.136  28.474  28.477  1.00  0.00    -0.014 A 
BRANCH  36  37
ATOM     37  C   UNL A   1      40.482  27.939  28.484  1.00  0.00     0.031 A 
ATOM     38  C   UNL A   1      40.687  26.510  28.289  1.00  0.00     0.074 A 
ATOM     39  C   UNL A   1      41.469  28.864  28.512  1.00  0.00     0.049 A 
ATOM     40  N   UNL A   1      41.595  25.818  28.875  1.00  0.00    -0.248 NA
ATOM     41  C   UNL A   1      39.811  25.714  27.434  1.00  0.00     0.031 C 
ATOM     42  C   UNL A   1      42.884  28.756  28.220  1.00  0.00     0.029 A 
ATOM     43  N   UNL A   1      41.328  30.183  28.932  1.00  0.00    -0.354 N 
ATOM     44  C   UNL A   1      41.704  24.657  28.143  1.00  0.00     0.074 A 
ATOM     45  C   UNL A   1      40.451  24.539  27.432  1.00  0.00     0.031 C 
ATOM     46  C   UNL A   1      43.514  29.839  28.723  1.00  0.00     0.029 A 
ATOM     47  C   UNL A   1      42.533  30.629  29.460  1.00  0.00     0.049 A 
ATOM     48  H   UNL A   1      40.504  30.718  28.865  1.00  0.00     0.167 HD
ATOM     49  C   UNL A   1      42.935  24.085  27.990  1.00  0.00     0.034 A 
ATOM     50  C   UNL A   1      42.567  30.933  30.794  1.00  0.00     0.034 A 
ATOM     51  C   UNL A   1      43.953  24.919  28.628  1.00  0.00     0.049 A 
ATOM     52  C   UNL A   1      43.367  29.889  31.532  1.00  0.00     0.074 A 
ATOM     53  C   UNL A   1      44.856  25.828  28.097  1.00  0.00     0.029 A 
ATOM     54  N   UNL A   1      43.896  25.178  29.992  1.00  0.00    -0.354 N 
ATOM     55  N   UNL A   1      43.482  28.649  31.136  1.00  0.00    -0.248 NA
ATOM     56  C   UNL A   1      44.144  30.177  32.730  1.00  0.00     0.031 C 
ATOM     57  C   UNL A   1      45.299  26.672  29.145  1.00  0.00     0.029 A 
ATOM     58  C   UNL A   1      44.668  26.277  30.312  1.00  0.00     0.049 A 
ATOM     59  H   UNL A   1      43.376  24.650  30.641  1.00  0.00     0.167 HD
ATOM     60  C   UNL A   1      44.387  28.005  31.937  1.00  0.00     0.074 A 
ATOM     61  C   UNL A   1      44.750  28.994  32.936  1.00  0.00     0.031 C 
ATOM     62  C   UNL A   1      44.795  26.725  31.693  1.00  0.00     0.034 A 
BRANCH  49  63
ATOM     63  C   UNL A   1      43.256  23.010  26.969  1.00  0.00     0.023 A 
ATOM     64  C   UNL A   1      44.129  23.225  25.881  1.00  0.00     0.012 A 
ATOM     65  C   UNL A   1      42.685  21.717  27.051  1.00  0.00     0.148 A 
ATOM     66  C   UNL A   1      44.514  22.198  25.006  1.00  0.00     0.002 A 
ATOM     67  C   UNL A   1      43.045  20.703  26.163  1.00  0.00     0.091 A 
ATOM     68  F   UNL A   1      41.769  21.440  27.986  1.00  0.00    -0.205 F 
ATOM     69  C   UNL A   1      43.976  20.929  25.151  1.00  0.00     0.022 A 
BRANCH  67  70
ATOM     70  S   UNL A   1      42.271  19.091  26.327  1.00  0.00     0.127 S 
ATOM     71  O   UNL A   1      43.068  18.257  25.433  1.00  0.00    -0.237 OA
ATOM     72  O   UNL A   1      42.377  18.816  27.756  1.00  0.00    -0.237 OA
ATOM     73  O   UNL A   1      40.901  19.329  25.865  1.00  0.00    -0.744 OA
ENDBRANCH  67  70
ENDBRANCH  49  63
BRANCH  50  74
ATOM     74  C   UNL A   1      41.264  31.534  31.260  1.00  0.00     0.023 A 
ATOM     75  C   UNL A   1      41.123  32.928  31.400  1.00  0.00     0.012 A 
ATOM     76  C   UNL A   1      40.415  30.696  32.023  1.00  0.00     0.148 A 
ATOM     77  C   UNL A   1      40.247  33.457  32.363  1.00  0.00     0.002 A 
ATOM     78  C   UNL A   1      39.626  31.225  33.045  1.00  0.00     0.091 A 
ATOM     79  F   UNL A   1      40.497  29.367  31.839  1.00  0.00    -0.205 F 
ATOM     80  C   UNL A   1      39.538  32.609  33.218  1.00  0.00     0.022 A 
BRANCH  78  81
ATOM     81  S   UNL A   1      38.998  30.128  34.334  1.00  0.00     0.127 S 
ATOM     82  O   UNL A   1      38.005  29.331  33.624  1.00  0.00    -0.237 OA
ATOM     83  O   UNL A   1      40.184  29.421  34.808  1.00  0.00    -0.237 OA
ATOM     84  O   UNL A   1      38.452  31.042  35.341  1.00  0.00    -0.744 OA
ENDBRANCH  78  81
ENDBRANCH  50  74
BRANCH  62  85
ATOM     85  C   UNL A   1      45.499  25.809  32.664  1.00  0.00     0.023 A 
ATOM     86  C   UNL A   1      46.915  25.891  32.767  1.00  0.00     0.012 A 
ATOM     87  C   UNL A   1      44.881  24.794  33.403  1.00  0.00     0.148 A 
ATOM     88  C   UNL A   1      47.668  25.012  33.545  1.00  0.00     0.002 A 
ATOM     89  C   UNL A   1      45.622  24.005  34.282  1.00  0.00     0.091 A 
ATOM     90  F   UNL A   1      43.583  24.521  33.234  1.00  0.00    -0.205 F 
ATOM     91  C   UNL A   1      47.015  24.080  34.333  1.00  0.00     0.022 A 
BRANCH  89  92
ATOM     92  S   UNL A   1      44.729  22.994  35.461  1.00  0.00     0.127 S 
ATOM     93  O   UNL A   1      44.191  21.931  34.617  1.00  0.00    -0.237 OA
ATOM     94  O   UNL A   1      45.756  22.603  36.421  1.00  0.00    -0.237 OA
ATOM     95  O   UNL A   1      43.719  23.908  35.995  1.00  0.00    -0.744 OA
ENDBRANCH  89  92
ENDBRANCH  62  85
ENDBRANCH  36  37
ENDBRANCH  28  31
ENDBRANCH  26  27
ENDBRANCH  25  26
ENDBRANCH   1  25
TORSDOF 20
ENDMDL
MODEL 3
REMARK VINA RESULT:     -11.3      1.452      2.159
REMARK SMILES CSCC[C@@H](NS(=O)(=O)c1ccc(F)c(C)c1)C(=O)NCCCCNC(=O)c1ccc(-c2c3nc(c(-c4cccc(S(=O)(=O)[O-])c4F)c4ccc([nH]4)c(-c4cccc(S(=O)(=O)[O-])c4F)c4nc(c(-c5cccc(S(=O)(=O)[O-])c5F)c5ccc2[nH]5)C=C4)C=C3)cc1
REMARK SMILES IDX 22 1 21 2 20 3 18 4 19 5 5 7 4 8 3 9 2 10 1 11 6 12 7 14
REMARK SMILES IDX 8 15 9 16 10 17 11 18 17 19 12 20 15 21 13 22 16 23 14 24
REMARK SMILES IDX 23 25 24 26 25 27 26 28 27 30 28 31 29 32 90 33 30 34 89 35
REMARK SMILES IDX 31 36 32 37 33 38 83 39 34 40 88 41 82 42 84 43 35 44 87 45
REMARK SMILES IDX 81 46 80 47 36 49 68 50 48 51 67 52 49 53 52 54 66 55 85 56
REMARK SMILES IDX 50 57 51 58 65 60 86 61 53 62 37 63 38 64 46 65 39 66 41 67
REMARK SMILES IDX 47 68 40 69 42 70 43 71 44 72 45 73 69 74 70 75 78 76 71 77
REMARK SMILES IDX 73 78 79 79 72 80 74 81 75 82 76 83 77 84 54 85 55 86 63 87
REMARK SMILES IDX 56 88 58 89 64 90 57 91 59 92 60 93 61 94 62 95
REMARK H PARENT 20 6 6 13 25 29 84 48 52 59
REMARK Flexibility Score: inf
ROOT
ATOM      1  C   UNL A   1      32.252  28.721  25.587  1.00  0.00     0.023 C 
ENDROOT
BRANCH   1   2
ATOM      2  C   UNL A   1      31.946  27.726  24.464  1.00  0.00     0.116 C 
BRANCH   2   3
ATOM      3  N   UNL A   1      30.516  27.451  24.385  1.00  0.00    -0.355 N 
ATOM      4  C   UNL A   1      29.828  26.277  24.291  1.00  0.00     0.238 C 
ATOM      5  O   UNL A   1      28.597  26.336  24.226  1.00  0.00    -0.273 OA
ATOM      6  H   UNL A   1      29.948  28.255  24.403  1.00  0.00     0.163 HD
BRANCH   4   7
ATOM      7  C   UNL A   1      30.551  24.927  24.274  1.00  0.00     0.159 C 
BRANCH   7   8
ATOM      8  C   UNL A   1      31.217  24.712  22.903  1.00  0.00     0.041 C 
BRANCH   8   9
ATOM      9  C   UNL A   1      31.798  23.335  22.603  1.00  0.00     0.071 C 
BRANCH   9  10
ATOM     10  S   UNL A   1      33.597  23.315  22.332  1.00  0.00    -0.165 SA
ATOM     11  C   UNL A   1      33.999  25.017  22.788  1.00  0.00     0.085 C 
ENDBRANCH   9  10
ENDBRANCH   8   9
ENDBRANCH   7   8
BRANCH   7  12
ATOM     12  N   UNL A   1      31.475  24.821  25.415  1.00  0.00    -0.199 NA
ATOM     13  H   UNL A   1      31.206  25.553  26.073  1.00  0.00     0.142 HD
BRANCH  12  14
ATOM     14  S   UNL A   1      31.609  23.404  26.313  1.00  0.00     0.241 S 
ATOM     15  O   UNL A   1      31.600  23.790  27.706  1.00  0.00    -0.207 OA
ATOM     16  O   UNL A   1      30.604  22.508  25.781  1.00  0.00    -0.207 OA
BRANCH  14  17
ATOM     17  C   UNL A   1      33.192  22.679  25.954  1.00  0.00     0.082 A 
ATOM     18  C   UNL A   1      33.300  21.335  25.595  1.00  0.00     0.025 A 
ATOM     19  C   UNL A   1      34.344  23.478  26.033  1.00  0.00     0.028 A 
ATOM     20  C   UNL A   1      34.527  20.825  25.171  1.00  0.00     0.041 A 
ATOM     21  C   UNL A   1      35.599  22.938  25.701  1.00  0.00    -0.014 A 
ATOM     22  C   UNL A   1      35.659  21.631  25.213  1.00  0.00     0.126 A 
ATOM     23  C   UNL A   1      36.865  23.720  25.871  1.00  0.00     0.047 C 
ATOM     24  F   UNL A   1      36.829  21.127  24.793  1.00  0.00    -0.207 F 
ENDBRANCH  14  17
ENDBRANCH  12  14
ENDBRANCH   7  12
ENDBRANCH   4   7
ENDBRANCH   2   3
ENDBRANCH   1   2
BRANCH   1  25
ATOM     25  C   UNL A   1      33.738  28.827  25.957  1.00  0.00     0.023 C 
BRANCH  25  26
ATOM     26  C   UNL A   1      33.961  29.114  27.428  1.00  0.00     0.116 C 
BRANCH  26  27
ATOM     27  N   UNL A   1      34.282  30.516  27.688  1.00  0.00    -0.352 N 
ATOM     28  C   UNL A   1      35.279  30.997  28.515  1.00  0.00     0.251 C 
ATOM     29  H   UNL A   1      33.731  31.187  27.224  1.00  0.00     0.163 HD
ATOM     30  O   UNL A   1      35.193  32.081  29.081  1.00  0.00    -0.269 OA
BRANCH  28  31
ATOM     31  C   UNL A   1      36.477  30.157  28.675  1.00  0.00     0.039 A 
ATOM     32  C   UNL A   1      36.724  29.378  29.811  1.00  0.00     0.014 A 
ATOM     33  C   UNL A   1      37.414  30.234  27.650  1.00  0.00     0.014 A 
ATOM     34  C   UNL A   1      37.926  28.678  29.890  1.00  0.00     0.010 A 
ATOM     35  C   UNL A   1      38.438  29.349  27.599  1.00  0.00     0.010 A 
ATOM     36  C   UNL A   1      38.770  28.689  28.775  1.00  0.00    -0.014 A 
BRANCH  36  37
ATOM     37  C   UNL A   1      40.128  28.188  28.736  1.00  0.00     0.031 A 
ATOM     38  C   UNL A   1      40.362  26.765  28.532  1.00  0.00     0.074 A 
ATOM     39  C   UNL A   1      41.092  29.137  28.733  1.00  0.00     0.049 A 
ATOM     40  N   UNL A   1      41.306  26.095  29.086  1.00  0.00    -0.248 NA
ATOM     41  C   UNL A   1      39.477  25.948  27.705  1.00  0.00     0.031 C 
ATOM     42  C   UNL A   1      42.499  29.064  28.394  1.00  0.00     0.029 A 
ATOM     43  N   UNL A   1      40.933  30.452  29.160  1.00  0.00    -0.354 N 
ATOM     44  C   UNL A   1      41.419  24.938  28.349  1.00  0.00     0.074 A 
ATOM     45  C   UNL A   1      40.146  24.789  27.680  1.00  0.00     0.031 C 
ATOM     46  C   UNL A   1      43.119  30.162  28.877  1.00  0.00     0.029 A 
ATOM     47  C   UNL A   1      42.144  30.927  29.648  1.00  0.00     0.049 A 
ATOM     48  H   UNL A   1      40.094  30.966  29.122  1.00  0.00     0.167 HD
ATOM     49  C   UNL A   1      42.657  24.396  28.154  1.00  0.00     0.034 A 
ATOM     50  C   UNL A   1      42.215  31.230  30.980  1.00  0.00     0.034 A 
ATOM     51  C   UNL A   1      43.676  25.255  28.759  1.00  0.00     0.049 A 
ATOM     52  C   UNL A   1      43.065  30.206  31.689  1.00  0.00     0.074 A 
ATOM     53  C   UNL A   1      44.537  26.186  28.199  1.00  0.00     0.029 A 
ATOM     54  N   UNL A   1      43.658  25.510  30.124  1.00  0.00    -0.354 N 
ATOM     55  N   UNL A   1      43.197  28.970  31.288  1.00  0.00    -0.248 NA
ATOM     56  C   UNL A   1      43.874  30.511  32.861  1.00  0.00     0.031 C 
ATOM     57  C   UNL A   1      44.995  27.040  29.233  1.00  0.00     0.029 A 
ATOM     58  C   UNL A   1      44.413  26.628  30.420  1.00  0.00     0.049 A 
ATOM     59  H   UNL A   1      43.173  24.969  30.789  1.00  0.00     0.167 HD
ATOM     60  C   UNL A   1      44.145  28.347  32.056  1.00  0.00     0.074 A 
ATOM     61  C   UNL A   1      44.516  29.344  33.044  1.00  0.00     0.031 C 
ATOM     62  C   UNL A   1      44.576  27.078  31.796  1.00  0.00     0.034 A 
BRANCH  49  63
ATOM     63  C   UNL A   1      42.970  23.330  27.120  1.00  0.00     0.023 A 
ATOM     64  C   UNL A   1      43.841  23.554  26.031  1.00  0.00     0.012 A 
ATOM     65  C   UNL A   1      42.395  22.039  27.191  1.00  0.00     0.148 A 
ATOM     66  C   UNL A   1      44.218  22.534  25.144  1.00  0.00     0.002 A 
ATOM     67  C   UNL A   1      42.747  21.033  26.291  1.00  0.00     0.091 A 
ATOM     68  F   UNL A   1      41.482  21.756  28.126  1.00  0.00    -0.205 F 
ATOM     69  C   UNL A   1      43.676  21.265  25.278  1.00  0.00     0.022 A 
BRANCH  67  70
ATOM     70  S   UNL A   1      41.968  19.422  26.442  1.00  0.00     0.127 S 
ATOM     71  O   UNL A   1      42.335  19.010  27.793  1.00  0.00    -0.237 OA
ATOM     72  O   UNL A   1      40.559  19.711  26.201  1.00  0.00    -0.237 OA
ATOM     73  O   UNL A   1      42.607  18.641  25.381  1.00  0.00    -0.744 OA
ENDBRANCH  67  70
ENDBRANCH  49  63
BRANCH  50  74
ATOM     74  C   UNL A   1      40.914  31.798  31.491  1.00  0.00     0.023 A 
ATOM     75  C   UNL A   1      40.749  33.187  31.653  1.00  0.00     0.012 A 
ATOM     76  C   UNL A   1      40.105  30.933  32.268  1.00  0.00     0.148 A 
ATOM     77  C   UNL A   1      39.890  33.686  32.647  1.00  0.00     0.002 A 
ATOM     78  C   UNL A   1      39.335  31.434  33.319  1.00  0.00     0.091 A 
ATOM     79  F   UNL A   1      40.208  29.609  32.065  1.00  0.00    -0.205 F 
ATOM     80  C   UNL A   1      39.223  32.813  33.511  1.00  0.00     0.022 A 
BRANCH  78  81
ATOM     81  S   UNL A   1      38.767  30.309  34.611  1.00  0.00     0.127 S 
ATOM     82  O   UNL A   1      40.013  29.754  35.126  1.00  0.00    -0.237 OA
ATOM     83  O   UNL A   1      38.010  31.165  35.520  1.00  0.00    -0.237 OA
ATOM     84  O   UNL A   1      37.913  29.355  33.900  1.00  0.00    -0.744 OA
ENDBRANCH  78  81
ENDBRANCH  50  74
BRANCH  62  85
ATOM     85  C   UNL A   1      45.334  26.178  32.742  1.00  0.00     0.023 A 
ATOM     86  C   UNL A   1      46.754  26.157  32.663  1.00  0.00     0.012 A 
ATOM     87  C   UNL A   1      44.749  25.267  33.628  1.00  0.00     0.148 A 
ATOM     88  C   UNL A   1      47.539  25.278  33.408  1.00  0.00     0.002 A 
ATOM     89  C   UNL A   1      45.540  24.485  34.467  1.00  0.00     0.091 A 
ATOM     90  F   UNL A   1      43.423  25.085  33.642  1.00  0.00    -0.205 F 
ATOM     91  C   UNL A   1      46.931  24.456  34.340  1.00  0.00     0.022 A 
BRANCH  89  92
ATOM     92  S   UNL A   1      44.740  23.630  35.822  1.00  0.00     0.127 S 
ATOM     93  O   UNL A   1      45.871  23.027  36.523  1.00  0.00    -0.237 OA
ATOM     94  O   UNL A   1      44.033  24.694  36.527  1.00  0.00    -0.237 OA
ATOM     95  O   UNL A   1      43.867  22.667  35.148  1.00  0.00    -0.744 OA
ENDBRANCH  89  92
ENDBRANCH  62  85
ENDBRANCH  36  37
ENDBRANCH  28  31
ENDBRANCH  26  27
ENDBRANCH  25  26
ENDBRANCH   1  25
TORSDOF 20
ENDMDL
