MODEL 1
REMARK VINA RESULT:     -10.5      0.000      0.000
REMARK SMILES CCCN(CC(=O)NCCCCNC(=O)c1ccc(-c2c3nc(c(-c4cccc(S(=O)(=O)[O-])c4F)c4ccc([nH]4)c(-c4cccc(S(=O)(=O)[O-])c4F)c4nc(c(-c5cccc(S(=O)(=O)[O-])c5F)c5ccc2[nH]5)C=C4)C=C3)cc1)C(=O)C[C@@H]1CSCC[NH2+]1
REMARK SMILES IDX 10 1 9 2 8 3 6 4 7 5 5 7 4 8 3 9 2 10 1 11 79 12 80 13 81 14
REMARK SMILES IDX 82 15 83 16 87 17 84 18 86 19 85 22 11 23 12 24 13 25 14 26
REMARK SMILES IDX 15 28 16 29 17 30 78 31 18 32 77 33 19 34 20 35 21 36 71 37
REMARK SMILES IDX 22 38 76 39 70 40 72 41 23 42 75 43 69 44 68 45 24 47 56 48
REMARK SMILES IDX 36 49 55 50 37 51 40 52 54 53 73 54 38 55 39 56 53 58 74 59
REMARK SMILES IDX 41 60 25 61 26 62 34 63 27 64 29 65 35 66 28 67 30 68 31 69
REMARK SMILES IDX 32 70 33 71 57 72 58 73 66 74 59 75 61 76 67 77 60 78 62 79
REMARK SMILES IDX 63 80 64 81 65 82 42 83 43 84 51 85 44 86 46 87 52 88 45 89
REMARK SMILES IDX 47 90 48 91 49 92 50 93
REMARK H PARENT 8 6 87 20 87 21 13 27 72 46 40 57
REMARK Flexibility Score: inf
ROOT
ATOM      1  C   UNL A   1      31.477  27.387  26.455  1.00  0.00     0.023 C 
ENDROOT
BRANCH   1   2
ATOM      2  C   UNL A   1      31.293  25.972  25.917  1.00  0.00     0.116 C 
BRANCH   2   3
ATOM      3  N   UNL A   1      31.327  24.954  26.943  1.00  0.00    -0.355 N 
ATOM      4  C   UNL A   1      31.600  23.627  26.802  1.00  0.00     0.239 C 
ATOM      5  O   UNL A   1      31.894  22.979  27.810  1.00  0.00    -0.273 OA
ATOM      6  H   UNL A   1      31.129  25.260  27.858  1.00  0.00     0.163 HD
BRANCH   4   7
ATOM      7  C   UNL A   1      31.628  22.953  25.422  1.00  0.00     0.219 C 
BRANCH   7   8
ATOM      8  N   UNL A   1      32.928  22.416  25.000  1.00  0.00    -0.333 N 
BRANCH   8   9
ATOM      9  C   UNL A   1      33.750  23.260  24.125  1.00  0.00     0.120 C 
BRANCH   9  10
ATOM     10  C   UNL A   1      34.408  24.459  24.815  1.00  0.00     0.018 C 
ATOM     11  C   UNL A   1      35.570  24.080  25.720  1.00  0.00     0.006 C 
ENDBRANCH   9  10
ENDBRANCH   8   9
BRANCH   8  12
ATOM     12  C   UNL A   1      33.461  21.212  25.456  1.00  0.00     0.229 C 
ATOM     13  O   UNL A   1      33.888  21.099  26.608  1.00  0.00    -0.275 OA
BRANCH  12  14
ATOM     14  C   UNL A   1      33.600  20.026  24.508  1.00  0.00     0.166 C 
BRANCH  14  15
ATOM     15  C   UNL A   1      32.453  18.994  24.595  1.00  0.00     0.201 C 
ATOM     16  C   UNL A   1      32.671  17.953  25.720  1.00  0.00     0.135 C 
ATOM     17  N   UNL A   1      32.154  18.319  23.309  1.00  0.00    -0.342 N 
ATOM     18  S   UNL A   1      34.042  16.786  25.411  1.00  0.00    -0.150 SA
ATOM     19  C   UNL A   1      33.250  17.462  22.828  1.00  0.00     0.271 C 
ATOM     20  H   UNL A   1      31.969  19.033  22.605  1.00  0.00     0.346 HD
ATOM     21  H   UNL A   1      31.347  17.715  23.467  1.00  0.00     0.346 HD
ATOM     22  C   UNL A   1      33.560  16.272  23.733  1.00  0.00     0.131 C 
ENDBRANCH  14  15
ENDBRANCH  12  14
ENDBRANCH   8  12
ENDBRANCH   7   8
ENDBRANCH   4   7
ENDBRANCH   2   3
ENDBRANCH   1   2
BRANCH   1  23
ATOM     23  C   UNL A   1      31.759  28.456  25.397  1.00  0.00     0.023 C 
BRANCH  23  24
ATOM     24  C   UNL A   1      32.972  29.341  25.660  1.00  0.00     0.116 C 
BRANCH  24  25
ATOM     25  N   UNL A   1      32.628  30.664  26.164  1.00  0.00    -0.352 N 
ATOM     26  C   UNL A   1      33.298  31.431  27.086  1.00  0.00     0.251 C 
ATOM     27  H   UNL A   1      31.806  31.061  25.794  1.00  0.00     0.163 HD
ATOM     28  O   UNL A   1      32.822  32.498  27.463  1.00  0.00    -0.269 OA
BRANCH  26  29
ATOM     29  C   UNL A   1      34.576  30.943  27.643  1.00  0.00     0.039 A 
ATOM     30  C   UNL A   1      35.624  31.849  27.818  1.00  0.00     0.014 A 
ATOM     31  C   UNL A   1      34.720  29.609  28.031  1.00  0.00     0.014 A 
ATOM     32  C   UNL A   1      36.799  31.430  28.447  1.00  0.00     0.010 A 
ATOM     33  C   UNL A   1      35.860  29.214  28.723  1.00  0.00     0.010 A 
ATOM     34  C   UNL A   1      36.912  30.118  28.935  1.00  0.00    -0.014 A 
BRANCH  34  35
ATOM     35  C   UNL A   1      38.117  29.670  29.678  1.00  0.00     0.031 A 
ATOM     36  C   UNL A   1      38.377  30.175  31.070  1.00  0.00     0.074 A 
ATOM     37  C   UNL A   1      39.025  28.887  29.063  1.00  0.00     0.049 A 
ATOM     38  N   UNL A   1      39.401  29.951  31.850  1.00  0.00    -0.248 NA
ATOM     39  C   UNL A   1      37.368  31.078  31.648  1.00  0.00     0.031 C 
ATOM     40  C   UNL A   1      38.928  28.398  27.686  1.00  0.00     0.029 A 
ATOM     41  N   UNL A   1      40.224  28.389  29.509  1.00  0.00    -0.354 N 
ATOM     42  C   UNL A   1      39.182  30.713  32.992  1.00  0.00     0.074 A 
ATOM     43  C   UNL A   1      37.946  31.435  32.786  1.00  0.00     0.031 C 
ATOM     44  C   UNL A   1      40.016  27.662  27.404  1.00  0.00     0.029 A 
ATOM     45  C   UNL A   1      40.900  27.652  28.563  1.00  0.00     0.049 A 
ATOM     46  H   UNL A   1      40.567  28.543  30.418  1.00  0.00     0.167 HD
ATOM     47  C   UNL A   1      39.924  30.782  34.123  1.00  0.00     0.034 A 
ATOM     48  C   UNL A   1      42.100  27.040  28.625  1.00  0.00     0.034 A 
ATOM     49  C   UNL A   1      41.127  30.026  34.342  1.00  0.00     0.049 A 
ATOM     50  C   UNL A   1      42.885  27.096  29.907  1.00  0.00     0.074 A 
ATOM     51  C   UNL A   1      41.899  29.949  35.488  1.00  0.00     0.029 A 
ATOM     52  N   UNL A   1      41.740  29.222  33.392  1.00  0.00    -0.354 N 
ATOM     53  N   UNL A   1      42.580  27.688  31.036  1.00  0.00    -0.248 NA
ATOM     54  C   UNL A   1      44.163  26.370  29.936  1.00  0.00     0.031 C 
ATOM     55  C   UNL A   1      42.991  29.115  35.222  1.00  0.00     0.029 A 
ATOM     56  C   UNL A   1      42.886  28.654  33.920  1.00  0.00     0.049 A 
ATOM     57  H   UNL A   1      41.407  29.077  32.476  1.00  0.00     0.167 HD
ATOM     58  C   UNL A   1      43.608  27.378  31.920  1.00  0.00     0.074 A 
ATOM     59  C   UNL A   1      44.535  26.530  31.198  1.00  0.00     0.031 C 
ATOM     60  C   UNL A   1      43.775  27.770  33.207  1.00  0.00     0.034 A 
BRANCH  47  61
ATOM     61  C   UNL A   1      39.419  31.670  35.231  1.00  0.00     0.023 A 
ATOM     62  C   UNL A   1      38.513  31.152  36.180  1.00  0.00     0.012 A 
ATOM     63  C   UNL A   1      39.860  33.002  35.354  1.00  0.00     0.148 A 
ATOM     64  C   UNL A   1      38.019  31.956  37.205  1.00  0.00     0.002 A 
ATOM     65  C   UNL A   1      39.398  33.784  36.407  1.00  0.00     0.091 A 
ATOM     66  F   UNL A   1      40.703  33.487  34.431  1.00  0.00    -0.205 F 
ATOM     67  C   UNL A   1      38.468  33.268  37.324  1.00  0.00     0.022 A 
BRANCH  65  68
ATOM     68  S   UNL A   1      39.980  35.460  36.689  1.00  0.00     0.127 S 
ATOM     69  O   UNL A   1      39.378  36.175  35.565  1.00  0.00    -0.237 OA
ATOM     70  O   UNL A   1      39.396  35.776  37.994  1.00  0.00    -0.237 OA
ATOM     71  O   UNL A   1      41.434  35.384  36.681  1.00  0.00    -0.744 OA
ENDBRANCH  65  68
ENDBRANCH  47  61
BRANCH  48  72
ATOM     72  C   UNL A   1      42.587  26.251  27.459  1.00  0.00     0.023 A 
ATOM     73  C   UNL A   1      43.445  26.864  26.525  1.00  0.00     0.012 A 
ATOM     74  C   UNL A   1      42.246  24.895  27.293  1.00  0.00     0.148 A 
ATOM     75  C   UNL A   1      43.935  26.149  25.432  1.00  0.00     0.002 A 
ATOM     76  C   UNL A   1      42.780  24.174  26.231  1.00  0.00     0.091 A 
ATOM     77  F   UNL A   1      41.422  24.333  28.188  1.00  0.00    -0.205 F 
ATOM     78  C   UNL A   1      43.611  24.803  25.291  1.00  0.00     0.022 A 
BRANCH  76  79
ATOM     79  S   UNL A   1      42.523  22.407  26.036  1.00  0.00     0.127 S 
ATOM     80  O   UNL A   1      43.309  22.120  24.839  1.00  0.00    -0.237 OA
ATOM     81  O   UNL A   1      43.083  21.883  27.282  1.00  0.00    -0.237 OA
ATOM     82  O   UNL A   1      41.083  22.230  25.903  1.00  0.00    -0.744 OA
ENDBRANCH  76  79
ENDBRANCH  48  72
BRANCH  60  83
ATOM     83  C   UNL A   1      44.989  27.263  33.941  1.00  0.00     0.023 A 
ATOM     84  C   UNL A   1      46.170  28.031  33.954  1.00  0.00     0.012 A 
ATOM     85  C   UNL A   1      44.932  26.067  34.683  1.00  0.00     0.148 A 
ATOM     86  C   UNL A   1      47.287  27.598  34.669  1.00  0.00     0.002 A 
ATOM     87  C   UNL A   1      46.032  25.667  35.433  1.00  0.00     0.091 A 
ATOM     88  F   UNL A   1      43.805  25.341  34.642  1.00  0.00    -0.205 F 
ATOM     89  C   UNL A   1      47.214  26.426  35.417  1.00  0.00     0.022 A 
BRANCH  87  90
ATOM     90  S   UNL A   1      45.995  24.225  36.502  1.00  0.00     0.127 S 
ATOM     91  O   UNL A   1      47.372  24.181  36.991  1.00  0.00    -0.237 OA
ATOM     92  O   UNL A   1      45.003  24.608  37.507  1.00  0.00    -0.237 OA
ATOM     93  O   UNL A   1      45.595  23.109  35.656  1.00  0.00    -0.744 OA
ENDBRANCH  87  90
ENDBRANCH  60  83
ENDBRANCH  34  35
ENDBRANCH  26  29
ENDBRANCH  24  25
ENDBRANCH  23  24
ENDBRANCH   1  23
TORSDOF 20
ENDMDL
MODEL 2
REMARK VINA RESULT:     -10.4      3.159      4.991
REMARK SMILES CCCN(CC(=O)NCCCCNC(=O)c1ccc(-c2c3nc(c(-c4cccc(S(=O)(=O)[O-])c4F)c4ccc([nH]4)c(-c4cccc(S(=O)(=O)[O-])c4F)c4nc(c(-c5cccc(S(=O)(=O)[O-])c5F)c5ccc2[nH]5)C=C4)C=C3)cc1)C(=O)C[C@@H]1CSCC[NH2+]1
REMARK SMILES IDX 10 1 9 2 8 3 6 4 7 5 5 7 4 8 3 9 2 10 1 11 79 12 80 13 81 14
REMARK SMILES IDX 82 15 83 16 87 17 84 18 86 19 85 22 11 23 12 24 13 25 14 26
REMARK SMILES IDX 15 28 16 29 17 30 78 31 18 32 77 33 19 34 20 35 21 36 71 37
REMARK SMILES IDX 22 38 76 39 70 40 72 41 23 42 75 43 69 44 68 45 24 47 56 48
REMARK SMILES IDX 36 49 55 50 37 51 40 52 54 53 73 54 38 55 39 56 53 58 74 59
REMARK SMILES IDX 41 60 25 61 26 62 34 63 27 64 29 65 35 66 28 67 30 68 31 69
REMARK SMILES IDX 32 70 33 71 57 72 58 73 66 74 59 75 61 76 67 77 60 78 62 79
REMARK SMILES IDX 63 80 64 81 65 82 42 83 43 84 51 85 44 86 46 87 52 88 45 89
REMARK SMILES IDX 47 90 48 91 49 92 50 93
REMARK H PARENT 8 6 87 20 87 21 13 27 72 46 40 57
REMARK Flexibility Score: inf
ROOT
ATOM      1  C   UNL A   1      32.081  30.061  27.257  1.00  0.00     0.023 C 
ENDROOT
BRANCH   1   2
ATOM      2  C   UNL A   1      31.915  29.063  26.115  1.00  0.00     0.116 C 
BRANCH   2   3
ATOM      3  N   UNL A   1      32.931  29.178  25.094  1.00  0.00    -0.355 N 
ATOM      4  C   UNL A   1      33.218  28.304  24.089  1.00  0.00     0.239 C 
ATOM      5  O   UNL A   1      33.890  28.706  23.136  1.00  0.00    -0.273 OA
ATOM      6  H   UNL A   1      33.485  29.991  25.129  1.00  0.00     0.163 HD
BRANCH   4   7
ATOM      7  C   UNL A   1      32.656  26.873  24.084  1.00  0.00     0.219 C 
BRANCH   7   8
ATOM      8  N   UNL A   1      31.217  26.754  23.817  1.00  0.00    -0.333 N 
BRANCH   8   9
ATOM      9  C   UNL A   1      30.428  25.940  24.750  1.00  0.00     0.120 C 
BRANCH   9  10
ATOM     10  C   UNL A   1      30.732  24.439  24.714  1.00  0.00     0.018 C 
ATOM     11  C   UNL A   1      30.715  23.846  23.314  1.00  0.00     0.006 C 
ENDBRANCH   9  10
ENDBRANCH   8   9
BRANCH   8  12
ATOM     12  C   UNL A   1      30.550  27.439  22.803  1.00  0.00     0.229 C 
ATOM     13  O   UNL A   1      30.801  27.223  21.615  1.00  0.00    -0.275 OA
BRANCH  12  14
ATOM     14  C   UNL A   1      29.546  28.535  23.149  1.00  0.00     0.166 C 
BRANCH  14  15
ATOM     15  C   UNL A   1      30.089  29.974  23.005  1.00  0.00     0.201 C 
ATOM     16  C   UNL A   1      29.397  30.972  23.964  1.00  0.00     0.135 C 
ATOM     17  N   UNL A   1      30.069  30.487  21.613  1.00  0.00    -0.342 N 
ATOM     18  S   UNL A   1      27.649  31.316  23.560  1.00  0.00    -0.150 SA
ATOM     19  C   UNL A   1      28.710  30.657  21.072  1.00  0.00     0.271 C 
ATOM     20  H   UNL A   1      30.573  29.830  21.019  1.00  0.00     0.346 HD
ATOM     21  H   UNL A   1      30.504  31.409  21.626  1.00  0.00     0.346 HD
ATOM     22  C   UNL A   1      27.872  31.706  21.797  1.00  0.00     0.131 C 
ENDBRANCH  14  15
ENDBRANCH  12  14
ENDBRANCH   8  12
ENDBRANCH   7   8
ENDBRANCH   4   7
ENDBRANCH   2   3
ENDBRANCH   1   2
BRANCH   1  23
ATOM     23  C   UNL A   1      31.756  31.514  26.906  1.00  0.00     0.023 C 
BRANCH  23  24
ATOM     24  C   UNL A   1      32.939  32.476  26.918  1.00  0.00     0.116 C 
BRANCH  24  25
ATOM     25  N   UNL A   1      32.603  33.803  27.416  1.00  0.00    -0.352 N 
ATOM     26  C   UNL A   1      33.156  34.489  28.470  1.00  0.00     0.251 C 
ATOM     27  H   UNL A   1      31.884  34.271  26.932  1.00  0.00     0.163 HD
ATOM     28  O   UNL A   1      32.694  35.575  28.810  1.00  0.00    -0.269 OA
BRANCH  26  29
ATOM     29  C   UNL A   1      34.284  33.891  29.211  1.00  0.00     0.039 A 
ATOM     30  C   UNL A   1      34.040  32.795  30.042  1.00  0.00     0.014 A 
ATOM     31  C   UNL A   1      35.582  34.382  29.051  1.00  0.00     0.014 A 
ATOM     32  C   UNL A   1      35.111  32.148  30.662  1.00  0.00     0.010 A 
ATOM     33  C   UNL A   1      36.653  33.691  29.609  1.00  0.00     0.010 A 
ATOM     34  C   UNL A   1      36.428  32.570  30.423  1.00  0.00    -0.014 A 
BRANCH  34  35
ATOM     35  C   UNL A   1      37.589  31.850  31.004  1.00  0.00     0.031 A 
ATOM     36  C   UNL A   1      38.076  32.193  32.385  1.00  0.00     0.074 A 
ATOM     37  C   UNL A   1      38.264  30.958  30.253  1.00  0.00     0.049 A 
ATOM     38  N   UNL A   1      39.108  31.724  33.036  1.00  0.00    -0.248 NA
ATOM     39  C   UNL A   1      37.323  33.224  33.118  1.00  0.00     0.031 C 
ATOM     40  C   UNL A   1      37.940  30.598  28.870  1.00  0.00     0.029 A 
ATOM     41  N   UNL A   1      39.380  30.212  30.537  1.00  0.00    -0.354 N 
ATOM     42  C   UNL A   1      39.152  32.427  34.234  1.00  0.00     0.074 A 
ATOM     43  C   UNL A   1      38.066  33.381  34.203  1.00  0.00     0.031 C 
ATOM     44  C   UNL A   1      38.832  29.695  28.432  1.00  0.00     0.029 A 
ATOM     45  C   UNL A   1      39.805  29.433  29.486  1.00  0.00     0.049 A 
ATOM     46  H   UNL A   1      39.833  30.231  31.411  1.00  0.00     0.167 HD
ATOM     47  C   UNL A   1      40.000  32.271  35.279  1.00  0.00     0.034 A 
ATOM     48  C   UNL A   1      40.863  28.604  29.383  1.00  0.00     0.034 A 
ATOM     49  C   UNL A   1      41.048  31.290  35.324  1.00  0.00     0.049 A 
ATOM     50  C   UNL A   1      41.765  28.417  30.573  1.00  0.00     0.074 A 
ATOM     51  C   UNL A   1      41.898  30.984  36.373  1.00  0.00     0.029 A 
ATOM     52  N   UNL A   1      41.398  30.457  34.271  1.00  0.00    -0.354 N 
ATOM     53  N   UNL A   1      41.692  28.971  31.758  1.00  0.00    -0.248 NA
ATOM     54  C   UNL A   1      42.874  27.464  30.422  1.00  0.00     0.031 C 
ATOM     55  C   UNL A   1      42.776  29.982  35.945  1.00  0.00     0.029 A 
ATOM     56  C   UNL A   1      42.457  29.646  34.639  1.00  0.00     0.049 A 
ATOM     57  H   UNL A   1      40.957  30.445  33.390  1.00  0.00     0.167 HD
ATOM     58  C   UNL A   1      42.720  28.409  32.506  1.00  0.00     0.074 A 
ATOM     59  C   UNL A   1      43.390  27.458  31.644  1.00  0.00     0.031 C 
ATOM     60  C   UNL A   1      43.084  28.667  33.787  1.00  0.00     0.034 A 
BRANCH  47  61
ATOM     61  C   UNL A   1      39.787  33.154  36.481  1.00  0.00     0.023 A 
ATOM     62  C   UNL A   1      40.354  34.446  36.506  1.00  0.00     0.012 A 
ATOM     63  C   UNL A   1      39.004  32.725  37.570  1.00  0.00     0.148 A 
ATOM     64  C   UNL A   1      40.185  35.277  37.612  1.00  0.00     0.002 A 
ATOM     65  C   UNL A   1      38.801  33.578  38.650  1.00  0.00     0.091 A 
ATOM     66  F   UNL A   1      38.491  31.487  37.543  1.00  0.00    -0.205 F 
ATOM     67  C   UNL A   1      39.402  34.847  38.679  1.00  0.00     0.022 A 
BRANCH  65  68
ATOM     68  S   UNL A   1      37.743  33.144  40.035  1.00  0.00     0.127 S 
ATOM     69  O   UNL A   1      38.424  31.965  40.569  1.00  0.00    -0.237 OA
ATOM     70  O   UNL A   1      37.836  34.335  40.882  1.00  0.00    -0.237 OA
ATOM     71  O   UNL A   1      36.423  32.907  39.469  1.00  0.00    -0.744 OA
ENDBRANCH  65  68
ENDBRANCH  47  61
BRANCH  48  72
ATOM     72  C   UNL A   1      41.073  27.826  28.130  1.00  0.00     0.023 A 
ATOM     73  C   UNL A   1      41.631  28.468  27.008  1.00  0.00     0.012 A 
ATOM     74  C   UNL A   1      40.767  26.453  28.055  1.00  0.00     0.148 A 
ATOM     75  C   UNL A   1      41.858  27.765  25.824  1.00  0.00     0.002 A 
ATOM     76  C   UNL A   1      41.045  25.746  26.891  1.00  0.00     0.091 A 
ATOM     77  F   UNL A   1      40.229  25.864  29.132  1.00  0.00    -0.205 F 
ATOM     78  C   UNL A   1      41.575  26.403  25.769  1.00  0.00     0.022 A 
BRANCH  76  79
ATOM     79  S   UNL A   1      40.832  23.967  26.766  1.00  0.00     0.127 S 
ATOM     80  O   UNL A   1      41.733  23.634  25.666  1.00  0.00    -0.237 OA
ATOM     81  O   UNL A   1      41.279  23.519  28.086  1.00  0.00    -0.237 OA
ATOM     82  O   UNL A   1      39.414  23.756  26.508  1.00  0.00    -0.744 OA
ENDBRANCH  76  79
ENDBRANCH  48  72
BRANCH  60  83
ATOM     83  C   UNL A   1      44.242  27.888  34.355  1.00  0.00     0.023 A 
ATOM     84  C   UNL A   1      45.544  28.420  34.286  1.00  0.00     0.012 A 
ATOM     85  C   UNL A   1      44.026  26.669  35.029  1.00  0.00     0.148 A 
ATOM     86  C   UNL A   1      46.620  27.734  34.851  1.00  0.00     0.002 A 
ATOM     87  C   UNL A   1      45.095  26.016  35.631  1.00  0.00     0.091 A 
ATOM     88  F   UNL A   1      42.782  26.170  35.067  1.00  0.00    -0.205 F 
ATOM     89  C   UNL A   1      46.394  26.541  35.533  1.00  0.00     0.022 A 
BRANCH  87  90
ATOM     90  S   UNL A   1      44.882  24.527  36.613  1.00  0.00     0.127 S 
ATOM     91  O   UNL A   1      44.365  23.587  35.620  1.00  0.00    -0.237 OA
ATOM     92  O   UNL A   1      46.248  24.251  37.060  1.00  0.00    -0.237 OA
ATOM     93  O   UNL A   1      43.958  24.881  37.682  1.00  0.00    -0.744 OA
ENDBRANCH  87  90
ENDBRANCH  60  83
ENDBRANCH  34  35
ENDBRANCH  26  29
ENDBRANCH  24  25
ENDBRANCH  23  24
ENDBRANCH   1  23
TORSDOF 20
ENDMDL
MODEL 3
REMARK VINA RESULT:     -10.3      1.870      2.220
REMARK SMILES CCCN(CC(=O)NCCCCNC(=O)c1ccc(-c2c3nc(c(-c4cccc(S(=O)(=O)[O-])c4F)c4ccc([nH]4)c(-c4cccc(S(=O)(=O)[O-])c4F)c4nc(c(-c5cccc(S(=O)(=O)[O-])c5F)c5ccc2[nH]5)C=C4)C=C3)cc1)C(=O)C[C@@H]1CSCC[NH2+]1
REMARK SMILES IDX 10 1 9 2 8 3 6 4 7 5 5 7 4 8 3 9 2 10 1 11 79 12 80 13 81 14
REMARK SMILES IDX 82 15 83 16 87 17 84 18 86 19 85 22 11 23 12 24 13 25 14 26
REMARK SMILES IDX 15 28 16 29 17 30 78 31 18 32 77 33 19 34 20 35 21 36 71 37
REMARK SMILES IDX 22 38 76 39 70 40 72 41 23 42 75 43 69 44 68 45 24 47 56 48
REMARK SMILES IDX 36 49 55 50 37 51 40 52 54 53 73 54 38 55 39 56 53 58 74 59
REMARK SMILES IDX 41 60 25 61 26 62 34 63 27 64 29 65 35 66 28 67 30 68 31 69
REMARK SMILES IDX 32 70 33 71 57 72 58 73 66 74 59 75 61 76 67 77 60 78 62 79
REMARK SMILES IDX 63 80 64 81 65 82 42 83 43 84 51 85 44 86 46 87 52 88 45 89
REMARK SMILES IDX 47 90 48 91 49 92 50 93
REMARK H PARENT 8 6 87 20 87 21 13 27 72 46 40 57
REMARK Flexibility Score: inf
ROOT
ATOM      1  C   UNL A   1      32.072  27.535  26.624  1.00  0.00     0.023 C 
ENDROOT
BRANCH   1   2
ATOM      2  C   UNL A   1      30.847  26.711  26.240  1.00  0.00     0.116 C 
BRANCH   2   3
ATOM      3  N   UNL A   1      30.804  25.411  26.868  1.00  0.00    -0.355 N 
ATOM      4  C   UNL A   1      31.050  24.196  26.306  1.00  0.00     0.239 C 
ATOM      5  O   UNL A   1      31.276  23.239  27.052  1.00  0.00    -0.273 OA
ATOM      6  H   UNL A   1      30.566  25.404  27.824  1.00  0.00     0.163 HD
BRANCH   4   7
ATOM      7  C   UNL A   1      31.132  24.016  24.782  1.00  0.00     0.219 C 
BRANCH   7   8
ATOM      8  N   UNL A   1      32.440  23.599  24.259  1.00  0.00    -0.333 N 
BRANCH   8   9
ATOM      9  C   UNL A   1      33.434  24.654  24.020  1.00  0.00     0.120 C 
BRANCH   9  10
ATOM     10  C   UNL A   1      33.262  25.417  22.704  1.00  0.00     0.018 C 
ATOM     11  C   UNL A   1      32.806  26.856  22.887  1.00  0.00     0.006 C 
ENDBRANCH   9  10
ENDBRANCH   8   9
BRANCH   8  12
ATOM     12  C   UNL A   1      32.819  22.272  24.071  1.00  0.00     0.229 C 
ATOM     13  O   UNL A   1      31.978  21.379  23.948  1.00  0.00    -0.275 OA
BRANCH  12  14
ATOM     14  C   UNL A   1      34.294  21.884  24.095  1.00  0.00     0.166 C 
BRANCH  14  15
ATOM     15  C   UNL A   1      34.819  21.432  25.476  1.00  0.00     0.201 C 
ATOM     16  C   UNL A   1      35.192  22.623  26.392  1.00  0.00     0.135 C 
ATOM     17  N   UNL A   1      35.936  20.459  25.404  1.00  0.00    -0.342 N 
ATOM     18  S   UNL A   1      36.666  23.557  25.852  1.00  0.00    -0.150 SA
ATOM     19  C   UNL A   1      37.165  21.019  24.820  1.00  0.00     0.271 C 
ATOM     20  H   UNL A   1      35.639  19.668  24.833  1.00  0.00     0.346 HD
ATOM     21  H   UNL A   1      36.156  20.183  26.361  1.00  0.00     0.346 HD
ATOM     22  C   UNL A   1      37.793  22.145  25.639  1.00  0.00     0.131 C 
ENDBRANCH  14  15
ENDBRANCH  12  14
ENDBRANCH   8  12
ENDBRANCH   7   8
ENDBRANCH   4   7
ENDBRANCH   2   3
ENDBRANCH   1   2
BRANCH   1  23
ATOM     23  C   UNL A   1      31.833  29.041  26.747  1.00  0.00     0.023 C 
BRANCH  23  24
ATOM     24  C   UNL A   1      33.021  29.929  26.389  1.00  0.00     0.116 C 
BRANCH  24  25
ATOM     25  N   UNL A   1      32.860  31.313  26.814  1.00  0.00    -0.352 N 
ATOM     26  C   UNL A   1      33.691  32.070  27.604  1.00  0.00     0.251 C 
ATOM     27  H   UNL A   1      32.047  31.766  26.491  1.00  0.00     0.163 HD
ATOM     28  O   UNL A   1      33.361  33.205  27.937  1.00  0.00    -0.269 OA
BRANCH  26  29
ATOM     29  C   UNL A   1      34.964  31.491  28.078  1.00  0.00     0.039 A 
ATOM     30  C   UNL A   1      36.095  32.309  28.138  1.00  0.00     0.014 A 
ATOM     31  C   UNL A   1      35.029  30.161  28.502  1.00  0.00     0.014 A 
ATOM     32  C   UNL A   1      37.278  31.810  28.688  1.00  0.00     0.010 A 
ATOM     33  C   UNL A   1      36.184  29.692  29.118  1.00  0.00     0.010 A 
ATOM     34  C   UNL A   1      37.321  30.509  29.214  1.00  0.00    -0.014 A 
BRANCH  34  35
ATOM     35  C   UNL A   1      38.540  29.982  29.876  1.00  0.00     0.031 A 
ATOM     36  C   UNL A   1      38.946  30.496  31.231  1.00  0.00     0.074 A 
ATOM     37  C   UNL A   1      39.335  29.115  29.218  1.00  0.00     0.049 A 
ATOM     38  N   UNL A   1      40.006  30.207  31.938  1.00  0.00    -0.248 NA
ATOM     39  C   UNL A   1      38.059  31.490  31.857  1.00  0.00     0.031 C 
ATOM     40  C   UNL A   1      39.093  28.604  27.866  1.00  0.00     0.029 A 
ATOM     41  N   UNL A   1      40.521  28.532  29.586  1.00  0.00    -0.354 N 
ATOM     42  C   UNL A   1      39.936  31.009  33.070  1.00  0.00     0.074 A 
ATOM     43  C   UNL A   1      38.748  31.824  32.937  1.00  0.00     0.031 C 
ATOM     44  C   UNL A   1      40.095  27.778  27.524  1.00  0.00     0.029 A 
ATOM     45  C   UNL A   1      41.063  27.722  28.614  1.00  0.00     0.049 A 
ATOM     46  H   UNL A   1      40.945  28.678  30.463  1.00  0.00     0.167 HD
ATOM     47  C   UNL A   1      40.766  31.044  34.140  1.00  0.00     0.034 A 
ATOM     48  C   UNL A   1      42.212  27.017  28.603  1.00  0.00     0.034 A 
ATOM     49  C   UNL A   1      41.919  30.199  34.289  1.00  0.00     0.049 A 
ATOM     50  C   UNL A   1      43.095  27.038  29.821  1.00  0.00     0.074 A 
ATOM     51  C   UNL A   1      42.769  30.085  35.376  1.00  0.00     0.029 A 
ATOM     52  N   UNL A   1      42.392  29.328  33.320  1.00  0.00    -0.354 N 
ATOM     53  N   UNL A   1      42.926  27.678  30.952  1.00  0.00    -0.248 NA
ATOM     54  C   UNL A   1      44.311  26.213  29.774  1.00  0.00     0.031 C 
ATOM     55  C   UNL A   1      43.768  29.161  35.053  1.00  0.00     0.029 A 
ATOM     56  C   UNL A   1      43.527  28.680  33.776  1.00  0.00     0.049 A 
ATOM     57  H   UNL A   1      41.980  29.189  32.436  1.00  0.00     0.167 HD
ATOM     58  C   UNL A   1      43.991  27.306  31.765  1.00  0.00     0.074 A 
ATOM     59  C   UNL A   1      44.790  26.371  31.000  1.00  0.00     0.031 C 
ATOM     60  C   UNL A   1      44.287  27.713  33.024  1.00  0.00     0.034 A 
BRANCH  47  61
ATOM     61  C   UNL A   1      40.419  31.994  35.257  1.00  0.00     0.023 A 
ATOM     62  C   UNL A   1      41.181  33.170  35.433  1.00  0.00     0.012 A 
ATOM     63  C   UNL A   1      39.328  31.746  36.111  1.00  0.00     0.148 A 
ATOM     64  C   UNL A   1      40.890  34.057  36.467  1.00  0.00     0.002 A 
ATOM     65  C   UNL A   1      39.016  32.661  37.111  1.00  0.00     0.091 A 
ATOM     66  F   UNL A   1      38.628  30.614  35.947  1.00  0.00    -0.205 F 
ATOM     67  C   UNL A   1      39.804  33.808  37.300  1.00  0.00     0.022 A 
BRANCH  65  68
ATOM     68  S   UNL A   1      37.588  32.466  38.183  1.00  0.00     0.127 S 
ATOM     69  O   UNL A   1      37.929  33.354  39.294  1.00  0.00    -0.237 OA
ATOM     70  O   UNL A   1      36.495  32.946  37.335  1.00  0.00    -0.237 OA
ATOM     71  O   UNL A   1      37.522  31.048  38.507  1.00  0.00    -0.744 OA
ENDBRANCH  65  68
ENDBRANCH  47  61
BRANCH  48  72
ATOM     72  C   UNL A   1      42.544  26.166  27.427  1.00  0.00     0.023 A 
ATOM     73  C   UNL A   1      43.262  26.728  26.353  1.00  0.00     0.012 A 
ATOM     74  C   UNL A   1      42.197  24.802  27.383  1.00  0.00     0.148 A 
ATOM     75  C   UNL A   1      43.606  25.954  25.244  1.00  0.00     0.002 A 
ATOM     76  C   UNL A   1      42.589  24.024  26.299  1.00  0.00     0.091 A 
ATOM     77  F   UNL A   1      41.507  24.289  28.411  1.00  0.00    -0.205 F 
ATOM     78  C   UNL A   1      43.279  24.601  25.222  1.00  0.00     0.022 A 
BRANCH  76  79
ATOM     79  S   UNL A   1      42.325  22.248  26.238  1.00  0.00     0.127 S 
ATOM     80  O   UNL A   1      42.983  21.891  24.985  1.00  0.00    -0.237 OA
ATOM     81  O   UNL A   1      43.016  21.801  27.448  1.00  0.00    -0.237 OA
ATOM     82  O   UNL A   1      40.880  22.063  26.268  1.00  0.00    -0.744 OA
ENDBRANCH  76  79
ENDBRANCH  48  72
BRANCH  60  83
ATOM     83  C   UNL A   1      45.510  27.126  33.679  1.00  0.00     0.023 A 
ATOM     84  C   UNL A   1      46.743  27.801  33.591  1.00  0.00     0.012 A 
ATOM     85  C   UNL A   1      45.419  25.949  34.448  1.00  0.00     0.148 A 
ATOM     86  C   UNL A   1      47.874  27.297  34.232  1.00  0.00     0.002 A 
ATOM     87  C   UNL A   1      46.538  25.479  35.125  1.00  0.00     0.091 A 
ATOM     88  F   UNL A   1      44.241  25.311  34.504  1.00  0.00    -0.205 F 
ATOM     89  C   UNL A   1      47.769  26.145  35.008  1.00  0.00     0.022 A 
BRANCH  87  90
ATOM     90  S   UNL A   1      46.472  24.061  36.225  1.00  0.00     0.127 S 
ATOM     91  O   UNL A   1      47.891  23.783  36.439  1.00  0.00    -0.237 OA
ATOM     92  O   UNL A   1      45.774  24.603  37.391  1.00  0.00    -0.237 OA
ATOM     93  O   UNL A   1      45.734  23.031  35.506  1.00  0.00    -0.744 OA
ENDBRANCH  87  90
ENDBRANCH  60  83
ENDBRANCH  34  35
ENDBRANCH  26  29
ENDBRANCH  24  25
ENDBRANCH  23  24
ENDBRANCH   1  23
TORSDOF 20
ENDMDL
