MODEL 1
REMARK VINA RESULT:     -12.7      0.000      0.000
REMARK SMILES CC1=C(C)C[C@@H](C(=O)NCC(=O)c2ccccc2)[C@H](C(=O)NCCCCNC(=O)c2ccc(-c3c4nc(c(-c5cccc(S(=O)(=O)[O-])c5F)c5ccc([nH]5)c(-c5cccc(S(=O)(=O)[O-])c5F)c5nc(c(-c6cccc(S(=O)(=O)[O-])c6F)c6ccc3[nH]6)C=C5)C=C4)cc2)C1
REMARK SMILES IDX 24 1 23 2 22 3 20 4 21 5 19 7 1 8 2 9 3 10 93 11 4 12 5 13
REMARK SMILES IDX 6 14 7 15 8 16 9 17 10 19 11 20 12 21 13 22 14 23 18 24
REMARK SMILES IDX 15 25 17 26 16 27 25 28 26 29 27 30 28 31 29 33 30 34 31 35
REMARK SMILES IDX 92 36 32 37 91 38 33 39 34 40 35 41 85 42 36 43 90 44 84 45
REMARK SMILES IDX 86 46 37 47 89 48 83 49 82 50 38 52 70 53 50 54 69 55 51 56
REMARK SMILES IDX 54 57 68 58 87 59 52 60 53 61 67 63 88 64 55 65 39 66 40 67
REMARK SMILES IDX 48 68 41 69 43 70 49 71 42 72 44 73 45 74 46 75 47 76 71 77
REMARK SMILES IDX 72 78 80 79 73 80 75 81 81 82 74 83 76 84 77 85 78 86 79 87
REMARK SMILES IDX 56 88 57 89 65 90 58 91 60 92 66 93 59 94 61 95 62 96 63 97
REMARK SMILES IDX 64 98
REMARK H PARENT 22 6 9 18 27 32 86 51 54 62
REMARK Flexibility Score: inf
ROOT
ATOM      1  C   UNL A   1      35.502  20.060  25.066  1.00  0.00     0.023 C 
ENDROOT
BRANCH   1   2
ATOM      2  C   UNL A   1      33.987  20.128  25.218  1.00  0.00     0.116 C 
BRANCH   2   3
ATOM      3  N   UNL A   1      33.579  20.750  26.458  1.00  0.00    -0.356 N 
ATOM      4  C   UNL A   1      33.107  22.001  26.700  1.00  0.00     0.224 C 
ATOM      5  O   UNL A   1      32.760  22.267  27.855  1.00  0.00    -0.275 OA
ATOM      6  H   UNL A   1      33.656  20.176  27.253  1.00  0.00     0.163 HD
BRANCH   4   7
ATOM      7  C   UNL A   1      33.013  23.076  25.612  1.00  0.00     0.095 C 
ATOM      8  C   UNL A   1      32.202  26.783  26.670  1.00  0.00     0.039 C 
ATOM      9  C   UNL A   1      32.006  25.450  25.991  1.00  0.00    -0.074 C 
ATOM     10  C   UNL A   1      30.882  25.128  25.319  1.00  0.00    -0.074 C 
ATOM     11  C   UNL A   1      33.160  24.494  26.172  1.00  0.00     0.045 C 
ATOM     12  C   UNL A   1      29.687  26.041  25.189  1.00  0.00     0.039 C 
ATOM     13  C   UNL A   1      30.684  23.792  24.642  1.00  0.00     0.045 C 
ATOM     14  C   UNL A   1      31.851  22.803  24.654  1.00  0.00     0.095 C 
BRANCH  14  15
ATOM     15  C   UNL A   1      32.339  22.482  23.242  1.00  0.00     0.224 C 
ATOM     16  O   UNL A   1      32.041  21.407  22.712  1.00  0.00    -0.275 OA
ATOM     17  N   UNL A   1      33.100  23.315  22.490  1.00  0.00    -0.348 N 
ATOM     18  H   UNL A   1      33.363  22.928  21.624  1.00  0.00     0.163 HD
BRANCH  17  19
ATOM     19  C   UNL A   1      33.606  24.656  22.697  1.00  0.00     0.197 C 
BRANCH  19  20
ATOM     20  C   UNL A   1      33.121  25.833  21.841  1.00  0.00     0.181 C 
ATOM     21  O   UNL A   1      33.144  25.735  20.609  1.00  0.00    -0.292 OA
BRANCH  20  22
ATOM     22  C   UNL A   1      32.447  27.025  22.426  1.00  0.00     0.019 A 
ATOM     23  C   UNL A   1      31.093  27.215  22.105  1.00  0.00     0.012 A 
ATOM     24  C   UNL A   1      33.078  27.936  23.275  1.00  0.00     0.012 A 
ATOM     25  C   UNL A   1      30.366  28.261  22.674  1.00  0.00     0.001 A 
ATOM     26  C   UNL A   1      32.345  28.976  23.855  1.00  0.00     0.001 A 
ATOM     27  C   UNL A   1      30.992  29.133  23.561  1.00  0.00     0.000 A 
ENDBRANCH  20  22
ENDBRANCH  19  20
ENDBRANCH  17  19
ENDBRANCH  14  15
ENDBRANCH   4   7
ENDBRANCH   2   3
ENDBRANCH   1   2
BRANCH   1  28
ATOM     28  C   UNL A   1      36.145  21.357  24.585  1.00  0.00     0.023 C 
BRANCH  28  29
ATOM     29  C   UNL A   1      37.433  21.750  25.301  1.00  0.00     0.116 C 
BRANCH  29  30
ATOM     30  N   UNL A   1      38.357  20.641  25.514  1.00  0.00    -0.352 N 
ATOM     31  C   UNL A   1      39.573  20.682  26.159  1.00  0.00     0.251 C 
ATOM     32  H   UNL A   1      38.080  19.766  25.158  1.00  0.00     0.163 HD
ATOM     33  O   UNL A   1      40.296  19.695  26.221  1.00  0.00    -0.269 OA
BRANCH  31  34
ATOM     34  C   UNL A   1      39.997  21.970  26.740  1.00  0.00     0.039 A 
ATOM     35  C   UNL A   1      40.949  21.973  27.762  1.00  0.00     0.014 A 
ATOM     36  C   UNL A   1      39.551  23.162  26.167  1.00  0.00     0.014 A 
ATOM     37  C   UNL A   1      41.523  23.183  28.155  1.00  0.00     0.010 A 
ATOM     38  C   UNL A   1      40.171  24.354  26.514  1.00  0.00     0.010 A 
ATOM     39  C   UNL A   1      41.169  24.375  27.502  1.00  0.00    -0.014 A 
BRANCH  39  40
ATOM     40  C   UNL A   1      41.834  25.665  27.810  1.00  0.00     0.031 A 
ATOM     41  C   UNL A   1      41.072  26.734  28.541  1.00  0.00     0.074 A 
ATOM     42  C   UNL A   1      43.061  25.923  27.313  1.00  0.00     0.049 A 
ATOM     43  N   UNL A   1      41.406  27.977  28.768  1.00  0.00    -0.248 NA
ATOM     44  C   UNL A   1      39.739  26.365  29.050  1.00  0.00     0.031 C 
ATOM     45  C   UNL A   1      43.867  24.993  26.517  1.00  0.00     0.029 A 
ATOM     46  N   UNL A   1      43.828  27.059  27.371  1.00  0.00    -0.354 N 
ATOM     47  C   UNL A   1      40.308  28.552  29.393  1.00  0.00     0.074 A 
ATOM     48  C   UNL A   1      39.289  27.531  29.490  1.00  0.00     0.031 C 
ATOM     49  C   UNL A   1      45.010  25.599  26.157  1.00  0.00     0.029 A 
ATOM     50  C   UNL A   1      45.008  26.966  26.669  1.00  0.00     0.049 A 
ATOM     51  H   UNL A   1      43.559  27.866  27.868  1.00  0.00     0.167 HD
ATOM     52  C   UNL A   1      40.171  29.812  29.870  1.00  0.00     0.034 A 
ATOM     53  C   UNL A   1      45.974  27.882  26.455  1.00  0.00     0.034 A 
ATOM     54  C   UNL A   1      41.214  30.798  29.840  1.00  0.00     0.049 A 
ATOM     55  C   UNL A   1      45.830  29.250  27.067  1.00  0.00     0.074 A 
ATOM     56  C   UNL A   1      41.213  32.068  30.389  1.00  0.00     0.029 A 
ATOM     57  N   UNL A   1      42.449  30.622  29.234  1.00  0.00    -0.354 N 
ATOM     58  N   UNL A   1      44.847  29.728  27.791  1.00  0.00    -0.248 NA
ATOM     59  C   UNL A   1      46.939  30.194  26.863  1.00  0.00     0.031 C 
ATOM     60  C   UNL A   1      42.450  32.660  30.115  1.00  0.00     0.029 A 
ATOM     61  C   UNL A   1      43.220  31.757  29.400  1.00  0.00     0.049 A 
ATOM     62  H   UNL A   1      42.732  29.810  28.757  1.00  0.00     0.167 HD
ATOM     63  C   UNL A   1      45.235  31.011  28.161  1.00  0.00     0.074 A 
ATOM     64  C   UNL A   1      46.549  31.231  27.592  1.00  0.00     0.031 C 
ATOM     65  C   UNL A   1      44.557  31.929  28.892  1.00  0.00     0.034 A 
BRANCH  52  66
ATOM     66  C   UNL A   1      38.869  30.166  30.533  1.00  0.00     0.023 A 
ATOM     67  C   UNL A   1      38.668  29.825  31.887  1.00  0.00     0.012 A 
ATOM     68  C   UNL A   1      37.866  30.873  29.841  1.00  0.00     0.148 A 
ATOM     69  C   UNL A   1      37.478  30.152  32.532  1.00  0.00     0.002 A 
ATOM     70  C   UNL A   1      36.698  31.231  30.504  1.00  0.00     0.091 A 
ATOM     71  F   UNL A   1      38.063  31.164  28.548  1.00  0.00    -0.205 F 
ATOM     72  C   UNL A   1      36.498  30.863  31.845  1.00  0.00     0.022 A 
BRANCH  70  73
ATOM     73  S   UNL A   1      35.410  32.209  29.721  1.00  0.00     0.127 S 
ATOM     74  O   UNL A   1      36.162  33.380  29.270  1.00  0.00    -0.237 OA
ATOM     75  O   UNL A   1      34.958  31.325  28.645  1.00  0.00    -0.237 OA
ATOM     76  O   UNL A   1      34.416  32.458  30.755  1.00  0.00    -0.744 OA
ENDBRANCH  70  73
ENDBRANCH  52  66
BRANCH  53  77
ATOM     77  C   UNL A   1      47.200  27.507  25.696  1.00  0.00     0.023 A 
ATOM     78  C   UNL A   1      48.213  26.780  26.351  1.00  0.00     0.012 A 
ATOM     79  C   UNL A   1      47.356  27.826  24.334  1.00  0.00     0.148 A 
ATOM     80  C   UNL A   1      49.371  26.401  25.672  1.00  0.00     0.002 A 
ATOM     81  C   UNL A   1      48.491  27.402  23.649  1.00  0.00     0.091 A 
ATOM     82  F   UNL A   1      46.390  28.532  23.730  1.00  0.00    -0.205 F 
ATOM     83  C   UNL A   1      49.506  26.702  24.320  1.00  0.00     0.022 A 
BRANCH  81  84
ATOM     84  S   UNL A   1      48.681  27.635  21.877  1.00  0.00     0.127 S 
ATOM     85  O   UNL A   1      49.591  28.775  21.822  1.00  0.00    -0.237 OA
ATOM     86  O   UNL A   1      49.264  26.359  21.461  1.00  0.00    -0.237 OA
ATOM     87  O   UNL A   1      47.335  27.867  21.373  1.00  0.00    -0.744 OA
ENDBRANCH  81  84
ENDBRANCH  53  77
BRANCH  65  88
ATOM     88  C   UNL A   1      45.226  33.249  29.160  1.00  0.00     0.023 A 
ATOM     89  C   UNL A   1      46.056  33.390  30.289  1.00  0.00     0.012 A 
ATOM     90  C   UNL A   1      45.124  34.306  28.235  1.00  0.00     0.148 A 
ATOM     91  C   UNL A   1      46.763  34.573  30.502  1.00  0.00     0.002 A 
ATOM     92  C   UNL A   1      45.863  35.466  28.432  1.00  0.00     0.091 A 
ATOM     93  F   UNL A   1      44.313  34.155  27.178  1.00  0.00    -0.205 F 
ATOM     94  C   UNL A   1      46.678  35.603  29.568  1.00  0.00     0.022 A 
BRANCH  92  95
ATOM     95  S   UNL A   1      45.888  36.804  27.234  1.00  0.00     0.127 S 
ATOM     96  O   UNL A   1      46.764  37.774  27.889  1.00  0.00    -0.237 OA
ATOM     97  O   UNL A   1      46.465  36.159  26.054  1.00  0.00    -0.237 OA
ATOM     98  O   UNL A   1      44.501  37.222  27.074  1.00  0.00    -0.744 OA
ENDBRANCH  92  95
ENDBRANCH  65  88
ENDBRANCH  39  40
ENDBRANCH  31  34
ENDBRANCH  29  30
ENDBRANCH  28  29
ENDBRANCH   1  28
TORSDOF 18
ENDMDL
MODEL 2
REMARK VINA RESULT:     -12.6      1.912      2.527
REMARK SMILES CC1=C(C)C[C@@H](C(=O)NCC(=O)c2ccccc2)[C@H](C(=O)NCCCCNC(=O)c2ccc(-c3c4nc(c(-c5cccc(S(=O)(=O)[O-])c5F)c5ccc([nH]5)c(-c5cccc(S(=O)(=O)[O-])c5F)c5nc(c(-c6cccc(S(=O)(=O)[O-])c6F)c6ccc3[nH]6)C=C5)C=C4)cc2)C1
REMARK SMILES IDX 24 1 23 2 22 3 20 4 21 5 19 7 1 8 2 9 3 10 93 11 4 12 5 13
REMARK SMILES IDX 6 14 7 15 8 16 9 17 10 19 11 20 12 21 13 22 14 23 18 24
REMARK SMILES IDX 15 25 17 26 16 27 25 28 26 29 27 30 28 31 29 33 30 34 31 35
REMARK SMILES IDX 92 36 32 37 91 38 33 39 34 40 35 41 85 42 36 43 90 44 84 45
REMARK SMILES IDX 86 46 37 47 89 48 83 49 82 50 38 52 70 53 50 54 69 55 51 56
REMARK SMILES IDX 54 57 68 58 87 59 52 60 53 61 67 63 88 64 55 65 39 66 40 67
REMARK SMILES IDX 48 68 41 69 43 70 49 71 42 72 44 73 45 74 46 75 47 76 71 77
REMARK SMILES IDX 72 78 80 79 73 80 75 81 81 82 74 83 76 84 77 85 78 86 79 87
REMARK SMILES IDX 56 88 57 89 65 90 58 91 60 92 66 93 59 94 61 95 62 96 63 97
REMARK SMILES IDX 64 98
REMARK H PARENT 22 6 9 18 27 32 86 51 54 62
REMARK Flexibility Score: inf
ROOT
ATOM      1  C   UNL A   1      37.073  21.975  25.615  1.00  0.00     0.023 C 
ENDROOT
BRANCH   1   2
ATOM      2  C   UNL A   1      35.770  21.187  25.672  1.00  0.00     0.116 C 
BRANCH   2   3
ATOM      3  N   UNL A   1      34.959  21.536  26.817  1.00  0.00    -0.356 N 
ATOM      4  C   UNL A   1      33.939  22.427  26.934  1.00  0.00     0.224 C 
ATOM      5  O   UNL A   1      33.356  22.488  28.021  1.00  0.00    -0.275 OA
ATOM      6  H   UNL A   1      35.180  21.050  27.644  1.00  0.00     0.163 HD
BRANCH   4   7
ATOM      7  C   UNL A   1      33.515  23.355  25.790  1.00  0.00     0.095 C 
ATOM      8  C   UNL A   1      32.261  26.987  26.658  1.00  0.00     0.039 C 
ATOM      9  C   UNL A   1      32.193  25.576  26.129  1.00  0.00    -0.074 C 
ATOM     10  C   UNL A   1      31.054  25.018  25.671  1.00  0.00    -0.074 C 
ATOM     11  C   UNL A   1      33.504  24.830  26.202  1.00  0.00     0.045 C 
ATOM     12  C   UNL A   1      29.718  25.720  25.657  1.00  0.00     0.039 C 
ATOM     13  C   UNL A   1      30.985  23.604  25.145  1.00  0.00     0.045 C 
ATOM     14  C   UNL A   1      32.290  22.810  25.053  1.00  0.00     0.095 C 
BRANCH  14  15
ATOM     15  C   UNL A   1      32.617  22.419  23.613  1.00  0.00     0.224 C 
ATOM     16  O   UNL A   1      32.283  21.311  23.179  1.00  0.00    -0.275 OA
ATOM     17  N   UNL A   1      33.268  23.220  22.734  1.00  0.00    -0.348 N 
ATOM     18  H   UNL A   1      33.437  22.790  21.864  1.00  0.00     0.163 HD
BRANCH  17  19
ATOM     19  C   UNL A   1      33.765  24.579  22.809  1.00  0.00     0.197 C 
BRANCH  19  20
ATOM     20  C   UNL A   1      33.190  25.689  21.922  1.00  0.00     0.181 C 
ATOM     21  O   UNL A   1      33.181  25.541  20.695  1.00  0.00    -0.292 OA
BRANCH  20  22
ATOM     22  C   UNL A   1      32.466  26.866  22.478  1.00  0.00     0.019 A 
ATOM     23  C   UNL A   1      31.066  26.865  22.372  1.00  0.00     0.012 A 
ATOM     24  C   UNL A   1      33.099  27.942  23.104  1.00  0.00     0.012 A 
ATOM     25  C   UNL A   1      30.308  27.891  22.938  1.00  0.00     0.001 A 
ATOM     26  C   UNL A   1      32.337  28.962  23.682  1.00  0.00     0.001 A 
ATOM     27  C   UNL A   1      30.946  28.932  23.606  1.00  0.00     0.000 A 
ENDBRANCH  20  22
ENDBRANCH  19  20
ENDBRANCH  17  19
ENDBRANCH  14  15
ENDBRANCH   4   7
ENDBRANCH   2   3
ENDBRANCH   1   2
BRANCH   1  28
ATOM     28  C   UNL A   1      38.276  21.167  25.137  1.00  0.00     0.023 C 
BRANCH  28  29
ATOM     29  C   UNL A   1      39.406  21.019  26.151  1.00  0.00     0.116 C 
BRANCH  29  30
ATOM     30  N   UNL A   1      40.130  19.756  26.056  1.00  0.00    -0.352 N 
ATOM     31  C   UNL A   1      41.488  19.564  26.170  1.00  0.00     0.251 C 
ATOM     32  H   UNL A   1      39.586  18.951  25.891  1.00  0.00     0.163 HD
ATOM     33  O   UNL A   1      41.992  18.459  26.006  1.00  0.00    -0.269 OA
BRANCH  31  34
ATOM     34  C   UNL A   1      42.325  20.744  26.456  1.00  0.00     0.039 A 
ATOM     35  C   UNL A   1      42.776  21.531  25.394  1.00  0.00     0.014 A 
ATOM     36  C   UNL A   1      42.532  21.135  27.780  1.00  0.00     0.014 A 
ATOM     37  C   UNL A   1      43.367  22.767  25.663  1.00  0.00     0.010 A 
ATOM     38  C   UNL A   1      43.059  22.392  28.041  1.00  0.00     0.010 A 
ATOM     39  C   UNL A   1      43.471  23.223  26.987  1.00  0.00    -0.014 A 
BRANCH  39  40
ATOM     40  C   UNL A   1      43.989  24.575  27.312  1.00  0.00     0.031 A 
ATOM     41  C   UNL A   1      43.045  25.624  27.826  1.00  0.00     0.074 A 
ATOM     42  C   UNL A   1      45.265  24.894  27.014  1.00  0.00     0.049 A 
ATOM     43  N   UNL A   1      43.254  26.900  28.018  1.00  0.00    -0.248 NA
ATOM     44  C   UNL A   1      41.670  25.188  28.125  1.00  0.00     0.031 C 
ATOM     45  C   UNL A   1      46.255  23.982  26.434  1.00  0.00     0.029 A 
ATOM     46  N   UNL A   1      45.936  26.086  27.122  1.00  0.00    -0.354 N 
ATOM     47  C   UNL A   1      42.030  27.428  28.405  1.00  0.00     0.074 A 
ATOM     48  C   UNL A   1      41.076  26.340  28.399  1.00  0.00     0.031 C 
ATOM     49  C   UNL A   1      47.402  24.650  26.232  1.00  0.00     0.029 A 
ATOM     50  C   UNL A   1      47.224  26.041  26.639  1.00  0.00     0.049 A 
ATOM     51  H   UNL A   1      45.535  26.898  27.507  1.00  0.00     0.167 HD
ATOM     52  C   UNL A   1      41.732  28.699  28.763  1.00  0.00     0.034 A 
ATOM     53  C   UNL A   1      48.153  27.012  26.529  1.00  0.00     0.034 A 
ATOM     54  C   UNL A   1      42.699  29.757  28.841  1.00  0.00     0.049 A 
ATOM     55  C   UNL A   1      47.817  28.399  27.009  1.00  0.00     0.074 A 
ATOM     56  C   UNL A   1      42.522  31.053  29.291  1.00  0.00     0.029 A 
ATOM     57  N   UNL A   1      44.029  29.639  28.468  1.00  0.00    -0.354 N 
ATOM     58  N   UNL A   1      46.695  28.843  27.521  1.00  0.00    -0.248 NA
ATOM     59  C   UNL A   1      48.883  29.409  26.932  1.00  0.00     0.031 C 
ATOM     60  C   UNL A   1      43.748  31.719  29.191  1.00  0.00     0.029 A 
ATOM     61  C   UNL A   1      44.687  30.836  28.682  1.00  0.00     0.049 A 
ATOM     62  H   UNL A   1      44.443  28.823  28.104  1.00  0.00     0.167 HD
ATOM     63  C   UNL A   1      46.930  30.171  27.860  1.00  0.00     0.074 A 
ATOM     64  C   UNL A   1      48.306  30.455  27.509  1.00  0.00     0.031 C 
ATOM     65  C   UNL A   1      46.078  31.077  28.398  1.00  0.00     0.034 A 
BRANCH  52  66
ATOM     66  C   UNL A   1      40.314  28.993  29.167  1.00  0.00     0.023 A 
ATOM     67  C   UNL A   1      39.365  29.310  28.174  1.00  0.00     0.012 A 
ATOM     68  C   UNL A   1      39.908  28.914  30.513  1.00  0.00     0.148 A 
ATOM     69  C   UNL A   1      38.041  29.574  28.516  1.00  0.00     0.002 A 
ATOM     70  C   UNL A   1      38.575  29.140  30.841  1.00  0.00     0.091 A 
ATOM     71  F   UNL A   1      40.829  28.639  31.446  1.00  0.00    -0.205 F 
ATOM     72  C   UNL A   1      37.644  29.480  29.846  1.00  0.00     0.022 A 
BRANCH  70  73
ATOM     73  S   UNL A   1      37.958  28.970  32.520  1.00  0.00     0.127 S 
ATOM     74  O   UNL A   1      38.833  29.885  33.251  1.00  0.00    -0.237 OA
ATOM     75  O   UNL A   1      36.572  29.426  32.390  1.00  0.00    -0.237 OA
ATOM     76  O   UNL A   1      38.099  27.560  32.853  1.00  0.00    -0.744 OA
ENDBRANCH  70  73
ENDBRANCH  52  66
BRANCH  53  77
ATOM     77  C   UNL A   1      49.514  26.686  26.018  1.00  0.00     0.023 A 
ATOM     78  C   UNL A   1      50.379  25.918  26.821  1.00  0.00     0.012 A 
ATOM     79  C   UNL A   1      49.943  27.092  24.740  1.00  0.00     0.148 A 
ATOM     80  C   UNL A   1      51.657  25.583  26.374  1.00  0.00     0.002 A 
ATOM     81  C   UNL A   1      51.201  26.712  24.279  1.00  0.00     0.091 A 
ATOM     82  F   UNL A   1      49.114  27.835  23.995  1.00  0.00    -0.205 F 
ATOM     83  C   UNL A   1      52.064  25.970  25.100  1.00  0.00     0.022 A 
BRANCH  81  84
ATOM     84  S   UNL A   1      51.750  27.058  22.603  1.00  0.00     0.127 S 
ATOM     85  O   UNL A   1      50.533  26.817  21.834  1.00  0.00    -0.237 OA
ATOM     86  O   UNL A   1      52.153  28.462  22.697  1.00  0.00    -0.237 OA
ATOM     87  O   UNL A   1      52.852  26.137  22.363  1.00  0.00    -0.744 OA
ENDBRANCH  81  84
ENDBRANCH  53  77
BRANCH  65  88
ATOM     88  C   UNL A   1      46.605  32.457  28.683  1.00  0.00     0.023 A 
ATOM     89  C   UNL A   1      47.194  32.731  29.932  1.00  0.00     0.012 A 
ATOM     90  C   UNL A   1      46.619  33.441  27.676  1.00  0.00     0.148 A 
ATOM     91  C   UNL A   1      47.777  33.973  30.180  1.00  0.00     0.002 A 
ATOM     92  C   UNL A   1      47.238  34.661  27.916  1.00  0.00     0.091 A 
ATOM     93  F   UNL A   1      46.035  33.163  26.501  1.00  0.00    -0.205 F 
ATOM     94  C   UNL A   1      47.812  34.932  29.170  1.00  0.00     0.022 A 
BRANCH  92  95
ATOM     95  S   UNL A   1      47.412  35.917  26.643  1.00  0.00     0.127 S 
ATOM     96  O   UNL A   1      46.029  36.080  26.195  1.00  0.00    -0.237 OA
ATOM     97  O   UNL A   1      47.947  37.054  27.395  1.00  0.00    -0.237 OA
ATOM     98  O   UNL A   1      48.329  35.362  25.657  1.00  0.00    -0.744 OA
ENDBRANCH  92  95
ENDBRANCH  65  88
ENDBRANCH  39  40
ENDBRANCH  31  34
ENDBRANCH  29  30
ENDBRANCH  28  29
ENDBRANCH   1  28
TORSDOF 18
ENDMDL
MODEL 3
REMARK VINA RESULT:     -12.6      5.911      9.246
REMARK SMILES CC1=C(C)C[C@@H](C(=O)NCC(=O)c2ccccc2)[C@H](C(=O)NCCCCNC(=O)c2ccc(-c3c4nc(c(-c5cccc(S(=O)(=O)[O-])c5F)c5ccc([nH]5)c(-c5cccc(S(=O)(=O)[O-])c5F)c5nc(c(-c6cccc(S(=O)(=O)[O-])c6F)c6ccc3[nH]6)C=C5)C=C4)cc2)C1
REMARK SMILES IDX 24 1 23 2 22 3 20 4 21 5 19 7 1 8 2 9 3 10 93 11 4 12 5 13
REMARK SMILES IDX 6 14 7 15 8 16 9 17 10 19 11 20 12 21 13 22 14 23 18 24
REMARK SMILES IDX 15 25 17 26 16 27 25 28 26 29 27 30 28 31 29 33 30 34 31 35
REMARK SMILES IDX 92 36 32 37 91 38 33 39 34 40 35 41 85 42 36 43 90 44 84 45
REMARK SMILES IDX 86 46 37 47 89 48 83 49 82 50 38 52 70 53 50 54 69 55 51 56
REMARK SMILES IDX 54 57 68 58 87 59 52 60 53 61 67 63 88 64 55 65 39 66 40 67
REMARK SMILES IDX 48 68 41 69 43 70 49 71 42 72 44 73 45 74 46 75 47 76 71 77
REMARK SMILES IDX 72 78 80 79 73 80 75 81 81 82 74 83 76 84 77 85 78 86 79 87
REMARK SMILES IDX 56 88 57 89 65 90 58 91 60 92 66 93 59 94 61 95 62 96 63 97
REMARK SMILES IDX 64 98
REMARK H PARENT 22 6 9 18 27 32 86 51 54 62
REMARK Flexibility Score: inf
ROOT
ATOM      1  C   UNL A   1      32.518  30.484  26.841  1.00  0.00     0.023 C 
ENDROOT
BRANCH   1   2
ATOM      2  C   UNL A   1      31.969  29.964  25.517  1.00  0.00     0.116 C 
BRANCH   2   3
ATOM      3  N   UNL A   1      33.011  29.675  24.558  1.00  0.00    -0.356 N 
ATOM      4  C   UNL A   1      33.467  28.484  24.087  1.00  0.00     0.224 C 
ATOM      5  O   UNL A   1      34.333  28.512  23.207  1.00  0.00    -0.275 OA
ATOM      6  H   UNL A   1      33.462  30.467  24.186  1.00  0.00     0.163 HD
BRANCH   4   7
ATOM      7  C   UNL A   1      32.967  27.137  24.620  1.00  0.00     0.095 C 
ATOM      8  C   UNL A   1      35.539  24.180  25.016  1.00  0.00     0.039 C 
ATOM      9  C   UNL A   1      34.334  24.921  24.492  1.00  0.00    -0.074 C 
ATOM     10  C   UNL A   1      33.560  24.450  23.493  1.00  0.00    -0.074 C 
ATOM     11  C   UNL A   1      34.101  26.258  25.154  1.00  0.00     0.045 C 
ATOM     12  C   UNL A   1      33.816  23.152  22.768  1.00  0.00     0.039 C 
ATOM     13  C   UNL A   1      32.355  25.194  22.967  1.00  0.00     0.045 C 
ATOM     14  C   UNL A   1      31.958  26.497  23.664  1.00  0.00     0.095 C 
BRANCH  14  15
ATOM     15  C   UNL A   1      30.563  26.408  24.282  1.00  0.00     0.224 C 
ATOM     16  O   UNL A   1      29.587  26.869  23.681  1.00  0.00    -0.275 OA
ATOM     17  N   UNL A   1      30.296  25.840  25.484  1.00  0.00    -0.348 N 
ATOM     18  H   UNL A   1      29.350  25.913  25.749  1.00  0.00     0.163 HD
BRANCH  17  19
ATOM     19  C   UNL A   1      31.113  25.147  26.458  1.00  0.00     0.197 C 
BRANCH  19  20
ATOM     20  C   UNL A   1      30.866  23.673  26.803  1.00  0.00     0.181 C 
ATOM     21  O   UNL A   1      29.761  23.330  27.236  1.00  0.00    -0.292 OA
BRANCH  20  22
ATOM     22  C   UNL A   1      31.838  22.596  26.464  1.00  0.00     0.019 A 
ATOM     23  C   UNL A   1      31.518  21.764  25.379  1.00  0.00     0.012 A 
ATOM     24  C   UNL A   1      33.037  22.390  27.149  1.00  0.00     0.012 A 
ATOM     25  C   UNL A   1      32.411  20.783  24.947  1.00  0.00     0.001 A 
ATOM     26  C   UNL A   1      33.937  21.415  26.706  1.00  0.00     0.001 A 
ATOM     27  C   UNL A   1      33.628  20.621  25.603  1.00  0.00     0.000 A 
ENDBRANCH  20  22
ENDBRANCH  19  20
ENDBRANCH  17  19
ENDBRANCH  14  15
ENDBRANCH   4   7
ENDBRANCH   2   3
ENDBRANCH   1   2
BRANCH   1  28
ATOM     28  C   UNL A   1      32.054  31.892  27.205  1.00  0.00     0.023 C 
BRANCH  28  29
ATOM     29  C   UNL A   1      33.162  32.855  27.619  1.00  0.00     0.116 C 
BRANCH  29  30
ATOM     30  N   UNL A   1      32.695  34.205  27.918  1.00  0.00    -0.352 N 
ATOM     31  C   UNL A   1      33.153  35.043  28.910  1.00  0.00     0.251 C 
ATOM     32  H   UNL A   1      31.973  34.555  27.348  1.00  0.00     0.163 HD
ATOM     33  O   UNL A   1      32.637  36.137  29.109  1.00  0.00    -0.269 OA
BRANCH  31  34
ATOM     34  C   UNL A   1      34.262  34.563  29.756  1.00  0.00     0.039 A 
ATOM     35  C   UNL A   1      33.967  33.882  30.939  1.00  0.00     0.014 A 
ATOM     36  C   UNL A   1      35.574  34.668  29.293  1.00  0.00     0.014 A 
ATOM     37  C   UNL A   1      34.993  33.227  31.623  1.00  0.00     0.010 A 
ATOM     38  C   UNL A   1      36.579  33.961  29.938  1.00  0.00     0.010 A 
ATOM     39  C   UNL A   1      36.297  33.226  31.101  1.00  0.00    -0.014 A 
BRANCH  39  40
ATOM     40  C   UNL A   1      37.393  32.451  31.733  1.00  0.00     0.031 A 
ATOM     41  C   UNL A   1      37.954  32.904  33.051  1.00  0.00     0.074 A 
ATOM     42  C   UNL A   1      37.970  31.435  31.060  1.00  0.00     0.049 A 
ATOM     43  N   UNL A   1      39.007  32.470  33.692  1.00  0.00    -0.248 NA
ATOM     44  C   UNL A   1      37.261  34.020  33.717  1.00  0.00     0.031 C 
ATOM     45  C   UNL A   1      37.566  30.957  29.735  1.00  0.00     0.029 A 
ATOM     46  N   UNL A   1      39.048  30.648  31.382  1.00  0.00    -0.354 N 
ATOM     47  C   UNL A   1      39.136  33.292  34.803  1.00  0.00     0.074 A 
ATOM     48  C   UNL A   1      38.068  34.265  34.739  1.00  0.00     0.031 C 
ATOM     49  C   UNL A   1      38.389  29.964  29.357  1.00  0.00     0.029 A 
ATOM     50  C   UNL A   1      39.394  29.755  30.394  1.00  0.00     0.049 A 
ATOM     51  H   UNL A   1      39.528  30.716  32.238  1.00  0.00     0.167 HD
ATOM     52  C   UNL A   1      40.045  33.225  35.804  1.00  0.00     0.034 A 
ATOM     53  C   UNL A   1      40.411  28.872  30.329  1.00  0.00     0.034 A 
ATOM     54  C   UNL A   1      41.055  32.210  35.902  1.00  0.00     0.049 A 
ATOM     55  C   UNL A   1      41.359  28.765  31.494  1.00  0.00     0.074 A 
ATOM     56  C   UNL A   1      41.957  31.991  36.927  1.00  0.00     0.029 A 
ATOM     57  N   UNL A   1      41.291  31.237  34.943  1.00  0.00    -0.354 N 
ATOM     58  N   UNL A   1      41.370  29.451  32.611  1.00  0.00    -0.248 NA
ATOM     59  C   UNL A   1      42.413  27.743  31.407  1.00  0.00     0.031 C 
ATOM     60  C   UNL A   1      42.740  30.883  36.588  1.00  0.00     0.029 A 
ATOM     61  C   UNL A   1      42.322  30.411  35.354  1.00  0.00     0.049 A 
ATOM     62  H   UNL A   1      40.799  31.148  34.096  1.00  0.00     0.167 HD
ATOM     63  C   UNL A   1      42.403  28.920  33.375  1.00  0.00     0.074 A 
ATOM     64  C   UNL A   1      42.987  27.845  32.598  1.00  0.00     0.031 C 
ATOM     65  C   UNL A   1      42.839  29.298  34.601  1.00  0.00     0.034 A 
BRANCH  52  66
ATOM     66  C   UNL A   1      39.937  34.238  36.910  1.00  0.00     0.023 A 
ATOM     67  C   UNL A   1      40.381  35.557  36.683  1.00  0.00     0.012 A 
ATOM     68  C   UNL A   1      39.359  33.905  38.151  1.00  0.00     0.148 A 
ATOM     69  C   UNL A   1      40.282  36.521  37.684  1.00  0.00     0.002 A 
ATOM     70  C   UNL A   1      39.228  34.884  39.130  1.00  0.00     0.091 A 
ATOM     71  F   UNL A   1      38.969  32.640  38.358  1.00  0.00    -0.205 F 
ATOM     72  C   UNL A   1      39.697  36.188  38.902  1.00  0.00     0.022 A 
BRANCH  70  73
ATOM     73  S   UNL A   1      38.422  34.565  40.704  1.00  0.00     0.127 S 
ATOM     74  O   UNL A   1      39.548  34.133  41.530  1.00  0.00    -0.237 OA
ATOM     75  O   UNL A   1      37.883  35.882  41.050  1.00  0.00    -0.237 OA
ATOM     76  O   UNL A   1      37.412  33.553  40.434  1.00  0.00    -0.744 OA
ENDBRANCH  70  73
ENDBRANCH  52  66
BRANCH  53  77
ATOM     77  C   UNL A   1      40.534  27.963  29.155  1.00  0.00     0.023 A 
ATOM     78  C   UNL A   1      39.679  26.847  29.063  1.00  0.00     0.012 A 
ATOM     79  C   UNL A   1      41.454  28.210  28.119  1.00  0.00     0.148 A 
ATOM     80  C   UNL A   1      39.756  25.978  27.974  1.00  0.00     0.002 A 
ATOM     81  C   UNL A   1      41.491  27.368  27.011  1.00  0.00     0.091 A 
ATOM     82  F   UNL A   1      42.271  29.266  28.230  1.00  0.00    -0.205 F 
ATOM     83  C   UNL A   1      40.653  26.244  26.944  1.00  0.00     0.022 A 
BRANCH  81  84
ATOM     84  S   UNL A   1      42.526  27.712  25.582  1.00  0.00     0.127 S 
ATOM     85  O   UNL A   1      41.934  28.946  25.075  1.00  0.00    -0.237 OA
ATOM     86  O   UNL A   1      43.848  27.866  26.191  1.00  0.00    -0.237 OA
ATOM     87  O   UNL A   1      42.399  26.542  24.725  1.00  0.00    -0.744 OA
ENDBRANCH  81  84
ENDBRANCH  53  77
BRANCH  65  88
ATOM     88  C   UNL A   1      43.979  28.530  35.211  1.00  0.00     0.023 A 
ATOM     89  C   UNL A   1      45.300  28.824  34.825  1.00  0.00     0.012 A 
ATOM     90  C   UNL A   1      43.746  27.602  36.245  1.00  0.00     0.148 A 
ATOM     91  C   UNL A   1      46.375  28.192  35.450  1.00  0.00     0.002 A 
ATOM     92  C   UNL A   1      44.822  27.008  36.891  1.00  0.00     0.091 A 
ATOM     93  F   UNL A   1      42.478  27.324  36.582  1.00  0.00    -0.205 F 
ATOM     94  C   UNL A   1      46.138  27.297  36.490  1.00  0.00     0.022 A 
BRANCH  92  95
ATOM     95  S   UNL A   1      44.613  25.916  38.302  1.00  0.00     0.127 S 
ATOM     96  O   UNL A   1      44.089  24.707  37.668  1.00  0.00    -0.237 OA
ATOM     97  O   UNL A   1      45.980  25.794  38.810  1.00  0.00    -0.237 OA
ATOM     98  O   UNL A   1      43.694  26.599  39.203  1.00  0.00    -0.744 OA
ENDBRANCH  92  95
ENDBRANCH  65  88
ENDBRANCH  39  40
ENDBRANCH  31  34
ENDBRANCH  29  30
ENDBRANCH  28  29
ENDBRANCH   1  28
TORSDOF 18
ENDMDL
