MODEL 1
REMARK VINA RESULT:     -12.3      0.000      0.000
REMARK SMILES Cc1onc2c(=O)n(C)nc(C(=O)NCCCCNC(=O)c3ccc(-c4c5nc(c(-c6cccc(S(=O)(=O)[O-])c6F)c6ccc([nH]6)c(-c6cccc(S(=O)(=O)[O-])c6F)c6nc(c(-c7cccc(S(=O)(=O)[O-])c7F)c7ccc4[nH]7)C=C6)C=C5)cc3)c12
REMARK SMILES IDX 18 1 17 2 16 3 15 4 14 5 12 6 13 7 11 9 1 10 2 11 3 12 85 13
REMARK SMILES IDX 4 14 5 15 6 16 10 17 7 18 8 19 9 20 19 21 20 22 21 24 22 25
REMARK SMILES IDX 23 26 84 27 24 28 83 29 25 30 26 31 27 32 77 33 28 34 82 35
REMARK SMILES IDX 76 36 78 37 29 38 81 39 75 40 74 41 30 43 62 44 42 45 61 46
REMARK SMILES IDX 43 47 46 48 60 49 79 50 44 51 45 52 59 54 80 55 47 56 31 57
REMARK SMILES IDX 32 58 40 59 33 60 35 61 41 62 34 63 36 64 37 65 38 66 39 67
REMARK SMILES IDX 63 68 64 69 72 70 65 71 67 72 73 73 66 74 68 75 69 76 70 77
REMARK SMILES IDX 71 78 48 79 49 80 57 81 50 82 52 83 58 84 51 85 53 86 54 87
REMARK SMILES IDX 55 88 56 89
REMARK H PARENT 14 8 19 23 78 42 46 53
REMARK Flexibility Score: inf
ROOT
ATOM      1  C   UNL A   1      34.208  30.999  28.173  1.00  0.00     0.116 C 
ENDROOT
BRANCH   1   2
ATOM      2  C   UNL A   1      33.382  30.670  26.922  1.00  0.00     0.023 C 
BRANCH   2   3
ATOM      3  C   UNL A   1      32.348  29.539  27.103  1.00  0.00     0.023 C 
BRANCH   3   4
ATOM      4  C   UNL A   1      32.843  28.164  26.648  1.00  0.00     0.116 C 
BRANCH   4   5
ATOM      5  N   UNL A   1      31.787  27.182  26.824  1.00  0.00    -0.351 N 
ATOM      6  C   UNL A   1      31.443  26.086  26.072  1.00  0.00     0.272 C 
ATOM      7  O   UNL A   1      30.305  25.639  26.180  1.00  0.00    -0.267 OA
ATOM      8  H   UNL A   1      31.223  27.327  27.617  1.00  0.00     0.163 HD
BRANCH   6   9
ATOM      9  C   UNL A   1      32.432  25.379  25.137  1.00  0.00     0.161 A 
ATOM     10  C   UNL A   1      30.909  27.654  23.002  1.00  0.00     0.091 C 
ATOM     11  C   UNL A   1      31.986  26.650  22.902  1.00  0.00     0.144 A 
ATOM     12  O   UNL A   1      32.573  26.554  21.672  1.00  0.00    -0.360 OA
ATOM     13  C   UNL A   1      32.585  25.742  23.747  1.00  0.00     0.083 A 
ATOM     14  N   UNL A   1      33.544  25.567  21.688  1.00  0.00    -0.074 NA
ATOM     15  C   UNL A   1      33.527  25.083  22.934  1.00  0.00     0.183 A 
ATOM     16  C   UNL A   1      34.340  24.001  23.438  1.00  0.00     0.296 A 
ATOM     17  N   UNL A   1      33.180  24.413  25.602  1.00  0.00    -0.164 NA
ATOM     18  O   UNL A   1      35.168  23.383  22.756  1.00  0.00    -0.265 OA
ATOM     19  N   UNL A   1      34.077  23.713  24.787  1.00  0.00    -0.230 N 
ATOM     20  C   UNL A   1      34.753  22.585  25.398  1.00  0.00     0.178 C 
ENDBRANCH   6   9
ENDBRANCH   4   5
ENDBRANCH   3   4
ENDBRANCH   2   3
ENDBRANCH   1   2
BRANCH   1  21
ATOM     21  N   UNL A   1      34.839  32.297  28.024  1.00  0.00    -0.352 N 
ATOM     22  C   UNL A   1      35.948  32.817  28.625  1.00  0.00     0.251 C 
ATOM     23  H   UNL A   1      34.395  32.900  27.386  1.00  0.00     0.163 HD
ATOM     24  O   UNL A   1      36.061  34.042  28.673  1.00  0.00    -0.269 OA
BRANCH  22  25
ATOM     25  C   UNL A   1      37.013  31.963  29.185  1.00  0.00     0.039 A 
ATOM     26  C   UNL A   1      37.516  30.949  28.362  1.00  0.00     0.014 A 
ATOM     27  C   UNL A   1      37.389  32.031  30.530  1.00  0.00     0.014 A 
ATOM     28  C   UNL A   1      38.398  30.006  28.876  1.00  0.00     0.010 A 
ATOM     29  C   UNL A   1      38.278  31.087  31.043  1.00  0.00     0.010 A 
ATOM     30  C   UNL A   1      38.789  30.075  30.214  1.00  0.00    -0.014 A 
BRANCH  30  31
ATOM     31  C   UNL A   1      39.783  29.075  30.661  1.00  0.00     0.031 A 
ATOM     32  C   UNL A   1      39.730  27.818  29.829  1.00  0.00     0.074 A 
ATOM     33  C   UNL A   1      40.993  29.568  31.005  1.00  0.00     0.049 A 
ATOM     34  N   UNL A   1      40.255  27.651  28.656  1.00  0.00    -0.248 NA
ATOM     35  C   UNL A   1      38.848  26.714  30.223  1.00  0.00     0.031 C 
ATOM     36  C   UNL A   1      41.865  30.413  30.189  1.00  0.00     0.029 A 
ATOM     37  N   UNL A   1      41.717  29.334  32.164  1.00  0.00    -0.354 N 
ATOM     38  C   UNL A   1      39.807  26.426  28.157  1.00  0.00     0.074 A 
ATOM     39  C   UNL A   1      38.902  25.904  29.151  1.00  0.00     0.031 C 
ATOM     40  C   UNL A   1      43.070  30.488  30.786  1.00  0.00     0.029 A 
ATOM     41  C   UNL A   1      43.055  29.694  32.016  1.00  0.00     0.049 A 
ATOM     42  H   UNL A   1      41.333  28.958  32.989  1.00  0.00     0.167 HD
ATOM     43  C   UNL A   1      40.322  25.875  27.017  1.00  0.00     0.034 A 
ATOM     44  C   UNL A   1      44.090  28.942  32.491  1.00  0.00     0.034 A 
ATOM     45  C   UNL A   1      41.471  26.575  26.486  1.00  0.00     0.049 A 
ATOM     46  C   UNL A   1      44.413  28.081  31.290  1.00  0.00     0.074 A 
ATOM     47  C   UNL A   1      41.975  27.018  25.286  1.00  0.00     0.029 A 
ATOM     48  N   UNL A   1      42.394  26.922  27.433  1.00  0.00    -0.354 N 
ATOM     49  N   UNL A   1      45.049  28.471  30.214  1.00  0.00    -0.248 NA
ATOM     50  C   UNL A   1      43.700  26.804  31.131  1.00  0.00     0.031 C 
ATOM     51  C   UNL A   1      43.234  27.652  25.574  1.00  0.00     0.029 A 
ATOM     52  C   UNL A   1      43.492  27.547  26.938  1.00  0.00     0.049 A 
ATOM     53  H   UNL A   1      42.272  26.734  28.391  1.00  0.00     0.167 HD
ATOM     54  C   UNL A   1      44.531  27.683  29.184  1.00  0.00     0.074 A 
ATOM     55  C   UNL A   1      43.880  26.563  29.836  1.00  0.00     0.031 C 
ATOM     56  C   UNL A   1      44.443  28.101  27.882  1.00  0.00     0.034 A 
BRANCH  43  57
ATOM     57  C   UNL A   1      40.095  24.471  26.554  1.00  0.00     0.023 A 
ATOM     58  C   UNL A   1      38.746  24.121  26.305  1.00  0.00     0.012 A 
ATOM     59  C   UNL A   1      41.066  23.455  26.561  1.00  0.00     0.148 A 
ATOM     60  C   UNL A   1      38.358  22.797  26.118  1.00  0.00     0.002 A 
ATOM     61  C   UNL A   1      40.670  22.125  26.369  1.00  0.00     0.091 A 
ATOM     62  F   UNL A   1      42.341  23.785  26.811  1.00  0.00    -0.205 F 
ATOM     63  C   UNL A   1      39.317  21.797  26.160  1.00  0.00     0.022 A 
BRANCH  61  64
ATOM     64  S   UNL A   1      41.809  20.733  26.409  1.00  0.00     0.127 S 
ATOM     65  O   UNL A   1      42.301  20.778  27.785  1.00  0.00    -0.237 OA
ATOM     66  O   UNL A   1      40.925  19.604  26.116  1.00  0.00    -0.237 OA
ATOM     67  O   UNL A   1      42.804  21.004  25.378  1.00  0.00    -0.744 OA
ENDBRANCH  61  64
ENDBRANCH  43  57
BRANCH  44  68
ATOM     68  C   UNL A   1      43.989  28.469  33.911  1.00  0.00     0.023 A 
ATOM     69  C   UNL A   1      44.662  29.245  34.888  1.00  0.00     0.012 A 
ATOM     70  C   UNL A   1      43.270  27.350  34.366  1.00  0.00     0.148 A 
ATOM     71  C   UNL A   1      44.506  29.011  36.257  1.00  0.00     0.002 A 
ATOM     72  C   UNL A   1      43.054  27.162  35.731  1.00  0.00     0.091 A 
ATOM     73  F   UNL A   1      42.803  26.468  33.477  1.00  0.00    -0.205 F 
ATOM     74  C   UNL A   1      43.663  27.994  36.679  1.00  0.00     0.022 A 
BRANCH  72  75
ATOM     75  S   UNL A   1      41.905  25.932  36.366  1.00  0.00     0.127 S 
ATOM     76  O   UNL A   1      40.781  26.057  35.440  1.00  0.00    -0.237 OA
ATOM     77  O   UNL A   1      42.691  24.708  36.223  1.00  0.00    -0.237 OA
ATOM     78  O   UNL A   1      41.622  26.327  37.739  1.00  0.00    -0.744 OA
ENDBRANCH  72  75
ENDBRANCH  44  68
BRANCH  56  79
ATOM     79  C   UNL A   1      45.302  29.255  27.483  1.00  0.00     0.023 A 
ATOM     80  C   UNL A   1      46.684  29.021  27.337  1.00  0.00     0.012 A 
ATOM     81  C   UNL A   1      44.782  30.523  27.155  1.00  0.00     0.148 A 
ATOM     82  C   UNL A   1      47.536  30.017  26.876  1.00  0.00     0.002 A 
ATOM     83  C   UNL A   1      45.631  31.500  26.649  1.00  0.00     0.091 A 
ATOM     84  F   UNL A   1      43.473  30.756  27.337  1.00  0.00    -0.205 F 
ATOM     85  C   UNL A   1      47.006  31.251  26.516  1.00  0.00     0.022 A 
BRANCH  83  86
ATOM     86  S   UNL A   1      45.050  33.098  26.068  1.00  0.00     0.127 S 
ATOM     87  O   UNL A   1      46.304  33.773  25.731  1.00  0.00    -0.237 OA
ATOM     88  O   UNL A   1      44.236  32.718  24.913  1.00  0.00    -0.237 OA
ATOM     89  O   UNL A   1      44.308  33.693  27.170  1.00  0.00    -0.744 OA
ENDBRANCH  83  86
ENDBRANCH  56  79
ENDBRANCH  30  31
ENDBRANCH  22  25
ENDBRANCH   1  21
TORSDOF 14
ENDMDL
MODEL 2
REMARK VINA RESULT:     -12.3      2.530      8.693
REMARK SMILES Cc1onc2c(=O)n(C)nc(C(=O)NCCCCNC(=O)c3ccc(-c4c5nc(c(-c6cccc(S(=O)(=O)[O-])c6F)c6ccc([nH]6)c(-c6cccc(S(=O)(=O)[O-])c6F)c6nc(c(-c7cccc(S(=O)(=O)[O-])c7F)c7ccc4[nH]7)C=C6)C=C5)cc3)c12
REMARK SMILES IDX 18 1 17 2 16 3 15 4 14 5 12 6 13 7 11 9 1 10 2 11 3 12 85 13
REMARK SMILES IDX 4 14 5 15 6 16 10 17 7 18 8 19 9 20 19 21 20 22 21 24 22 25
REMARK SMILES IDX 23 26 84 27 24 28 83 29 25 30 26 31 27 32 77 33 28 34 82 35
REMARK SMILES IDX 76 36 78 37 29 38 81 39 75 40 74 41 30 43 62 44 42 45 61 46
REMARK SMILES IDX 43 47 46 48 60 49 79 50 44 51 45 52 59 54 80 55 47 56 31 57
REMARK SMILES IDX 32 58 40 59 33 60 35 61 41 62 34 63 36 64 37 65 38 66 39 67
REMARK SMILES IDX 63 68 64 69 72 70 65 71 67 72 73 73 66 74 68 75 69 76 70 77
REMARK SMILES IDX 71 78 48 79 49 80 57 81 50 82 52 83 58 84 51 85 53 86 54 87
REMARK SMILES IDX 55 88 56 89
REMARK H PARENT 14 8 19 23 78 42 46 53
REMARK Flexibility Score: inf
ROOT
ATOM      1  C   UNL A   1      40.045  21.784  27.062  1.00  0.00     0.116 C 
ENDROOT
BRANCH   1   2
ATOM      2  C   UNL A   1      39.257  22.531  25.976  1.00  0.00     0.023 C 
BRANCH   2   3
ATOM      3  C   UNL A   1      38.335  23.652  26.496  1.00  0.00     0.023 C 
BRANCH   3   4
ATOM      4  C   UNL A   1      36.987  23.734  25.777  1.00  0.00     0.116 C 
BRANCH   4   5
ATOM      5  N   UNL A   1      37.183  23.561  24.349  1.00  0.00    -0.351 N 
ATOM      6  C   UNL A   1      36.316  23.155  23.364  1.00  0.00     0.272 C 
ATOM      7  O   UNL A   1      36.786  22.710  22.321  1.00  0.00    -0.267 OA
ATOM      8  H   UNL A   1      38.091  23.771  24.033  1.00  0.00     0.163 HD
BRANCH   6   9
ATOM      9  C   UNL A   1      34.793  23.271  23.501  1.00  0.00     0.161 A 
ATOM     10  C   UNL A   1      35.424  20.192  24.977  1.00  0.00     0.091 C 
ATOM     11  C   UNL A   1      34.242  21.048  24.750  1.00  0.00     0.144 A 
ATOM     12  O   UNL A   1      33.066  20.545  25.232  1.00  0.00    -0.360 OA
ATOM     13  C   UNL A   1      33.991  22.265  24.158  1.00  0.00     0.083 A 
ATOM     14  N   UNL A   1      32.028  21.413  24.940  1.00  0.00    -0.074 NA
ATOM     15  C   UNL A   1      32.598  22.429  24.285  1.00  0.00     0.183 A 
ATOM     16  C   UNL A   1      31.915  23.576  23.732  1.00  0.00     0.296 A 
ATOM     17  N   UNL A   1      34.181  24.321  23.017  1.00  0.00    -0.164 NA
ATOM     18  O   UNL A   1      30.693  23.754  23.806  1.00  0.00    -0.265 OA
ATOM     19  N   UNL A   1      32.791  24.465  23.086  1.00  0.00    -0.230 N 
ATOM     20  C   UNL A   1      32.229  25.613  22.401  1.00  0.00     0.178 C 
ENDBRANCH   6   9
ENDBRANCH   4   5
ENDBRANCH   3   4
ENDBRANCH   2   3
ENDBRANCH   1   2
BRANCH   1  21
ATOM     21  N   UNL A   1      41.444  21.693  26.685  1.00  0.00    -0.352 N 
ATOM     22  C   UNL A   1      42.335  22.669  26.344  1.00  0.00     0.251 C 
ATOM     23  H   UNL A   1      41.810  20.780  26.674  1.00  0.00     0.163 HD
ATOM     24  O   UNL A   1      43.316  22.350  25.674  1.00  0.00    -0.269 OA
BRANCH  22  25
ATOM     25  C   UNL A   1      42.170  24.070  26.776  1.00  0.00     0.039 A 
ATOM     26  C   UNL A   1      42.318  25.061  25.798  1.00  0.00     0.014 A 
ATOM     27  C   UNL A   1      42.050  24.423  28.124  1.00  0.00     0.014 A 
ATOM     28  C   UNL A   1      42.341  26.402  26.161  1.00  0.00     0.010 A 
ATOM     29  C   UNL A   1      42.069  25.769  28.486  1.00  0.00     0.010 A 
ATOM     30  C   UNL A   1      42.208  26.763  27.504  1.00  0.00    -0.014 A 
BRANCH  30  31
ATOM     31  C   UNL A   1      42.174  28.213  27.794  1.00  0.00     0.031 A 
ATOM     32  C   UNL A   1      40.763  28.744  27.846  1.00  0.00     0.074 A 
ATOM     33  C   UNL A   1      43.059  28.643  28.720  1.00  0.00     0.049 A 
ATOM     34  N   UNL A   1      39.940  28.639  28.842  1.00  0.00    -0.248 NA
ATOM     35  C   UNL A   1      40.125  29.252  26.628  1.00  0.00     0.031 C 
ATOM     36  C   UNL A   1      43.223  28.137  30.084  1.00  0.00     0.029 A 
ATOM     37  N   UNL A   1      43.954  29.697  28.627  1.00  0.00    -0.354 N 
ATOM     38  C   UNL A   1      38.688  29.081  28.409  1.00  0.00     0.074 A 
ATOM     39  C   UNL A   1      38.847  29.410  27.015  1.00  0.00     0.031 C 
ATOM     40  C   UNL A   1      44.030  28.979  30.758  1.00  0.00     0.029 A 
ATOM     41  C   UNL A   1      44.429  30.080  29.880  1.00  0.00     0.049 A 
ATOM     42  H   UNL A   1      44.220  30.123  27.780  1.00  0.00     0.167 HD
ATOM     43  C   UNL A   1      37.646  29.266  29.274  1.00  0.00     0.034 A 
ATOM     44  C   UNL A   1      44.582  31.383  30.257  1.00  0.00     0.034 A 
ATOM     45  C   UNL A   1      38.002  29.136  30.670  1.00  0.00     0.049 A 
ATOM     46  C   UNL A   1      43.251  31.666  30.915  1.00  0.00     0.074 A 
ATOM     47  C   UNL A   1      37.536  28.563  31.830  1.00  0.00     0.029 A 
ATOM     48  N   UNL A   1      39.160  29.780  31.008  1.00  0.00    -0.354 N 
ATOM     49  N   UNL A   1      42.876  31.256  32.101  1.00  0.00    -0.248 NA
ATOM     50  C   UNL A   1      42.144  32.152  30.076  1.00  0.00     0.031 C 
ATOM     51  C   UNL A   1      38.481  28.892  32.864  1.00  0.00     0.029 A 
ATOM     52  C   UNL A   1      39.483  29.693  32.323  1.00  0.00     0.049 A 
ATOM     53  H   UNL A   1      39.712  30.265  30.353  1.00  0.00     0.167 HD
ATOM     54  C   UNL A   1      41.491  31.112  32.012  1.00  0.00     0.074 A 
ATOM     55  C   UNL A   1      41.093  31.865  30.837  1.00  0.00     0.031 C 
ATOM     56  C   UNL A   1      40.775  30.200  32.742  1.00  0.00     0.034 A 
BRANCH  43  57
ATOM     57  C   UNL A   1      36.366  29.971  28.952  1.00  0.00     0.023 A 
ATOM     58  C   UNL A   1      35.551  29.341  27.983  1.00  0.00     0.012 A 
ATOM     59  C   UNL A   1      36.040  31.274  29.368  1.00  0.00     0.148 A 
ATOM     60  C   UNL A   1      34.469  29.998  27.400  1.00  0.00     0.002 A 
ATOM     61  C   UNL A   1      34.948  31.927  28.782  1.00  0.00     0.091 A 
ATOM     62  F   UNL A   1      36.821  31.874  30.276  1.00  0.00    -0.205 F 
ATOM     63  C   UNL A   1      34.173  31.295  27.792  1.00  0.00     0.022 A 
BRANCH  61  64
ATOM     64  S   UNL A   1      34.462  33.611  29.191  1.00  0.00     0.127 S 
ATOM     65  O   UNL A   1      34.152  33.505  30.615  1.00  0.00    -0.237 OA
ATOM     66  O   UNL A   1      35.681  34.364  28.887  1.00  0.00    -0.237 OA
ATOM     67  O   UNL A   1      33.332  33.920  28.323  1.00  0.00    -0.744 OA
ENDBRANCH  61  64
ENDBRANCH  43  57
BRANCH  44  68
ATOM     68  C   UNL A   1      45.299  32.286  29.297  1.00  0.00     0.023 A 
ATOM     69  C   UNL A   1      46.657  32.573  29.588  1.00  0.00     0.012 A 
ATOM     70  C   UNL A   1      44.763  32.850  28.127  1.00  0.00     0.148 A 
ATOM     71  C   UNL A   1      47.479  33.257  28.689  1.00  0.00     0.002 A 
ATOM     72  C   UNL A   1      45.600  33.467  27.197  1.00  0.00     0.091 A 
ATOM     73  F   UNL A   1      43.444  32.794  27.920  1.00  0.00    -0.205 F 
ATOM     74  C   UNL A   1      46.960  33.665  27.470  1.00  0.00     0.022 A 
BRANCH  72  75
ATOM     75  S   UNL A   1      45.035  33.942  25.556  1.00  0.00     0.127 S 
ATOM     76  O   UNL A   1      44.585  32.666  25.006  1.00  0.00    -0.237 OA
ATOM     77  O   UNL A   1      43.968  34.886  25.886  1.00  0.00    -0.237 OA
ATOM     78  O   UNL A   1      46.193  34.528  24.894  1.00  0.00    -0.744 OA
ENDBRANCH  72  75
ENDBRANCH  44  68
BRANCH  56  79
ATOM     79  C   UNL A   1      41.435  29.641  33.959  1.00  0.00     0.023 A 
ATOM     80  C   UNL A   1      41.578  30.492  35.073  1.00  0.00     0.012 A 
ATOM     81  C   UNL A   1      41.825  28.292  34.071  1.00  0.00     0.148 A 
ATOM     82  C   UNL A   1      42.093  30.021  36.274  1.00  0.00     0.002 A 
ATOM     83  C   UNL A   1      42.295  27.814  35.288  1.00  0.00     0.091 A 
ATOM     84  F   UNL A   1      41.729  27.496  32.995  1.00  0.00    -0.205 F 
ATOM     85  C   UNL A   1      42.436  28.678  36.387  1.00  0.00     0.022 A 
BRANCH  83  86
ATOM     86  S   UNL A   1      42.684  26.084  35.580  1.00  0.00     0.127 S 
ATOM     87  O   UNL A   1      43.728  25.836  34.586  1.00  0.00    -0.237 OA
ATOM     88  O   UNL A   1      43.156  26.113  36.965  1.00  0.00    -0.237 OA
ATOM     89  O   UNL A   1      41.448  25.343  35.371  1.00  0.00    -0.744 OA
ENDBRANCH  83  86
ENDBRANCH  56  79
ENDBRANCH  30  31
ENDBRANCH  22  25
ENDBRANCH   1  21
TORSDOF 14
ENDMDL
MODEL 3
REMARK VINA RESULT:     -12.2      2.605      8.606
REMARK SMILES Cc1onc2c(=O)n(C)nc(C(=O)NCCCCNC(=O)c3ccc(-c4c5nc(c(-c6cccc(S(=O)(=O)[O-])c6F)c6ccc([nH]6)c(-c6cccc(S(=O)(=O)[O-])c6F)c6nc(c(-c7cccc(S(=O)(=O)[O-])c7F)c7ccc4[nH]7)C=C6)C=C5)cc3)c12
REMARK SMILES IDX 18 1 17 2 16 3 15 4 14 5 12 6 13 7 11 9 1 10 2 11 3 12 85 13
REMARK SMILES IDX 4 14 5 15 6 16 10 17 7 18 8 19 9 20 19 21 20 22 21 24 22 25
REMARK SMILES IDX 23 26 84 27 24 28 83 29 25 30 26 31 27 32 77 33 28 34 82 35
REMARK SMILES IDX 76 36 78 37 29 38 81 39 75 40 74 41 30 43 62 44 42 45 61 46
REMARK SMILES IDX 43 47 46 48 60 49 79 50 44 51 45 52 59 54 80 55 47 56 31 57
REMARK SMILES IDX 32 58 40 59 33 60 35 61 41 62 34 63 36 64 37 65 38 66 39 67
REMARK SMILES IDX 63 68 64 69 72 70 65 71 67 72 73 73 66 74 68 75 69 76 70 77
REMARK SMILES IDX 71 78 48 79 49 80 57 81 50 82 52 83 58 84 51 85 53 86 54 87
REMARK SMILES IDX 55 88 56 89
REMARK H PARENT 14 8 19 23 78 42 46 53
REMARK Flexibility Score: inf
ROOT
ATOM      1  C   UNL A   1      40.529  21.653  27.304  1.00  0.00     0.116 C 
ENDROOT
BRANCH   1   2
ATOM      2  C   UNL A   1      39.480  22.073  26.265  1.00  0.00     0.023 C 
BRANCH   2   3
ATOM      3  C   UNL A   1      38.844  23.457  26.504  1.00  0.00     0.023 C 
BRANCH   3   4
ATOM      4  C   UNL A   1      37.349  23.521  26.182  1.00  0.00     0.116 C 
BRANCH   4   5
ATOM      5  N   UNL A   1      37.164  23.702  24.753  1.00  0.00    -0.351 N 
ATOM      6  C   UNL A   1      36.359  23.040  23.859  1.00  0.00     0.272 C 
ATOM      7  O   UNL A   1      36.648  23.091  22.667  1.00  0.00    -0.267 OA
ATOM      8  H   UNL A   1      37.707  24.422  24.359  1.00  0.00     0.163 HD
BRANCH   6   9
ATOM      9  C   UNL A   1      35.100  22.275  24.285  1.00  0.00     0.161 A 
ATOM     10  C   UNL A   1      34.186  25.573  24.875  1.00  0.00     0.091 C 
ATOM     11  C   UNL A   1      33.539  24.249  24.974  1.00  0.00     0.144 A 
ATOM     12  O   UNL A   1      32.241  24.273  25.400  1.00  0.00    -0.360 OA
ATOM     13  C   UNL A   1      33.904  22.941  24.748  1.00  0.00     0.083 A 
ATOM     14  N   UNL A   1      31.748  22.982  25.482  1.00  0.00    -0.074 NA
ATOM     15  C   UNL A   1      32.762  22.197  25.101  1.00  0.00     0.183 A 
ATOM     16  C   UNL A   1      32.752  20.754  25.057  1.00  0.00     0.296 A 
ATOM     17  N   UNL A   1      35.088  20.970  24.224  1.00  0.00    -0.164 NA
ATOM     18  O   UNL A   1      31.777  20.060  25.374  1.00  0.00    -0.265 OA
ATOM     19  N   UNL A   1      33.978  20.219  24.630  1.00  0.00    -0.230 N 
ATOM     20  C   UNL A   1      34.143  18.779  24.630  1.00  0.00     0.178 C 
ENDBRANCH   6   9
ENDBRANCH   4   5
ENDBRANCH   3   4
ENDBRANCH   2   3
ENDBRANCH   1   2
BRANCH   1  21
ATOM     21  N   UNL A   1      41.849  21.643  26.701  1.00  0.00    -0.352 N 
ATOM     22  C   UNL A   1      42.612  22.668  26.224  1.00  0.00     0.251 C 
ATOM     23  H   UNL A   1      42.260  20.753  26.625  1.00  0.00     0.163 HD
ATOM     24  O   UNL A   1      43.486  22.405  25.399  1.00  0.00    -0.269 OA
BRANCH  22  25
ATOM     25  C   UNL A   1      42.439  24.059  26.685  1.00  0.00     0.039 A 
ATOM     26  C   UNL A   1      42.381  25.055  25.703  1.00  0.00     0.014 A 
ATOM     27  C   UNL A   1      42.509  24.407  28.038  1.00  0.00     0.014 A 
ATOM     28  C   UNL A   1      42.387  26.396  26.067  1.00  0.00     0.010 A 
ATOM     29  C   UNL A   1      42.510  25.753  28.402  1.00  0.00     0.010 A 
ATOM     30  C   UNL A   1      42.442  26.751  27.417  1.00  0.00    -0.014 A 
BRANCH  30  31
ATOM     31  C   UNL A   1      42.374  28.197  27.718  1.00  0.00     0.031 A 
ATOM     32  C   UNL A   1      40.952  28.698  27.759  1.00  0.00     0.074 A 
ATOM     33  C   UNL A   1      43.239  28.638  28.659  1.00  0.00     0.049 A 
ATOM     34  N   UNL A   1      40.120  28.567  28.744  1.00  0.00    -0.248 NA
ATOM     35  C   UNL A   1      40.316  29.203  26.537  1.00  0.00     0.031 C 
ATOM     36  C   UNL A   1      43.398  28.124  30.020  1.00  0.00     0.029 A 
ATOM     37  N   UNL A   1      44.112  29.711  28.585  1.00  0.00    -0.354 N 
ATOM     38  C   UNL A   1      38.863  28.987  28.301  1.00  0.00     0.074 A 
ATOM     39  C   UNL A   1      39.032  29.331  26.911  1.00  0.00     0.031 C 
ATOM     40  C   UNL A   1      44.179  28.977  30.710  1.00  0.00     0.029 A 
ATOM     41  C   UNL A   1      44.565  30.094  29.846  1.00  0.00     0.049 A 
ATOM     42  H   UNL A   1      44.379  30.150  27.745  1.00  0.00     0.167 HD
ATOM     43  C   UNL A   1      37.808  29.142  29.155  1.00  0.00     0.034 A 
ATOM     44  C   UNL A   1      44.686  31.396  30.235  1.00  0.00     0.034 A 
ATOM     45  C   UNL A   1      38.151  29.008  30.554  1.00  0.00     0.049 A 
ATOM     46  C   UNL A   1      43.341  31.646  30.880  1.00  0.00     0.074 A 
ATOM     47  C   UNL A   1      37.684  28.415  31.704  1.00  0.00     0.029 A 
ATOM     48  N   UNL A   1      39.291  29.673  30.911  1.00  0.00    -0.354 N 
ATOM     49  N   UNL A   1      42.962  31.217  32.058  1.00  0.00    -0.248 NA
ATOM     50  C   UNL A   1      42.234  32.115  30.033  1.00  0.00     0.031 C 
ATOM     51  C   UNL A   1      38.609  28.755  32.751  1.00  0.00     0.029 A 
ATOM     52  C   UNL A   1      39.601  29.582  32.228  1.00  0.00     0.049 A 
ATOM     53  H   UNL A   1      39.840  30.176  30.266  1.00  0.00     0.167 HD
ATOM     54  C   UNL A   1      41.581  31.045  31.952  1.00  0.00     0.074 A 
ATOM     55  C   UNL A   1      41.181  31.799  30.780  1.00  0.00     0.031 C 
ATOM     56  C   UNL A   1      40.876  30.112  32.666  1.00  0.00     0.034 A 
BRANCH  43  57
ATOM     57  C   UNL A   1      36.518  29.822  28.824  1.00  0.00     0.023 A 
ATOM     58  C   UNL A   1      35.728  29.186  27.837  1.00  0.00     0.012 A 
ATOM     59  C   UNL A   1      36.157  31.113  29.250  1.00  0.00     0.148 A 
ATOM     60  C   UNL A   1      34.640  29.826  27.248  1.00  0.00     0.002 A 
ATOM     61  C   UNL A   1      35.059  31.749  28.657  1.00  0.00     0.091 A 
ATOM     62  F   UNL A   1      36.913  31.720  30.174  1.00  0.00    -0.205 F 
ATOM     63  C   UNL A   1      34.311  31.111  27.650  1.00  0.00     0.022 A 
BRANCH  61  64
ATOM     64  S   UNL A   1      34.531  33.418  29.077  1.00  0.00     0.127 S 
ATOM     65  O   UNL A   1      34.144  33.274  30.479  1.00  0.00    -0.237 OA
ATOM     66  O   UNL A   1      35.756  34.190  28.860  1.00  0.00    -0.237 OA
ATOM     67  O   UNL A   1      33.447  33.735  28.156  1.00  0.00    -0.744 OA
ENDBRANCH  61  64
ENDBRANCH  43  57
BRANCH  44  68
ATOM     68  C   UNL A   1      45.395  32.323  29.291  1.00  0.00     0.023 A 
ATOM     69  C   UNL A   1      46.739  32.645  29.608  1.00  0.00     0.012 A 
ATOM     70  C   UNL A   1      44.864  32.875  28.114  1.00  0.00     0.148 A 
ATOM     71  C   UNL A   1      47.558  33.355  28.725  1.00  0.00     0.002 A 
ATOM     72  C   UNL A   1      45.700  33.520  27.201  1.00  0.00     0.091 A 
ATOM     73  F   UNL A   1      43.551  32.785  27.883  1.00  0.00    -0.205 F 
ATOM     74  C   UNL A   1      47.049  33.754  27.499  1.00  0.00     0.022 A 
BRANCH  72  75
ATOM     75  S   UNL A   1      45.151  33.985  25.552  1.00  0.00     0.127 S 
ATOM     76  O   UNL A   1      44.725  32.703  24.998  1.00  0.00    -0.237 OA
ATOM     77  O   UNL A   1      44.068  34.915  25.865  1.00  0.00    -0.237 OA
ATOM     78  O   UNL A   1      46.310  34.584  24.905  1.00  0.00    -0.744 OA
ENDBRANCH  72  75
ENDBRANCH  44  68
BRANCH  56  79
ATOM     79  C   UNL A   1      41.535  29.557  33.886  1.00  0.00     0.023 A 
ATOM     80  C   UNL A   1      41.588  30.378  35.030  1.00  0.00     0.012 A 
ATOM     81  C   UNL A   1      42.008  28.232  33.969  1.00  0.00     0.148 A 
ATOM     82  C   UNL A   1      42.096  29.901  36.232  1.00  0.00     0.002 A 
ATOM     83  C   UNL A   1      42.471  27.746  35.185  1.00  0.00     0.091 A 
ATOM     84  F   UNL A   1      41.997  27.468  32.866  1.00  0.00    -0.205 F 
ATOM     85  C   UNL A   1      42.522  28.581  36.314  1.00  0.00     0.022 A 
BRANCH  83  86
ATOM     86  S   UNL A   1      42.963  26.036  35.436  1.00  0.00     0.127 S 
ATOM     87  O   UNL A   1      43.478  26.065  36.805  1.00  0.00    -0.237 OA
ATOM     88  O   UNL A   1      41.689  25.333  35.280  1.00  0.00    -0.237 OA
ATOM     89  O   UNL A   1      43.954  25.738  34.412  1.00  0.00    -0.744 OA
ENDBRANCH  83  86
ENDBRANCH  56  79
ENDBRANCH  30  31
ENDBRANCH  22  25
ENDBRANCH   1  21
TORSDOF 14
ENDMDL
