MODEL 1
REMARK VINA RESULT:     -10.0      0.000      0.000
REMARK SMILES O=C(CSc1ccc(Cl)cc1)Nc1cccc(C(=O)Nc2ccc(C(=O)NCCCCNC(=O)c3ccc(-c4c5nc(c(-c6cccc(S(=O)(=O)[O-])c6F)c6ccc([nH]6)c(-c6cccc(S(=O)(=O)[O-])c6F)c6nc(c(-c7cccc(S(=O)(=O)[O-])c7F)c7ccc4[nH]7)C=C6)C=C5)cc3)cc2)c1
REMARK SMILES IDX 28 1 27 2 25 3 26 4 24 6 21 7 22 8 99 9 23 10 98 11 20 12
REMARK SMILES IDX 18 13 19 14 17 16 13 17 14 18 100 19 15 20 16 21 12 22 1 23
REMARK SMILES IDX 2 24 3 26 4 27 5 28 6 29 11 30 7 31 10 32 8 33 9 34 29 35
REMARK SMILES IDX 30 36 31 37 32 38 33 39 34 41 35 42 36 43 97 44 37 45 96 46
REMARK SMILES IDX 38 47 39 48 40 49 90 50 41 51 95 52 89 53 91 54 42 55 94 56
REMARK SMILES IDX 88 57 87 58 43 60 75 61 55 62 74 63 56 64 59 65 73 66 92 67
REMARK SMILES IDX 57 68 58 69 72 71 93 72 60 73 44 74 45 75 53 76 46 77 48 78
REMARK SMILES IDX 54 79 47 80 49 81 50 82 51 83 52 84 76 85 77 86 85 87 78 88
REMARK SMILES IDX 80 89 86 90 79 91 81 92 82 93 83 94 84 95 61 96 62 97 70 98
REMARK SMILES IDX 63 99 65 100 71 101 64 102 66 103 67 104 68 105 69 106
REMARK H PARENT 27 5 20 15 12 25 32 40 91 59 59 70
REMARK Flexibility Score: inf
ROOT
ATOM      1  C   UNL A   1      33.654  36.339  29.428  1.00  0.00     0.116 C 
ENDROOT
BRANCH   1   2
ATOM      2  N   UNL A   1      32.683  36.526  30.492  1.00  0.00    -0.352 N 
ATOM      3  C   UNL A   1      32.641  36.093  31.795  1.00  0.00     0.251 C 
ATOM      4  O   UNL A   1      31.705  36.474  32.496  1.00  0.00    -0.269 OA
ATOM      5  H   UNL A   1      31.905  37.068  30.229  1.00  0.00     0.163 HD
BRANCH   3   6
ATOM      6  C   UNL A   1      33.709  35.257  32.409  1.00  0.00     0.039 A 
ATOM      7  C   UNL A   1      35.461  33.421  33.604  1.00  0.00     0.041 A 
ATOM      8  C   UNL A   1      34.913  33.137  32.356  1.00  0.00     0.027 A 
ATOM      9  C   UNL A   1      35.261  34.679  34.177  1.00  0.00     0.027 A 
ATOM     10  C   UNL A   1      34.010  34.037  31.782  1.00  0.00     0.016 A 
ATOM     11  C   UNL A   1      34.420  35.608  33.558  1.00  0.00     0.016 A 
BRANCH   7  12
ATOM     12  N   UNL A   1      36.129  32.392  34.288  1.00  0.00    -0.322 N 
ATOM     13  C   UNL A   1      37.494  32.217  34.452  1.00  0.00     0.255 C 
ATOM     14  O   UNL A   1      37.933  31.133  34.832  1.00  0.00    -0.269 OA
ATOM     15  H   UNL A   1      35.554  31.710  34.703  1.00  0.00     0.170 HD
BRANCH  13  16
ATOM     16  C   UNL A   1      38.440  33.365  34.284  1.00  0.00     0.042 A 
ATOM     17  C   UNL A   1      40.143  34.534  32.986  1.00  0.00     0.041 A 
ATOM     18  C   UNL A   1      40.288  35.450  34.030  1.00  0.00     0.026 A 
ATOM     19  C   UNL A   1      39.171  33.540  33.100  1.00  0.00     0.040 A 
ATOM     20  C   UNL A   1      39.474  35.362  35.167  1.00  0.00     0.003 A 
ATOM     21  C   UNL A   1      38.562  34.312  35.302  1.00  0.00     0.014 A 
BRANCH  17  22
ATOM     22  N   UNL A   1      41.041  34.593  31.898  1.00  0.00    -0.325 N 
ATOM     23  O   UNL A   1      39.592  34.885  30.100  1.00  0.00    -0.274 OA
ATOM     24  C   UNL A   1      40.712  34.645  30.551  1.00  0.00     0.234 C 
ATOM     25  H   UNL A   1      42.000  34.597  32.118  1.00  0.00     0.169 HD
BRANCH  24  26
ATOM     26  C   UNL A   1      41.837  34.261  29.601  1.00  0.00     0.175 C 
BRANCH  26  27
ATOM     27  S   UNL A   1      43.429  33.976  30.431  1.00  0.00    -0.116 SA
BRANCH  27  28
ATOM     28  C   UNL A   1      43.770  32.325  29.861  1.00  0.00     0.008 A 
ATOM     29  C   UNL A   1      42.916  31.657  28.977  1.00  0.00     0.016 A 
ATOM     30  C   UNL A   1      44.938  31.694  30.300  1.00  0.00     0.016 A 
ATOM     31  C   UNL A   1      43.250  30.389  28.499  1.00  0.00     0.021 A 
ATOM     32  C   UNL A   1      45.270  30.424  29.825  1.00  0.00     0.021 A 
ATOM     33  C   UNL A   1      44.429  29.781  28.919  1.00  0.00     0.041 A 
ATOM     34  Cl  UNL A   1      44.854  28.228  28.314  1.00  0.00    -0.084 Cl
ENDBRANCH  27  28
ENDBRANCH  26  27
ENDBRANCH  24  26
ENDBRANCH  17  22
ENDBRANCH  13  16
ENDBRANCH   7  12
ENDBRANCH   3   6
ENDBRANCH   1   2
BRANCH   1  35
ATOM     35  C   UNL A   1      33.398  35.036  28.678  1.00  0.00     0.023 C 
BRANCH  35  36
ATOM     36  C   UNL A   1      34.647  34.459  28.003  1.00  0.00     0.023 C 
BRANCH  36  37
ATOM     37  C   UNL A   1      35.059  33.066  28.475  1.00  0.00     0.116 C 
BRANCH  37  38
ATOM     38  N   UNL A   1      34.308  31.999  27.832  1.00  0.00    -0.352 N 
ATOM     39  C   UNL A   1      34.692  30.699  27.596  1.00  0.00     0.251 C 
ATOM     40  H   UNL A   1      33.404  32.239  27.523  1.00  0.00     0.163 HD
ATOM     41  O   UNL A   1      33.980  29.960  26.939  1.00  0.00    -0.269 OA
BRANCH  39  42
ATOM     42  C   UNL A   1      35.991  30.222  28.125  1.00  0.00     0.039 A 
ATOM     43  C   UNL A   1      36.035  29.681  29.411  1.00  0.00     0.014 A 
ATOM     44  C   UNL A   1      37.151  30.303  27.351  1.00  0.00     0.014 A 
ATOM     45  C   UNL A   1      37.240  29.178  29.906  1.00  0.00     0.010 A 
ATOM     46  C   UNL A   1      38.332  29.736  27.817  1.00  0.00     0.010 A 
ATOM     47  C   UNL A   1      38.394  29.184  29.106  1.00  0.00    -0.014 A 
BRANCH  47  48
ATOM     48  C   UNL A   1      39.680  28.640  29.609  1.00  0.00     0.031 A 
ATOM     49  C   UNL A   1      40.421  29.352  30.708  1.00  0.00     0.074 A 
ATOM     50  C   UNL A   1      40.220  27.550  29.029  1.00  0.00     0.049 A 
ATOM     51  N   UNL A   1      41.571  29.056  31.255  1.00  0.00    -0.248 NA
ATOM     52  C   UNL A   1      39.804  30.579  31.239  1.00  0.00     0.031 C 
ATOM     53  C   UNL A   1      39.647  26.826  27.892  1.00  0.00     0.029 A 
ATOM     54  N   UNL A   1      41.387  26.879  29.298  1.00  0.00    -0.354 N 
ATOM     55  C   UNL A   1      41.830  30.070  32.168  1.00  0.00     0.074 A 
ATOM     56  C   UNL A   1      40.742  31.017  32.066  1.00  0.00     0.031 C 
ATOM     57  C   UNL A   1      40.465  25.814  27.561  1.00  0.00     0.029 A 
ATOM     58  C   UNL A   1      41.625  25.826  28.447  1.00  0.00     0.049 A 
ATOM     59  H   UNL A   1      41.994  27.128  30.031  1.00  0.00     0.167 HD
ATOM     60  C   UNL A   1      42.857  30.187  33.044  1.00  0.00     0.034 A 
ATOM     61  C   UNL A   1      42.661  24.967  28.388  1.00  0.00     0.034 A 
ATOM     62  C   UNL A   1      43.915  29.221  33.173  1.00  0.00     0.049 A 
ATOM     63  C   UNL A   1      43.756  25.071  29.416  1.00  0.00     0.074 A 
ATOM     64  C   UNL A   1      44.962  29.206  34.076  1.00  0.00     0.029 A 
ATOM     65  N   UNL A   1      44.060  28.099  32.372  1.00  0.00    -0.354 N 
ATOM     66  N   UNL A   1      43.901  25.948  30.380  1.00  0.00    -0.248 NA
ATOM     67  C   UNL A   1      44.803  24.040  29.380  1.00  0.00     0.031 C 
ATOM     68  C   UNL A   1      45.747  28.077  33.815  1.00  0.00     0.029 A 
ATOM     69  C   UNL A   1      45.176  27.378  32.762  1.00  0.00     0.049 A 
ATOM     70  H   UNL A   1      43.458  27.851  31.633  1.00  0.00     0.167 HD
ATOM     71  C   UNL A   1      45.031  25.557  31.087  1.00  0.00     0.074 A 
ATOM     72  C   UNL A   1      45.521  24.349  30.452  1.00  0.00     0.031 C 
ATOM     73  C   UNL A   1      45.619  26.148  32.156  1.00  0.00     0.034 A 
BRANCH  60  74
ATOM     74  C   UNL A   1      42.841  31.373  33.974  1.00  0.00     0.023 A 
ATOM     75  C   UNL A   1      43.468  32.572  33.575  1.00  0.00     0.012 A 
ATOM     76  C   UNL A   1      42.194  31.317  35.223  1.00  0.00     0.148 A 
ATOM     77  C   UNL A   1      43.493  33.680  34.421  1.00  0.00     0.002 A 
ATOM     78  C   UNL A   1      42.183  32.441  36.042  1.00  0.00     0.091 A 
ATOM     79  F   UNL A   1      41.623  30.164  35.600  1.00  0.00    -0.205 F 
ATOM     80  C   UNL A   1      42.844  33.617  35.649  1.00  0.00     0.022 A 
BRANCH  78  81
ATOM     81  S   UNL A   1      41.305  32.486  37.609  1.00  0.00     0.127 S 
ATOM     82  O   UNL A   1      41.286  33.919  37.896  1.00  0.00    -0.237 OA
ATOM     83  O   UNL A   1      40.004  31.918  37.252  1.00  0.00    -0.237 OA
ATOM     84  O   UNL A   1      42.087  31.670  38.527  1.00  0.00    -0.744 OA
ENDBRANCH  78  81
ENDBRANCH  60  74
BRANCH  61  85
ATOM     85  C   UNL A   1      42.662  23.883  27.366  1.00  0.00     0.023 A 
ATOM     86  C   UNL A   1      43.309  24.094  26.132  1.00  0.00     0.012 A 
ATOM     87  C   UNL A   1      42.074  22.631  27.628  1.00  0.00     0.148 A 
ATOM     88  C   UNL A   1      43.345  23.087  25.167  1.00  0.00     0.002 A 
ATOM     89  C   UNL A   1      42.162  21.614  26.684  1.00  0.00     0.091 A 
ATOM     90  F   UNL A   1      41.459  22.454  28.806  1.00  0.00    -0.205 F 
ATOM     91  C   UNL A   1      42.782  21.845  25.446  1.00  0.00     0.022 A 
BRANCH  89  92
ATOM     92  S   UNL A   1      41.588  19.943  27.011  1.00  0.00     0.127 S 
ATOM     93  O   UNL A   1      40.699  20.151  28.153  1.00  0.00    -0.237 OA
ATOM     94  O   UNL A   1      40.913  19.606  25.758  1.00  0.00    -0.237 OA
ATOM     95  O   UNL A   1      42.787  19.161  27.277  1.00  0.00    -0.744 OA
ENDBRANCH  89  92
ENDBRANCH  61  85
BRANCH  73  96
ATOM     96  C   UNL A   1      46.837  25.485  32.741  1.00  0.00     0.023 A 
ATOM     97  C   UNL A   1      46.701  24.584  33.816  1.00  0.00     0.012 A 
ATOM     98  C   UNL A   1      48.111  25.698  32.175  1.00  0.00     0.148 A 
ATOM     99  C   UNL A   1      47.816  23.933  34.341  1.00  0.00     0.002 A 
ATOM    100  C   UNL A   1      49.211  25.008  32.673  1.00  0.00     0.091 A 
ATOM    101  F   UNL A   1      48.225  26.574  31.167  1.00  0.00    -0.205 F 
ATOM    102  C   UNL A   1      49.067  24.135  33.763  1.00  0.00     0.022 A 
BRANCH 100 103
ATOM    103  S   UNL A   1      50.839  25.137  31.925  1.00  0.00     0.127 S 
ATOM    104  O   UNL A   1      50.509  25.209  30.503  1.00  0.00    -0.237 OA
ATOM    105  O   UNL A   1      51.349  26.383  32.498  1.00  0.00    -0.237 OA
ATOM    106  O   UNL A   1      51.563  23.944  32.342  1.00  0.00    -0.744 OA
ENDBRANCH 100 103
ENDBRANCH  73  96
ENDBRANCH  47  48
ENDBRANCH  39  42
ENDBRANCH  37  38
ENDBRANCH  36  37
ENDBRANCH  35  36
ENDBRANCH   1  35
TORSDOF 20
ENDMDL
MODEL 2
REMARK VINA RESULT:      -9.9      4.797     10.509
REMARK SMILES O=C(CSc1ccc(Cl)cc1)Nc1cccc(C(=O)Nc2ccc(C(=O)NCCCCNC(=O)c3ccc(-c4c5nc(c(-c6cccc(S(=O)(=O)[O-])c6F)c6ccc([nH]6)c(-c6cccc(S(=O)(=O)[O-])c6F)c6nc(c(-c7cccc(S(=O)(=O)[O-])c7F)c7ccc4[nH]7)C=C6)C=C5)cc3)cc2)c1
REMARK SMILES IDX 28 1 27 2 25 3 26 4 24 6 21 7 22 8 99 9 23 10 98 11 20 12
REMARK SMILES IDX 18 13 19 14 17 16 13 17 14 18 100 19 15 20 16 21 12 22 1 23
REMARK SMILES IDX 2 24 3 26 4 27 5 28 6 29 11 30 7 31 10 32 8 33 9 34 29 35
REMARK SMILES IDX 30 36 31 37 32 38 33 39 34 41 35 42 36 43 97 44 37 45 96 46
REMARK SMILES IDX 38 47 39 48 40 49 90 50 41 51 95 52 89 53 91 54 42 55 94 56
REMARK SMILES IDX 88 57 87 58 43 60 75 61 55 62 74 63 56 64 59 65 73 66 92 67
REMARK SMILES IDX 57 68 58 69 72 71 93 72 60 73 44 74 45 75 53 76 46 77 48 78
REMARK SMILES IDX 54 79 47 80 49 81 50 82 51 83 52 84 76 85 77 86 85 87 78 88
REMARK SMILES IDX 80 89 86 90 79 91 81 92 82 93 83 94 84 95 61 96 62 97 70 98
REMARK SMILES IDX 63 99 65 100 71 101 64 102 66 103 67 104 68 105 69 106
REMARK H PARENT 27 5 20 15 12 25 32 40 91 59 59 70
REMARK Flexibility Score: inf
ROOT
ATOM      1  C   UNL A   1      37.937  23.066  26.024  1.00  0.00     0.116 C 
ENDROOT
BRANCH   1   2
ATOM      2  N   UNL A   1      37.698  22.832  24.610  1.00  0.00    -0.352 N 
ATOM      3  C   UNL A   1      36.609  23.056  23.805  1.00  0.00     0.251 C 
ATOM      4  O   UNL A   1      36.723  22.815  22.604  1.00  0.00    -0.269 OA
ATOM      5  H   UNL A   1      38.466  22.437  24.138  1.00  0.00     0.163 HD
BRANCH   3   6
ATOM      6  C   UNL A   1      35.335  23.643  24.305  1.00  0.00     0.039 A 
ATOM      7  C   UNL A   1      32.815  24.404  25.275  1.00  0.00     0.041 A 
ATOM      8  C   UNL A   1      33.681  23.687  26.097  1.00  0.00     0.027 A 
ATOM      9  C   UNL A   1      33.264  24.873  24.039  1.00  0.00     0.027 A 
ATOM     10  C   UNL A   1      34.921  23.276  25.596  1.00  0.00     0.016 A 
ATOM     11  C   UNL A   1      34.537  24.527  23.575  1.00  0.00     0.016 A 
BRANCH   7  12
ATOM     12  N   UNL A   1      31.481  24.555  25.686  1.00  0.00    -0.322 N 
ATOM     13  C   UNL A   1      30.846  25.705  26.128  1.00  0.00     0.255 C 
ATOM     14  O   UNL A   1      29.765  25.624  26.709  1.00  0.00    -0.269 OA
ATOM     15  H   UNL A   1      30.928  23.742  25.656  1.00  0.00     0.170 HD
BRANCH  13  16
ATOM     16  C   UNL A   1      31.397  27.058  25.806  1.00  0.00     0.042 A 
ATOM     17  C   UNL A   1      32.732  29.004  26.428  1.00  0.00     0.041 A 
ATOM     18  C   UNL A   1      32.333  29.635  25.247  1.00  0.00     0.026 A 
ATOM     19  C   UNL A   1      32.310  27.695  26.659  1.00  0.00     0.040 A 
ATOM     20  C   UNL A   1      31.522  28.962  24.324  1.00  0.00     0.003 A 
ATOM     21  C   UNL A   1      31.042  27.681  24.608  1.00  0.00     0.014 A 
BRANCH  17  22
ATOM     22  N   UNL A   1      33.470  29.742  27.379  1.00  0.00    -0.325 N 
ATOM     23  O   UNL A   1      32.451  31.829  27.259  1.00  0.00    -0.274 OA
ATOM     24  C   UNL A   1      33.363  31.100  27.642  1.00  0.00     0.234 C 
ATOM     25  H   UNL A   1      34.128  29.239  27.910  1.00  0.00     0.169 HD
BRANCH  24  26
ATOM     26  C   UNL A   1      34.551  31.705  28.376  1.00  0.00     0.175 C 
BRANCH  26  27
ATOM     27  S   UNL A   1      34.905  33.424  27.902  1.00  0.00    -0.116 SA
BRANCH  27  28
ATOM     28  C   UNL A   1      34.255  34.265  29.330  1.00  0.00     0.008 A 
ATOM     29  C   UNL A   1      34.623  33.904  30.631  1.00  0.00     0.016 A 
ATOM     30  C   UNL A   1      33.368  35.327  29.134  1.00  0.00     0.016 A 
ATOM     31  C   UNL A   1      34.145  34.629  31.723  1.00  0.00     0.021 A 
ATOM     32  C   UNL A   1      32.888  36.051  30.226  1.00  0.00     0.021 A 
ATOM     33  C   UNL A   1      33.286  35.705  31.516  1.00  0.00     0.041 A 
ATOM     34  Cl  UNL A   1      32.713  36.614  32.860  1.00  0.00    -0.084 Cl
ENDBRANCH  27  28
ENDBRANCH  26  27
ENDBRANCH  24  26
ENDBRANCH  17  22
ENDBRANCH  13  16
ENDBRANCH   7  12
ENDBRANCH   3   6
ENDBRANCH   1   2
BRANCH   1  35
ATOM     35  C   UNL A   1      39.229  22.395  26.478  1.00  0.00     0.023 C 
BRANCH  35  36
ATOM     36  C   UNL A   1      39.500  21.053  25.789  1.00  0.00     0.023 C 
BRANCH  36  37
ATOM     37  C   UNL A   1      40.022  19.945  26.702  1.00  0.00     0.116 C 
BRANCH  37  38
ATOM     38  N   UNL A   1      41.142  19.214  26.131  1.00  0.00    -0.352 N 
ATOM     39  C   UNL A   1      42.384  19.686  25.774  1.00  0.00     0.251 C 
ATOM     40  H   UNL A   1      40.992  18.252  25.979  1.00  0.00     0.163 HD
ATOM     41  O   UNL A   1      43.174  18.957  25.199  1.00  0.00    -0.269 OA
BRANCH  39  42
ATOM     42  C   UNL A   1      42.734  21.094  26.069  1.00  0.00     0.039 A 
ATOM     43  C   UNL A   1      42.949  21.468  27.397  1.00  0.00     0.014 A 
ATOM     44  C   UNL A   1      42.857  22.031  25.041  1.00  0.00     0.014 A 
ATOM     45  C   UNL A   1      43.331  22.779  27.690  1.00  0.00     0.010 A 
ATOM     46  C   UNL A   1      43.308  23.315  25.328  1.00  0.00     0.010 A 
ATOM     47  C   UNL A   1      43.533  23.708  26.656  1.00  0.00    -0.014 A 
BRANCH  47  48
ATOM     48  C   UNL A   1      43.954  25.101  26.948  1.00  0.00     0.031 A 
ATOM     49  C   UNL A   1      42.965  26.086  27.508  1.00  0.00     0.074 A 
ATOM     50  C   UNL A   1      45.203  25.503  26.637  1.00  0.00     0.049 A 
ATOM     51  N   UNL A   1      43.131  27.351  27.794  1.00  0.00    -0.248 NA
ATOM     52  C   UNL A   1      41.599  25.592  27.750  1.00  0.00     0.031 C 
ATOM     53  C   UNL A   1      46.225  24.670  26.000  1.00  0.00     0.029 A 
ATOM     54  N   UNL A   1      45.813  26.723  26.789  1.00  0.00    -0.354 N 
ATOM     55  C   UNL A   1      41.889  27.811  28.217  1.00  0.00     0.074 A 
ATOM     56  C   UNL A   1      40.968  26.703  28.103  1.00  0.00     0.031 C 
ATOM     57  C   UNL A   1      47.334  25.404  25.815  1.00  0.00     0.029 A 
ATOM     58  C   UNL A   1      47.098  26.760  26.302  1.00  0.00     0.049 A 
ATOM     59  H   UNL A   1      45.373  27.497  27.208  1.00  0.00     0.167 HD
ATOM     60  C   UNL A   1      41.551  29.033  28.696  1.00  0.00     0.034 A 
ATOM     61  C   UNL A   1      47.987  27.771  26.255  1.00  0.00     0.034 A 
ATOM     62  C   UNL A   1      42.479  30.120  28.848  1.00  0.00     0.049 A 
ATOM     63  C   UNL A   1      47.614  29.099  26.858  1.00  0.00     0.074 A 
ATOM     64  C   UNL A   1      42.258  31.373  29.391  1.00  0.00     0.029 A 
ATOM     65  N   UNL A   1      43.808  30.084  28.454  1.00  0.00    -0.354 N 
ATOM     66  N   UNL A   1      46.480  29.468  27.403  1.00  0.00    -0.248 NA
ATOM     67  C   UNL A   1      48.657  30.134  26.886  1.00  0.00     0.031 C 
ATOM     68  C   UNL A   1      43.453  32.098  29.316  1.00  0.00     0.029 A 
ATOM     69  C   UNL A   1      44.423  31.288  28.747  1.00  0.00     0.049 A 
ATOM     70  H   UNL A   1      44.250  29.313  28.029  1.00  0.00     0.167 HD
ATOM     71  C   UNL A   1      46.682  30.761  27.869  1.00  0.00     0.074 A 
ATOM     72  C   UNL A   1      48.056  31.104  27.562  1.00  0.00     0.031 C 
ATOM     73  C   UNL A   1      45.807  31.595  28.485  1.00  0.00     0.034 A 
BRANCH  60  74
ATOM     74  C   UNL A   1      40.127  29.226  29.151  1.00  0.00     0.023 A 
ATOM     75  C   UNL A   1      39.118  29.445  28.189  1.00  0.00     0.012 A 
ATOM     76  C   UNL A   1      39.779  29.171  30.514  1.00  0.00     0.148 A 
ATOM     77  C   UNL A   1      37.795  29.651  28.577  1.00  0.00     0.002 A 
ATOM     78  C   UNL A   1      38.449  29.332  30.890  1.00  0.00     0.091 A 
ATOM     79  F   UNL A   1      40.751  28.987  31.419  1.00  0.00    -0.205 F 
ATOM     80  C   UNL A   1      37.460  29.587  29.926  1.00  0.00     0.022 A 
BRANCH  78  81
ATOM     81  S   UNL A   1      37.904  29.187  32.596  1.00  0.00     0.127 S 
ATOM     82  O   UNL A   1      36.524  29.660  32.506  1.00  0.00    -0.237 OA
ATOM     83  O   UNL A   1      38.041  27.751  32.844  1.00  0.00    -0.237 OA
ATOM     84  O   UNL A   1      38.808  30.022  33.375  1.00  0.00    -0.744 OA
ENDBRANCH  78  81
ENDBRANCH  60  74
BRANCH  61  85
ATOM     85  C   UNL A   1      49.343  27.535  25.687  1.00  0.00     0.023 A 
ATOM     86  C   UNL A   1      49.524  27.561  24.291  1.00  0.00     0.012 A 
ATOM     87  C   UNL A   1      50.461  27.337  26.521  1.00  0.00     0.148 A 
ATOM     88  C   UNL A   1      50.789  27.366  23.733  1.00  0.00     0.002 A 
ATOM     89  C   UNL A   1      51.726  27.198  25.962  1.00  0.00     0.091 A 
ATOM     90  F   UNL A   1      50.264  27.309  27.847  1.00  0.00    -0.205 F 
ATOM     91  C   UNL A   1      51.890  27.196  24.568  1.00  0.00     0.022 A 
BRANCH  89  92
ATOM     92  S   UNL A   1      53.217  27.113  26.961  1.00  0.00     0.127 S 
ATOM     93  O   UNL A   1      53.031  25.847  27.666  1.00  0.00    -0.237 OA
ATOM     94  O   UNL A   1      54.263  27.102  25.938  1.00  0.00    -0.237 OA
ATOM     95  O   UNL A   1      53.202  28.308  27.792  1.00  0.00    -0.744 OA
ENDBRANCH  89  92
ENDBRANCH  61  85
BRANCH  73  96
ATOM     96  C   UNL A   1      46.311  32.950  28.907  1.00  0.00     0.023 A 
ATOM     97  C   UNL A   1      46.925  33.112  30.165  1.00  0.00     0.012 A 
ATOM     98  C   UNL A   1      46.241  34.047  28.025  1.00  0.00     0.148 A 
ATOM     99  C   UNL A   1      47.431  34.352  30.552  1.00  0.00     0.002 A 
ATOM    100  C   UNL A   1      46.791  35.268  28.399  1.00  0.00     0.091 A 
ATOM    101  F   UNL A   1      45.635  33.880  26.841  1.00  0.00    -0.205 F 
ATOM    102  C   UNL A   1      47.375  35.425  29.666  1.00  0.00     0.022 A 
BRANCH 100 103
ATOM    103  S   UNL A   1      46.849  36.674  27.282  1.00  0.00     0.127 S 
ATOM    104  O   UNL A   1      45.429  36.984  27.120  1.00  0.00    -0.237 OA
ATOM    105  O   UNL A   1      47.605  37.659  28.057  1.00  0.00    -0.237 OA
ATOM    106  O   UNL A   1      47.529  36.202  26.084  1.00  0.00    -0.744 OA
ENDBRANCH 100 103
ENDBRANCH  73  96
ENDBRANCH  47  48
ENDBRANCH  39  42
ENDBRANCH  37  38
ENDBRANCH  36  37
ENDBRANCH  35  36
ENDBRANCH   1  35
TORSDOF 20
ENDMDL
MODEL 3
REMARK VINA RESULT:      -9.7      4.314     10.753
REMARK SMILES O=C(CSc1ccc(Cl)cc1)Nc1cccc(C(=O)Nc2ccc(C(=O)NCCCCNC(=O)c3ccc(-c4c5nc(c(-c6cccc(S(=O)(=O)[O-])c6F)c6ccc([nH]6)c(-c6cccc(S(=O)(=O)[O-])c6F)c6nc(c(-c7cccc(S(=O)(=O)[O-])c7F)c7ccc4[nH]7)C=C6)C=C5)cc3)cc2)c1
REMARK SMILES IDX 28 1 27 2 25 3 26 4 24 6 21 7 22 8 99 9 23 10 98 11 20 12
REMARK SMILES IDX 18 13 19 14 17 16 13 17 14 18 100 19 15 20 16 21 12 22 1 23
REMARK SMILES IDX 2 24 3 26 4 27 5 28 6 29 11 30 7 31 10 32 8 33 9 34 29 35
REMARK SMILES IDX 30 36 31 37 32 38 33 39 34 41 35 42 36 43 97 44 37 45 96 46
REMARK SMILES IDX 38 47 39 48 40 49 90 50 41 51 95 52 89 53 91 54 42 55 94 56
REMARK SMILES IDX 88 57 87 58 43 60 75 61 55 62 74 63 56 64 59 65 73 66 92 67
REMARK SMILES IDX 57 68 58 69 72 71 93 72 60 73 44 74 45 75 53 76 46 77 48 78
REMARK SMILES IDX 54 79 47 80 49 81 50 82 51 83 52 84 76 85 77 86 85 87 78 88
REMARK SMILES IDX 80 89 86 90 79 91 81 92 82 93 83 94 84 95 61 96 62 97 70 98
REMARK SMILES IDX 63 99 65 100 71 101 64 102 66 103 67 104 68 105 69 106
REMARK H PARENT 27 5 20 15 12 25 32 40 91 59 59 70
REMARK Flexibility Score: inf
ROOT
ATOM      1  C   UNL A   1      33.475  29.627  26.436  1.00  0.00     0.116 C 
ENDROOT
BRANCH   1   2
ATOM      2  N   UNL A   1      32.319  30.072  25.677  1.00  0.00    -0.352 N 
ATOM      3  C   UNL A   1      31.466  29.421  24.821  1.00  0.00     0.251 C 
ATOM      4  O   UNL A   1      30.512  30.054  24.368  1.00  0.00    -0.269 OA
ATOM      5  H   UNL A   1      32.105  31.025  25.802  1.00  0.00     0.163 HD
BRANCH   3   6
ATOM      6  C   UNL A   1      31.599  27.977  24.481  1.00  0.00     0.039 A 
ATOM      7  C   UNL A   1      31.824  25.363  23.490  1.00  0.00     0.041 A 
ATOM      8  C   UNL A   1      32.823  26.293  23.212  1.00  0.00     0.027 A 
ATOM      9  C   UNL A   1      30.803  25.691  24.385  1.00  0.00     0.027 A 
ATOM     10  C   UNL A   1      32.688  27.605  23.675  1.00  0.00     0.016 A 
ATOM     11  C   UNL A   1      30.718  26.983  24.910  1.00  0.00     0.016 A 
BRANCH   7  12
ATOM     12  N   UNL A   1      31.830  24.149  22.785  1.00  0.00    -0.322 N 
ATOM     13  C   UNL A   1      32.611  23.027  23.018  1.00  0.00     0.255 C 
ATOM     14  O   UNL A   1      32.701  22.153  22.157  1.00  0.00    -0.269 OA
ATOM     15  H   UNL A   1      31.201  24.087  22.030  1.00  0.00     0.170 HD
BRANCH  13  16
ATOM     16  C   UNL A   1      33.255  22.804  24.350  1.00  0.00     0.042 A 
ATOM     17  C   UNL A   1      35.216  22.908  25.798  1.00  0.00     0.041 A 
ATOM     18  C   UNL A   1      34.484  22.278  26.808  1.00  0.00     0.026 A 
ATOM     19  C   UNL A   1      34.569  23.223  24.604  1.00  0.00     0.040 A 
ATOM     20  C   UNL A   1      33.132  21.968  26.613  1.00  0.00     0.003 A 
ATOM     21  C   UNL A   1      32.521  22.215  25.381  1.00  0.00     0.014 A 
BRANCH  17  22
ATOM     22  N   UNL A   1      36.598  23.122  25.991  1.00  0.00    -0.325 N 
ATOM     23  O   UNL A   1      37.503  21.127  25.208  1.00  0.00    -0.274 OA
ATOM     24  C   UNL A   1      37.617  22.200  25.799  1.00  0.00     0.234 C 
ATOM     25  H   UNL A   1      36.866  24.019  26.293  1.00  0.00     0.169 HD
BRANCH  24  26
ATOM     26  C   UNL A   1      38.929  22.543  26.487  1.00  0.00     0.175 C 
BRANCH  26  27
ATOM     27  S   UNL A   1      40.237  21.308  26.224  1.00  0.00    -0.116 SA
BRANCH  27  28
ATOM     28  C   UNL A   1      41.636  22.221  26.840  1.00  0.00     0.008 A 
ATOM     29  C   UNL A   1      42.617  22.736  25.985  1.00  0.00     0.016 A 
ATOM     30  C   UNL A   1      41.736  22.442  28.217  1.00  0.00     0.016 A 
ATOM     31  C   UNL A   1      43.664  23.503  26.498  1.00  0.00     0.021 A 
ATOM     32  C   UNL A   1      42.784  23.208  28.730  1.00  0.00     0.021 A 
ATOM     33  C   UNL A   1      43.739  23.743  27.867  1.00  0.00     0.041 A 
ATOM     34  Cl  UNL A   1      45.016  24.708  28.498  1.00  0.00    -0.084 Cl
ENDBRANCH  27  28
ENDBRANCH  26  27
ENDBRANCH  24  26
ENDBRANCH  17  22
ENDBRANCH  13  16
ENDBRANCH   7  12
ENDBRANCH   3   6
ENDBRANCH   1   2
BRANCH   1  35
ATOM     35  C   UNL A   1      34.006  30.745  27.328  1.00  0.00     0.023 C 
BRANCH  35  36
ATOM     36  C   UNL A   1      32.976  31.841  27.622  1.00  0.00     0.023 C 
BRANCH  36  37
ATOM     37  C   UNL A   1      33.415  33.260  27.269  1.00  0.00     0.116 C 
BRANCH  37  38
ATOM     38  N   UNL A   1      32.881  34.265  28.175  1.00  0.00    -0.352 N 
ATOM     39  C   UNL A   1      33.278  34.563  29.459  1.00  0.00     0.251 C 
ATOM     40  H   UNL A   1      32.136  34.805  27.823  1.00  0.00     0.163 HD
ATOM     41  O   UNL A   1      32.645  35.363  30.125  1.00  0.00    -0.269 OA
BRANCH  39  42
ATOM     42  C   UNL A   1      34.461  33.877  30.026  1.00  0.00     0.039 A 
ATOM     43  C   UNL A   1      35.734  34.322  29.664  1.00  0.00     0.014 A 
ATOM     44  C   UNL A   1      34.311  32.810  30.915  1.00  0.00     0.014 A 
ATOM     45  C   UNL A   1      36.861  33.721  30.229  1.00  0.00     0.010 A 
ATOM     46  C   UNL A   1      35.431  32.263  31.532  1.00  0.00     0.010 A 
ATOM     47  C   UNL A   1      36.718  32.700  31.183  1.00  0.00    -0.014 A 
BRANCH  47  48
ATOM     48  C   UNL A   1      37.904  32.061  31.806  1.00  0.00     0.031 A 
ATOM     49  C   UNL A   1      38.630  30.956  31.088  1.00  0.00     0.074 A 
ATOM     50  C   UNL A   1      38.283  32.419  33.049  1.00  0.00     0.049 A 
ATOM     51  N   UNL A   1      39.659  30.253  31.481  1.00  0.00    -0.248 NA
ATOM     52  C   UNL A   1      38.111  30.569  29.765  1.00  0.00     0.031 C 
ATOM     53  C   UNL A   1      37.603  33.408  33.888  1.00  0.00     0.029 A 
ATOM     54  N   UNL A   1      39.315  31.969  33.833  1.00  0.00    -0.354 N 
ATOM     55  C   UNL A   1      39.891  29.323  30.474  1.00  0.00     0.074 A 
ATOM     56  C   UNL A   1      38.864  29.519  29.475  1.00  0.00     0.031 C 
ATOM     57  C   UNL A   1      38.235  33.488  35.070  1.00  0.00     0.029 A 
ATOM     58  C   UNL A   1      39.352  32.548  35.080  1.00  0.00     0.049 A 
ATOM     59  H   UNL A   1      39.968  31.298  33.532  1.00  0.00     0.167 HD
ATOM     60  C   UNL A   1      40.890  28.414  30.367  1.00  0.00     0.034 A 
ATOM     61  C   UNL A   1      40.192  32.345  36.114  1.00  0.00     0.034 A 
ATOM     62  C   UNL A   1      41.934  28.251  31.342  1.00  0.00     0.049 A 
ATOM     63  C   UNL A   1      41.337  31.383  35.947  1.00  0.00     0.074 A 
ATOM     64  C   UNL A   1      43.033  27.413  31.295  1.00  0.00     0.029 A 
ATOM     65  N   UNL A   1      42.008  28.941  32.542  1.00  0.00    -0.354 N 
ATOM     66  N   UNL A   1      41.634  30.625  34.918  1.00  0.00    -0.248 NA
ATOM     67  C   UNL A   1      42.291  31.283  37.060  1.00  0.00     0.031 C 
ATOM     68  C   UNL A   1      43.767  27.590  32.474  1.00  0.00     0.029 A 
ATOM     69  C   UNL A   1      43.136  28.554  33.244  1.00  0.00     0.049 A 
ATOM     70  H   UNL A   1      41.353  29.609  32.850  1.00  0.00     0.167 HD
ATOM     71  C   UNL A   1      42.825  29.987  35.243  1.00  0.00     0.074 A 
ATOM     72  C   UNL A   1      43.206  30.463  36.558  1.00  0.00     0.031 C 
ATOM     73  C   UNL A   1      43.532  29.079  34.526  1.00  0.00     0.034 A 
BRANCH  60  74
ATOM     74  C   UNL A   1      40.930  27.575  29.115  1.00  0.00     0.023 A 
ATOM     75  C   UNL A   1      40.057  26.474  28.994  1.00  0.00     0.012 A 
ATOM     76  C   UNL A   1      41.803  27.882  28.055  1.00  0.00     0.148 A 
ATOM     77  C   UNL A   1      40.084  25.663  27.860  1.00  0.00     0.002 A 
ATOM     78  C   UNL A   1      41.792  27.096  26.907  1.00  0.00     0.091 A 
ATOM     79  F   UNL A   1      42.644  28.917  28.193  1.00  0.00    -0.205 F 
ATOM     80  C   UNL A   1      40.945  25.979  26.814  1.00  0.00     0.022 A 
BRANCH  78  81
ATOM     81  S   UNL A   1      42.808  27.469  25.472  1.00  0.00     0.127 S 
ATOM     82  O   UNL A   1      42.171  28.684  24.968  1.00  0.00    -0.237 OA
ATOM     83  O   UNL A   1      44.127  27.675  26.071  1.00  0.00    -0.237 OA
ATOM     84  O   UNL A   1      42.714  26.303  24.604  1.00  0.00    -0.744 OA
ENDBRANCH  78  81
ENDBRANCH  60  74
BRANCH  61  85
ATOM     85  C   UNL A   1      40.023  33.133  37.366  1.00  0.00     0.023 A 
ATOM     86  C   UNL A   1      39.064  32.730  38.316  1.00  0.00     0.012 A 
ATOM     87  C   UNL A   1      40.840  34.246  37.645  1.00  0.00     0.148 A 
ATOM     88  C   UNL A   1      38.902  33.437  39.508  1.00  0.00     0.002 A 
ATOM     89  C   UNL A   1      40.711  34.913  38.857  1.00  0.00     0.091 A 
ATOM     90  F   UNL A   1      41.741  34.617  36.724  1.00  0.00    -0.205 F 
ATOM     91  C   UNL A   1      39.732  34.521  39.784  1.00  0.00     0.022 A 
BRANCH  89  92
ATOM     92  S   UNL A   1      41.826  36.230  39.357  1.00  0.00     0.127 S 
ATOM     93  O   UNL A   1      41.500  37.278  38.392  1.00  0.00    -0.237 OA
ATOM     94  O   UNL A   1      41.385  36.495  40.727  1.00  0.00    -0.237 OA
ATOM     95  O   UNL A   1      43.166  35.671  39.254  1.00  0.00    -0.744 OA
ENDBRANCH  89  92
ENDBRANCH  61  85
BRANCH  73  96
ATOM     96  C   UNL A   1      44.815  28.563  35.123  1.00  0.00     0.023 A 
ATOM     97  C   UNL A   1      46.023  29.253  34.898  1.00  0.00     0.012 A 
ATOM     98  C   UNL A   1      44.810  27.435  35.967  1.00  0.00     0.148 A 
ATOM     99  C   UNL A   1      47.211  28.809  35.476  1.00  0.00     0.002 A 
ATOM    100  C   UNL A   1      45.990  27.026  36.578  1.00  0.00     0.091 A 
ATOM    101  F   UNL A   1      43.656  26.778  36.152  1.00  0.00    -0.205 F 
ATOM    102  C   UNL A   1      47.193  27.705  36.325  1.00  0.00     0.022 A 
BRANCH 100 103
ATOM    103  S   UNL A   1      46.037  25.674  37.760  1.00  0.00     0.127 S 
ATOM    104  O   UNL A   1      47.463  25.606  38.078  1.00  0.00    -0.237 OA
ATOM    105  O   UNL A   1      45.194  26.178  38.845  1.00  0.00    -0.237 OA
ATOM    106  O   UNL A   1      45.493  24.518  37.063  1.00  0.00    -0.744 OA
ENDBRANCH 100 103
ENDBRANCH  73  96
ENDBRANCH  47  48
ENDBRANCH  39  42
ENDBRANCH  37  38
ENDBRANCH  36  37
ENDBRANCH  35  36
ENDBRANCH   1  35
TORSDOF 20
ENDMDL
