MODEL 1
REMARK VINA RESULT:     -13.2      0.000      0.000
REMARK SMILES O=C(NCCCCNC(=O)[C@H]1CCCC[C@H]1C(=O)N1CCN(S(=O)(=O)c2ccc(F)cc2)CC1)c1ccc(-c2c3nc(c(-c4cccc(S(=O)(=O)[O-])c4F)c4ccc([nH]4)c(-c4cccc(S(=O)(=O)[O-])c4F)c4nc(c(-c5cccc(S(=O)(=O)[O-])c5F)c5ccc2[nH]5)C=C4)C=C3)cc1
REMARK SMILES IDX 5 1 4 2 3 3 1 4 2 5 35 7 36 8 97 9 37 10 96 11 38 12 39 13
REMARK SMILES IDX 40 14 90 15 41 16 95 17 89 18 91 19 42 20 94 21 88 22 87 23
REMARK SMILES IDX 43 25 75 26 55 27 74 28 56 29 59 30 73 31 92 32 57 33 58 34
REMARK SMILES IDX 72 36 93 37 60 38 44 39 45 40 53 41 46 42 48 43 54 44 47 45
REMARK SMILES IDX 49 46 50 47 51 48 52 49 76 50 77 51 85 52 78 53 80 54 86 55
REMARK SMILES IDX 79 56 81 57 82 58 83 59 84 60 61 61 62 62 70 63 63 64 65 65
REMARK SMILES IDX 71 66 64 67 66 68 67 69 68 70 69 71 6 72 7 73 8 74 9 75
REMARK SMILES IDX 10 77 11 78 12 79 16 80 13 81 15 82 14 83 17 84 18 85 19 86
REMARK SMILES IDX 20 87 34 88 21 89 33 90 22 91 23 92 24 93 25 94 26 95 27 96
REMARK SMILES IDX 32 97 28 98 31 99 29 100 30 101
REMARK H PARENT 3 6 91 24 59 35 8 76
REMARK Flexibility Score: inf
ROOT
ATOM      1  C   UNL A   1      31.660  31.941  26.860  1.00  0.00     0.023 C 
ENDROOT
BRANCH   1   2
ATOM      2  C   UNL A   1      32.803  32.819  27.355  1.00  0.00     0.116 C 
BRANCH   2   3
ATOM      3  N   UNL A   1      32.405  34.172  27.711  1.00  0.00    -0.352 N 
ATOM      4  O   UNL A   1      32.559  36.093  28.912  1.00  0.00    -0.269 OA
ATOM      5  C   UNL A   1      33.009  34.986  28.646  1.00  0.00     0.251 C 
ATOM      6  H   UNL A   1      31.627  34.544  27.237  1.00  0.00     0.163 HD
BRANCH   5   7
ATOM      7  C   UNL A   1      34.189  34.444  29.344  1.00  0.00     0.039 A 
ATOM      8  C   UNL A   1      35.458  34.646  28.796  1.00  0.00     0.014 A 
ATOM      9  C   UNL A   1      33.997  33.595  30.434  1.00  0.00     0.014 A 
ATOM     10  C   UNL A   1      36.524  33.887  29.260  1.00  0.00     0.010 A 
ATOM     11  C   UNL A   1      35.090  32.901  30.953  1.00  0.00     0.010 A 
ATOM     12  C   UNL A   1      36.355  33.018  30.353  1.00  0.00    -0.014 A 
BRANCH  12  13
ATOM     13  C   UNL A   1      37.529  32.312  30.924  1.00  0.00     0.031 A 
ATOM     14  C   UNL A   1      38.274  31.261  30.150  1.00  0.00     0.074 A 
ATOM     15  C   UNL A   1      37.889  32.611  32.187  1.00  0.00     0.049 A 
ATOM     16  N   UNL A   1      39.275  30.515  30.539  1.00  0.00    -0.248 NA
ATOM     17  C   UNL A   1      37.840  31.004  28.766  1.00  0.00     0.031 C 
ATOM     18  C   UNL A   1      37.213  33.590  33.041  1.00  0.00     0.029 A 
ATOM     19  N   UNL A   1      38.894  32.118  32.978  1.00  0.00    -0.354 N 
ATOM     20  C   UNL A   1      39.566  29.671  29.473  1.00  0.00     0.074 A 
ATOM     21  C   UNL A   1      38.633  29.997  28.415  1.00  0.00     0.031 C 
ATOM     22  C   UNL A   1      37.830  33.641  34.228  1.00  0.00     0.029 A 
ATOM     23  C   UNL A   1      38.897  32.649  34.246  1.00  0.00     0.049 A 
ATOM     24  H   UNL A   1      39.547  31.450  32.669  1.00  0.00     0.167 HD
ATOM     25  C   UNL A   1      40.527  28.721  29.387  1.00  0.00     0.034 A 
ATOM     26  C   UNL A   1      39.650  32.352  35.321  1.00  0.00     0.034 A 
ATOM     27  C   UNL A   1      41.468  28.430  30.440  1.00  0.00     0.049 A 
ATOM     28  C   UNL A   1      40.709  31.299  35.195  1.00  0.00     0.074 A 
ATOM     29  C   UNL A   1      42.520  27.532  30.422  1.00  0.00     0.029 A 
ATOM     30  N   UNL A   1      41.466  29.018  31.695  1.00  0.00    -0.354 N 
ATOM     31  N   UNL A   1      41.038  30.588  34.144  1.00  0.00    -0.248 NA
ATOM     32  C   UNL A   1      41.517  31.022  36.389  1.00  0.00     0.031 C 
ATOM     33  C   UNL A   1      43.134  27.551  31.678  1.00  0.00     0.029 A 
ATOM     34  C   UNL A   1      42.490  28.492  32.466  1.00  0.00     0.049 A 
ATOM     35  H   UNL A   1      40.832  29.708  31.995  1.00  0.00     0.167 HD
ATOM     36  C   UNL A   1      42.106  29.795  34.540  1.00  0.00     0.074 A 
ATOM     37  C   UNL A   1      42.383  30.131  35.923  1.00  0.00     0.031 C 
ATOM     38  C   UNL A   1      42.784  28.864  33.827  1.00  0.00     0.034 A 
BRANCH  25  39
ATOM     39  C   UNL A   1      40.656  27.939  28.104  1.00  0.00     0.023 A 
ATOM     40  C   UNL A   1      41.336  28.505  27.007  1.00  0.00     0.012 A 
ATOM     41  C   UNL A   1      40.217  26.600  28.026  1.00  0.00     0.148 A 
ATOM     42  C   UNL A   1      41.562  27.761  25.849  1.00  0.00     0.002 A 
ATOM     43  C   UNL A   1      40.485  25.851  26.886  1.00  0.00     0.091 A 
ATOM     44  F   UNL A   1      39.560  26.082  29.074  1.00  0.00    -0.205 F 
ATOM     45  C   UNL A   1      41.150  26.433  25.794  1.00  0.00     0.022 A 
BRANCH  43  46
ATOM     46  S   UNL A   1      40.076  24.107  26.747  1.00  0.00     0.127 S 
ATOM     47  O   UNL A   1      38.732  24.165  26.172  1.00  0.00    -0.237 OA
ATOM     48  O   UNL A   1      41.108  23.622  25.831  1.00  0.00    -0.237 OA
ATOM     49  O   UNL A   1      40.152  23.565  28.096  1.00  0.00    -0.744 OA
ENDBRANCH  43  46
ENDBRANCH  25  39
BRANCH  26  50
ATOM     50  C   UNL A   1      39.437  33.106  36.587  1.00  0.00     0.023 A 
ATOM     51  C   UNL A   1      39.952  34.409  36.708  1.00  0.00     0.012 A 
ATOM     52  C   UNL A   1      38.647  32.576  37.628  1.00  0.00     0.148 A 
ATOM     53  C   UNL A   1      39.695  35.168  37.850  1.00  0.00     0.002 A 
ATOM     54  C   UNL A   1      38.342  33.361  38.732  1.00  0.00     0.091 A 
ATOM     55  F   UNL A   1      38.172  31.329  37.491  1.00  0.00    -0.205 F 
ATOM     56  C   UNL A   1      38.879  34.651  38.853  1.00  0.00     0.022 A 
BRANCH  54  57
ATOM     57  S   UNL A   1      37.177  32.838  39.995  1.00  0.00     0.127 S 
ATOM     58  O   UNL A   1      35.950  32.674  39.220  1.00  0.00    -0.237 OA
ATOM     59  O   UNL A   1      37.782  31.591  40.462  1.00  0.00    -0.237 OA
ATOM     60  O   UNL A   1      37.160  33.906  40.985  1.00  0.00    -0.744 OA
ENDBRANCH  54  57
ENDBRANCH  26  50
BRANCH  38  61
ATOM     61  C   UNL A   1      43.917  28.146  34.510  1.00  0.00     0.023 A 
ATOM     62  C   UNL A   1      45.193  28.742  34.564  1.00  0.00     0.012 A 
ATOM     63  C   UNL A   1      43.690  26.933  35.189  1.00  0.00     0.148 A 
ATOM     64  C   UNL A   1      46.231  28.130  35.266  1.00  0.00     0.002 A 
ATOM     65  C   UNL A   1      44.714  26.356  35.929  1.00  0.00     0.091 A 
ATOM     66  F   UNL A   1      42.473  26.374  35.109  1.00  0.00    -0.205 F 
ATOM     67  C   UNL A   1      45.987  26.947  35.960  1.00  0.00     0.022 A 
BRANCH  65  68
ATOM     68  S   UNL A   1      44.468  24.892  36.942  1.00  0.00     0.127 S 
ATOM     69  O   UNL A   1      43.128  25.124  37.480  1.00  0.00    -0.237 OA
ATOM     70  O   UNL A   1      44.551  23.816  35.955  1.00  0.00    -0.237 OA
ATOM     71  O   UNL A   1      45.542  24.897  37.926  1.00  0.00    -0.744 OA
ENDBRANCH  65  68
ENDBRANCH  38  61
ENDBRANCH  12  13
ENDBRANCH   5   7
ENDBRANCH   2   3
ENDBRANCH   1   2
BRANCH   1  72
ATOM     72  C   UNL A   1      32.019  30.472  26.678  1.00  0.00     0.023 C 
BRANCH  72  73
ATOM     73  C   UNL A   1      33.507  30.198  26.807  1.00  0.00     0.116 C 
BRANCH  73  74
ATOM     74  N   UNL A   1      33.986  29.278  25.803  1.00  0.00    -0.356 N 
ATOM     75  C   UNL A   1      33.342  28.678  24.777  1.00  0.00     0.223 C 
ATOM     76  H   UNL A   1      34.940  29.050  25.878  1.00  0.00     0.163 HD
ATOM     77  O   UNL A   1      34.057  28.181  23.896  1.00  0.00    -0.275 OA
BRANCH  75  78
ATOM     78  C   UNL A   1      31.830  28.506  24.678  1.00  0.00     0.091 C 
ATOM     79  C   UNL A   1      31.357  29.186  23.384  1.00  0.00     0.014 C 
ATOM     80  C   UNL A   1      31.119  27.170  24.922  1.00  0.00     0.091 C 
ATOM     81  C   UNL A   1      31.744  28.375  22.168  1.00  0.00     0.001 C 
ATOM     82  C   UNL A   1      30.710  26.437  23.585  1.00  0.00     0.014 C 
ATOM     83  C   UNL A   1      31.182  26.967  22.220  1.00  0.00     0.001 C 
BRANCH  80  84
ATOM     84  C   UNL A   1      31.584  26.104  25.967  1.00  0.00     0.226 C 
ATOM     85  O   UNL A   1      31.239  26.300  27.143  1.00  0.00    -0.275 OA
ATOM     86  N   UNL A   1      32.367  25.000  25.705  1.00  0.00    -0.340 N 
ATOM     87  C   UNL A   1      32.514  23.975  26.757  1.00  0.00     0.136 C 
ATOM     88  C   UNL A   1      33.263  24.736  24.585  1.00  0.00     0.136 C 
ATOM     89  C   UNL A   1      32.285  22.549  26.222  1.00  0.00     0.124 C 
ATOM     90  C   UNL A   1      32.973  23.357  23.969  1.00  0.00     0.124 C 
ATOM     91  N   UNL A   1      33.038  22.245  24.961  1.00  0.00    -0.194 NA
BRANCH  91  92
ATOM     92  S   UNL A   1      34.510  21.424  25.157  1.00  0.00     0.243 S 
ATOM     93  O   UNL A   1      35.416  21.926  24.137  1.00  0.00    -0.207 OA
ATOM     94  O   UNL A   1      34.859  21.470  26.553  1.00  0.00    -0.207 OA
BRANCH  92  95
ATOM     95  C   UNL A   1      34.114  19.730  24.750  1.00  0.00     0.082 A 
ATOM     96  C   UNL A   1      32.788  19.385  24.453  1.00  0.00     0.025 A 
ATOM     97  C   UNL A   1      35.130  18.769  24.658  1.00  0.00     0.025 A 
ATOM     98  C   UNL A   1      32.464  18.063  24.153  1.00  0.00     0.040 A 
ATOM     99  C   UNL A   1      34.802  17.451  24.317  1.00  0.00     0.040 A 
ATOM    100  C   UNL A   1      33.472  17.109  24.085  1.00  0.00     0.123 A 
ATOM    101  F   UNL A   1      33.156  15.845  23.777  1.00  0.00    -0.207 F 
ENDBRANCH  92  95
ENDBRANCH  91  92
ENDBRANCH  80  84
ENDBRANCH  75  78
ENDBRANCH  73  74
ENDBRANCH  72  73
ENDBRANCH   1  72
TORSDOF 17
ENDMDL
MODEL 2
REMARK VINA RESULT:     -13.2      5.925     11.550
REMARK SMILES O=C(NCCCCNC(=O)[C@H]1CCCC[C@H]1C(=O)N1CCN(S(=O)(=O)c2ccc(F)cc2)CC1)c1ccc(-c2c3nc(c(-c4cccc(S(=O)(=O)[O-])c4F)c4ccc([nH]4)c(-c4cccc(S(=O)(=O)[O-])c4F)c4nc(c(-c5cccc(S(=O)(=O)[O-])c5F)c5ccc2[nH]5)C=C4)C=C3)cc1
REMARK SMILES IDX 5 1 4 2 3 3 1 4 2 5 35 7 36 8 97 9 37 10 96 11 38 12 39 13
REMARK SMILES IDX 40 14 90 15 41 16 95 17 89 18 91 19 42 20 94 21 88 22 87 23
REMARK SMILES IDX 43 25 75 26 55 27 74 28 56 29 59 30 73 31 92 32 57 33 58 34
REMARK SMILES IDX 72 36 93 37 60 38 44 39 45 40 53 41 46 42 48 43 54 44 47 45
REMARK SMILES IDX 49 46 50 47 51 48 52 49 76 50 77 51 85 52 78 53 80 54 86 55
REMARK SMILES IDX 79 56 81 57 82 58 83 59 84 60 61 61 62 62 70 63 63 64 65 65
REMARK SMILES IDX 71 66 64 67 66 68 67 69 68 70 69 71 6 72 7 73 8 74 9 75
REMARK SMILES IDX 10 77 11 78 12 79 16 80 13 81 15 82 14 83 17 84 18 85 19 86
REMARK SMILES IDX 20 87 34 88 21 89 33 90 22 91 23 92 24 93 25 94 26 95 27 96
REMARK SMILES IDX 32 97 28 98 31 99 29 100 30 101
REMARK H PARENT 3 6 91 24 59 35 8 76
REMARK Flexibility Score: inf
ROOT
ATOM      1  C   UNL A   1      38.145  20.312  24.983  1.00  0.00     0.023 C 
ENDROOT
BRANCH   1   2
ATOM      2  C   UNL A   1      39.277  20.408  25.999  1.00  0.00     0.116 C 
BRANCH   2   3
ATOM      3  N   UNL A   1      40.231  19.312  25.934  1.00  0.00    -0.352 N 
ATOM      4  O   UNL A   1      42.318  18.420  25.987  1.00  0.00    -0.269 OA
ATOM      5  C   UNL A   1      41.594  19.398  26.118  1.00  0.00     0.251 C 
ATOM      6  H   UNL A   1      39.866  18.419  25.740  1.00  0.00     0.163 HD
BRANCH   5   7
ATOM      7  C   UNL A   1      42.146  20.729  26.432  1.00  0.00     0.039 A 
ATOM      8  C   UNL A   1      42.401  21.065  27.764  1.00  0.00     0.014 A 
ATOM      9  C   UNL A   1      42.231  21.680  25.416  1.00  0.00     0.014 A 
ATOM     10  C   UNL A   1      42.613  22.396  28.097  1.00  0.00     0.010 A 
ATOM     11  C   UNL A   1      42.533  23.001  25.747  1.00  0.00     0.010 A 
ATOM     12  C   UNL A   1      42.696  23.375  27.092  1.00  0.00    -0.014 A 
BRANCH  12  13
ATOM     13  C   UNL A   1      43.054  24.771  27.448  1.00  0.00     0.031 A 
ATOM     14  C   UNL A   1      42.054  25.715  28.053  1.00  0.00     0.074 A 
ATOM     15  C   UNL A   1      44.305  25.189  27.172  1.00  0.00     0.049 A 
ATOM     16  N   UNL A   1      42.201  26.979  28.356  1.00  0.00    -0.248 NA
ATOM     17  C   UNL A   1      40.713  25.183  28.350  1.00  0.00     0.031 C 
ATOM     18  C   UNL A   1      45.346  24.365  26.552  1.00  0.00     0.029 A 
ATOM     19  N   UNL A   1      44.910  26.405  27.358  1.00  0.00    -0.354 N 
ATOM     20  C   UNL A   1      40.969  27.408  28.837  1.00  0.00     0.074 A 
ATOM     21  C   UNL A   1      40.080  26.266  28.786  1.00  0.00     0.031 C 
ATOM     22  C   UNL A   1      46.465  25.089  26.426  1.00  0.00     0.029 A 
ATOM     23  C   UNL A   1      46.201  26.446  26.887  1.00  0.00     0.049 A 
ATOM     24  H   UNL A   1      44.465  27.171  27.786  1.00  0.00     0.167 HD
ATOM     25  C   UNL A   1      40.621  28.637  29.285  1.00  0.00     0.034 A 
ATOM     26  C   UNL A   1      47.072  27.469  26.800  1.00  0.00     0.034 A 
ATOM     27  C   UNL A   1      41.527  29.755  29.357  1.00  0.00     0.049 A 
ATOM     28  C   UNL A   1      46.659  28.817  27.308  1.00  0.00     0.074 A 
ATOM     29  C   UNL A   1      41.285  31.022  29.859  1.00  0.00     0.029 A 
ATOM     30  N   UNL A   1      42.839  29.748  28.909  1.00  0.00    -0.354 N 
ATOM     31  N   UNL A   1      45.524  29.174  27.858  1.00  0.00    -0.248 NA
ATOM     32  C   UNL A   1      47.649  29.896  27.208  1.00  0.00     0.031 C 
ATOM     33  C   UNL A   1      42.439  31.791  29.683  1.00  0.00     0.029 A 
ATOM     34  C   UNL A   1      43.415  30.991  29.109  1.00  0.00     0.049 A 
ATOM     35  H   UNL A   1      43.295  28.973  28.509  1.00  0.00     0.167 HD
ATOM     36  C   UNL A   1      45.669  30.513  28.193  1.00  0.00     0.074 A 
ATOM     37  C   UNL A   1      47.012  30.897  27.803  1.00  0.00     0.031 C 
ATOM     38  C   UNL A   1      44.766  31.351  28.757  1.00  0.00     0.034 A 
BRANCH  25  39
ATOM     39  C   UNL A   1      39.211  28.853  29.777  1.00  0.00     0.023 A 
ATOM     40  C   UNL A   1      38.886  28.554  31.115  1.00  0.00     0.012 A 
ATOM     41  C   UNL A   1      38.244  29.467  28.953  1.00  0.00     0.148 A 
ATOM     42  C   UNL A   1      37.619  28.846  31.621  1.00  0.00     0.002 A 
ATOM     43  C   UNL A   1      36.999  29.796  29.477  1.00  0.00     0.091 A 
ATOM     44  F   UNL A   1      38.566  29.731  27.679  1.00  0.00    -0.205 F 
ATOM     45  C   UNL A   1      36.682  29.478  30.808  1.00  0.00     0.022 A 
BRANCH  43  46
ATOM     46  S   UNL A   1      35.752  30.690  28.542  1.00  0.00     0.127 S 
ATOM     47  O   UNL A   1      35.087  29.602  27.825  1.00  0.00    -0.237 OA
ATOM     48  O   UNL A   1      34.950  31.298  29.603  1.00  0.00    -0.237 OA
ATOM     49  O   UNL A   1      36.477  31.635  27.704  1.00  0.00    -0.744 OA
ENDBRANCH  43  46
ENDBRANCH  25  39
BRANCH  26  50
ATOM     50  C   UNL A   1      48.430  27.220  26.242  1.00  0.00     0.023 A 
ATOM     51  C   UNL A   1      49.401  26.594  27.044  1.00  0.00     0.012 A 
ATOM     52  C   UNL A   1      48.730  27.511  24.895  1.00  0.00     0.148 A 
ATOM     53  C   UNL A   1      50.653  26.273  26.520  1.00  0.00     0.002 A 
ATOM     54  C   UNL A   1      49.955  27.131  24.363  1.00  0.00     0.091 A 
ATOM     55  F   UNL A   1      47.790  28.113  24.152  1.00  0.00    -0.205 F 
ATOM     56  C   UNL A   1      50.924  26.527  25.178  1.00  0.00     0.022 A 
BRANCH  54  57
ATOM     57  S   UNL A   1      50.332  27.276  22.613  1.00  0.00     0.127 S 
ATOM     58  O   UNL A   1      50.283  28.722  22.416  1.00  0.00    -0.237 OA
ATOM     59  O   UNL A   1      51.671  26.689  22.546  1.00  0.00    -0.237 OA
ATOM     60  O   UNL A   1      49.305  26.510  21.921  1.00  0.00    -0.744 OA
ENDBRANCH  54  57
ENDBRANCH  26  50
BRANCH  38  61
ATOM     61  C   UNL A   1      45.194  32.770  29.019  1.00  0.00     0.023 A 
ATOM     62  C   UNL A   1      45.923  33.078  30.184  1.00  0.00     0.012 A 
ATOM     63  C   UNL A   1      44.965  33.775  28.059  1.00  0.00     0.148 A 
ATOM     64  C   UNL A   1      46.401  34.371  30.399  1.00  0.00     0.002 A 
ATOM     65  C   UNL A   1      45.488  35.047  28.254  1.00  0.00     0.091 A 
ATOM     66  F   UNL A   1      44.252  33.464  26.966  1.00  0.00    -0.205 F 
ATOM     67  C   UNL A   1      46.196  35.349  29.429  1.00  0.00     0.022 A 
BRANCH  65  68
ATOM     68  S   UNL A   1      45.369  36.342  27.015  1.00  0.00     0.127 S 
ATOM     69  O   UNL A   1      46.093  37.437  27.659  1.00  0.00    -0.237 OA
ATOM     70  O   UNL A   1      46.059  35.742  25.873  1.00  0.00    -0.237 OA
ATOM     71  O   UNL A   1      43.945  36.575  26.810  1.00  0.00    -0.744 OA
ENDBRANCH  65  68
ENDBRANCH  38  61
ENDBRANCH  12  13
ENDBRANCH   5   7
ENDBRANCH   2   3
ENDBRANCH   1   2
BRANCH   1  72
ATOM     72  C   UNL A   1      37.485  21.641  24.640  1.00  0.00     0.023 C 
BRANCH  72  73
ATOM     73  C   UNL A   1      37.694  22.707  25.701  1.00  0.00     0.116 C 
BRANCH  73  74
ATOM     74  N   UNL A   1      36.461  23.090  26.347  1.00  0.00    -0.356 N 
ATOM     75  C   UNL A   1      35.211  22.587  26.232  1.00  0.00     0.223 C 
ATOM     76  H   UNL A   1      36.544  23.843  26.975  1.00  0.00     0.163 HD
ATOM     77  O   UNL A   1      34.410  22.903  27.122  1.00  0.00    -0.275 OA
BRANCH  75  78
ATOM     78  C   UNL A   1      34.715  21.744  25.062  1.00  0.00     0.091 C 
ATOM     79  C   UNL A   1      34.046  20.485  25.633  1.00  0.00     0.014 C 
ATOM     80  C   UNL A   1      33.936  22.327  23.878  1.00  0.00     0.091 C 
ATOM     81  C   UNL A   1      32.703  20.811  26.246  1.00  0.00     0.001 C 
ATOM     82  C   UNL A   1      32.382  22.066  23.976  1.00  0.00     0.014 C 
ATOM     83  C   UNL A   1      31.764  21.460  25.248  1.00  0.00     0.001 C 
BRANCH  80  84
ATOM     84  C   UNL A   1      34.177  23.752  23.281  1.00  0.00     0.226 C 
ATOM     85  O   UNL A   1      35.022  23.832  22.374  1.00  0.00    -0.275 OA
ATOM     86  N   UNL A   1      33.571  24.917  23.695  1.00  0.00    -0.340 N 
ATOM     87  C   UNL A   1      33.736  26.131  22.870  1.00  0.00     0.136 C 
ATOM     88  C   UNL A   1      32.908  25.227  24.957  1.00  0.00     0.136 C 
ATOM     89  C   UNL A   1      32.399  26.845  22.604  1.00  0.00     0.124 C 
ATOM     90  C   UNL A   1      31.521  25.843  24.708  1.00  0.00     0.124 C 
ATOM     91  N   UNL A   1      31.563  27.050  23.832  1.00  0.00    -0.194 NA
BRANCH  91  92
ATOM     92  S   UNL A   1      31.688  28.575  24.566  1.00  0.00     0.243 S 
ATOM     93  O   UNL A   1      31.500  28.377  25.994  1.00  0.00    -0.207 OA
ATOM     94  O   UNL A   1      32.868  29.219  24.050  1.00  0.00    -0.207 OA
BRANCH  92  95
ATOM     95  C   UNL A   1      30.267  29.465  23.947  1.00  0.00     0.082 A 
ATOM     96  C   UNL A   1      30.109  30.821  24.271  1.00  0.00     0.025 A 
ATOM     97  C   UNL A   1      29.357  28.835  23.087  1.00  0.00     0.025 A 
ATOM     98  C   UNL A   1      28.995  31.520  23.810  1.00  0.00     0.040 A 
ATOM     99  C   UNL A   1      28.262  29.557  22.596  1.00  0.00     0.040 A 
ATOM    100  C   UNL A   1      28.084  30.884  22.975  1.00  0.00     0.123 A 
ATOM    101  F   UNL A   1      27.026  31.568  22.520  1.00  0.00    -0.207 F 
ENDBRANCH  92  95
ENDBRANCH  91  92
ENDBRANCH  80  84
ENDBRANCH  75  78
ENDBRANCH  73  74
ENDBRANCH  72  73
ENDBRANCH   1  72
TORSDOF 17
ENDMDL
MODEL 3
REMARK VINA RESULT:     -13.0      3.157      8.267
REMARK SMILES O=C(NCCCCNC(=O)[C@H]1CCCC[C@H]1C(=O)N1CCN(S(=O)(=O)c2ccc(F)cc2)CC1)c1ccc(-c2c3nc(c(-c4cccc(S(=O)(=O)[O-])c4F)c4ccc([nH]4)c(-c4cccc(S(=O)(=O)[O-])c4F)c4nc(c(-c5cccc(S(=O)(=O)[O-])c5F)c5ccc2[nH]5)C=C4)C=C3)cc1
REMARK SMILES IDX 5 1 4 2 3 3 1 4 2 5 35 7 36 8 97 9 37 10 96 11 38 12 39 13
REMARK SMILES IDX 40 14 90 15 41 16 95 17 89 18 91 19 42 20 94 21 88 22 87 23
REMARK SMILES IDX 43 25 75 26 55 27 74 28 56 29 59 30 73 31 92 32 57 33 58 34
REMARK SMILES IDX 72 36 93 37 60 38 44 39 45 40 53 41 46 42 48 43 54 44 47 45
REMARK SMILES IDX 49 46 50 47 51 48 52 49 76 50 77 51 85 52 78 53 80 54 86 55
REMARK SMILES IDX 79 56 81 57 82 58 83 59 84 60 61 61 62 62 70 63 63 64 65 65
REMARK SMILES IDX 71 66 64 67 66 68 67 69 68 70 69 71 6 72 7 73 8 74 9 75
REMARK SMILES IDX 10 77 11 78 12 79 16 80 13 81 15 82 14 83 17 84 18 85 19 86
REMARK SMILES IDX 20 87 34 88 21 89 33 90 22 91 23 92 24 93 25 94 26 95 27 96
REMARK SMILES IDX 32 97 28 98 31 99 29 100 30 101
REMARK H PARENT 3 6 91 24 59 35 8 76
REMARK Flexibility Score: inf
ROOT
ATOM      1  C   UNL A   1      33.023  28.052  25.455  1.00  0.00     0.023 C 
ENDROOT
BRANCH   1   2
ATOM      2  C   UNL A   1      34.098  28.563  26.406  1.00  0.00     0.116 C 
BRANCH   2   3
ATOM      3  N   UNL A   1      33.900  29.934  26.849  1.00  0.00    -0.352 N 
ATOM      4  O   UNL A   1      34.475  31.812  27.990  1.00  0.00    -0.269 OA
ATOM      5  C   UNL A   1      34.763  30.680  27.624  1.00  0.00     0.251 C 
ATOM      6  H   UNL A   1      33.066  30.374  26.568  1.00  0.00     0.163 HD
BRANCH   5   7
ATOM      7  C   UNL A   1      36.024  30.036  28.031  1.00  0.00     0.039 A 
ATOM      8  C   UNL A   1      36.108  29.434  29.290  1.00  0.00     0.014 A 
ATOM      9  C   UNL A   1      37.154  30.195  27.229  1.00  0.00     0.014 A 
ATOM     10  C   UNL A   1      37.357  29.112  29.805  1.00  0.00     0.010 A 
ATOM     11  C   UNL A   1      38.395  29.787  27.716  1.00  0.00     0.010 A 
ATOM     12  C   UNL A   1      38.512  29.271  29.018  1.00  0.00    -0.014 A 
BRANCH  12  13
ATOM     13  C   UNL A   1      39.823  28.800  29.529  1.00  0.00     0.031 A 
ATOM     14  C   UNL A   1      40.541  29.511  30.641  1.00  0.00     0.074 A 
ATOM     15  C   UNL A   1      40.382  27.729  28.933  1.00  0.00     0.049 A 
ATOM     16  N   UNL A   1      41.720  29.257  31.147  1.00  0.00    -0.248 NA
ATOM     17  C   UNL A   1      39.860  30.660  31.261  1.00  0.00     0.031 C 
ATOM     18  C   UNL A   1      39.787  26.984  27.820  1.00  0.00     0.029 A 
ATOM     19  N   UNL A   1      41.572  27.089  29.162  1.00  0.00    -0.354 N 
ATOM     20  C   UNL A   1      41.945  30.232  32.112  1.00  0.00     0.074 A 
ATOM     21  C   UNL A   1      40.777  31.087  32.122  1.00  0.00     0.031 C 
ATOM     22  C   UNL A   1      40.602  25.979  27.475  1.00  0.00     0.029 A 
ATOM     23  C   UNL A   1      41.808  26.052  28.291  1.00  0.00     0.049 A 
ATOM     24  H   UNL A   1      42.195  27.347  29.879  1.00  0.00     0.167 HD
ATOM     25  C   UNL A   1      43.023  30.389  32.917  1.00  0.00     0.034 A 
ATOM     26  C   UNL A   1      42.887  25.264  28.134  1.00  0.00     0.034 A 
ATOM     27  C   UNL A   1      44.165  29.510  32.915  1.00  0.00     0.049 A 
ATOM     28  C   UNL A   1      44.064  25.459  29.043  1.00  0.00     0.074 A 
ATOM     29  C   UNL A   1      45.275  29.548  33.739  1.00  0.00     0.029 A 
ATOM     30  N   UNL A   1      44.350  28.445  32.046  1.00  0.00    -0.354 N 
ATOM     31  N   UNL A   1      44.211  26.319  30.021  1.00  0.00    -0.248 NA
ATOM     32  C   UNL A   1      45.210  24.563  28.847  1.00  0.00     0.031 C 
ATOM     33  C   UNL A   1      46.148  28.528  33.346  1.00  0.00     0.029 A 
ATOM     34  C   UNL A   1      45.562  27.828  32.304  1.00  0.00     0.049 A 
ATOM     35  H   UNL A   1      43.712  28.168  31.348  1.00  0.00     0.167 HD
ATOM     36  C   UNL A   1      45.457  26.055  30.574  1.00  0.00     0.074 A 
ATOM     37  C   UNL A   1      46.012  24.938  29.835  1.00  0.00     0.031 C 
ATOM     38  C   UNL A   1      46.087  26.691  31.591  1.00  0.00     0.034 A 
BRANCH  25  39
ATOM     39  C   UNL A   1      43.024  31.528  33.906  1.00  0.00     0.023 A 
ATOM     40  C   UNL A   1      43.535  32.784  33.522  1.00  0.00     0.012 A 
ATOM     41  C   UNL A   1      42.407  31.391  35.168  1.00  0.00     0.148 A 
ATOM     42  C   UNL A   1      43.449  33.880  34.381  1.00  0.00     0.002 A 
ATOM     43  C   UNL A   1      42.284  32.498  36.000  1.00  0.00     0.091 A 
ATOM     44  F   UNL A   1      41.939  30.186  35.522  1.00  0.00    -0.205 F 
ATOM     45  C   UNL A   1      42.812  33.741  35.611  1.00  0.00     0.022 A 
BRANCH  43  46
ATOM     46  S   UNL A   1      41.406  32.448  37.566  1.00  0.00     0.127 S 
ATOM     47  O   UNL A   1      41.442  33.854  37.968  1.00  0.00    -0.237 OA
ATOM     48  O   UNL A   1      40.086  31.965  37.162  1.00  0.00    -0.237 OA
ATOM     49  O   UNL A   1      42.155  31.538  38.420  1.00  0.00    -0.744 OA
ENDBRANCH  43  46
ENDBRANCH  25  39
BRANCH  26  50
ATOM     50  C   UNL A   1      42.863  24.197  27.096  1.00  0.00     0.023 A 
ATOM     51  C   UNL A   1      43.650  24.342  25.939  1.00  0.00     0.012 A 
ATOM     52  C   UNL A   1      42.143  23.001  27.297  1.00  0.00     0.148 A 
ATOM     53  C   UNL A   1      43.710  23.320  24.991  1.00  0.00     0.002 A 
ATOM     54  C   UNL A   1      42.259  21.964  26.381  1.00  0.00     0.091 A 
ATOM     55  F   UNL A   1      41.396  22.888  28.405  1.00  0.00    -0.205 F 
ATOM     56  C   UNL A   1      43.029  22.127  25.219  1.00  0.00     0.022 A 
BRANCH  54  57
ATOM     57  S   UNL A   1      41.545  20.340  26.667  1.00  0.00     0.127 S 
ATOM     58  O   UNL A   1      41.842  19.658  25.411  1.00  0.00    -0.237 OA
ATOM     59  O   UNL A   1      42.316  19.873  27.820  1.00  0.00    -0.237 OA
ATOM     60  O   UNL A   1      40.133  20.572  26.941  1.00  0.00    -0.744 OA
ENDBRANCH  54  57
ENDBRANCH  26  50
BRANCH  38  61
ATOM     61  C   UNL A   1      47.447  26.188  31.996  1.00  0.00     0.023 A 
ATOM     62  C   UNL A   1      48.600  26.716  31.383  1.00  0.00     0.012 A 
ATOM     63  C   UNL A   1      47.584  25.272  33.058  1.00  0.00     0.148 A 
ATOM     64  C   UNL A   1      49.869  26.324  31.807  1.00  0.00     0.002 A 
ATOM     65  C   UNL A   1      48.851  24.926  33.510  1.00  0.00     0.091 A 
ATOM     66  F   UNL A   1      46.473  24.769  33.615  1.00  0.00    -0.205 F 
ATOM     67  C   UNL A   1      49.994  25.442  32.878  1.00  0.00     0.022 A 
BRANCH  65  68
ATOM     68  S   UNL A   1      49.113  23.884  34.949  1.00  0.00     0.127 S 
ATOM     69  O   UNL A   1      49.022  22.545  34.367  1.00  0.00    -0.237 OA
ATOM     70  O   UNL A   1      50.457  24.274  35.374  1.00  0.00    -0.237 OA
ATOM     71  O   UNL A   1      48.055  24.224  35.892  1.00  0.00    -0.744 OA
ENDBRANCH  65  68
ENDBRANCH  38  61
ENDBRANCH  12  13
ENDBRANCH   5   7
ENDBRANCH   2   3
ENDBRANCH   1   2
BRANCH   1  72
ATOM     72  C   UNL A   1      33.440  28.007  23.991  1.00  0.00     0.023 C 
BRANCH  72  73
ATOM     73  C   UNL A   1      33.372  29.360  23.305  1.00  0.00     0.116 C 
BRANCH  73  74
ATOM     74  N   UNL A   1      32.360  29.406  22.277  1.00  0.00    -0.356 N 
ATOM     75  C   UNL A   1      31.013  29.481  22.368  1.00  0.00     0.223 C 
ATOM     76  H   UNL A   1      32.708  29.378  21.357  1.00  0.00     0.163 HD
ATOM     77  O   UNL A   1      30.412  29.812  21.337  1.00  0.00    -0.275 OA
BRANCH  75  78
ATOM     78  C   UNL A   1      30.201  29.114  23.605  1.00  0.00     0.091 C 
ATOM     79  C   UNL A   1      29.149  30.211  23.827  1.00  0.00     0.014 C 
ATOM     80  C   UNL A   1      29.634  27.711  23.852  1.00  0.00     0.091 C 
ATOM     81  C   UNL A   1      28.037  30.116  22.806  1.00  0.00     0.001 C 
ATOM     82  C   UNL A   1      28.096  27.601  23.518  1.00  0.00     0.014 C 
ATOM     83  C   UNL A   1      27.353  28.762  22.834  1.00  0.00     0.001 C 
BRANCH  80  84
ATOM     84  C   UNL A   1      30.346  26.387  23.422  1.00  0.00     0.226 C 
ATOM     85  O   UNL A   1      30.458  26.194  22.201  1.00  0.00    -0.275 OA
ATOM     86  N   UNL A   1      30.818  25.409  24.270  1.00  0.00    -0.340 N 
ATOM     87  C   UNL A   1      31.671  24.341  23.709  1.00  0.00     0.136 C 
ATOM     88  C   UNL A   1      30.465  25.126  25.657  1.00  0.00     0.136 C 
ATOM     89  C   UNL A   1      32.944  24.110  24.543  1.00  0.00     0.124 C 
ATOM     90  C   UNL A   1      31.728  25.000  26.525  1.00  0.00     0.124 C 
ATOM     91  N   UNL A   1      32.693  23.982  26.016  1.00  0.00    -0.194 NA
BRANCH  91  92
ATOM     92  S   UNL A   1      32.586  22.399  26.614  1.00  0.00     0.243 S 
ATOM     93  O   UNL A   1      32.666  22.485  28.063  1.00  0.00    -0.207 OA
ATOM     94  O   UNL A   1      31.474  21.755  25.965  1.00  0.00    -0.207 OA
BRANCH  92  95
ATOM     95  C   UNL A   1      34.083  21.618  26.030  1.00  0.00     0.082 A 
ATOM     96  C   UNL A   1      33.995  20.454  25.252  1.00  0.00     0.025 A 
ATOM     97  C   UNL A   1      35.331  22.202  26.285  1.00  0.00     0.025 A 
ATOM     98  C   UNL A   1      35.156  19.825  24.807  1.00  0.00     0.040 A 
ATOM     99  C   UNL A   1      36.491  21.586  25.800  1.00  0.00     0.040 A 
ATOM    100  C   UNL A   1      36.394  20.397  25.081  1.00  0.00     0.123 A 
ATOM    101  F   UNL A   1      37.504  19.798  24.634  1.00  0.00    -0.207 F 
ENDBRANCH  92  95
ENDBRANCH  91  92
ENDBRANCH  80  84
ENDBRANCH  75  78
ENDBRANCH  73  74
ENDBRANCH  72  73
ENDBRANCH   1  72
TORSDOF 17
ENDMDL
