MODEL 1
REMARK VINA RESULT:     -13.0      0.000      0.000
REMARK SMILES O=C(NCCCCNC(=O)c1ccc2nc(-n3cccc3)sc2c1)c1ccc(-c2c3nc(c(-c4cccc(S(=O)(=O)[O-])c4F)c4ccc([nH]4)c(-c4cccc(S(=O)(=O)[O-])c4F)c4nc(c(-c5cccc(S(=O)(=O)[O-])c5F)c5ccc2[nH]5)C=C4)C=C3)cc1
REMARK SMILES IDX 4 1 3 2 1 3 2 4 25 6 26 7 87 8 27 9 86 10 28 11 29 12 30 13
REMARK SMILES IDX 80 14 31 15 85 16 79 17 81 18 32 19 84 20 78 21 77 22 33 24
REMARK SMILES IDX 65 25 45 26 64 27 46 28 49 29 63 30 82 31 47 32 48 33 62 35
REMARK SMILES IDX 83 36 50 37 34 38 35 39 43 40 36 41 38 42 44 43 37 44 39 45
REMARK SMILES IDX 40 46 41 47 42 48 66 49 67 50 75 51 68 52 70 53 76 54 69 55
REMARK SMILES IDX 71 56 72 57 73 58 74 59 51 60 52 61 60 62 53 63 55 64 61 65
REMARK SMILES IDX 54 66 56 67 57 68 58 69 59 70 5 71 6 72 7 73 8 74 9 75 10 77
REMARK SMILES IDX 11 78 12 79 24 80 13 81 23 82 14 83 22 84 15 85 16 86 17 87
REMARK SMILES IDX 18 88 21 89 19 90 20 91
REMARK H PARENT 3 5 81 23 49 34 8 76
REMARK Flexibility Score: inf
ROOT
ATOM      1  C   UNL A   1      34.564  29.045  26.679  1.00  0.00     0.116 C 
ENDROOT
BRANCH   1   2
ATOM      2  N   UNL A   1      34.869  30.274  27.384  1.00  0.00    -0.352 N 
ATOM      3  O   UNL A   1      36.001  31.869  28.454  1.00  0.00    -0.269 OA
ATOM      4  C   UNL A   1      36.023  30.739  27.970  1.00  0.00     0.251 C 
ATOM      5  H   UNL A   1      34.106  30.892  27.458  1.00  0.00     0.163 HD
BRANCH   4   6
ATOM      6  C   UNL A   1      37.239  29.899  28.092  1.00  0.00     0.039 A 
ATOM      7  C   UNL A   1      38.237  29.872  27.113  1.00  0.00     0.014 A 
ATOM      8  C   UNL A   1      37.394  29.133  29.257  1.00  0.00     0.014 A 
ATOM      9  C   UNL A   1      39.331  29.027  27.249  1.00  0.00     0.010 A 
ATOM     10  C   UNL A   1      38.515  28.317  29.421  1.00  0.00     0.010 A 
ATOM     11  C   UNL A   1      39.490  28.274  28.418  1.00  0.00    -0.014 A 
BRANCH  11  12
ATOM     12  C   UNL A   1      40.849  27.733  28.669  1.00  0.00     0.031 A 
ATOM     13  C   UNL A   1      40.919  26.244  28.263  1.00  0.00     0.074 A 
ATOM     14  C   UNL A   1      41.768  28.541  29.279  1.00  0.00     0.049 A 
ATOM     15  N   UNL A   1      41.534  25.244  28.830  1.00  0.00    -0.248 NA
ATOM     16  C   UNL A   1      40.046  25.768  27.154  1.00  0.00     0.031 C 
ATOM     17  C   UNL A   1      41.558  29.971  29.584  1.00  0.00     0.029 A 
ATOM     18  N   UNL A   1      43.047  28.342  29.768  1.00  0.00    -0.354 N 
ATOM     19  C   UNL A   1      41.320  24.112  28.003  1.00  0.00     0.074 A 
ATOM     20  C   UNL A   1      40.257  24.452  27.115  1.00  0.00     0.031 C 
ATOM     21  C   UNL A   1      42.616  30.480  30.254  1.00  0.00     0.029 A 
ATOM     22  C   UNL A   1      43.627  29.452  30.430  1.00  0.00     0.049 A 
ATOM     23  H   UNL A   1      43.522  27.486  29.662  1.00  0.00     0.167 HD
ATOM     24  C   UNL A   1      42.163  23.037  27.970  1.00  0.00     0.034 A 
ATOM     25  C   UNL A   1      44.820  29.540  31.102  1.00  0.00     0.034 A 
ATOM     26  C   UNL A   1      43.236  23.256  28.880  1.00  0.00     0.049 A 
ATOM     27  C   UNL A   1      45.514  28.265  30.876  1.00  0.00     0.074 A 
ATOM     28  C   UNL A   1      43.371  23.195  30.240  1.00  0.00     0.029 A 
ATOM     29  N   UNL A   1      44.328  23.883  28.335  1.00  0.00    -0.354 N 
ATOM     30  N   UNL A   1      46.100  27.929  29.765  1.00  0.00    -0.248 NA
ATOM     31  C   UNL A   1      45.498  27.250  31.938  1.00  0.00     0.031 C 
ATOM     32  C   UNL A   1      44.395  24.124  30.520  1.00  0.00     0.029 A 
ATOM     33  C   UNL A   1      44.915  24.627  29.321  1.00  0.00     0.049 A 
ATOM     34  H   UNL A   1      44.634  23.812  27.401  1.00  0.00     0.167 HD
ATOM     35  C   UNL A   1      46.182  26.565  29.892  1.00  0.00     0.074 A 
ATOM     36  C   UNL A   1      46.158  26.283  31.308  1.00  0.00     0.031 C 
ATOM     37  C   UNL A   1      45.687  25.774  28.907  1.00  0.00     0.034 A 
BRANCH  24  38
ATOM     38  C   UNL A   1      42.358  21.886  26.996  1.00  0.00     0.023 A 
ATOM     39  C   UNL A   1      41.565  20.729  27.264  1.00  0.00     0.012 A 
ATOM     40  C   UNL A   1      43.418  21.730  26.088  1.00  0.00     0.148 A 
ATOM     41  C   UNL A   1      41.898  19.462  26.793  1.00  0.00     0.002 A 
ATOM     42  C   UNL A   1      43.710  20.464  25.565  1.00  0.00     0.091 A 
ATOM     43  F   UNL A   1      44.199  22.770  25.788  1.00  0.00    -0.205 F 
ATOM     44  C   UNL A   1      42.986  19.326  25.955  1.00  0.00     0.022 A 
BRANCH  42  45
ATOM     45  S   UNL A   1      45.021  20.189  24.366  1.00  0.00     0.127 S 
ATOM     46  O   UNL A   1      44.839  18.781  24.031  1.00  0.00    -0.237 OA
ATOM     47  O   UNL A   1      44.652  21.119  23.295  1.00  0.00    -0.237 OA
ATOM     48  O   UNL A   1      46.256  20.545  25.053  1.00  0.00    -0.744 OA
ENDBRANCH  42  45
ENDBRANCH  24  38
BRANCH  25  49
ATOM     49  C   UNL A   1      45.505  30.530  32.023  1.00  0.00     0.023 A 
ATOM     50  C   UNL A   1      46.756  31.107  31.770  1.00  0.00     0.012 A 
ATOM     51  C   UNL A   1      44.855  30.976  33.218  1.00  0.00     0.148 A 
ATOM     52  C   UNL A   1      47.274  32.132  32.591  1.00  0.00     0.002 A 
ATOM     53  C   UNL A   1      45.303  32.065  33.956  1.00  0.00     0.091 A 
ATOM     54  F   UNL A   1      43.801  30.309  33.695  1.00  0.00    -0.205 F 
ATOM     55  C   UNL A   1      46.529  32.645  33.654  1.00  0.00     0.022 A 
BRANCH  53  56
ATOM     56  S   UNL A   1      44.271  32.848  35.215  1.00  0.00     0.127 S 
ATOM     57  O   UNL A   1      43.013  33.060  34.501  1.00  0.00    -0.237 OA
ATOM     58  O   UNL A   1      44.228  31.809  36.242  1.00  0.00    -0.237 OA
ATOM     59  O   UNL A   1      44.964  34.065  35.620  1.00  0.00    -0.744 OA
ENDBRANCH  53  56
ENDBRANCH  25  49
BRANCH  37  60
ATOM     60  C   UNL A   1      45.700  26.414  27.522  1.00  0.00     0.023 A 
ATOM     61  C   UNL A   1      44.478  26.914  27.032  1.00  0.00     0.012 A 
ATOM     62  C   UNL A   1      46.810  26.434  26.646  1.00  0.00     0.148 A 
ATOM     63  C   UNL A   1      44.360  27.404  25.729  1.00  0.00     0.002 A 
ATOM     64  C   UNL A   1      46.691  26.908  25.336  1.00  0.00     0.091 A 
ATOM     65  F   UNL A   1      47.978  25.982  27.094  1.00  0.00    -0.205 F 
ATOM     66  C   UNL A   1      45.462  27.400  24.880  1.00  0.00     0.022 A 
BRANCH  64  67
ATOM     67  S   UNL A   1      48.031  26.872  24.126  1.00  0.00     0.127 S 
ATOM     68  O   UNL A   1      47.540  27.779  23.086  1.00  0.00    -0.237 OA
ATOM     69  O   UNL A   1      49.155  27.399  24.894  1.00  0.00    -0.237 OA
ATOM     70  O   UNL A   1      48.165  25.486  23.694  1.00  0.00    -0.744 OA
ENDBRANCH  64  67
ENDBRANCH  37  60
ENDBRANCH  11  12
ENDBRANCH   4   6
ENDBRANCH   1   2
BRANCH   1  71
ATOM     71  C   UNL A   1      33.350  28.272  27.196  1.00  0.00     0.023 C 
BRANCH  71  72
ATOM     72  C   UNL A   1      32.719  27.312  26.189  1.00  0.00     0.023 C 
BRANCH  72  73
ATOM     73  C   UNL A   1      33.699  26.371  25.497  1.00  0.00     0.116 C 
BRANCH  73  74
ATOM     74  N   UNL A   1      33.625  26.466  24.047  1.00  0.00    -0.352 N 
ATOM     75  C   UNL A   1      33.896  25.506  23.105  1.00  0.00     0.251 C 
ATOM     76  H   UNL A   1      33.342  27.340  23.693  1.00  0.00     0.163 HD
ATOM     77  O   UNL A   1      33.891  25.759  21.916  1.00  0.00    -0.269 OA
BRANCH  75  78
ATOM     78  C   UNL A   1      34.205  24.139  23.559  1.00  0.00     0.041 A 
ATOM     79  C   UNL A   1      35.498  23.817  23.974  1.00  0.00     0.016 A 
ATOM     80  C   UNL A   1      33.169  23.200  23.566  1.00  0.00     0.035 A 
ATOM     81  C   UNL A   1      35.784  22.521  24.412  1.00  0.00     0.031 A 
ATOM     82  C   UNL A   1      33.487  21.896  23.971  1.00  0.00     0.057 A 
ATOM     83  C   UNL A   1      34.765  21.547  24.421  1.00  0.00     0.084 A 
ATOM     84  S   UNL A   1      32.485  20.493  23.990  1.00  0.00    -0.096 S 
ATOM     85  N   UNL A   1      34.905  20.239  24.848  1.00  0.00    -0.219 NA
ATOM     86  C   UNL A   1      33.782  19.596  24.622  1.00  0.00     0.194 A 
BRANCH  86  87
ATOM     87  N   UNL A   1      33.622  18.233  24.904  1.00  0.00    -0.300 N 
ATOM     88  C   UNL A   1      32.661  17.615  25.690  1.00  0.00     0.093 A 
ATOM     89  C   UNL A   1      34.430  17.224  24.399  1.00  0.00     0.093 A 
ATOM     90  C   UNL A   1      32.861  16.252  25.670  1.00  0.00     0.020 A 
ATOM     91  C   UNL A   1      33.998  16.007  24.873  1.00  0.00     0.020 A 
ENDBRANCH  86  87
ENDBRANCH  75  78
ENDBRANCH  73  74
ENDBRANCH  72  73
ENDBRANCH  71  72
ENDBRANCH   1  71
TORSDOF 15
ENDMDL
MODEL 2
REMARK VINA RESULT:     -12.8      4.563     10.095
REMARK SMILES O=C(NCCCCNC(=O)c1ccc2nc(-n3cccc3)sc2c1)c1ccc(-c2c3nc(c(-c4cccc(S(=O)(=O)[O-])c4F)c4ccc([nH]4)c(-c4cccc(S(=O)(=O)[O-])c4F)c4nc(c(-c5cccc(S(=O)(=O)[O-])c5F)c5ccc2[nH]5)C=C4)C=C3)cc1
REMARK SMILES IDX 4 1 3 2 1 3 2 4 25 6 26 7 87 8 27 9 86 10 28 11 29 12 30 13
REMARK SMILES IDX 80 14 31 15 85 16 79 17 81 18 32 19 84 20 78 21 77 22 33 24
REMARK SMILES IDX 65 25 45 26 64 27 46 28 49 29 63 30 82 31 47 32 48 33 62 35
REMARK SMILES IDX 83 36 50 37 34 38 35 39 43 40 36 41 38 42 44 43 37 44 39 45
REMARK SMILES IDX 40 46 41 47 42 48 66 49 67 50 75 51 68 52 70 53 76 54 69 55
REMARK SMILES IDX 71 56 72 57 73 58 74 59 51 60 52 61 60 62 53 63 55 64 61 65
REMARK SMILES IDX 54 66 56 67 57 68 58 69 59 70 5 71 6 72 7 73 8 74 9 75 10 77
REMARK SMILES IDX 11 78 12 79 24 80 13 81 23 82 14 83 22 84 15 85 16 86 17 87
REMARK SMILES IDX 18 88 21 89 19 90 20 91
REMARK H PARENT 3 5 81 23 49 34 8 76
REMARK Flexibility Score: inf
ROOT
ATOM      1  C   UNL A   1      37.550  23.790  25.985  1.00  0.00     0.116 C 
ENDROOT
BRANCH   1   2
ATOM      2  N   UNL A   1      38.939  23.393  26.103  1.00  0.00    -0.352 N 
ATOM      3  O   UNL A   1      41.081  23.362  26.720  1.00  0.00    -0.269 OA
ATOM      4  C   UNL A   1      40.012  23.970  26.740  1.00  0.00     0.251 C 
ATOM      5  H   UNL A   1      39.154  22.551  25.639  1.00  0.00     0.163 HD
BRANCH   4   6
ATOM      6  C   UNL A   1      39.928  25.309  27.373  1.00  0.00     0.039 A 
ATOM      7  C   UNL A   1      39.430  25.501  28.665  1.00  0.00     0.014 A 
ATOM      8  C   UNL A   1      40.402  26.409  26.644  1.00  0.00     0.014 A 
ATOM      9  C   UNL A   1      39.321  26.782  29.191  1.00  0.00     0.010 A 
ATOM     10  C   UNL A   1      40.339  27.694  27.186  1.00  0.00     0.010 A 
ATOM     11  C   UNL A   1      39.807  27.877  28.467  1.00  0.00    -0.014 A 
BRANCH  11  12
ATOM     12  C   UNL A   1      40.036  29.124  29.240  1.00  0.00     0.031 A 
ATOM     13  C   UNL A   1      38.854  30.101  29.048  1.00  0.00     0.074 A 
ATOM     14  C   UNL A   1      41.227  29.273  29.894  1.00  0.00     0.049 A 
ATOM     15  N   UNL A   1      38.846  31.398  28.923  1.00  0.00    -0.248 NA
ATOM     16  C   UNL A   1      37.499  29.537  28.797  1.00  0.00     0.031 C 
ATOM     17  C   UNL A   1      42.259  28.223  30.011  1.00  0.00     0.029 A 
ATOM     18  N   UNL A   1      41.818  30.317  30.584  1.00  0.00    -0.354 N 
ATOM     19  C   UNL A   1      37.486  31.791  28.840  1.00  0.00     0.074 A 
ATOM     20  C   UNL A   1      36.736  30.607  28.576  1.00  0.00     0.031 C 
ATOM     21  C   UNL A   1      43.353  28.693  30.650  1.00  0.00     0.029 A 
ATOM     22  C   UNL A   1      43.140  30.078  31.037  1.00  0.00     0.049 A 
ATOM     23  H   UNL A   1      41.353  31.168  30.750  1.00  0.00     0.167 HD
ATOM     24  C   UNL A   1      37.041  33.035  29.190  1.00  0.00     0.034 A 
ATOM     25  C   UNL A   1      44.019  30.933  31.651  1.00  0.00     0.034 A 
ATOM     26  C   UNL A   1      38.147  33.822  29.624  1.00  0.00     0.049 A 
ATOM     27  C   UNL A   1      43.270  32.167  31.923  1.00  0.00     0.074 A 
ATOM     28  C   UNL A   1      39.171  34.472  28.993  1.00  0.00     0.029 A 
ATOM     29  N   UNL A   1      38.406  33.748  30.970  1.00  0.00    -0.354 N 
ATOM     30  N   UNL A   1      42.387  32.303  32.869  1.00  0.00    -0.248 NA
ATOM     31  C   UNL A   1      43.455  33.322  31.034  1.00  0.00     0.031 C 
ATOM     32  C   UNL A   1      40.214  34.462  29.942  1.00  0.00     0.029 A 
ATOM     33  C   UNL A   1      39.752  33.910  31.143  1.00  0.00     0.049 A 
ATOM     34  H   UNL A   1      37.742  33.604  31.683  1.00  0.00     0.167 HD
ATOM     35  C   UNL A   1      41.686  33.403  32.443  1.00  0.00     0.074 A 
ATOM     36  C   UNL A   1      42.577  34.151  31.588  1.00  0.00     0.031 C 
ATOM     37  C   UNL A   1      40.336  33.328  32.328  1.00  0.00     0.034 A 
BRANCH  24  38
ATOM     38  C   UNL A   1      35.670  33.610  29.501  1.00  0.00     0.023 A 
ATOM     39  C   UNL A   1      35.061  34.333  28.430  1.00  0.00     0.012 A 
ATOM     40  C   UNL A   1      35.098  33.768  30.775  1.00  0.00     0.148 A 
ATOM     41  C   UNL A   1      34.059  35.278  28.632  1.00  0.00     0.002 A 
ATOM     42  C   UNL A   1      34.045  34.672  30.962  1.00  0.00     0.091 A 
ATOM     43  F   UNL A   1      35.613  33.120  31.822  1.00  0.00    -0.205 F 
ATOM     44  C   UNL A   1      33.562  35.461  29.907  1.00  0.00     0.022 A 
BRANCH  42  45
ATOM     45  S   UNL A   1      33.234  34.899  32.550  1.00  0.00     0.127 S 
ATOM     46  O   UNL A   1      34.132  35.832  33.222  1.00  0.00    -0.237 OA
ATOM     47  O   UNL A   1      31.947  35.478  32.152  1.00  0.00    -0.237 OA
ATOM     48  O   UNL A   1      33.125  33.565  33.125  1.00  0.00    -0.744 OA
ENDBRANCH  42  45
ENDBRANCH  24  38
BRANCH  25  49
ATOM     49  C   UNL A   1      45.491  30.942  32.012  1.00  0.00     0.023 A 
ATOM     50  C   UNL A   1      46.532  31.015  31.077  1.00  0.00     0.012 A 
ATOM     51  C   UNL A   1      45.900  30.926  33.383  1.00  0.00     0.148 A 
ATOM     52  C   UNL A   1      47.876  31.169  31.481  1.00  0.00     0.002 A 
ATOM     53  C   UNL A   1      47.203  31.199  33.783  1.00  0.00     0.091 A 
ATOM     54  F   UNL A   1      45.028  30.592  34.338  1.00  0.00    -0.205 F 
ATOM     55  C   UNL A   1      48.207  31.309  32.829  1.00  0.00     0.022 A 
BRANCH  53  56
ATOM     56  S   UNL A   1      47.613  31.558  35.505  1.00  0.00     0.127 S 
ATOM     57  O   UNL A   1      49.001  32.007  35.410  1.00  0.00    -0.237 OA
ATOM     58  O   UNL A   1      46.647  32.609  35.820  1.00  0.00    -0.237 OA
ATOM     59  O   UNL A   1      47.414  30.318  36.245  1.00  0.00    -0.744 OA
ENDBRANCH  53  56
ENDBRANCH  25  49
BRANCH  37  60
ATOM     60  C   UNL A   1      39.681  32.322  33.269  1.00  0.00     0.023 A 
ATOM     61  C   UNL A   1      39.260  31.099  32.713  1.00  0.00     0.012 A 
ATOM     62  C   UNL A   1      39.353  32.569  34.623  1.00  0.00     0.148 A 
ATOM     63  C   UNL A   1      38.540  30.165  33.463  1.00  0.00     0.002 A 
ATOM     64  C   UNL A   1      38.618  31.645  35.370  1.00  0.00     0.091 A 
ATOM     65  F   UNL A   1      39.754  33.712  35.172  1.00  0.00    -0.205 F 
ATOM     66  C   UNL A   1      38.216  30.436  34.787  1.00  0.00     0.022 A 
BRANCH  64  67
ATOM     67  S   UNL A   1      38.070  31.929  37.067  1.00  0.00     0.127 S 
ATOM     68  O   UNL A   1      37.079  32.995  36.904  1.00  0.00    -0.237 OA
ATOM     69  O   UNL A   1      37.500  30.635  37.428  1.00  0.00    -0.237 OA
ATOM     70  O   UNL A   1      39.251  32.325  37.825  1.00  0.00    -0.744 OA
ENDBRANCH  64  67
ENDBRANCH  37  60
ENDBRANCH  11  12
ENDBRANCH   4   6
ENDBRANCH   1   2
BRANCH   1  71
ATOM     71  C   UNL A   1      36.733  23.029  24.940  1.00  0.00     0.023 C 
BRANCH  71  72
ATOM     72  C   UNL A   1      36.241  21.652  25.385  1.00  0.00     0.023 C 
BRANCH  72  73
ATOM     73  C   UNL A   1      35.038  21.671  26.322  1.00  0.00     0.116 C 
BRANCH  73  74
ATOM     74  N   UNL A   1      34.114  20.579  26.056  1.00  0.00    -0.352 N 
ATOM     75  C   UNL A   1      32.966  20.584  25.305  1.00  0.00     0.251 C 
ATOM     76  H   UNL A   1      34.344  19.718  26.474  1.00  0.00     0.163 HD
ATOM     77  O   UNL A   1      32.232  19.617  25.254  1.00  0.00    -0.269 OA
BRANCH  75  78
ATOM     78  C   UNL A   1      32.624  21.802  24.548  1.00  0.00     0.041 A 
ATOM     79  C   UNL A   1      33.177  22.017  23.286  1.00  0.00     0.016 A 
ATOM     80  C   UNL A   1      31.733  22.708  25.131  1.00  0.00     0.035 A 
ATOM     81  C   UNL A   1      32.843  23.169  22.569  1.00  0.00     0.031 A 
ATOM     82  C   UNL A   1      31.443  23.876  24.413  1.00  0.00     0.057 A 
ATOM     83  C   UNL A   1      31.957  24.109  23.132  1.00  0.00     0.084 A 
ATOM     84  S   UNL A   1      30.486  25.230  24.885  1.00  0.00    -0.096 S 
ATOM     85  N   UNL A   1      31.527  25.275  22.525  1.00  0.00    -0.219 NA
ATOM     86  C   UNL A   1      30.791  25.951  23.377  1.00  0.00     0.194 A 
BRANCH  86  87
ATOM     87  N   UNL A   1      30.243  27.204  23.075  1.00  0.00    -0.300 N 
ATOM     88  C   UNL A   1      30.840  28.284  22.440  1.00  0.00     0.093 A 
ATOM     89  C   UNL A   1      28.939  27.583  23.360  1.00  0.00     0.093 A 
ATOM     90  C   UNL A   1      29.925  29.309  22.325  1.00  0.00     0.020 A 
ATOM     91  C   UNL A   1      28.729  28.873  22.931  1.00  0.00     0.020 A 
ENDBRANCH  86  87
ENDBRANCH  75  78
ENDBRANCH  73  74
ENDBRANCH  72  73
ENDBRANCH  71  72
ENDBRANCH   1  71
TORSDOF 15
ENDMDL
MODEL 3
REMARK VINA RESULT:     -12.8      1.348      2.043
REMARK SMILES O=C(NCCCCNC(=O)c1ccc2nc(-n3cccc3)sc2c1)c1ccc(-c2c3nc(c(-c4cccc(S(=O)(=O)[O-])c4F)c4ccc([nH]4)c(-c4cccc(S(=O)(=O)[O-])c4F)c4nc(c(-c5cccc(S(=O)(=O)[O-])c5F)c5ccc2[nH]5)C=C4)C=C3)cc1
REMARK SMILES IDX 4 1 3 2 1 3 2 4 25 6 26 7 87 8 27 9 86 10 28 11 29 12 30 13
REMARK SMILES IDX 80 14 31 15 85 16 79 17 81 18 32 19 84 20 78 21 77 22 33 24
REMARK SMILES IDX 65 25 45 26 64 27 46 28 49 29 63 30 82 31 47 32 48 33 62 35
REMARK SMILES IDX 83 36 50 37 34 38 35 39 43 40 36 41 38 42 44 43 37 44 39 45
REMARK SMILES IDX 40 46 41 47 42 48 66 49 67 50 75 51 68 52 70 53 76 54 69 55
REMARK SMILES IDX 71 56 72 57 73 58 74 59 51 60 52 61 60 62 53 63 55 64 61 65
REMARK SMILES IDX 54 66 56 67 57 68 58 69 59 70 5 71 6 72 7 73 8 74 9 75 10 77
REMARK SMILES IDX 11 78 12 79 24 80 13 81 23 82 14 83 22 84 15 85 16 86 17 87
REMARK SMILES IDX 18 88 21 89 19 90 20 91
REMARK H PARENT 3 5 81 23 49 34 8 76
REMARK Flexibility Score: inf
ROOT
ATOM      1  C   UNL A   1      34.495  28.957  27.173  1.00  0.00     0.116 C 
ENDROOT
BRANCH   1   2
ATOM      2  N   UNL A   1      34.761  30.108  28.014  1.00  0.00    -0.352 N 
ATOM      3  O   UNL A   1      35.843  31.612  29.253  1.00  0.00    -0.269 OA
ATOM      4  C   UNL A   1      35.902  30.546  28.642  1.00  0.00     0.251 C 
ATOM      5  H   UNL A   1      33.976  30.683  28.163  1.00  0.00     0.163 HD
BRANCH   4   6
ATOM      6  C   UNL A   1      37.151  29.746  28.657  1.00  0.00     0.039 A 
ATOM      7  C   UNL A   1      38.103  29.815  27.636  1.00  0.00     0.014 A 
ATOM      8  C   UNL A   1      37.386  28.919  29.766  1.00  0.00     0.014 A 
ATOM      9  C   UNL A   1      39.230  29.004  27.671  1.00  0.00     0.010 A 
ATOM     10  C   UNL A   1      38.540  28.136  29.830  1.00  0.00     0.010 A 
ATOM     11  C   UNL A   1      39.468  28.189  28.784  1.00  0.00    -0.014 A 
BRANCH  11  12
ATOM     12  C   UNL A   1      40.855  27.684  28.941  1.00  0.00     0.031 A 
ATOM     13  C   UNL A   1      40.943  26.204  28.505  1.00  0.00     0.074 A 
ATOM     14  C   UNL A   1      41.787  28.509  29.508  1.00  0.00     0.049 A 
ATOM     15  N   UNL A   1      41.620  25.214  29.015  1.00  0.00    -0.248 NA
ATOM     16  C   UNL A   1      40.017  25.721  27.443  1.00  0.00     0.031 C 
ATOM     17  C   UNL A   1      41.556  29.927  29.851  1.00  0.00     0.029 A 
ATOM     18  N   UNL A   1      43.099  28.340  29.913  1.00  0.00    -0.354 N 
ATOM     19  C   UNL A   1      41.387  24.090  28.182  1.00  0.00     0.074 A 
ATOM     20  C   UNL A   1      40.262  24.412  27.367  1.00  0.00     0.031 C 
ATOM     21  C   UNL A   1      42.638  30.456  30.463  1.00  0.00     0.029 A 
ATOM     22  C   UNL A   1      43.688  29.455  30.558  1.00  0.00     0.049 A 
ATOM     23  H   UNL A   1      43.591  27.501  29.763  1.00  0.00     0.167 HD
ATOM     24  C   UNL A   1      42.257  23.041  28.078  1.00  0.00     0.034 A 
ATOM     25  C   UNL A   1      44.917  29.568  31.157  1.00  0.00     0.034 A 
ATOM     26  C   UNL A   1      43.378  23.277  28.924  1.00  0.00     0.049 A 
ATOM     27  C   UNL A   1      45.632  28.319  30.866  1.00  0.00     0.074 A 
ATOM     28  C   UNL A   1      43.599  23.198  30.272  1.00  0.00     0.029 A 
ATOM     29  N   UNL A   1      44.416  23.945  28.324  1.00  0.00    -0.354 N 
ATOM     30  N   UNL A   1      46.157  28.017  29.715  1.00  0.00    -0.248 NA
ATOM     31  C   UNL A   1      45.711  27.286  31.908  1.00  0.00     0.031 C 
ATOM     32  C   UNL A   1      44.611  24.152  30.505  1.00  0.00     0.029 A 
ATOM     33  C   UNL A   1      45.041  24.689  29.285  1.00  0.00     0.049 A 
ATOM     34  H   UNL A   1      44.665  23.898  27.372  1.00  0.00     0.167 HD
ATOM     35  C   UNL A   1      46.285  26.655  29.812  1.00  0.00     0.074 A 
ATOM     36  C   UNL A   1      46.357  26.350  31.222  1.00  0.00     0.031 C 
ATOM     37  C   UNL A   1      45.753  25.866  28.845  1.00  0.00     0.034 A 
BRANCH  24  38
ATOM     38  C   UNL A   1      42.424  21.912  27.074  1.00  0.00     0.023 A 
ATOM     39  C   UNL A   1      41.647  20.745  27.344  1.00  0.00     0.012 A 
ATOM     40  C   UNL A   1      43.453  21.782  26.126  1.00  0.00     0.148 A 
ATOM     41  C   UNL A   1      41.970  19.490  26.835  1.00  0.00     0.002 A 
ATOM     42  C   UNL A   1      43.732  20.529  25.566  1.00  0.00     0.091 A 
ATOM     43  F   UNL A   1      44.217  22.833  25.821  1.00  0.00    -0.205 F 
ATOM     44  C   UNL A   1      43.029  19.379  25.956  1.00  0.00     0.022 A 
BRANCH  42  45
ATOM     45  S   UNL A   1      45.002  20.288  24.316  1.00  0.00     0.127 S 
ATOM     46  O   UNL A   1      46.225  20.552  25.067  1.00  0.00    -0.237 OA
ATOM     47  O   UNL A   1      44.807  18.881  23.953  1.00  0.00    -0.237 OA
ATOM     48  O   UNL A   1      44.676  21.221  23.246  1.00  0.00    -0.744 OA
ENDBRANCH  42  45
ENDBRANCH  24  38
BRANCH  25  49
ATOM     49  C   UNL A   1      45.629  30.563  32.052  1.00  0.00     0.023 A 
ATOM     50  C   UNL A   1      46.610  31.459  31.610  1.00  0.00     0.012 A 
ATOM     51  C   UNL A   1      45.282  30.669  33.437  1.00  0.00     0.148 A 
ATOM     52  C   UNL A   1      47.130  32.460  32.460  1.00  0.00     0.002 A 
ATOM     53  C   UNL A   1      45.699  31.726  34.238  1.00  0.00     0.091 A 
ATOM     54  F   UNL A   1      44.568  29.705  34.023  1.00  0.00    -0.205 F 
ATOM     55  C   UNL A   1      46.641  32.625  33.756  1.00  0.00     0.022 A 
BRANCH  53  56
ATOM     56  S   UNL A   1      44.945  32.052  35.847  1.00  0.00     0.127 S 
ATOM     57  O   UNL A   1      45.572  33.314  36.236  1.00  0.00    -0.237 OA
ATOM     58  O   UNL A   1      43.530  32.153  35.489  1.00  0.00    -0.237 OA
ATOM     59  O   UNL A   1      45.270  30.913  36.695  1.00  0.00    -0.744 OA
ENDBRANCH  53  56
ENDBRANCH  25  49
BRANCH  37  60
ATOM     60  C   UNL A   1      45.662  26.527  27.474  1.00  0.00     0.023 A 
ATOM     61  C   UNL A   1      44.385  26.927  27.035  1.00  0.00     0.012 A 
ATOM     62  C   UNL A   1      46.735  26.660  26.562  1.00  0.00     0.148 A 
ATOM     63  C   UNL A   1      44.179  27.428  25.747  1.00  0.00     0.002 A 
ATOM     64  C   UNL A   1      46.529  27.145  25.267  1.00  0.00     0.091 A 
ATOM     65  F   UNL A   1      47.952  26.304  26.962  1.00  0.00    -0.205 F 
ATOM     66  C   UNL A   1      45.246  27.535  24.862  1.00  0.00     0.022 A 
BRANCH  64  67
ATOM     67  S   UNL A   1      47.823  27.246  24.012  1.00  0.00     0.127 S 
ATOM     68  O   UNL A   1      48.898  27.941  24.724  1.00  0.00    -0.237 OA
ATOM     69  O   UNL A   1      48.101  25.839  23.740  1.00  0.00    -0.237 OA
ATOM     70  O   UNL A   1      47.264  27.999  22.896  1.00  0.00    -0.744 OA
ENDBRANCH  64  67
ENDBRANCH  37  60
ENDBRANCH  11  12
ENDBRANCH   4   6
ENDBRANCH   1   2
BRANCH   1  71
ATOM     71  C   UNL A   1      33.024  28.720  26.826  1.00  0.00     0.023 C 
BRANCH  71  72
ATOM     72  C   UNL A   1      32.473  29.608  25.711  1.00  0.00     0.023 C 
BRANCH  72  73
ATOM     73  C   UNL A   1      32.893  29.204  24.302  1.00  0.00     0.116 C 
BRANCH  73  74
ATOM     74  N   UNL A   1      31.806  29.332  23.344  1.00  0.00    -0.352 N 
ATOM     75  C   UNL A   1      30.992  28.356  22.826  1.00  0.00     0.251 C 
ATOM     76  H   UNL A   1      31.630  30.246  23.022  1.00  0.00     0.163 HD
ATOM     77  O   UNL A   1      30.186  28.596  21.949  1.00  0.00    -0.269 OA
BRANCH  75  78
ATOM     78  C   UNL A   1      31.113  26.985  23.353  1.00  0.00     0.041 A 
ATOM     79  C   UNL A   1      30.347  26.590  24.451  1.00  0.00     0.016 A 
ATOM     80  C   UNL A   1      31.999  26.112  22.715  1.00  0.00     0.035 A 
ATOM     81  C   UNL A   1      30.459  25.287  24.942  1.00  0.00     0.031 A 
ATOM     82  C   UNL A   1      32.125  24.822  23.248  1.00  0.00     0.057 A 
ATOM     83  C   UNL A   1      31.352  24.384  24.329  1.00  0.00     0.084 A 
ATOM     84  S   UNL A   1      33.194  23.554  22.776  1.00  0.00    -0.096 S 
ATOM     85  N   UNL A   1      31.544  23.065  24.698  1.00  0.00    -0.219 NA
ATOM     86  C   UNL A   1      32.518  22.559  23.976  1.00  0.00     0.194 A 
BRANCH  86  87
ATOM     87  N   UNL A   1      32.982  21.249  24.146  1.00  0.00    -0.300 N 
ATOM     88  C   UNL A   1      34.137  20.811  24.778  1.00  0.00     0.093 A 
ATOM     89  C   UNL A   1      32.318  20.115  23.702  1.00  0.00     0.093 A 
ATOM     90  C   UNL A   1      34.186  19.434  24.736  1.00  0.00     0.020 A 
ATOM     91  C   UNL A   1      33.047  18.995  24.032  1.00  0.00     0.020 A 
ENDBRANCH  86  87
ENDBRANCH  75  78
ENDBRANCH  73  74
ENDBRANCH  72  73
ENDBRANCH  71  72
ENDBRANCH   1  71
TORSDOF 15
ENDMDL
