MODEL 1
REMARK VINA RESULT:     -11.9      0.000      0.000
REMARK SMILES C[N@H+]1[C@H]2CC[C@@H]1c1sc(=O)n(CCCC(=O)NCCCCNC(=O)c3ccc(-c4c5nc(c(-c6cccc(S(=O)(=O)[O-])c6F)c6ccc([nH]6)c(-c6cccc(S(=O)(=O)[O-])c6F)c6nc(c(-c7cccc(S(=O)(=O)[O-])c7F)c7ccc4[nH]7)C=C6)C=C5)cc3)c1C2
REMARK SMILES IDX 19 1 18 2 17 3 15 4 16 5 14 7 13 8 12 9 11 10 1 11 2 12 3 13
REMARK SMILES IDX 6 14 4 16 89 17 5 18 7 19 88 20 8 21 9 22 10 23 20 24 21 25
REMARK SMILES IDX 22 26 23 27 24 29 25 30 26 31 87 32 27 33 86 34 28 35 29 36
REMARK SMILES IDX 30 37 80 38 31 39 85 40 79 41 81 42 32 43 84 44 78 45 77 46
REMARK SMILES IDX 33 48 65 49 45 50 64 51 46 52 49 53 63 54 82 55 47 56 48 57
REMARK SMILES IDX 62 59 83 60 50 61 34 62 35 63 43 64 36 65 38 66 44 67 37 68
REMARK SMILES IDX 39 69 40 70 41 71 42 72 66 73 67 74 75 75 68 76 70 77 76 78
REMARK SMILES IDX 69 79 71 80 72 81 73 82 74 83 51 84 52 85 60 86 53 87 55 88
REMARK SMILES IDX 61 89 54 90 56 91 57 92 58 93 59 94
REMARK H PARENT 17 6 2 15 22 28 81 47 49 58
REMARK Flexibility Score: inf
ROOT
ATOM      1  C   UNL A   1      36.875  21.327  24.775  1.00  0.00     0.023 C 
ENDROOT
BRANCH   1   2
ATOM      2  C   UNL A   1      35.628  21.381  25.672  1.00  0.00     0.116 C 
BRANCH   2   3
ATOM      3  N   UNL A   1      34.783  20.229  25.420  1.00  0.00    -0.356 N 
ATOM      4  C   UNL A   1      33.622  20.130  24.716  1.00  0.00     0.220 C 
ATOM      5  O   UNL A   1      32.953  19.101  24.835  1.00  0.00    -0.275 OA
ATOM      6  H   UNL A   1      35.100  19.387  25.821  1.00  0.00     0.163 HD
BRANCH   4   7
ATOM      7  C   UNL A   1      33.186  21.238  23.778  1.00  0.00     0.102 C 
BRANCH   7   8
ATOM      8  C   UNL A   1      32.389  22.404  24.370  1.00  0.00     0.032 C 
BRANCH   8   9
ATOM      9  C   UNL A   1      33.050  23.766  24.601  1.00  0.00     0.127 C 
BRANCH   9  10
ATOM     10  N   UNL A   1      32.317  24.900  25.168  1.00  0.00    -0.302 N 
ATOM     11  C   UNL A   1      30.727  29.284  22.146  1.00  0.00     0.333 C 
ATOM     12  N   UNL A   1      31.238  28.149  22.904  1.00  0.00    -0.328 N 
ATOM     13  C   UNL A   1      32.686  27.912  22.735  1.00  0.00     0.190 C 
ATOM     14  C   UNL A   1      31.113  28.325  24.378  1.00  0.00     0.227 C 
ATOM     15  H   UNL A   1      30.672  27.384  22.536  1.00  0.00     0.348 HD
ATOM     16  C   UNL A   1      33.326  28.980  23.637  1.00  0.00     0.072 C 
ATOM     17  C   UNL A   1      32.981  26.451  23.221  1.00  0.00     0.120 C 
ATOM     18  C   UNL A   1      32.299  29.228  24.748  1.00  0.00     0.077 C 
ATOM     19  C   UNL A   1      31.352  26.979  25.005  1.00  0.00     0.087 A 
ATOM     20  C   UNL A   1      32.202  26.093  24.463  1.00  0.00     0.047 A 
ATOM     21  S   UNL A   1      30.661  26.407  26.471  1.00  0.00    -0.073 S 
ATOM     22  C   UNL A   1      31.626  24.910  26.381  1.00  0.00     0.307 A 
ATOM     23  O   UNL A   1      31.646  24.103  27.285  1.00  0.00    -0.257 OA
ENDBRANCH   9  10
ENDBRANCH   8   9
ENDBRANCH   7   8
ENDBRANCH   4   7
ENDBRANCH   2   3
ENDBRANCH   1   2
BRANCH   1  24
ATOM     24  C   UNL A   1      37.799  20.130  25.025  1.00  0.00     0.023 C 
BRANCH  24  25
ATOM     25  C   UNL A   1      39.092  20.488  25.746  1.00  0.00     0.116 C 
BRANCH  25  26
ATOM     26  N   UNL A   1      40.030  19.368  25.814  1.00  0.00    -0.352 N 
ATOM     27  C   UNL A   1      41.396  19.438  25.999  1.00  0.00     0.251 C 
ATOM     28  H   UNL A   1      39.646  18.466  25.715  1.00  0.00     0.163 HD
ATOM     29  O   UNL A   1      42.137  18.521  25.663  1.00  0.00    -0.269 OA
BRANCH  27  30
ATOM     30  C   UNL A   1      41.942  20.658  26.612  1.00  0.00     0.039 A 
ATOM     31  C   UNL A   1      42.416  21.703  25.816  1.00  0.00     0.014 A 
ATOM     32  C   UNL A   1      41.863  20.779  28.000  1.00  0.00     0.014 A 
ATOM     33  C   UNL A   1      42.716  22.920  26.421  1.00  0.00     0.010 A 
ATOM     34  C   UNL A   1      42.067  22.012  28.581  1.00  0.00     0.010 A 
ATOM     35  C   UNL A   1      42.502  23.086  27.801  1.00  0.00    -0.014 A 
BRANCH  35  36
ATOM     36  C   UNL A   1      42.511  24.437  28.376  1.00  0.00     0.031 A 
ATOM     37  C   UNL A   1      41.287  25.232  28.065  1.00  0.00     0.074 A 
ATOM     38  C   UNL A   1      43.400  24.846  29.309  1.00  0.00     0.049 A 
ATOM     39  N   UNL A   1      41.201  26.307  27.350  1.00  0.00    -0.248 NA
ATOM     40  C   UNL A   1      39.979  24.686  28.468  1.00  0.00     0.031 C 
ATOM     41  C   UNL A   1      44.445  24.024  29.932  1.00  0.00     0.029 A 
ATOM     42  N   UNL A   1      43.463  26.010  30.027  1.00  0.00    -0.354 N 
ATOM     43  C   UNL A   1      39.874  26.722  27.474  1.00  0.00     0.074 A 
ATOM     44  C   UNL A   1      39.138  25.582  27.943  1.00  0.00     0.031 C 
ATOM     45  C   UNL A   1      44.825  24.590  31.097  1.00  0.00     0.029 A 
ATOM     46  C   UNL A   1      44.195  25.891  31.209  1.00  0.00     0.049 A 
ATOM     47  H   UNL A   1      43.033  26.848  29.739  1.00  0.00     0.167 HD
ATOM     48  C   UNL A   1      39.571  28.049  27.532  1.00  0.00     0.034 A 
ATOM     49  C   UNL A   1      44.263  26.772  32.235  1.00  0.00     0.034 A 
ATOM     50  C   UNL A   1      40.701  28.850  27.140  1.00  0.00     0.049 A 
ATOM     51  C   UNL A   1      43.890  28.100  31.712  1.00  0.00     0.074 A 
ATOM     52  C   UNL A   1      41.382  29.171  25.991  1.00  0.00     0.029 A 
ATOM     53  N   UNL A   1      41.494  29.189  28.202  1.00  0.00    -0.354 N 
ATOM     54  N   UNL A   1      44.614  28.758  30.849  1.00  0.00    -0.248 NA
ATOM     55  C   UNL A   1      42.541  28.610  31.922  1.00  0.00     0.031 C 
ATOM     56  C   UNL A   1      42.682  29.591  26.408  1.00  0.00     0.029 A 
ATOM     57  C   UNL A   1      42.746  29.545  27.800  1.00  0.00     0.049 A 
ATOM     58  H   UNL A   1      41.197  29.176  29.141  1.00  0.00     0.167 HD
ATOM     59  C   UNL A   1      43.678  29.434  30.091  1.00  0.00     0.074 A 
ATOM     60  C   UNL A   1      42.475  29.477  30.909  1.00  0.00     0.031 C 
ATOM     61  C   UNL A   1      43.841  29.565  28.744  1.00  0.00     0.034 A 
BRANCH  48  62
ATOM     62  C   UNL A   1      38.514  28.683  28.434  1.00  0.00     0.023 A 
ATOM     63  C   UNL A   1      37.642  29.620  27.826  1.00  0.00     0.012 A 
ATOM     64  C   UNL A   1      38.551  28.686  29.848  1.00  0.00     0.148 A 
ATOM     65  C   UNL A   1      36.912  30.552  28.574  1.00  0.00     0.002 A 
ATOM     66  C   UNL A   1      37.770  29.569  30.590  1.00  0.00     0.091 A 
ATOM     67  F   UNL A   1      39.440  27.935  30.499  1.00  0.00    -0.205 F 
ATOM     68  C   UNL A   1      36.976  30.526  29.960  1.00  0.00     0.022 A 
BRANCH  66  69
ATOM     69  S   UNL A   1      37.799  29.563  32.388  1.00  0.00     0.127 S 
ATOM     70  O   UNL A   1      37.501  28.164  32.678  1.00  0.00    -0.237 OA
ATOM     71  O   UNL A   1      39.174  29.978  32.663  1.00  0.00    -0.237 OA
ATOM     72  O   UNL A   1      36.790  30.532  32.799  1.00  0.00    -0.744 OA
ENDBRANCH  66  69
ENDBRANCH  48  62
BRANCH  49  73
ATOM     73  C   UNL A   1      44.528  26.554  33.675  1.00  0.00     0.023 A 
ATOM     74  C   UNL A   1      45.807  26.836  34.198  1.00  0.00     0.012 A 
ATOM     75  C   UNL A   1      43.469  26.334  34.583  1.00  0.00     0.148 A 
ATOM     76  C   UNL A   1      46.016  26.943  35.578  1.00  0.00     0.002 A 
ATOM     77  C   UNL A   1      43.683  26.437  35.955  1.00  0.00     0.091 A 
ATOM     78  F   UNL A   1      42.240  26.113  34.098  1.00  0.00    -0.205 F 
ATOM     79  C   UNL A   1      44.952  26.756  36.456  1.00  0.00     0.022 A 
BRANCH  77  80
ATOM     80  S   UNL A   1      42.359  26.229  37.155  1.00  0.00     0.127 S 
ATOM     81  O   UNL A   1      43.074  26.387  38.422  1.00  0.00    -0.237 OA
ATOM     82  O   UNL A   1      41.468  27.334  36.814  1.00  0.00    -0.237 OA
ATOM     83  O   UNL A   1      41.827  24.892  36.927  1.00  0.00    -0.744 OA
ENDBRANCH  77  80
ENDBRANCH  49  73
BRANCH  61  84
ATOM     84  C   UNL A   1      45.234  29.534  28.196  1.00  0.00     0.023 A 
ATOM     85  C   UNL A   1      46.114  30.629  28.262  1.00  0.00     0.012 A 
ATOM     86  C   UNL A   1      45.696  28.308  27.690  1.00  0.00     0.148 A 
ATOM     87  C   UNL A   1      47.430  30.505  27.811  1.00  0.00     0.002 A 
ATOM     88  C   UNL A   1      47.016  28.174  27.290  1.00  0.00     0.091 A 
ATOM     89  F   UNL A   1      44.833  27.283  27.625  1.00  0.00    -0.205 F 
ATOM     90  C   UNL A   1      47.886  29.273  27.338  1.00  0.00     0.022 A 
BRANCH  88  91
ATOM     91  S   UNL A   1      47.678  26.584  26.792  1.00  0.00     0.127 S 
ATOM     92  O   UNL A   1      49.022  26.939  26.341  1.00  0.00    -0.237 OA
ATOM     93  O   UNL A   1      47.632  25.819  28.039  1.00  0.00    -0.237 OA
ATOM     94  O   UNL A   1      46.779  26.085  25.757  1.00  0.00    -0.744 OA
ENDBRANCH  88  91
ENDBRANCH  61  84
ENDBRANCH  35  36
ENDBRANCH  27  30
ENDBRANCH  25  26
ENDBRANCH  24  25
ENDBRANCH   1  24
TORSDOF 17
ENDMDL
MODEL 2
REMARK VINA RESULT:     -11.9      3.718      9.390
REMARK SMILES C[N@H+]1[C@H]2CC[C@@H]1c1sc(=O)n(CCCC(=O)NCCCCNC(=O)c3ccc(-c4c5nc(c(-c6cccc(S(=O)(=O)[O-])c6F)c6ccc([nH]6)c(-c6cccc(S(=O)(=O)[O-])c6F)c6nc(c(-c7cccc(S(=O)(=O)[O-])c7F)c7ccc4[nH]7)C=C6)C=C5)cc3)c1C2
REMARK SMILES IDX 19 1 18 2 17 3 15 4 16 5 14 7 13 8 12 9 11 10 1 11 2 12 3 13
REMARK SMILES IDX 6 14 4 16 89 17 5 18 7 19 88 20 8 21 9 22 10 23 20 24 21 25
REMARK SMILES IDX 22 26 23 27 24 29 25 30 26 31 87 32 27 33 86 34 28 35 29 36
REMARK SMILES IDX 30 37 80 38 31 39 85 40 79 41 81 42 32 43 84 44 78 45 77 46
REMARK SMILES IDX 33 48 65 49 45 50 64 51 46 52 49 53 63 54 82 55 47 56 48 57
REMARK SMILES IDX 62 59 83 60 50 61 34 62 35 63 43 64 36 65 38 66 44 67 37 68
REMARK SMILES IDX 39 69 40 70 41 71 42 72 66 73 67 74 75 75 68 76 70 77 76 78
REMARK SMILES IDX 69 79 71 80 72 81 73 82 74 83 51 84 52 85 60 86 53 87 55 88
REMARK SMILES IDX 61 89 54 90 56 91 57 92 58 93 59 94
REMARK H PARENT 17 6 2 15 22 28 81 47 49 58
REMARK Flexibility Score: inf
ROOT
ATOM      1  C   UNL A   1      31.818  30.286  26.575  1.00  0.00     0.023 C 
ENDROOT
BRANCH   1   2
ATOM      2  C   UNL A   1      32.292  29.708  25.232  1.00  0.00     0.116 C 
BRANCH   2   3
ATOM      3  N   UNL A   1      31.166  29.550  24.332  1.00  0.00    -0.356 N 
ATOM      4  C   UNL A   1      30.681  28.435  23.721  1.00  0.00     0.220 C 
ATOM      5  O   UNL A   1      29.861  28.576  22.811  1.00  0.00    -0.275 OA
ATOM      6  H   UNL A   1      30.676  30.381  24.132  1.00  0.00     0.163 HD
BRANCH   4   7
ATOM      7  C   UNL A   1      31.106  27.053  24.176  1.00  0.00     0.102 C 
BRANCH   7   8
ATOM      8  C   UNL A   1      31.012  26.732  25.671  1.00  0.00     0.032 C 
BRANCH   8   9
ATOM      9  C   UNL A   1      32.197  26.105  26.413  1.00  0.00     0.127 C 
BRANCH   9  10
ATOM     10  N   UNL A   1      32.448  24.662  26.399  1.00  0.00    -0.302 N 
ATOM     11  C   UNL A   1      37.515  22.484  25.725  1.00  0.00     0.333 C 
ATOM     12  N   UNL A   1      36.201  23.108  25.817  1.00  0.00    -0.328 N 
ATOM     13  C   UNL A   1      35.904  24.055  24.723  1.00  0.00     0.190 C 
ATOM     14  C   UNL A   1      35.080  22.133  25.709  1.00  0.00     0.227 C 
ATOM     15  H   UNL A   1      36.255  23.567  26.726  1.00  0.00     0.348 HD
ATOM     16  C   UNL A   1      35.536  23.133  23.549  1.00  0.00     0.072 C 
ATOM     17  C   UNL A   1      34.704  24.949  25.191  1.00  0.00     0.120 C 
ATOM     18  C   UNL A   1      34.956  21.872  24.201  1.00  0.00     0.077 C 
ATOM     19  C   UNL A   1      33.832  22.845  26.153  1.00  0.00     0.087 A 
ATOM     20  C   UNL A   1      33.658  24.157  25.936  1.00  0.00     0.047 A 
ATOM     21  S   UNL A   1      32.471  22.124  26.916  1.00  0.00    -0.073 S 
ATOM     22  C   UNL A   1      31.588  23.672  26.881  1.00  0.00     0.307 A 
ATOM     23  O   UNL A   1      30.424  23.757  27.208  1.00  0.00    -0.257 OA
ENDBRANCH   9  10
ENDBRANCH   8   9
ENDBRANCH   7   8
ENDBRANCH   4   7
ENDBRANCH   2   3
ENDBRANCH   1   2
BRANCH   1  24
ATOM     24  C   UNL A   1      31.654  31.810  26.601  1.00  0.00     0.023 C 
BRANCH  24  25
ATOM     25  C   UNL A   1      32.809  32.542  27.273  1.00  0.00     0.116 C 
BRANCH  25  26
ATOM     26  N   UNL A   1      32.460  33.909  27.661  1.00  0.00    -0.352 N 
ATOM     27  C   UNL A   1      33.016  34.649  28.686  1.00  0.00     0.251 C 
ATOM     28  H   UNL A   1      31.753  34.349  27.136  1.00  0.00     0.163 HD
ATOM     29  O   UNL A   1      32.425  35.601  29.183  1.00  0.00    -0.269 OA
BRANCH  27  30
ATOM     30  C   UNL A   1      34.347  34.255  29.171  1.00  0.00     0.039 A 
ATOM     31  C   UNL A   1      34.484  33.501  30.338  1.00  0.00     0.014 A 
ATOM     32  C   UNL A   1      35.448  34.562  28.370  1.00  0.00     0.014 A 
ATOM     33  C   UNL A   1      35.731  32.963  30.642  1.00  0.00     0.010 A 
ATOM     34  C   UNL A   1      36.655  33.947  28.621  1.00  0.00     0.010 A 
ATOM     35  C   UNL A   1      36.808  33.153  29.760  1.00  0.00    -0.014 A 
BRANCH  35  36
ATOM     36  C   UNL A   1      38.019  32.336  29.910  1.00  0.00     0.031 A 
ATOM     37  C   UNL A   1      37.876  30.947  29.383  1.00  0.00     0.074 A 
ATOM     38  C   UNL A   1      39.227  32.842  30.246  1.00  0.00     0.049 A 
ATOM     39  N   UNL A   1      37.904  29.839  30.050  1.00  0.00    -0.248 NA
ATOM     40  C   UNL A   1      37.507  30.772  27.967  1.00  0.00     0.031 C 
ATOM     41  C   UNL A   1      39.545  34.260  30.460  1.00  0.00     0.029 A 
ATOM     42  N   UNL A   1      40.457  32.245  30.300  1.00  0.00    -0.354 N 
ATOM     43  C   UNL A   1      37.855  28.831  29.086  1.00  0.00     0.074 A 
ATOM     44  C   UNL A   1      37.365  29.447  27.885  1.00  0.00     0.031 C 
ATOM     45  C   UNL A   1      40.875  34.445  30.327  1.00  0.00     0.029 A 
ATOM     46  C   UNL A   1      41.515  33.150  30.206  1.00  0.00     0.049 A 
ATOM     47  H   UNL A   1      40.584  31.273  30.395  1.00  0.00     0.167 HD
ATOM     48  C   UNL A   1      38.562  27.679  29.258  1.00  0.00     0.034 A 
ATOM     49  C   UNL A   1      42.826  32.877  30.009  1.00  0.00     0.034 A 
ATOM     50  C   UNL A   1      39.033  27.566  30.613  1.00  0.00     0.049 A 
ATOM     51  C   UNL A   1      43.064  31.485  30.434  1.00  0.00     0.074 A 
ATOM     52  C   UNL A   1      38.519  27.303  31.860  1.00  0.00     0.029 A 
ATOM     53  N   UNL A   1      40.274  28.117  30.783  1.00  0.00    -0.354 N 
ATOM     54  N   UNL A   1      42.973  31.090  31.674  1.00  0.00    -0.248 NA
ATOM     55  C   UNL A   1      43.128  30.422  29.438  1.00  0.00     0.031 C 
ATOM     56  C   UNL A   1      39.451  27.851  32.794  1.00  0.00     0.029 A 
ATOM     57  C   UNL A   1      40.521  28.403  32.092  1.00  0.00     0.049 A 
ATOM     58  H   UNL A   1      40.909  28.286  30.049  1.00  0.00     0.167 HD
ATOM     59  C   UNL A   1      42.500  29.797  31.569  1.00  0.00     0.074 A 
ATOM     60  C   UNL A   1      42.814  29.379  30.210  1.00  0.00     0.031 C 
ATOM     61  C   UNL A   1      41.577  29.323  32.453  1.00  0.00     0.034 A 
BRANCH  48  62
ATOM     62  C   UNL A   1      39.316  26.924  28.165  1.00  0.00     0.023 A 
ATOM     63  C   UNL A   1      39.225  25.510  28.193  1.00  0.00     0.012 A 
ATOM     64  C   UNL A   1      40.348  27.471  27.367  1.00  0.00     0.148 A 
ATOM     65  C   UNL A   1      40.149  24.691  27.533  1.00  0.00     0.002 A 
ATOM     66  C   UNL A   1      41.222  26.653  26.655  1.00  0.00     0.091 A 
ATOM     67  F   UNL A   1      40.592  28.781  27.388  1.00  0.00    -0.205 F 
ATOM     68  C   UNL A   1      41.150  25.264  26.761  1.00  0.00     0.022 A 
BRANCH  66  69
ATOM     69  S   UNL A   1      42.523  27.343  25.623  1.00  0.00     0.127 S 
ATOM     70  O   UNL A   1      43.542  27.661  26.618  1.00  0.00    -0.237 OA
ATOM     71  O   UNL A   1      42.836  26.214  24.748  1.00  0.00    -0.237 OA
ATOM     72  O   UNL A   1      41.919  28.479  24.938  1.00  0.00    -0.744 OA
ENDBRANCH  66  69
ENDBRANCH  48  62
BRANCH  49  73
ATOM     73  C   UNL A   1      43.894  33.687  29.380  1.00  0.00     0.023 A 
ATOM     74  C   UNL A   1      44.790  34.410  30.195  1.00  0.00     0.012 A 
ATOM     75  C   UNL A   1      44.209  33.538  28.012  1.00  0.00     0.148 A 
ATOM     76  C   UNL A   1      45.982  34.928  29.676  1.00  0.00     0.002 A 
ATOM     77  C   UNL A   1      45.393  34.060  27.499  1.00  0.00     0.091 A 
ATOM     78  F   UNL A   1      43.390  32.813  27.238  1.00  0.00    -0.205 F 
ATOM     79  C   UNL A   1      46.290  34.742  28.331  1.00  0.00     0.022 A 
BRANCH  77  80
ATOM     80  S   UNL A   1      45.875  33.848  25.778  1.00  0.00     0.127 S 
ATOM     81  O   UNL A   1      45.539  32.444  25.543  1.00  0.00    -0.237 OA
ATOM     82  O   UNL A   1      45.005  34.807  25.102  1.00  0.00    -0.237 OA
ATOM     83  O   UNL A   1      47.301  34.142  25.729  1.00  0.00    -0.744 OA
ENDBRANCH  77  80
ENDBRANCH  49  73
BRANCH  61  84
ATOM     84  C   UNL A   1      41.533  29.930  33.820  1.00  0.00     0.023 A 
ATOM     85  C   UNL A   1      42.446  29.605  34.840  1.00  0.00     0.012 A 
ATOM     86  C   UNL A   1      40.590  30.949  34.039  1.00  0.00     0.148 A 
ATOM     87  C   UNL A   1      42.404  30.274  36.065  1.00  0.00     0.002 A 
ATOM     88  C   UNL A   1      40.584  31.644  35.238  1.00  0.00     0.091 A 
ATOM     89  F   UNL A   1      39.722  31.231  33.056  1.00  0.00    -0.205 F 
ATOM     90  C   UNL A   1      41.483  31.304  36.260  1.00  0.00     0.022 A 
BRANCH  88  91
ATOM     91  S   UNL A   1      39.503  33.053  35.487  1.00  0.00     0.127 S 
ATOM     92  O   UNL A   1      40.164  33.755  36.586  1.00  0.00    -0.237 OA
ATOM     93  O   UNL A   1      39.572  33.735  34.194  1.00  0.00    -0.237 OA
ATOM     94  O   UNL A   1      38.190  32.498  35.796  1.00  0.00    -0.744 OA
ENDBRANCH  88  91
ENDBRANCH  61  84
ENDBRANCH  35  36
ENDBRANCH  27  30
ENDBRANCH  25  26
ENDBRANCH  24  25
ENDBRANCH   1  24
TORSDOF 17
ENDMDL
MODEL 3
REMARK VINA RESULT:     -11.6      1.636      2.093
REMARK SMILES C[N@H+]1[C@H]2CC[C@@H]1c1sc(=O)n(CCCC(=O)NCCCCNC(=O)c3ccc(-c4c5nc(c(-c6cccc(S(=O)(=O)[O-])c6F)c6ccc([nH]6)c(-c6cccc(S(=O)(=O)[O-])c6F)c6nc(c(-c7cccc(S(=O)(=O)[O-])c7F)c7ccc4[nH]7)C=C6)C=C5)cc3)c1C2
REMARK SMILES IDX 19 1 18 2 17 3 15 4 16 5 14 7 13 8 12 9 11 10 1 11 2 12 3 13
REMARK SMILES IDX 6 14 4 16 89 17 5 18 7 19 88 20 8 21 9 22 10 23 20 24 21 25
REMARK SMILES IDX 22 26 23 27 24 29 25 30 26 31 87 32 27 33 86 34 28 35 29 36
REMARK SMILES IDX 30 37 80 38 31 39 85 40 79 41 81 42 32 43 84 44 78 45 77 46
REMARK SMILES IDX 33 48 65 49 45 50 64 51 46 52 49 53 63 54 82 55 47 56 48 57
REMARK SMILES IDX 62 59 83 60 50 61 34 62 35 63 43 64 36 65 38 66 44 67 37 68
REMARK SMILES IDX 39 69 40 70 41 71 42 72 66 73 67 74 75 75 68 76 70 77 76 78
REMARK SMILES IDX 69 79 71 80 72 81 73 82 74 83 51 84 52 85 60 86 53 87 55 88
REMARK SMILES IDX 61 89 54 90 56 91 57 92 58 93 59 94
REMARK H PARENT 17 6 2 15 22 28 81 47 49 58
REMARK Flexibility Score: inf
ROOT
ATOM      1  C   UNL A   1      36.232  21.951  25.062  1.00  0.00     0.023 C 
ENDROOT
BRANCH   1   2
ATOM      2  C   UNL A   1      35.129  21.871  26.129  1.00  0.00     0.116 C 
BRANCH   2   3
ATOM      3  N   UNL A   1      34.348  20.663  25.950  1.00  0.00    -0.356 N 
ATOM      4  C   UNL A   1      33.217  20.448  25.224  1.00  0.00     0.220 C 
ATOM      5  O   UNL A   1      32.593  19.401  25.408  1.00  0.00    -0.275 OA
ATOM      6  H   UNL A   1      34.690  19.873  26.430  1.00  0.00     0.163 HD
BRANCH   4   7
ATOM      7  C   UNL A   1      32.761  21.451  24.183  1.00  0.00     0.102 C 
BRANCH   7   8
ATOM      8  C   UNL A   1      31.798  22.556  24.629  1.00  0.00     0.032 C 
BRANCH   8   9
ATOM      9  C   UNL A   1      31.106  23.453  23.598  1.00  0.00     0.127 C 
BRANCH   9  10
ATOM     10  N   UNL A   1      31.768  24.621  23.014  1.00  0.00    -0.302 N 
ATOM     11  C   UNL A   1      31.420  29.709  25.222  1.00  0.00     0.333 C 
ATOM     12  N   UNL A   1      31.410  28.371  24.644  1.00  0.00    -0.328 N 
ATOM     13  C   UNL A   1      30.059  27.812  24.436  1.00  0.00     0.190 C 
ATOM     14  C   UNL A   1      31.991  28.320  23.272  1.00  0.00     0.227 C 
ATOM     15  H   UNL A   1      31.948  27.845  25.333  1.00  0.00     0.348 HD
ATOM     16  C   UNL A   1      29.579  28.518  23.158  1.00  0.00     0.072 C 
ATOM     17  C   UNL A   1      30.216  26.264  24.251  1.00  0.00     0.120 C 
ATOM     18  C   UNL A   1      30.857  28.824  22.368  1.00  0.00     0.077 C 
ATOM     19  C   UNL A   1      32.226  26.871  22.946  1.00  0.00     0.087 A 
ATOM     20  C   UNL A   1      31.420  25.907  23.414  1.00  0.00     0.047 A 
ATOM     21  S   UNL A   1      33.463  26.251  21.927  1.00  0.00    -0.073 S 
ATOM     22  C   UNL A   1      32.814  24.598  22.089  1.00  0.00     0.307 A 
ATOM     23  O   UNL A   1      33.247  23.670  21.440  1.00  0.00    -0.257 OA
ENDBRANCH   9  10
ENDBRANCH   8   9
ENDBRANCH   7   8
ENDBRANCH   4   7
ENDBRANCH   2   3
ENDBRANCH   1   2
BRANCH   1  24
ATOM     24  C   UNL A   1      37.147  20.723  24.986  1.00  0.00     0.023 C 
BRANCH  24  25
ATOM     25  C   UNL A   1      38.545  20.961  25.543  1.00  0.00     0.116 C 
BRANCH  25  26
ATOM     26  N   UNL A   1      39.314  19.724  25.684  1.00  0.00    -0.352 N 
ATOM     27  C   UNL A   1      40.663  19.611  25.949  1.00  0.00     0.251 C 
ATOM     28  H   UNL A   1      38.815  18.881  25.577  1.00  0.00     0.163 HD
ATOM     29  O   UNL A   1      41.289  18.594  25.672  1.00  0.00    -0.269 OA
BRANCH  27  30
ATOM     30  C   UNL A   1      41.337  20.759  26.575  1.00  0.00     0.039 A 
ATOM     31  C   UNL A   1      41.958  21.733  25.790  1.00  0.00     0.014 A 
ATOM     32  C   UNL A   1      41.235  20.897  27.960  1.00  0.00     0.014 A 
ATOM     33  C   UNL A   1      42.387  22.908  26.401  1.00  0.00     0.010 A 
ATOM     34  C   UNL A   1      41.571  22.098  28.543  1.00  0.00     0.010 A 
ATOM     35  C   UNL A   1      42.155  23.107  27.774  1.00  0.00    -0.014 A 
BRANCH  35  36
ATOM     36  C   UNL A   1      42.313  24.450  28.346  1.00  0.00     0.031 A 
ATOM     37  C   UNL A   1      41.183  25.373  28.035  1.00  0.00     0.074 A 
ATOM     38  C   UNL A   1      43.244  24.762  29.276  1.00  0.00     0.049 A 
ATOM     39  N   UNL A   1      41.212  26.450  27.318  1.00  0.00    -0.248 NA
ATOM     40  C   UNL A   1      39.824  24.974  28.443  1.00  0.00     0.031 C 
ATOM     41  C   UNL A   1      44.195  23.832  29.898  1.00  0.00     0.029 A 
ATOM     42  N   UNL A   1      43.435  25.913  29.991  1.00  0.00    -0.354 N 
ATOM     43  C   UNL A   1      39.939  27.007  27.444  1.00  0.00     0.074 A 
ATOM     44  C   UNL A   1      39.084  25.955  27.918  1.00  0.00     0.031 C 
ATOM     45  C   UNL A   1      44.637  24.356  31.061  1.00  0.00     0.029 A 
ATOM     46  C   UNL A   1      44.152  25.718  31.171  1.00  0.00     0.049 A 
ATOM     47  H   UNL A   1      43.099  26.793  29.702  1.00  0.00     0.167 HD
ATOM     48  C   UNL A   1      39.782  28.360  27.500  1.00  0.00     0.034 A 
ATOM     49  C   UNL A   1      44.319  26.588  32.195  1.00  0.00     0.034 A 
ATOM     50  C   UNL A   1      40.992  29.031  27.104  1.00  0.00     0.049 A 
ATOM     51  C   UNL A   1      44.092  27.947  31.671  1.00  0.00     0.074 A 
ATOM     52  C   UNL A   1      41.702  29.275  25.953  1.00  0.00     0.029 A 
ATOM     53  N   UNL A   1      41.820  29.284  28.163  1.00  0.00    -0.354 N 
ATOM     54  N   UNL A   1      44.881  28.521  30.804  1.00  0.00    -0.248 NA
ATOM     55  C   UNL A   1      42.807  28.602  31.882  1.00  0.00     0.031 C 
ATOM     56  C   UNL A   1      43.040  29.551  26.366  1.00  0.00     0.029 A 
ATOM     57  C   UNL A   1      43.103  29.501  27.757  1.00  0.00     0.049 A 
ATOM     58  H   UNL A   1      41.525  29.306  29.103  1.00  0.00     0.167 HD
ATOM     59  C   UNL A   1      44.022  29.294  30.047  1.00  0.00     0.074 A 
ATOM     60  C   UNL A   1      42.833  29.470  30.868  1.00  0.00     0.031 C 
ATOM     61  C   UNL A   1      44.195  29.403  28.699  1.00  0.00     0.034 A 
BRANCH  48  62
ATOM     62  C   UNL A   1      38.803  29.106  28.403  1.00  0.00     0.023 A 
ATOM     63  C   UNL A   1      38.764  28.706  29.763  1.00  0.00     0.012 A 
ATOM     64  C   UNL A   1      37.717  29.890  27.948  1.00  0.00     0.148 A 
ATOM     65  C   UNL A   1      37.677  29.002  30.594  1.00  0.00     0.002 A 
ATOM     66  C   UNL A   1      36.671  30.241  28.798  1.00  0.00     0.091 A 
ATOM     67  F   UNL A   1      37.603  30.195  26.655  1.00  0.00    -0.205 F 
ATOM     68  C   UNL A   1      36.628  29.772  30.111  1.00  0.00     0.022 A 
BRANCH  66  69
ATOM     69  S   UNL A   1      35.298  31.254  28.230  1.00  0.00     0.127 S 
ATOM     70  O   UNL A   1      34.571  30.308  27.389  1.00  0.00    -0.237 OA
ATOM     71  O   UNL A   1      34.643  31.598  29.491  1.00  0.00    -0.237 OA
ATOM     72  O   UNL A   1      35.906  32.387  27.544  1.00  0.00    -0.744 OA
ENDBRANCH  66  69
ENDBRANCH  48  62
BRANCH  49  73
ATOM     73  C   UNL A   1      44.562  26.345  33.635  1.00  0.00     0.023 A 
ATOM     74  C   UNL A   1      45.877  26.412  34.140  1.00  0.00     0.012 A 
ATOM     75  C   UNL A   1      43.494  26.319  34.558  1.00  0.00     0.148 A 
ATOM     76  C   UNL A   1      46.119  26.498  35.516  1.00  0.00     0.002 A 
ATOM     77  C   UNL A   1      43.740  26.399  35.926  1.00  0.00     0.091 A 
ATOM     78  F   UNL A   1      42.239  26.303  34.089  1.00  0.00    -0.205 F 
ATOM     79  C   UNL A   1      45.051  26.505  36.408  1.00  0.00     0.022 A 
BRANCH  77  80
ATOM     80  S   UNL A   1      42.416  26.433  37.143  1.00  0.00     0.127 S 
ATOM     81  O   UNL A   1      41.718  27.671  36.795  1.00  0.00    -0.237 OA
ATOM     82  O   UNL A   1      41.684  25.209  36.827  1.00  0.00    -0.237 OA
ATOM     83  O   UNL A   1      43.076  26.458  38.442  1.00  0.00    -0.744 OA
ENDBRANCH  77  80
ENDBRANCH  49  73
BRANCH  61  84
ATOM     84  C   UNL A   1      45.575  29.220  28.148  1.00  0.00     0.023 A 
ATOM     85  C   UNL A   1      46.566  30.216  28.198  1.00  0.00     0.012 A 
ATOM     86  C   UNL A   1      45.904  27.946  27.655  1.00  0.00     0.148 A 
ATOM     87  C   UNL A   1      47.860  29.949  27.746  1.00  0.00     0.002 A 
ATOM     88  C   UNL A   1      47.201  27.669  27.254  1.00  0.00     0.091 A 
ATOM     89  F   UNL A   1      44.937  27.016  27.605  1.00  0.00    -0.205 F 
ATOM     90  C   UNL A   1      48.182  28.671  27.286  1.00  0.00     0.022 A 
BRANCH  88  91
ATOM     91  S   UNL A   1      47.690  26.012  26.773  1.00  0.00     0.127 S 
ATOM     92  O   UNL A   1      47.418  25.248  27.989  1.00  0.00    -0.237 OA
ATOM     93  O   UNL A   1      46.787  25.729  25.656  1.00  0.00    -0.237 OA
ATOM     94  O   UNL A   1      49.094  26.107  26.391  1.00  0.00    -0.744 OA
ENDBRANCH  88  91
ENDBRANCH  61  84
ENDBRANCH  35  36
ENDBRANCH  27  30
ENDBRANCH  25  26
ENDBRANCH  24  25
ENDBRANCH   1  24
TORSDOF 17
ENDMDL
