MODEL 1
REMARK VINA RESULT:     -10.9      0.000      0.000
REMARK SMILES O=C(CS[C@H](C(=O)Nc1ccc(C(F)(F)F)cc1)c1ccccc1)NCCCCNC(=O)c1ccc(-c2c3nc(c(-c4cccc(S(=O)(=O)[O-])c4F)c4ccc([nH]4)c(-c4cccc(S(=O)(=O)[O-])c4F)c4nc(c(-c5cccc(S(=O)(=O)[O-])c5F)c5ccc2[nH]5)C=C4)C=C3)cc1
REMARK SMILES IDX 26 1 25 2 1 3 2 4 3 6 4 7 5 8 19 9 20 10 24 11 21 12 23 13
REMARK SMILES IDX 22 14 6 15 7 16 8 17 9 19 10 20 18 21 11 22 17 23 12 24
REMARK SMILES IDX 13 25 14 26 15 27 16 28 27 29 28 30 29 31 30 32 31 33 32 35
REMARK SMILES IDX 33 36 34 37 95 38 35 39 94 40 36 41 37 42 38 43 88 44 39 45
REMARK SMILES IDX 93 46 87 47 89 48 40 49 92 50 86 51 85 52 41 54 73 55 53 56
REMARK SMILES IDX 72 57 54 58 57 59 71 60 90 61 55 62 56 63 70 65 91 66 58 67
REMARK SMILES IDX 42 68 43 69 51 70 44 71 46 72 52 73 45 74 47 75 48 76 49 77
REMARK SMILES IDX 50 78 74 79 75 80 83 81 76 82 78 83 84 84 77 85 79 86 80 87
REMARK SMILES IDX 81 88 82 89 59 90 60 91 68 92 61 93 63 94 69 95 62 96 64 97
REMARK SMILES IDX 65 98 66 99 67 100
REMARK H PARENT 25 5 8 18 30 34 89 53 57 64
REMARK Flexibility Score: inf
ROOT
ATOM      1  C   UNL A   1      36.044  19.991  24.843  1.00  0.00     0.116 C 
ENDROOT
BRANCH   1   2
ATOM      2  N   UNL A   1      35.122  20.980  25.382  1.00  0.00    -0.355 N 
ATOM      3  O   UNL A   1      33.279  19.673  24.965  1.00  0.00    -0.274 OA
ATOM      4  C   UNL A   1      33.760  20.694  25.455  1.00  0.00     0.230 C 
ATOM      5  H   UNL A   1      35.461  21.850  25.692  1.00  0.00     0.163 HD
BRANCH   4   6
ATOM      6  C   UNL A   1      32.905  21.731  26.169  1.00  0.00     0.170 C 
BRANCH   6   7
ATOM      7  S   UNL A   1      33.634  23.412  26.257  1.00  0.00    -0.134 SA
BRANCH   7   8
ATOM      8  C   UNL A   1      32.501  24.525  25.276  1.00  0.00     0.166 C 
BRANCH   8   9
ATOM      9  C   UNL A   1      32.611  25.963  25.770  1.00  0.00    -0.026 A 
ATOM     10  C   UNL A   1      31.629  26.532  26.576  1.00  0.00     0.005 A 
ATOM     11  C   UNL A   1      33.736  26.756  25.493  1.00  0.00     0.005 A 
ATOM     12  C   UNL A   1      31.723  27.828  27.086  1.00  0.00     0.000 A 
ATOM     13  C   UNL A   1      33.865  28.044  26.038  1.00  0.00     0.000 A 
ATOM     14  C   UNL A   1      32.854  28.583  26.830  1.00  0.00     0.000 A 
ENDBRANCH   8   9
BRANCH   8  15
ATOM     15  C   UNL A   1      32.536  24.238  23.734  1.00  0.00     0.242 C 
ATOM     16  O   UNL A   1      33.438  23.602  23.183  1.00  0.00    -0.273 OA
ATOM     17  N   UNL A   1      31.436  24.596  22.964  1.00  0.00    -0.325 N 
ATOM     18  H   UNL A   1      31.134  23.945  22.290  1.00  0.00     0.169 HD
BRANCH  17  19
ATOM     19  C   UNL A   1      30.717  25.796  23.059  1.00  0.00     0.041 A 
ATOM     20  C   UNL A   1      31.188  26.990  22.527  1.00  0.00     0.027 A 
ATOM     21  C   UNL A   1      29.525  25.816  23.763  1.00  0.00     0.027 A 
ATOM     22  C   UNL A   1      30.351  28.122  22.520  1.00  0.00     0.015 A 
ATOM     23  C   UNL A   1      28.659  26.893  23.695  1.00  0.00     0.015 A 
ATOM     24  C   UNL A   1      29.047  28.055  23.039  1.00  0.00     0.056 A 
BRANCH  24  25
ATOM     25  C   UNL A   1      28.072  29.200  22.953  1.00  0.00     0.416 C 
ATOM     26  F   UNL A   1      26.831  28.860  23.375  1.00  0.00    -0.166 F 
ATOM     27  F   UNL A   1      28.459  30.283  23.672  1.00  0.00    -0.166 F 
ATOM     28  F   UNL A   1      27.908  29.647  21.671  1.00  0.00    -0.166 F 
ENDBRANCH  24  25
ENDBRANCH  17  19
ENDBRANCH   8  15
ENDBRANCH   7   8
ENDBRANCH   6   7
ENDBRANCH   4   6
ENDBRANCH   1   2
BRANCH   1  29
ATOM     29  C   UNL A   1      37.558  20.260  24.972  1.00  0.00     0.023 C 
BRANCH  29  30
ATOM     30  C   UNL A   1      38.106  21.673  25.248  1.00  0.00     0.023 C 
BRANCH  30  31
ATOM     31  C   UNL A   1      39.212  21.915  26.293  1.00  0.00     0.116 C 
BRANCH  31  32
ATOM     32  N   UNL A   1      40.340  21.002  26.295  1.00  0.00    -0.352 N 
ATOM     33  C   UNL A   1      41.655  21.237  26.661  1.00  0.00     0.251 C 
ATOM     34  H   UNL A   1      40.144  20.086  25.993  1.00  0.00     0.163 HD
ATOM     35  O   UNL A   1      42.461  20.307  26.629  1.00  0.00    -0.269 OA
BRANCH  33  36
ATOM     36  C   UNL A   1      42.128  22.590  27.066  1.00  0.00     0.039 A 
ATOM     37  C   UNL A   1      42.348  23.565  26.088  1.00  0.00     0.014 A 
ATOM     38  C   UNL A   1      42.401  22.901  28.396  1.00  0.00     0.014 A 
ATOM     39  C   UNL A   1      42.742  24.865  26.453  1.00  0.00     0.010 A 
ATOM     40  C   UNL A   1      42.753  24.210  28.764  1.00  0.00     0.010 A 
ATOM     41  C   UNL A   1      42.907  25.218  27.804  1.00  0.00    -0.014 A 
BRANCH  41  42
ATOM     42  C   UNL A   1      43.118  26.638  28.230  1.00  0.00     0.031 A 
ATOM     43  C   UNL A   1      44.487  27.273  28.281  1.00  0.00     0.074 A 
ATOM     44  C   UNL A   1      42.064  27.342  28.696  1.00  0.00     0.049 A 
ATOM     45  N   UNL A   1      44.829  28.473  28.687  1.00  0.00    -0.248 NA
ATOM     46  C   UNL A   1      45.621  26.445  27.851  1.00  0.00     0.031 C 
ATOM     47  C   UNL A   1      40.697  26.832  28.813  1.00  0.00     0.029 A 
ATOM     48  N   UNL A   1      41.979  28.625  29.183  1.00  0.00    -0.354 N 
ATOM     49  C   UNL A   1      46.219  28.526  28.615  1.00  0.00     0.074 A 
ATOM     50  C   UNL A   1      46.653  27.229  28.139  1.00  0.00     0.031 C 
ATOM     51  C   UNL A   1      39.908  27.793  29.317  1.00  0.00     0.029 A 
ATOM     52  C   UNL A   1      40.713  28.980  29.590  1.00  0.00     0.049 A 
ATOM     53  H   UNL A   1      42.752  29.232  29.236  1.00  0.00     0.167 HD
ATOM     54  C   UNL A   1      47.057  29.557  28.898  1.00  0.00     0.034 A 
ATOM     55  C   UNL A   1      40.244  30.127  30.122  1.00  0.00     0.034 A 
ATOM     56  C   UNL A   1      46.622  30.873  29.300  1.00  0.00     0.049 A 
ATOM     57  C   UNL A   1      41.175  31.290  30.327  1.00  0.00     0.074 A 
ATOM     58  C   UNL A   1      47.385  32.016  29.473  1.00  0.00     0.029 A 
ATOM     59  N   UNL A   1      45.315  31.223  29.596  1.00  0.00    -0.354 N 
ATOM     60  N   UNL A   1      42.459  31.370  30.089  1.00  0.00    -0.248 NA
ATOM     61  C   UNL A   1      40.581  32.535  30.840  1.00  0.00     0.031 C 
ATOM     62  C   UNL A   1      46.545  33.050  29.898  1.00  0.00     0.029 A 
ATOM     63  C   UNL A   1      45.251  32.561  29.957  1.00  0.00     0.049 A 
ATOM     64  H   UNL A   1      44.544  30.613  29.557  1.00  0.00     0.167 HD
ATOM     65  C   UNL A   1      42.820  32.681  30.382  1.00  0.00     0.074 A 
ATOM     66  C   UNL A   1      41.615  33.365  30.797  1.00  0.00     0.031 C 
ATOM     67  C   UNL A   1      44.045  33.259  30.321  1.00  0.00     0.034 A 
BRANCH  54  68
ATOM     68  C   UNL A   1      48.546  29.342  28.728  1.00  0.00     0.023 A 
ATOM     69  C   UNL A   1      49.308  28.852  29.807  1.00  0.00     0.012 A 
ATOM     70  C   UNL A   1      49.171  29.525  27.476  1.00  0.00     0.148 A 
ATOM     71  C   UNL A   1      50.671  28.591  29.660  1.00  0.00     0.002 A 
ATOM     72  C   UNL A   1      50.518  29.212  27.322  1.00  0.00     0.091 A 
ATOM     73  F   UNL A   1      48.437  29.996  26.457  1.00  0.00    -0.205 F 
ATOM     74  C   UNL A   1      51.272  28.760  28.417  1.00  0.00     0.022 A 
BRANCH  72  75
ATOM     75  S   UNL A   1      51.362  29.297  25.736  1.00  0.00     0.127 S 
ATOM     76  O   UNL A   1      51.370  30.739  25.483  1.00  0.00    -0.237 OA
ATOM     77  O   UNL A   1      52.675  28.732  26.057  1.00  0.00    -0.237 OA
ATOM     78  O   UNL A   1      50.568  28.505  24.814  1.00  0.00    -0.744 OA
ENDBRANCH  72  75
ENDBRANCH  54  68
BRANCH  55  79
ATOM     79  C   UNL A   1      38.790  30.259  30.426  1.00  0.00     0.023 A 
ATOM     80  C   UNL A   1      38.297  29.788  31.658  1.00  0.00     0.012 A 
ATOM     81  C   UNL A   1      37.904  30.870  29.519  1.00  0.00     0.148 A 
ATOM     82  C   UNL A   1      36.940  29.889  31.968  1.00  0.00     0.002 A 
ATOM     83  C   UNL A   1      36.565  31.022  29.858  1.00  0.00     0.091 A 
ATOM     84  F   UNL A   1      38.393  31.305  28.349  1.00  0.00    -0.205 F 
ATOM     85  C   UNL A   1      36.077  30.515  31.073  1.00  0.00     0.022 A 
BRANCH  83  86
ATOM     86  S   UNL A   1      35.410  31.936  28.830  1.00  0.00     0.127 S 
ATOM     87  O   UNL A   1      34.311  32.180  29.760  1.00  0.00    -0.237 OA
ATOM     88  O   UNL A   1      36.194  33.120  28.477  1.00  0.00    -0.237 OA
ATOM     89  O   UNL A   1      35.105  31.060  27.706  1.00  0.00    -0.744 OA
ENDBRANCH  83  86
ENDBRANCH  55  79
BRANCH  67  90
ATOM     90  C   UNL A   1      44.152  34.724  30.670  1.00  0.00     0.023 A 
ATOM     91  C   UNL A   1      44.538  35.114  31.967  1.00  0.00     0.012 A 
ATOM     92  C   UNL A   1      43.929  35.712  29.689  1.00  0.00     0.148 A 
ATOM     93  C   UNL A   1      44.664  36.465  32.294  1.00  0.00     0.002 A 
ATOM     94  C   UNL A   1      44.107  37.053  30.008  1.00  0.00     0.091 A 
ATOM     95  F   UNL A   1      43.545  35.323  28.465  1.00  0.00    -0.205 F 
ATOM     96  C   UNL A   1      44.461  37.432  31.312  1.00  0.00     0.022 A 
BRANCH  94  97
ATOM     97  S   UNL A   1      43.959  38.364  28.788  1.00  0.00     0.127 S 
ATOM     98  O   UNL A   1      44.831  37.876  27.719  1.00  0.00    -0.237 OA
ATOM     99  O   UNL A   1      42.532  38.334  28.472  1.00  0.00    -0.237 OA
ATOM    100  O   UNL A   1      44.407  39.582  29.450  1.00  0.00    -0.744 OA
ENDBRANCH  94  97
ENDBRANCH  67  90
ENDBRANCH  41  42
ENDBRANCH  33  36
ENDBRANCH  31  32
ENDBRANCH  30  31
ENDBRANCH  29  30
ENDBRANCH   1  29
TORSDOF 20
ENDMDL
MODEL 2
REMARK VINA RESULT:     -10.6      5.945     10.644
REMARK SMILES O=C(CS[C@H](C(=O)Nc1ccc(C(F)(F)F)cc1)c1ccccc1)NCCCCNC(=O)c1ccc(-c2c3nc(c(-c4cccc(S(=O)(=O)[O-])c4F)c4ccc([nH]4)c(-c4cccc(S(=O)(=O)[O-])c4F)c4nc(c(-c5cccc(S(=O)(=O)[O-])c5F)c5ccc2[nH]5)C=C4)C=C3)cc1
REMARK SMILES IDX 26 1 25 2 1 3 2 4 3 6 4 7 5 8 19 9 20 10 24 11 21 12 23 13
REMARK SMILES IDX 22 14 6 15 7 16 8 17 9 19 10 20 18 21 11 22 17 23 12 24
REMARK SMILES IDX 13 25 14 26 15 27 16 28 27 29 28 30 29 31 30 32 31 33 32 35
REMARK SMILES IDX 33 36 34 37 95 38 35 39 94 40 36 41 37 42 38 43 88 44 39 45
REMARK SMILES IDX 93 46 87 47 89 48 40 49 92 50 86 51 85 52 41 54 73 55 53 56
REMARK SMILES IDX 72 57 54 58 57 59 71 60 90 61 55 62 56 63 70 65 91 66 58 67
REMARK SMILES IDX 42 68 43 69 51 70 44 71 46 72 52 73 45 74 47 75 48 76 49 77
REMARK SMILES IDX 50 78 74 79 75 80 83 81 76 82 78 83 84 84 77 85 79 86 80 87
REMARK SMILES IDX 81 88 82 89 59 90 60 91 68 92 61 93 63 94 69 95 62 96 64 97
REMARK SMILES IDX 65 98 66 99 67 100
REMARK H PARENT 25 5 8 18 30 34 89 53 57 64
REMARK Flexibility Score: inf
ROOT
ATOM      1  C   UNL A   1      34.953  31.489  28.431  1.00  0.00     0.116 C 
ENDROOT
BRANCH   1   2
ATOM      2  N   UNL A   1      34.810  30.519  27.355  1.00  0.00    -0.355 N 
ATOM      3  O   UNL A   1      32.515  30.613  27.406  1.00  0.00    -0.274 OA
ATOM      4  C   UNL A   1      33.543  30.197  26.872  1.00  0.00     0.230 C 
ATOM      5  H   UNL A   1      35.608  30.090  26.970  1.00  0.00     0.163 HD
BRANCH   4   6
ATOM      6  C   UNL A   1      33.512  29.290  25.651  1.00  0.00     0.170 C 
BRANCH   6   7
ATOM      7  S   UNL A   1      33.483  27.492  26.020  1.00  0.00    -0.134 SA
BRANCH   7   8
ATOM      8  C   UNL A   1      31.941  26.817  25.214  1.00  0.00     0.166 C 
BRANCH   8   9
ATOM      9  C   UNL A   1      32.164  26.627  23.718  1.00  0.00    -0.026 A 
ATOM     10  C   UNL A   1      33.426  26.764  23.148  1.00  0.00     0.005 A 
ATOM     11  C   UNL A   1      31.122  26.240  22.860  1.00  0.00     0.005 A 
ATOM     12  C   UNL A   1      33.672  26.547  21.791  1.00  0.00     0.000 A 
ATOM     13  C   UNL A   1      31.366  25.974  21.502  1.00  0.00     0.000 A 
ATOM     14  C   UNL A   1      32.641  26.134  20.966  1.00  0.00     0.000 A 
ENDBRANCH   8   9
BRANCH   8  15
ATOM     15  C   UNL A   1      31.263  25.670  26.042  1.00  0.00     0.242 C 
ATOM     16  O   UNL A   1      30.437  25.875  26.936  1.00  0.00    -0.273 OA
ATOM     17  N   UNL A   1      31.494  24.351  25.667  1.00  0.00    -0.325 N 
ATOM     18  H   UNL A   1      30.716  23.748  25.661  1.00  0.00     0.169 HD
BRANCH  17  19
ATOM     19  C   UNL A   1      32.729  23.803  25.295  1.00  0.00     0.041 A 
ATOM     20  C   UNL A   1      32.904  23.091  24.115  1.00  0.00     0.027 A 
ATOM     21  C   UNL A   1      33.804  23.912  26.160  1.00  0.00     0.027 A 
ATOM     22  C   UNL A   1      34.199  22.702  23.727  1.00  0.00     0.015 A 
ATOM     23  C   UNL A   1      35.094  23.607  25.760  1.00  0.00     0.015 A 
ATOM     24  C   UNL A   1      35.315  23.027  24.517  1.00  0.00     0.056 A 
BRANCH  24  25
ATOM     25  C   UNL A   1      36.731  22.736  24.094  1.00  0.00     0.416 C 
ATOM     26  F   UNL A   1      37.005  23.188  22.847  1.00  0.00    -0.166 F 
ATOM     27  F   UNL A   1      37.656  23.272  24.928  1.00  0.00    -0.166 F 
ATOM     28  F   UNL A   1      36.998  21.395  24.059  1.00  0.00    -0.166 F 
ENDBRANCH  24  25
ENDBRANCH  17  19
ENDBRANCH   8  15
ENDBRANCH   7   8
ENDBRANCH   6   7
ENDBRANCH   4   6
ENDBRANCH   1   2
BRANCH   1  29
ATOM     29  C   UNL A   1      35.085  32.979  28.055  1.00  0.00     0.023 C 
BRANCH  29  30
ATOM     30  C   UNL A   1      33.857  33.907  27.986  1.00  0.00     0.023 C 
BRANCH  30  31
ATOM     31  C   UNL A   1      33.885  35.323  28.592  1.00  0.00     0.116 C 
BRANCH  31  32
ATOM     32  N   UNL A   1      32.912  35.627  29.626  1.00  0.00    -0.352 N 
ATOM     33  C   UNL A   1      32.982  35.393  30.989  1.00  0.00     0.251 C 
ATOM     34  H   UNL A   1      32.085  36.060  29.314  1.00  0.00     0.163 HD
ATOM     35  O   UNL A   1      32.058  35.767  31.709  1.00  0.00    -0.269 OA
BRANCH  33  36
ATOM     36  C   UNL A   1      34.134  34.675  31.605  1.00  0.00     0.039 A 
ATOM     37  C   UNL A   1      34.042  33.301  31.843  1.00  0.00     0.014 A 
ATOM     38  C   UNL A   1      35.291  35.347  31.991  1.00  0.00     0.014 A 
ATOM     39  C   UNL A   1      35.137  32.594  32.373  1.00  0.00     0.010 A 
ATOM     40  C   UNL A   1      36.399  34.636  32.480  1.00  0.00     0.010 A 
ATOM     41  C   UNL A   1      36.350  33.247  32.658  1.00  0.00    -0.014 A 
BRANCH  41  42
ATOM     42  C   UNL A   1      37.590  32.489  33.019  1.00  0.00     0.031 A 
ATOM     43  C   UNL A   1      38.307  32.690  34.332  1.00  0.00     0.074 A 
ATOM     44  C   UNL A   1      38.154  31.683  32.095  1.00  0.00     0.049 A 
ATOM     45  N   UNL A   1      39.424  32.150  34.758  1.00  0.00    -0.248 NA
ATOM     46  C   UNL A   1      37.711  33.645  35.277  1.00  0.00     0.031 C 
ATOM     47  C   UNL A   1      37.641  31.469  30.740  1.00  0.00     0.029 A 
ATOM     48  N   UNL A   1      39.293  30.916  32.140  1.00  0.00    -0.354 N 
ATOM     49  C   UNL A   1      39.696  32.736  35.991  1.00  0.00     0.074 A 
ATOM     50  C   UNL A   1      38.630  33.686  36.235  1.00  0.00     0.031 C 
ATOM     51  C   UNL A   1      38.448  30.614  30.092  1.00  0.00     0.029 A 
ATOM     52  C   UNL A   1      39.554  30.240  30.970  1.00  0.00     0.049 A 
ATOM     53  H   UNL A   1      39.870  30.855  32.936  1.00  0.00     0.167 HD
ATOM     54  C   UNL A   1      40.721  32.500  36.850  1.00  0.00     0.034 A 
ATOM     55  C   UNL A   1      40.563  29.413  30.630  1.00  0.00     0.034 A 
ATOM     56  C   UNL A   1      41.742  31.502  36.644  1.00  0.00     0.049 A 
ATOM     57  C   UNL A   1      41.630  29.085  31.639  1.00  0.00     0.074 A 
ATOM     58  C   UNL A   1      42.736  31.094  37.519  1.00  0.00     0.029 A 
ATOM     59  N   UNL A   1      41.907  30.759  35.487  1.00  0.00    -0.354 N 
ATOM     60  N   UNL A   1      41.768  29.524  32.865  1.00  0.00    -0.248 NA
ATOM     61  C   UNL A   1      42.658  28.116  31.229  1.00  0.00     0.031 C 
ATOM     62  C   UNL A   1      43.516  30.124  36.882  1.00  0.00     0.029 A 
ATOM     63  C   UNL A   1      42.988  29.901  35.621  1.00  0.00     0.049 A 
ATOM     64  H   UNL A   1      41.339  30.828  34.685  1.00  0.00     0.167 HD
ATOM     65  C   UNL A   1      42.871  28.856  33.386  1.00  0.00     0.074 A 
ATOM     66  C   UNL A   1      43.353  27.969  32.350  1.00  0.00     0.031 C 
ATOM     67  C   UNL A   1      43.439  28.979  34.611  1.00  0.00     0.034 A 
BRANCH  54  68
ATOM     68  C   UNL A   1      40.773  33.288  38.143  1.00  0.00     0.023 A 
ATOM     69  C   UNL A   1      40.134  32.784  39.293  1.00  0.00     0.012 A 
ATOM     70  C   UNL A   1      41.537  34.470  38.246  1.00  0.00     0.148 A 
ATOM     71  C   UNL A   1      40.214  33.461  40.510  1.00  0.00     0.002 A 
ATOM     72  C   UNL A   1      41.657  35.111  39.475  1.00  0.00     0.091 A 
ATOM     73  F   UNL A   1      42.136  34.943  37.144  1.00  0.00    -0.205 F 
ATOM     74  C   UNL A   1      40.984  34.616  40.604  1.00  0.00     0.022 A 
BRANCH  72  75
ATOM     75  S   UNL A   1      42.709  36.549  39.725  1.00  0.00     0.127 S 
ATOM     76  O   UNL A   1      44.018  36.030  39.323  1.00  0.00    -0.237 OA
ATOM     77  O   UNL A   1      42.130  37.517  38.791  1.00  0.00    -0.237 OA
ATOM     78  O   UNL A   1      42.581  36.903  41.127  1.00  0.00    -0.744 OA
ENDBRANCH  72  75
ENDBRANCH  54  68
BRANCH  55  79
ATOM     79  C   UNL A   1      40.568  28.766  29.287  1.00  0.00     0.023 A 
ATOM     80  C   UNL A   1      41.030  29.494  28.173  1.00  0.00     0.012 A 
ATOM     81  C   UNL A   1      40.148  27.434  29.113  1.00  0.00     0.148 A 
ATOM     82  C   UNL A   1      41.039  28.919  26.902  1.00  0.00     0.002 A 
ATOM     83  C   UNL A   1      40.215  26.848  27.855  1.00  0.00     0.091 A 
ATOM     84  F   UNL A   1      39.705  26.763  30.185  1.00  0.00    -0.205 F 
ATOM     85  C   UNL A   1      40.642  27.595  26.745  1.00  0.00     0.022 A 
BRANCH  83  86
ATOM     86  S   UNL A   1      39.855  25.110  27.583  1.00  0.00     0.127 S 
ATOM     87  O   UNL A   1      40.001  24.997  26.134  1.00  0.00    -0.237 OA
ATOM     88  O   UNL A   1      40.909  24.459  28.362  1.00  0.00    -0.237 OA
ATOM     89  O   UNL A   1      38.510  24.901  28.101  1.00  0.00    -0.744 OA
ENDBRANCH  83  86
ENDBRANCH  55  79
BRANCH  67  90
ATOM     90  C   UNL A   1      44.625  28.103  34.930  1.00  0.00     0.023 A 
ATOM     91  C   UNL A   1      45.934  28.589  34.740  1.00  0.00     0.012 A 
ATOM     92  C   UNL A   1      44.440  26.817  35.478  1.00  0.00     0.148 A 
ATOM     93  C   UNL A   1      47.039  27.797  35.056  1.00  0.00     0.002 A 
ATOM     94  C   UNL A   1      45.545  26.054  35.838  1.00  0.00     0.091 A 
ATOM     95  F   UNL A   1      43.188  26.363  35.635  1.00  0.00    -0.205 F 
ATOM     96  C   UNL A   1      46.844  26.536  35.615  1.00  0.00     0.022 A 
BRANCH  94  97
ATOM     97  S   UNL A   1      45.394  24.458  36.650  1.00  0.00     0.127 S 
ATOM     98  O   UNL A   1      46.761  23.945  36.554  1.00  0.00    -0.237 OA
ATOM     99  O   UNL A   1      44.977  24.835  38.000  1.00  0.00    -0.237 OA
ATOM    100  O   UNL A   1      44.396  23.714  35.893  1.00  0.00    -0.744 OA
ENDBRANCH  94  97
ENDBRANCH  67  90
ENDBRANCH  41  42
ENDBRANCH  33  36
ENDBRANCH  31  32
ENDBRANCH  30  31
ENDBRANCH  29  30
ENDBRANCH   1  29
TORSDOF 20
ENDMDL
MODEL 3
REMARK VINA RESULT:     -10.4      4.698      5.681
REMARK SMILES O=C(CS[C@H](C(=O)Nc1ccc(C(F)(F)F)cc1)c1ccccc1)NCCCCNC(=O)c1ccc(-c2c3nc(c(-c4cccc(S(=O)(=O)[O-])c4F)c4ccc([nH]4)c(-c4cccc(S(=O)(=O)[O-])c4F)c4nc(c(-c5cccc(S(=O)(=O)[O-])c5F)c5ccc2[nH]5)C=C4)C=C3)cc1
REMARK SMILES IDX 26 1 25 2 1 3 2 4 3 6 4 7 5 8 19 9 20 10 24 11 21 12 23 13
REMARK SMILES IDX 22 14 6 15 7 16 8 17 9 19 10 20 18 21 11 22 17 23 12 24
REMARK SMILES IDX 13 25 14 26 15 27 16 28 27 29 28 30 29 31 30 32 31 33 32 35
REMARK SMILES IDX 33 36 34 37 95 38 35 39 94 40 36 41 37 42 38 43 88 44 39 45
REMARK SMILES IDX 93 46 87 47 89 48 40 49 92 50 86 51 85 52 41 54 73 55 53 56
REMARK SMILES IDX 72 57 54 58 57 59 71 60 90 61 55 62 56 63 70 65 91 66 58 67
REMARK SMILES IDX 42 68 43 69 51 70 44 71 46 72 52 73 45 74 47 75 48 76 49 77
REMARK SMILES IDX 50 78 74 79 75 80 83 81 76 82 78 83 84 84 77 85 79 86 80 87
REMARK SMILES IDX 81 88 82 89 59 90 60 91 68 92 61 93 63 94 69 95 62 96 64 97
REMARK SMILES IDX 65 98 66 99 67 100
REMARK H PARENT 25 5 8 18 30 34 89 53 57 64
REMARK Flexibility Score: inf
ROOT
ATOM      1  C   UNL A   1      39.307  23.357  26.534  1.00  0.00     0.116 C 
ENDROOT
BRANCH   1   2
ATOM      2  N   UNL A   1      38.153  23.921  25.851  1.00  0.00    -0.355 N 
ATOM      3  O   UNL A   1      36.912  22.003  26.101  1.00  0.00    -0.274 OA
ATOM      4  C   UNL A   1      36.977  23.179  25.744  1.00  0.00     0.230 C 
ATOM      5  H   UNL A   1      38.202  24.824  25.464  1.00  0.00     0.163 HD
BRANCH   4   6
ATOM      6  C   UNL A   1      35.785  23.911  25.146  1.00  0.00     0.170 C 
BRANCH   6   7
ATOM      7  S   UNL A   1      34.168  23.527  25.924  1.00  0.00    -0.134 SA
BRANCH   7   8
ATOM      8  C   UNL A   1      33.082  25.018  25.637  1.00  0.00     0.166 C 
BRANCH   8   9
ATOM      9  C   UNL A   1      33.015  25.347  24.150  1.00  0.00    -0.026 A 
ATOM     10  C   UNL A   1      33.633  26.479  23.627  1.00  0.00     0.005 A 
ATOM     11  C   UNL A   1      32.386  24.491  23.232  1.00  0.00     0.005 A 
ATOM     12  C   UNL A   1      33.632  26.782  22.264  1.00  0.00     0.000 A 
ATOM     13  C   UNL A   1      32.418  24.760  21.854  1.00  0.00     0.000 A 
ATOM     14  C   UNL A   1      33.037  25.910  21.370  1.00  0.00     0.000 A 
ENDBRANCH   8   9
BRANCH   8  15
ATOM     15  C   UNL A   1      31.759  24.990  26.478  1.00  0.00     0.242 C 
ATOM     16  O   UNL A   1      31.438  24.048  27.208  1.00  0.00    -0.273 OA
ATOM     17  N   UNL A   1      30.968  26.133  26.516  1.00  0.00    -0.325 N 
ATOM     18  H   UNL A   1      30.601  26.391  27.393  1.00  0.00     0.169 HD
BRANCH  17  19
ATOM     19  C   UNL A   1      30.646  26.950  25.424  1.00  0.00     0.041 A 
ATOM     20  C   UNL A   1      29.797  26.532  24.406  1.00  0.00     0.027 A 
ATOM     21  C   UNL A   1      31.241  28.195  25.312  1.00  0.00     0.027 A 
ATOM     22  C   UNL A   1      29.393  27.453  23.421  1.00  0.00     0.015 A 
ATOM     23  C   UNL A   1      30.795  29.135  24.400  1.00  0.00     0.015 A 
ATOM     24  C   UNL A   1      29.834  28.787  23.459  1.00  0.00     0.056 A 
BRANCH  24  25
ATOM     25  C   UNL A   1      29.342  29.840  22.500  1.00  0.00     0.416 C 
ATOM     26  F   UNL A   1      29.370  31.084  23.033  1.00  0.00    -0.166 F 
ATOM     27  F   UNL A   1      30.053  29.880  21.346  1.00  0.00    -0.166 F 
ATOM     28  F   UNL A   1      28.043  29.635  22.126  1.00  0.00    -0.166 F 
ENDBRANCH  24  25
ENDBRANCH  17  19
ENDBRANCH   8  15
ENDBRANCH   7   8
ENDBRANCH   6   7
ENDBRANCH   4   6
ENDBRANCH   1   2
BRANCH   1  29
ATOM     29  C   UNL A   1      39.933  22.068  25.964  1.00  0.00     0.023 C 
BRANCH  29  30
ATOM     30  C   UNL A   1      40.939  21.230  26.777  1.00  0.00     0.023 C 
BRANCH  30  31
ATOM     31  C   UNL A   1      42.457  21.469  26.667  1.00  0.00     0.116 C 
BRANCH  31  32
ATOM     32  N   UNL A   1      42.937  22.195  25.505  1.00  0.00    -0.352 N 
ATOM     33  C   UNL A   1      43.258  23.537  25.383  1.00  0.00     0.251 C 
ATOM     34  H   UNL A   1      43.048  21.659  24.688  1.00  0.00     0.163 HD
ATOM     35  O   UNL A   1      43.691  23.954  24.310  1.00  0.00    -0.269 OA
BRANCH  33  36
ATOM     36  C   UNL A   1      43.069  24.496  26.508  1.00  0.00     0.039 A 
ATOM     37  C   UNL A   1      42.910  25.858  26.234  1.00  0.00     0.014 A 
ATOM     38  C   UNL A   1      43.088  24.077  27.836  1.00  0.00     0.014 A 
ATOM     39  C   UNL A   1      42.676  26.772  27.276  1.00  0.00     0.010 A 
ATOM     40  C   UNL A   1      42.811  24.983  28.873  1.00  0.00     0.010 A 
ATOM     41  C   UNL A   1      42.578  26.339  28.611  1.00  0.00    -0.014 A 
BRANCH  41  42
ATOM     42  C   UNL A   1      42.122  27.252  29.707  1.00  0.00     0.031 A 
ATOM     43  C   UNL A   1      42.738  27.232  31.085  1.00  0.00     0.074 A 
ATOM     44  C   UNL A   1      41.046  28.038  29.494  1.00  0.00     0.049 A 
ATOM     45  N   UNL A   1      42.407  27.920  32.151  1.00  0.00    -0.248 NA
ATOM     46  C   UNL A   1      43.849  26.296  31.304  1.00  0.00     0.031 C 
ATOM     47  C   UNL A   1      40.274  28.090  28.251  1.00  0.00     0.029 A 
ATOM     48  N   UNL A   1      40.398  28.925  30.321  1.00  0.00    -0.354 N 
ATOM     49  C   UNL A   1      43.227  27.465  33.180  1.00  0.00     0.074 A 
ATOM     50  C   UNL A   1      44.061  26.429  32.608  1.00  0.00     0.031 C 
ATOM     51  C   UNL A   1      39.273  28.973  28.389  1.00  0.00     0.029 A 
ATOM     52  C   UNL A   1      39.308  29.531  29.738  1.00  0.00     0.049 A 
ATOM     53  H   UNL A   1      40.687  29.109  31.244  1.00  0.00     0.167 HD
ATOM     54  C   UNL A   1      43.296  27.876  34.472  1.00  0.00     0.034 A 
ATOM     55  C   UNL A   1      38.431  30.432  30.225  1.00  0.00     0.034 A 
ATOM     56  C   UNL A   1      42.518  28.959  35.025  1.00  0.00     0.049 A 
ATOM     57  C   UNL A   1      38.595  30.951  31.627  1.00  0.00     0.074 A 
ATOM     58  C   UNL A   1      42.620  29.539  36.279  1.00  0.00     0.029 A 
ATOM     59  N   UNL A   1      41.497  29.623  34.366  1.00  0.00    -0.354 N 
ATOM     60  N   UNL A   1      39.490  30.627  32.527  1.00  0.00    -0.248 NA
ATOM     61  C   UNL A   1      37.651  31.990  32.067  1.00  0.00     0.031 C 
ATOM     62  C   UNL A   1      41.643  30.534  36.387  1.00  0.00     0.029 A 
ATOM     63  C   UNL A   1      40.955  30.600  35.187  1.00  0.00     0.049 A 
ATOM     64  H   UNL A   1      41.199  29.430  33.447  1.00  0.00     0.167 HD
ATOM     65  C   UNL A   1      39.243  31.448  33.622  1.00  0.00     0.074 A 
ATOM     66  C   UNL A   1      38.127  32.298  33.266  1.00  0.00     0.031 C 
ATOM     67  C   UNL A   1      39.879  31.483  34.818  1.00  0.00     0.034 A 
BRANCH  54  68
ATOM     68  C   UNL A   1      44.294  27.203  35.390  1.00  0.00     0.023 A 
ATOM     69  C   UNL A   1      43.911  26.057  36.117  1.00  0.00     0.012 A 
ATOM     70  C   UNL A   1      45.635  27.638  35.455  1.00  0.00     0.148 A 
ATOM     71  C   UNL A   1      44.828  25.384  36.926  1.00  0.00     0.002 A 
ATOM     72  C   UNL A   1      46.556  26.930  36.221  1.00  0.00     0.091 A 
ATOM     73  F   UNL A   1      45.987  28.731  34.763  1.00  0.00    -0.205 F 
ATOM     74  C   UNL A   1      46.150  25.813  36.969  1.00  0.00     0.022 A 
BRANCH  72  75
ATOM     75  S   UNL A   1      48.308  27.340  36.262  1.00  0.00     0.127 S 
ATOM     76  O   UNL A   1      48.285  28.666  36.882  1.00  0.00    -0.237 OA
ATOM     77  O   UNL A   1      48.850  26.281  37.116  1.00  0.00    -0.237 OA
ATOM     78  O   UNL A   1      48.763  27.302  34.883  1.00  0.00    -0.744 OA
ENDBRANCH  72  75
ENDBRANCH  54  68
BRANCH  55  79
ATOM     79  C   UNL A   1      37.357  30.969  29.341  1.00  0.00     0.023 A 
ATOM     80  C   UNL A   1      37.368  32.334  28.992  1.00  0.00     0.012 A 
ATOM     81  C   UNL A   1      36.347  30.136  28.824  1.00  0.00     0.148 A 
ATOM     82  C   UNL A   1      36.373  32.868  28.174  1.00  0.00     0.002 A 
ATOM     83  C   UNL A   1      35.392  30.661  27.962  1.00  0.00     0.091 A 
ATOM     84  F   UNL A   1      36.351  28.842  29.175  1.00  0.00    -0.205 F 
ATOM     85  C   UNL A   1      35.392  32.030  27.651  1.00  0.00     0.022 A 
BRANCH  83  86
ATOM     86  S   UNL A   1      34.175  29.632  27.133  1.00  0.00     0.127 S 
ATOM     87  O   UNL A   1      33.541  28.953  28.259  1.00  0.00    -0.237 OA
ATOM     88  O   UNL A   1      33.342  30.633  26.466  1.00  0.00    -0.237 OA
ATOM     89  O   UNL A   1      34.933  28.780  26.226  1.00  0.00    -0.744 OA
ENDBRANCH  83  86
ENDBRANCH  55  79
BRANCH  67  90
ATOM     90  C   UNL A   1      39.421  32.504  35.831  1.00  0.00     0.023 A 
ATOM     91  C   UNL A   1      38.475  32.150  36.813  1.00  0.00     0.012 A 
ATOM     92  C   UNL A   1      39.980  33.799  35.846  1.00  0.00     0.148 A 
ATOM     93  C   UNL A   1      38.063  33.078  37.770  1.00  0.00     0.002 A 
ATOM     94  C   UNL A   1      39.603  34.702  36.834  1.00  0.00     0.091 A 
ATOM     95  F   UNL A   1      40.865  34.124  34.894  1.00  0.00    -0.205 F 
ATOM     96  C   UNL A   1      38.635  34.348  37.787  1.00  0.00     0.022 A 
BRANCH  94  97
ATOM     97  S   UNL A   1      40.352  36.327  36.994  1.00  0.00     0.127 S 
ATOM     98  O   UNL A   1      40.024  36.934  35.704  1.00  0.00    -0.237 OA
ATOM     99  O   UNL A   1      39.630  36.890  38.135  1.00  0.00    -0.237 OA
ATOM    100  O   UNL A   1      41.771  36.095  37.230  1.00  0.00    -0.744 OA
ENDBRANCH  94  97
ENDBRANCH  67  90
ENDBRANCH  41  42
ENDBRANCH  33  36
ENDBRANCH  31  32
ENDBRANCH  30  31
ENDBRANCH  29  30
ENDBRANCH   1  29
TORSDOF 20
ENDMDL
