MODEL 1
REMARK VINA RESULT:     -11.6      0.000      0.000
REMARK SMILES CC1(C)[C@H](C#N)C(SCC(=O)NCCCCNC(=O)c2ccc(-c3c4nc(c(-c5cccc(S(=O)(=O)[O-])c5F)c5ccc([nH]5)c(-c5cccc(S(=O)(=O)[O-])c5F)c5nc(c(-c6cccc(S(=O)(=O)[O-])c6F)c6ccc3[nH]6)C=C5)C=C4)cc2)=NC(=O)[C@@H]1C#N
REMARK SMILES IDX 14 1 13 2 12 3 10 4 11 5 9 7 8 8 7 9 1 10 2 11 3 12 4 13
REMARK SMILES IDX 86 14 84 15 83 16 85 17 5 18 6 19 87 20 88 21 15 22 16 23
REMARK SMILES IDX 17 24 18 25 19 27 20 28 21 29 82 30 22 31 81 32 23 33 24 34
REMARK SMILES IDX 25 35 75 36 26 37 80 38 74 39 76 40 27 41 79 42 73 43 72 44
REMARK SMILES IDX 28 46 60 47 40 48 59 49 41 50 44 51 58 52 77 53 42 54 43 55
REMARK SMILES IDX 57 57 78 58 45 59 29 60 30 61 38 62 31 63 33 64 39 65 32 66
REMARK SMILES IDX 34 67 35 68 36 69 37 70 61 71 62 72 70 73 63 74 65 75 71 76
REMARK SMILES IDX 64 77 66 78 67 79 68 80 69 81 46 82 47 83 55 84 48 85 50 86
REMARK SMILES IDX 56 87 49 88 51 89 52 90 53 91 54 92
REMARK H PARENT 12 6 17 26 76 45 44 56
REMARK Flexibility Score: inf
ROOT
ATOM      1  C   UNL A   1      31.915  30.592  26.616  1.00  0.00     0.023 C 
ENDROOT
BRANCH   1   2
ATOM      2  C   UNL A   1      31.446  30.084  25.251  1.00  0.00     0.116 C 
BRANCH   2   3
ATOM      3  N   UNL A   1      32.564  29.641  24.440  1.00  0.00    -0.355 N 
ATOM      4  C   UNL A   1      33.103  28.397  24.285  1.00  0.00     0.230 C 
ATOM      5  O   UNL A   1      34.016  28.269  23.468  1.00  0.00    -0.274 OA
ATOM      6  H   UNL A   1      33.003  30.349  23.917  1.00  0.00     0.163 HD
BRANCH   4   7
ATOM      7  C   UNL A   1      32.525  27.197  25.008  1.00  0.00     0.176 C 
BRANCH   7   8
ATOM      8  S   UNL A   1      33.757  26.141  25.802  1.00  0.00    -0.099 SA
BRANCH   8   9
ATOM      9  C   UNL A   1      33.635  24.616  24.921  1.00  0.00     0.095 C 
ATOM     10  C   UNL A   1      34.355  21.096  25.651  1.00  0.00     0.015 C 
ATOM     11  C   UNL A   1      33.268  22.033  25.051  1.00  0.00     0.012 C 
ATOM     12  C   UNL A   1      31.923  21.291  25.382  1.00  0.00     0.015 C 
ATOM     13  C   UNL A   1      33.393  23.416  25.799  1.00  0.00     0.156 C 
ATOM     14  C   UNL A   1      33.512  22.128  23.502  1.00  0.00     0.191 C 
ATOM     15  C   UNL A   1      33.594  23.511  22.873  1.00  0.00     0.264 C 
ATOM     16  N   UNL A   1      33.716  24.630  23.645  1.00  0.00    -0.209 NA
ATOM     17  O   UNL A   1      33.607  23.617  21.648  1.00  0.00    -0.271 OA
BRANCH  13  18
ATOM     18  C   UNL A   1      32.079  23.704  26.505  1.00  0.00     0.073 C 
ATOM     19  N   UNL A   1      30.988  23.944  27.090  1.00  0.00    -0.198 NA
ENDBRANCH  13  18
BRANCH  14  20
ATOM     20  C   UNL A   1      32.513  21.367  22.712  1.00  0.00     0.076 C 
ATOM     21  N   UNL A   1      31.792  20.740  22.056  1.00  0.00    -0.197 NA
ENDBRANCH  14  20
ENDBRANCH   8   9
ENDBRANCH   7   8
ENDBRANCH   4   7
ENDBRANCH   2   3
ENDBRANCH   1   2
BRANCH   1  22
ATOM     22  C   UNL A   1      31.682  32.088  26.840  1.00  0.00     0.023 C 
BRANCH  22  23
ATOM     23  C   UNL A   1      32.865  32.834  27.443  1.00  0.00     0.116 C 
BRANCH  23  24
ATOM     24  N   UNL A   1      32.548  34.220  27.757  1.00  0.00    -0.352 N 
ATOM     25  C   UNL A   1      33.094  35.029  28.725  1.00  0.00     0.251 C 
ATOM     26  H   UNL A   1      31.849  34.633  27.200  1.00  0.00     0.163 HD
ATOM     27  O   UNL A   1      32.591  36.125  28.961  1.00  0.00    -0.269 OA
BRANCH  25  28
ATOM     28  C   UNL A   1      34.263  34.558  29.498  1.00  0.00     0.039 A 
ATOM     29  C   UNL A   1      34.052  33.947  30.736  1.00  0.00     0.014 A 
ATOM     30  C   UNL A   1      35.558  34.690  28.990  1.00  0.00     0.014 A 
ATOM     31  C   UNL A   1      35.135  33.408  31.432  1.00  0.00     0.010 A 
ATOM     32  C   UNL A   1      36.622  34.076  29.643  1.00  0.00     0.010 A 
ATOM     33  C   UNL A   1      36.424  33.430  30.873  1.00  0.00    -0.014 A 
BRANCH  33  34
ATOM     34  C   UNL A   1      37.568  32.764  31.549  1.00  0.00     0.031 A 
ATOM     35  C   UNL A   1      38.271  31.605  30.895  1.00  0.00     0.074 A 
ATOM     36  C   UNL A   1      37.926  33.154  32.790  1.00  0.00     0.049 A 
ATOM     37  N   UNL A   1      39.252  30.873  31.354  1.00  0.00    -0.248 NA
ATOM     38  C   UNL A   1      37.796  31.199  29.561  1.00  0.00     0.031 C 
ATOM     39  C   UNL A   1      37.278  34.217  33.563  1.00  0.00     0.029 A 
ATOM     40  N   UNL A   1      38.905  32.685  33.631  1.00  0.00    -0.354 N 
ATOM     41  C   UNL A   1      39.490  29.904  30.386  1.00  0.00     0.074 A 
ATOM     42  C   UNL A   1      38.528  30.120  29.329  1.00  0.00     0.031 C 
ATOM     43  C   UNL A   1      37.880  34.324  34.757  1.00  0.00     0.029 A 
ATOM     44  C   UNL A   1      38.927  33.312  34.856  1.00  0.00     0.049 A 
ATOM     45  H   UNL A   1      39.532  31.968  33.381  1.00  0.00     0.167 HD
ATOM     46  C   UNL A   1      40.437  28.936  30.369  1.00  0.00     0.034 A 
ATOM     47  C   UNL A   1      39.688  33.084  35.945  1.00  0.00     0.034 A 
ATOM     48  C   UNL A   1      41.408  28.738  31.411  1.00  0.00     0.049 A 
ATOM     49  C   UNL A   1      40.738  32.008  35.892  1.00  0.00     0.074 A 
ATOM     50  C   UNL A   1      42.459  27.838  31.444  1.00  0.00     0.029 A 
ATOM     51  N   UNL A   1      41.438  29.432  32.610  1.00  0.00    -0.354 N 
ATOM     52  N   UNL A   1      41.047  31.202  34.906  1.00  0.00    -0.248 NA
ATOM     53  C   UNL A   1      41.568  31.830  37.093  1.00  0.00     0.031 C 
ATOM     54  C   UNL A   1      43.094  27.955  32.684  1.00  0.00     0.029 A 
ATOM     55  C   UNL A   1      42.475  28.966  33.400  1.00  0.00     0.049 A 
ATOM     56  H   UNL A   1      40.813  30.150  32.862  1.00  0.00     0.167 HD
ATOM     57  C   UNL A   1      42.130  30.452  35.350  1.00  0.00     0.074 A 
ATOM     58  C   UNL A   1      42.437  30.914  36.688  1.00  0.00     0.031 C 
ATOM     59  C   UNL A   1      42.802  29.463  34.711  1.00  0.00     0.034 A 
BRANCH  46  60
ATOM     60  C   UNL A   1      40.494  28.029  29.166  1.00  0.00     0.023 A 
ATOM     61  C   UNL A   1      39.559  26.983  29.030  1.00  0.00     0.012 A 
ATOM     62  C   UNL A   1      41.429  28.257  28.137  1.00  0.00     0.148 A 
ATOM     63  C   UNL A   1      39.574  26.157  27.906  1.00  0.00     0.002 A 
ATOM     64  C   UNL A   1      41.406  27.461  26.998  1.00  0.00     0.091 A 
ATOM     65  F   UNL A   1      42.322  29.244  28.293  1.00  0.00    -0.205 F 
ATOM     66  C   UNL A   1      40.489  26.404  26.887  1.00  0.00     0.022 A 
BRANCH  64  67
ATOM     67  S   UNL A   1      42.487  27.749  25.592  1.00  0.00     0.127 S 
ATOM     68  O   UNL A   1      42.275  26.534  24.806  1.00  0.00    -0.237 OA
ATOM     69  O   UNL A   1      41.911  28.961  25.009  1.00  0.00    -0.237 OA
ATOM     70  O   UNL A   1      43.827  27.910  26.138  1.00  0.00    -0.744 OA
ENDBRANCH  64  67
ENDBRANCH  46  60
BRANCH  47  71
ATOM     71  C   UNL A   1      39.510  33.914  37.171  1.00  0.00     0.023 A 
ATOM     72  C   UNL A   1      40.008  35.231  37.203  1.00  0.00     0.012 A 
ATOM     73  C   UNL A   1      38.847  33.404  38.304  1.00  0.00     0.148 A 
ATOM     74  C   UNL A   1      39.890  36.009  38.356  1.00  0.00     0.002 A 
ATOM     75  C   UNL A   1      38.677  34.205  39.426  1.00  0.00     0.091 A 
ATOM     76  F   UNL A   1      38.386  32.146  38.257  1.00  0.00    -0.205 F 
ATOM     77  C   UNL A   1      39.217  35.500  39.463  1.00  0.00     0.022 A 
BRANCH  75  78
ATOM     78  S   UNL A   1      37.706  33.683  40.844  1.00  0.00     0.127 S 
ATOM     79  O   UNL A   1      37.481  34.950  41.536  1.00  0.00    -0.237 OA
ATOM     80  O   UNL A   1      36.523  33.109  40.202  1.00  0.00    -0.237 OA
ATOM     81  O   UNL A   1      38.532  32.714  41.552  1.00  0.00    -0.744 OA
ENDBRANCH  75  78
ENDBRANCH  47  71
BRANCH  59  82
ATOM     82  C   UNL A   1      43.977  28.841  35.422  1.00  0.00     0.023 A 
ATOM     83  C   UNL A   1      45.271  29.371  35.253  1.00  0.00     0.012 A 
ATOM     84  C   UNL A   1      43.779  27.771  36.318  1.00  0.00     0.148 A 
ATOM     85  C   UNL A   1      46.357  28.820  35.935  1.00  0.00     0.002 A 
ATOM     86  C   UNL A   1      44.855  27.265  37.036  1.00  0.00     0.091 A 
ATOM     87  F   UNL A   1      42.542  27.272  36.454  1.00  0.00    -0.205 F 
ATOM     88  C   UNL A   1      46.147  27.776  36.834  1.00  0.00     0.022 A 
BRANCH  86  89
ATOM     89  S   UNL A   1      44.665  25.991  38.288  1.00  0.00     0.127 S 
ATOM     90  O   UNL A   1      43.758  26.638  39.234  1.00  0.00    -0.237 OA
ATOM     91  O   UNL A   1      44.070  24.894  37.523  1.00  0.00    -0.237 OA
ATOM     92  O   UNL A   1      46.003  25.720  38.797  1.00  0.00    -0.744 OA
ENDBRANCH  86  89
ENDBRANCH  59  82
ENDBRANCH  33  34
ENDBRANCH  25  28
ENDBRANCH  23  24
ENDBRANCH  22  23
ENDBRANCH   1  22
TORSDOF 18
ENDMDL
MODEL 2
REMARK VINA RESULT:     -11.3      2.411      8.253
REMARK SMILES CC1(C)[C@H](C#N)C(SCC(=O)NCCCCNC(=O)c2ccc(-c3c4nc(c(-c5cccc(S(=O)(=O)[O-])c5F)c5ccc([nH]5)c(-c5cccc(S(=O)(=O)[O-])c5F)c5nc(c(-c6cccc(S(=O)(=O)[O-])c6F)c6ccc3[nH]6)C=C5)C=C4)cc2)=NC(=O)[C@@H]1C#N
REMARK SMILES IDX 14 1 13 2 12 3 10 4 11 5 9 7 8 8 7 9 1 10 2 11 3 12 4 13
REMARK SMILES IDX 86 14 84 15 83 16 85 17 5 18 6 19 87 20 88 21 15 22 16 23
REMARK SMILES IDX 17 24 18 25 19 27 20 28 21 29 82 30 22 31 81 32 23 33 24 34
REMARK SMILES IDX 25 35 75 36 26 37 80 38 74 39 76 40 27 41 79 42 73 43 72 44
REMARK SMILES IDX 28 46 60 47 40 48 59 49 41 50 44 51 58 52 77 53 42 54 43 55
REMARK SMILES IDX 57 57 78 58 45 59 29 60 30 61 38 62 31 63 33 64 39 65 32 66
REMARK SMILES IDX 34 67 35 68 36 69 37 70 61 71 62 72 70 73 63 74 65 75 71 76
REMARK SMILES IDX 64 77 66 78 67 79 68 80 69 81 46 82 47 83 55 84 48 85 50 86
REMARK SMILES IDX 56 87 49 88 51 89 52 90 53 91 54 92
REMARK H PARENT 12 6 17 26 76 45 44 56
REMARK Flexibility Score: inf
ROOT
ATOM      1  C   UNL A   1      30.724  29.435  24.102  1.00  0.00     0.023 C 
ENDROOT
BRANCH   1   2
ATOM      2  C   UNL A   1      30.933  28.420  22.976  1.00  0.00     0.116 C 
BRANCH   2   3
ATOM      3  N   UNL A   1      32.202  28.626  22.307  1.00  0.00    -0.355 N 
ATOM      4  C   UNL A   1      33.356  27.901  22.363  1.00  0.00     0.230 C 
ATOM      5  O   UNL A   1      34.284  28.248  21.630  1.00  0.00    -0.274 OA
ATOM      6  H   UNL A   1      32.237  29.414  21.717  1.00  0.00     0.163 HD
BRANCH   4   7
ATOM      7  C   UNL A   1      33.455  26.648  23.210  1.00  0.00     0.176 C 
BRANCH   7   8
ATOM      8  S   UNL A   1      32.774  25.167  22.431  1.00  0.00    -0.099 SA
BRANCH   8   9
ATOM      9  C   UNL A   1      32.741  23.982  23.738  1.00  0.00     0.095 C 
ATOM     10  C   UNL A   1      32.645  20.324  23.965  1.00  0.00     0.015 C 
ATOM     11  C   UNL A   1      33.376  21.574  24.532  1.00  0.00     0.012 C 
ATOM     12  C   UNL A   1      34.818  21.042  24.854  1.00  0.00     0.015 C 
ATOM     13  C   UNL A   1      33.375  22.661  23.387  1.00  0.00     0.156 C 
ATOM     14  C   UNL A   1      32.621  22.028  25.834  1.00  0.00     0.191 C 
ATOM     15  C   UNL A   1      32.203  23.486  25.948  1.00  0.00     0.264 C 
ATOM     16  N   UNL A   1      32.239  24.317  24.865  1.00  0.00    -0.209 NA
ATOM     17  O   UNL A   1      31.772  23.908  27.020  1.00  0.00    -0.271 OA
BRANCH  13  18
ATOM     18  C   UNL A   1      34.816  22.997  23.040  1.00  0.00     0.073 C 
ATOM     19  N   UNL A   1      36.011  23.274  22.751  1.00  0.00    -0.198 NA
ENDBRANCH  13  18
BRANCH  14  20
ATOM     20  C   UNL A   1      33.368  21.707  27.075  1.00  0.00     0.076 C 
ATOM     21  N   UNL A   1      34.016  21.453  28.001  1.00  0.00    -0.197 NA
ENDBRANCH  14  20
ENDBRANCH   8   9
ENDBRANCH   7   8
ENDBRANCH   4   7
ENDBRANCH   2   3
ENDBRANCH   1   2
BRANCH   1  22
ATOM     22  C   UNL A   1      31.419  29.064  25.414  1.00  0.00     0.023 C 
BRANCH  22  23
ATOM     23  C   UNL A   1      32.688  29.853  25.709  1.00  0.00     0.116 C 
BRANCH  23  24
ATOM     24  N   UNL A   1      32.408  31.195  26.201  1.00  0.00    -0.352 N 
ATOM     25  C   UNL A   1      33.071  31.912  27.169  1.00  0.00     0.251 C 
ATOM     26  H   UNL A   1      31.641  31.650  25.783  1.00  0.00     0.163 HD
ATOM     27  O   UNL A   1      32.599  32.968  27.578  1.00  0.00    -0.269 OA
BRANCH  25  28
ATOM     28  C   UNL A   1      34.332  31.385  27.733  1.00  0.00     0.039 A 
ATOM     29  C   UNL A   1      35.374  32.275  28.005  1.00  0.00     0.014 A 
ATOM     30  C   UNL A   1      34.475  30.026  28.022  1.00  0.00     0.014 A 
ATOM     31  C   UNL A   1      36.532  31.810  28.629  1.00  0.00     0.010 A 
ATOM     32  C   UNL A   1      35.593  29.581  28.721  1.00  0.00     0.010 A 
ATOM     33  C   UNL A   1      36.636  30.468  29.031  1.00  0.00    -0.014 A 
BRANCH  33  34
ATOM     34  C   UNL A   1      37.815  29.982  29.794  1.00  0.00     0.031 A 
ATOM     35  C   UNL A   1      38.083  30.486  31.186  1.00  0.00     0.074 A 
ATOM     36  C   UNL A   1      38.690  29.142  29.203  1.00  0.00     0.049 A 
ATOM     37  N   UNL A   1      39.084  30.213  31.982  1.00  0.00    -0.248 NA
ATOM     38  C   UNL A   1      37.114  31.439  31.752  1.00  0.00     0.031 C 
ATOM     39  C   UNL A   1      38.583  28.636  27.832  1.00  0.00     0.029 A 
ATOM     40  N   UNL A   1      39.856  28.586  29.669  1.00  0.00    -0.354 N 
ATOM     41  C   UNL A   1      38.886  30.980  33.124  1.00  0.00     0.074 A 
ATOM     42  C   UNL A   1      37.686  31.757  32.904  1.00  0.00     0.031 C 
ATOM     43  C   UNL A   1      39.632  27.841  27.572  1.00  0.00     0.029 A 
ATOM     44  C   UNL A   1      40.510  27.813  28.738  1.00  0.00     0.049 A 
ATOM     45  H   UNL A   1      40.192  28.728  30.584  1.00  0.00     0.167 HD
ATOM     46  C   UNL A   1      39.621  31.019  34.259  1.00  0.00     0.034 A 
ATOM     47  C   UNL A   1      41.693  27.170  28.805  1.00  0.00     0.034 A 
ATOM     48  C   UNL A   1      40.801  30.228  34.485  1.00  0.00     0.049 A 
ATOM     49  C   UNL A   1      42.484  27.225  30.083  1.00  0.00     0.074 A 
ATOM     50  C   UNL A   1      41.566  30.137  35.633  1.00  0.00     0.029 A 
ATOM     51  N   UNL A   1      41.400  29.410  33.540  1.00  0.00    -0.354 N 
ATOM     52  N   UNL A   1      42.199  27.837  31.206  1.00  0.00    -0.248 NA
ATOM     53  C   UNL A   1      43.747  26.472  30.116  1.00  0.00     0.031 C 
ATOM     54  C   UNL A   1      42.655  29.301  35.368  1.00  0.00     0.029 A 
ATOM     55  C   UNL A   1      42.537  28.827  34.072  1.00  0.00     0.049 A 
ATOM     56  H   UNL A   1      41.065  29.265  32.625  1.00  0.00     0.167 HD
ATOM     57  C   UNL A   1      43.222  27.512  32.089  1.00  0.00     0.074 A 
ATOM     58  C   UNL A   1      44.124  26.631  31.377  1.00  0.00     0.031 C 
ATOM     59  C   UNL A   1      43.403  27.915  33.371  1.00  0.00     0.034 A 
BRANCH  46  60
ATOM     60  C   UNL A   1      39.157  31.928  35.368  1.00  0.00     0.023 A 
ATOM     61  C   UNL A   1      39.329  33.323  35.253  1.00  0.00     0.012 A 
ATOM     62  C   UNL A   1      38.486  31.406  36.492  1.00  0.00     0.148 A 
ATOM     63  C   UNL A   1      38.871  34.181  36.253  1.00  0.00     0.002 A 
ATOM     64  C   UNL A   1      37.989  32.271  37.460  1.00  0.00     0.091 A 
ATOM     65  F   UNL A   1      38.348  30.077  36.593  1.00  0.00    -0.205 F 
ATOM     66  C   UNL A   1      38.193  33.656  37.348  1.00  0.00     0.022 A 
BRANCH  64  67
ATOM     67  S   UNL A   1      37.028  31.704  38.868  1.00  0.00     0.127 S 
ATOM     68  O   UNL A   1      35.917  32.654  38.866  1.00  0.00    -0.237 OA
ATOM     69  O   UNL A   1      36.669  30.345  38.462  1.00  0.00    -0.237 OA
ATOM     70  O   UNL A   1      37.913  31.784  40.021  1.00  0.00    -0.744 OA
ENDBRANCH  64  67
ENDBRANCH  46  60
BRANCH  47  71
ATOM     71  C   UNL A   1      42.190  26.390  27.635  1.00  0.00     0.023 A 
ATOM     72  C   UNL A   1      42.983  27.025  26.658  1.00  0.00     0.012 A 
ATOM     73  C   UNL A   1      41.884  25.023  27.488  1.00  0.00     0.148 A 
ATOM     74  C   UNL A   1      43.421  26.324  25.533  1.00  0.00     0.002 A 
ATOM     75  C   UNL A   1      42.377  24.316  26.399  1.00  0.00     0.091 A 
ATOM     76  F   UNL A   1      41.123  24.440  28.425  1.00  0.00    -0.205 F 
ATOM     77  C   UNL A   1      43.127  24.969  25.409  1.00  0.00     0.022 A 
BRANCH  75  78
ATOM     78  S   UNL A   1      42.163  22.541  26.228  1.00  0.00     0.127 S 
ATOM     79  O   UNL A   1      42.931  22.263  25.016  1.00  0.00    -0.237 OA
ATOM     80  O   UNL A   1      42.762  22.046  27.467  1.00  0.00    -0.237 OA
ATOM     81  O   UNL A   1      40.726  22.325  26.129  1.00  0.00    -0.744 OA
ENDBRANCH  75  78
ENDBRANCH  47  71
BRANCH  59  82
ATOM     82  C   UNL A   1      44.594  27.368  34.116  1.00  0.00     0.023 A 
ATOM     83  C   UNL A   1      45.818  28.067  34.111  1.00  0.00     0.012 A 
ATOM     84  C   UNL A   1      44.473  26.192  34.883  1.00  0.00     0.148 A 
ATOM     85  C   UNL A   1      46.913  27.582  34.825  1.00  0.00     0.002 A 
ATOM     86  C   UNL A   1      45.551  25.746  35.637  1.00  0.00     0.091 A 
ATOM     87  F   UNL A   1      43.305  25.534  34.863  1.00  0.00    -0.205 F 
ATOM     88  C   UNL A   1      46.776  26.430  35.597  1.00  0.00     0.022 A 
BRANCH  86  89
ATOM     89  S   UNL A   1      45.438  24.332  36.738  1.00  0.00     0.127 S 
ATOM     90  O   UNL A   1      44.938  23.293  35.838  1.00  0.00    -0.237 OA
ATOM     91  O   UNL A   1      46.829  24.157  37.159  1.00  0.00    -0.237 OA
ATOM     92  O   UNL A   1      44.525  24.720  37.805  1.00  0.00    -0.744 OA
ENDBRANCH  86  89
ENDBRANCH  59  82
ENDBRANCH  33  34
ENDBRANCH  25  28
ENDBRANCH  23  24
ENDBRANCH  22  23
ENDBRANCH   1  22
TORSDOF 18
ENDMDL
MODEL 3
REMARK VINA RESULT:     -11.2      6.284     11.649
REMARK SMILES CC1(C)[C@H](C#N)C(SCC(=O)NCCCCNC(=O)c2ccc(-c3c4nc(c(-c5cccc(S(=O)(=O)[O-])c5F)c5ccc([nH]5)c(-c5cccc(S(=O)(=O)[O-])c5F)c5nc(c(-c6cccc(S(=O)(=O)[O-])c6F)c6ccc3[nH]6)C=C5)C=C4)cc2)=NC(=O)[C@@H]1C#N
REMARK SMILES IDX 14 1 13 2 12 3 10 4 11 5 9 7 8 8 7 9 1 10 2 11 3 12 4 13
REMARK SMILES IDX 86 14 84 15 83 16 85 17 5 18 6 19 87 20 88 21 15 22 16 23
REMARK SMILES IDX 17 24 18 25 19 27 20 28 21 29 82 30 22 31 81 32 23 33 24 34
REMARK SMILES IDX 25 35 75 36 26 37 80 38 74 39 76 40 27 41 79 42 73 43 72 44
REMARK SMILES IDX 28 46 60 47 40 48 59 49 41 50 44 51 58 52 77 53 42 54 43 55
REMARK SMILES IDX 57 57 78 58 45 59 29 60 30 61 38 62 31 63 33 64 39 65 32 66
REMARK SMILES IDX 34 67 35 68 36 69 37 70 61 71 62 72 70 73 63 74 65 75 71 76
REMARK SMILES IDX 64 77 66 78 67 79 68 80 69 81 46 82 47 83 55 84 48 85 50 86
REMARK SMILES IDX 56 87 49 88 51 89 52 90 53 91 54 92
REMARK H PARENT 12 6 17 26 76 45 44 56
REMARK Flexibility Score: inf
ROOT
ATOM      1  C   UNL A   1      36.627  19.291  24.790  1.00  0.00     0.023 C 
ENDROOT
BRANCH   1   2
ATOM      2  C   UNL A   1      35.664  20.455  25.036  1.00  0.00     0.116 C 
BRANCH   2   3
ATOM      3  N   UNL A   1      34.305  19.985  25.220  1.00  0.00    -0.355 N 
ATOM      4  C   UNL A   1      33.116  20.582  24.912  1.00  0.00     0.230 C 
ATOM      5  O   UNL A   1      32.086  19.933  25.102  1.00  0.00    -0.274 OA
ATOM      6  H   UNL A   1      34.225  19.095  25.631  1.00  0.00     0.163 HD
BRANCH   4   7
ATOM      7  C   UNL A   1      33.071  21.946  24.255  1.00  0.00     0.176 C 
BRANCH   7   8
ATOM      8  S   UNL A   1      31.416  22.488  23.775  1.00  0.00    -0.099 SA
BRANCH   8   9
ATOM      9  C   UNL A   1      31.624  24.202  23.408  1.00  0.00     0.095 C 
ATOM     10  C   UNL A   1      29.490  27.182  23.488  1.00  0.00     0.015 C 
ATOM     11  C   UNL A   1      30.890  26.657  23.918  1.00  0.00     0.012 C 
ATOM     12  C   UNL A   1      31.207  27.482  25.216  1.00  0.00     0.015 C 
ATOM     13  C   UNL A   1      30.730  25.114  24.207  1.00  0.00     0.156 C 
ATOM     14  C   UNL A   1      31.904  26.981  22.762  1.00  0.00     0.191 C 
ATOM     15  C   UNL A   1      32.773  25.850  22.233  1.00  0.00     0.264 C 
ATOM     16  N   UNL A   1      32.510  24.549  22.555  1.00  0.00    -0.209 NA
ATOM     17  O   UNL A   1      33.693  26.107  21.460  1.00  0.00    -0.271 OA
BRANCH  13  18
ATOM     18  C   UNL A   1      31.098  24.855  25.658  1.00  0.00     0.073 C 
ATOM     19  N   UNL A   1      31.403  24.640  26.863  1.00  0.00    -0.198 NA
ENDBRANCH  13  18
BRANCH  14  20
ATOM     20  C   UNL A   1      32.825  28.095  23.097  1.00  0.00     0.076 C 
ATOM     21  N   UNL A   1      33.533  28.948  23.435  1.00  0.00    -0.197 NA
ENDBRANCH  14  20
ENDBRANCH   8   9
ENDBRANCH   7   8
ENDBRANCH   4   7
ENDBRANCH   2   3
ENDBRANCH   1   2
BRANCH   1  22
ATOM     22  C   UNL A   1      38.083  19.716  24.591  1.00  0.00     0.023 C 
BRANCH  22  23
ATOM     23  C   UNL A   1      38.837  20.031  25.877  1.00  0.00     0.116 C 
BRANCH  23  24
ATOM     24  N   UNL A   1      40.038  19.223  26.030  1.00  0.00    -0.352 N 
ATOM     25  C   UNL A   1      41.321  19.632  26.307  1.00  0.00     0.251 C 
ATOM     26  H   UNL A   1      39.915  18.252  25.922  1.00  0.00     0.163 HD
ATOM     27  O   UNL A   1      42.247  18.830  26.239  1.00  0.00    -0.269 OA
BRANCH  25  28
ATOM     28  C   UNL A   1      41.578  21.047  26.653  1.00  0.00     0.039 A 
ATOM     29  C   UNL A   1      42.025  21.357  27.939  1.00  0.00     0.014 A 
ATOM     30  C   UNL A   1      41.409  22.058  25.704  1.00  0.00     0.014 A 
ATOM     31  C   UNL A   1      42.366  22.674  28.251  1.00  0.00     0.010 A 
ATOM     32  C   UNL A   1      41.832  23.353  25.990  1.00  0.00     0.010 A 
ATOM     33  C   UNL A   1      42.313  23.676  27.268  1.00  0.00    -0.014 A 
BRANCH  33  34
ATOM     34  C   UNL A   1      42.778  25.059  27.553  1.00  0.00     0.031 A 
ATOM     35  C   UNL A   1      41.846  26.063  28.176  1.00  0.00     0.074 A 
ATOM     36  C   UNL A   1      44.018  25.435  27.178  1.00  0.00     0.049 A 
ATOM     37  N   UNL A   1      42.060  27.323  28.452  1.00  0.00    -0.248 NA
ATOM     38  C   UNL A   1      40.490  25.600  28.515  1.00  0.00     0.031 C 
ATOM     39  C   UNL A   1      44.993  24.577  26.500  1.00  0.00     0.029 A 
ATOM     40  N   UNL A   1      44.663  26.642  27.291  1.00  0.00    -0.354 N 
ATOM     41  C   UNL A   1      40.863  27.811  28.962  1.00  0.00     0.074 A 
ATOM     42  C   UNL A   1      39.915  26.719  28.927  1.00  0.00     0.031 C 
ATOM     43  C   UNL A   1      46.111  25.281  26.264  1.00  0.00     0.029 A 
ATOM     44  C   UNL A   1      45.921  26.650  26.733  1.00  0.00     0.049 A 
ATOM     45  H   UNL A   1      44.263  27.428  27.729  1.00  0.00     0.167 HD
ATOM     46  C   UNL A   1      40.583  29.048  29.437  1.00  0.00     0.034 A 
ATOM     47  C   UNL A   1      46.814  27.650  26.595  1.00  0.00     0.034 A 
ATOM     48  C   UNL A   1      41.534  30.125  29.493  1.00  0.00     0.049 A 
ATOM     49  C   UNL A   1      46.478  29.012  27.141  1.00  0.00     0.074 A 
ATOM     50  C   UNL A   1      41.368  31.388  30.033  1.00  0.00     0.029 A 
ATOM     51  N   UNL A   1      42.818  30.078  28.974  1.00  0.00    -0.354 N 
ATOM     52  N   UNL A   1      45.393  29.410  27.758  1.00  0.00    -0.248 NA
ATOM     53  C   UNL A   1      47.505  30.055  27.000  1.00  0.00     0.031 C 
ATOM     54  C   UNL A   1      42.536  32.120  29.798  1.00  0.00     0.029 A 
ATOM     55  C   UNL A   1      43.449  31.295  29.162  1.00  0.00     0.049 A 
ATOM     56  H   UNL A   1      43.221  29.293  28.537  1.00  0.00     0.167 HD
ATOM     57  C   UNL A   1      45.621  30.734  28.114  1.00  0.00     0.074 A 
ATOM     58  C   UNL A   1      46.956  31.065  27.662  1.00  0.00     0.031 C 
ATOM     59  C   UNL A   1      44.794  31.601  28.750  1.00  0.00     0.034 A 
BRANCH  46  60
ATOM     60  C   UNL A   1      39.195  29.301  29.968  1.00  0.00     0.023 A 
ATOM     61  C   UNL A   1      38.857  28.894  31.275  1.00  0.00     0.012 A 
ATOM     62  C   UNL A   1      38.248  30.005  29.198  1.00  0.00     0.148 A 
ATOM     63  C   UNL A   1      37.589  29.153  31.795  1.00  0.00     0.002 A 
ATOM     64  C   UNL A   1      37.004  30.303  29.741  1.00  0.00     0.091 A 
ATOM     65  F   UNL A   1      38.581  30.367  27.952  1.00  0.00    -0.205 F 
ATOM     66  C   UNL A   1      36.669  29.867  31.033  1.00  0.00     0.022 A 
BRANCH  64  67
ATOM     67  S   UNL A   1      35.777  31.289  28.875  1.00  0.00     0.127 S 
ATOM     68  O   UNL A   1      34.897  31.691  29.971  1.00  0.00    -0.237 OA
ATOM     69  O   UNL A   1      36.593  32.369  28.319  1.00  0.00    -0.237 OA
ATOM     70  O   UNL A   1      35.175  30.406  27.886  1.00  0.00    -0.744 OA
ENDBRANCH  64  67
ENDBRANCH  46  60
BRANCH  47  71
ATOM     71  C   UNL A   1      48.128  27.397  25.938  1.00  0.00     0.023 A 
ATOM     72  C   UNL A   1      49.232  26.995  26.715  1.00  0.00     0.012 A 
ATOM     73  C   UNL A   1      48.288  27.551  24.547  1.00  0.00     0.148 A 
ATOM     74  C   UNL A   1      50.482  26.795  26.126  1.00  0.00     0.002 A 
ATOM     75  C   UNL A   1      49.519  27.288  23.958  1.00  0.00     0.091 A 
ATOM     76  F   UNL A   1      47.228  27.941  23.826  1.00  0.00    -0.205 F 
ATOM     77  C   UNL A   1      50.623  26.932  24.748  1.00  0.00     0.022 A 
BRANCH  75  78
ATOM     78  S   UNL A   1      49.757  27.307  22.178  1.00  0.00     0.127 S 
ATOM     79  O   UNL A   1      51.161  26.919  22.061  1.00  0.00    -0.237 OA
ATOM     80  O   UNL A   1      48.797  26.295  21.736  1.00  0.00    -0.237 OA
ATOM     81  O   UNL A   1      49.438  28.662  21.751  1.00  0.00    -0.744 OA
ENDBRANCH  75  78
ENDBRANCH  47  71
BRANCH  59  82
ATOM     82  C   UNL A   1      45.321  32.981  29.048  1.00  0.00     0.023 A 
ATOM     83  C   UNL A   1      46.121  33.206  30.187  1.00  0.00     0.012 A 
ATOM     84  C   UNL A   1      45.079  34.043  28.154  1.00  0.00     0.148 A 
ATOM     85  C   UNL A   1      46.639  34.474  30.450  1.00  0.00     0.002 A 
ATOM     86  C   UNL A   1      45.644  35.289  28.392  1.00  0.00     0.091 A 
ATOM     87  F   UNL A   1      44.304  33.813  27.084  1.00  0.00    -0.205 F 
ATOM     88  C   UNL A   1      46.411  35.511  29.547  1.00  0.00     0.022 A 
BRANCH  86  89
ATOM     89  S   UNL A   1      45.490  36.655  27.237  1.00  0.00     0.127 S 
ATOM     90  O   UNL A   1      44.107  36.508  26.786  1.00  0.00    -0.237 OA
ATOM     91  O   UNL A   1      45.732  37.814  28.097  1.00  0.00    -0.237 OA
ATOM     92  O   UNL A   1      46.503  36.437  26.213  1.00  0.00    -0.744 OA
ENDBRANCH  86  89
ENDBRANCH  59  82
ENDBRANCH  33  34
ENDBRANCH  25  28
ENDBRANCH  23  24
ENDBRANCH  22  23
ENDBRANCH   1  22
TORSDOF 18
ENDMDL
