MODEL 1
REMARK VINA RESULT:     -10.1      0.000      0.000
REMARK SMILES COc1cc2c(cc1OC)-c1c(c(C(=O)Nc3ccc(C(=O)NCCCCNC(=O)c4ccc(-c5c6nc(c(-c7cccc(S(=O)(=O)[O-])c7F)c7ccc([nH]7)c(-c7cccc(S(=O)(=O)[O-])c7F)c7nc(c(-c8cccc(S(=O)(=O)[O-])c8F)c8ccc5[nH]8)C=C7)C=C6)cc4)cc3)nn1-c1ccc(F)cc1)C2
REMARK SMILES IDX 25 1 24 2 23 3 21 4 22 5 20 7 17 8 18 9 95 10 19 11 94 12
REMARK SMILES IDX 16 13 14 14 15 15 13 17 3 18 4 19 8 20 5 21 7 22 6 23 105 24
REMARK SMILES IDX 11 25 12 26 97 27 96 28 2 29 1 30 9 31 10 32 98 33 99 34
REMARK SMILES IDX 104 35 100 36 103 37 101 38 102 39 26 40 27 41 28 42 29 43
REMARK SMILES IDX 30 45 31 46 32 47 93 48 33 49 92 50 34 51 35 52 36 53 86 54
REMARK SMILES IDX 37 55 91 56 85 57 87 58 38 59 90 60 84 61 83 62 39 64 71 65
REMARK SMILES IDX 51 66 70 67 52 68 55 69 69 70 88 71 53 72 54 73 68 75 89 76
REMARK SMILES IDX 56 77 40 78 41 79 49 80 42 81 44 82 50 83 43 84 45 85 46 86
REMARK SMILES IDX 47 87 48 88 72 89 73 90 81 91 74 92 76 93 82 94 75 95 77 96
REMARK SMILES IDX 78 97 79 98 80 99 57 100 58 101 66 102 59 103 61 104 67 105
REMARK SMILES IDX 60 106 62 107 63 108 64 109 65 110
REMARK H PARENT 23 6 16 16 28 44 87 63 55 74
REMARK Flexibility Score: inf
ROOT
ATOM      1  C   UNL A   1      44.173  26.105  25.908  1.00  0.00     0.023 C 
ENDROOT
BRANCH   1   2
ATOM      2  C   UNL A   1      45.613  26.585  25.764  1.00  0.00     0.116 C 
BRANCH   2   3
ATOM      3  N   UNL A   1      46.619  25.813  26.468  1.00  0.00    -0.352 N 
ATOM      4  C   UNL A   1      46.693  25.397  27.782  1.00  0.00     0.251 C 
ATOM      5  O   UNL A   1      47.620  24.642  28.084  1.00  0.00    -0.269 OA
ATOM      6  H   UNL A   1      47.383  25.539  25.911  1.00  0.00     0.163 HD
BRANCH   4   7
ATOM      7  C   UNL A   1      45.819  25.932  28.880  1.00  0.00     0.039 A 
ATOM      8  C   UNL A   1      45.136  26.651  31.487  1.00  0.00     0.041 A 
ATOM      9  C   UNL A   1      44.911  25.350  31.068  1.00  0.00     0.027 A 
ATOM     10  C   UNL A   1      45.356  27.637  30.525  1.00  0.00     0.027 A 
ATOM     11  C   UNL A   1      45.255  24.990  29.757  1.00  0.00     0.016 A 
ATOM     12  C   UNL A   1      45.677  27.275  29.214  1.00  0.00     0.016 A 
BRANCH   8  13
ATOM     13  N   UNL A   1      45.144  27.038  32.824  1.00  0.00    -0.321 N 
ATOM     14  C   UNL A   1      45.451  26.391  34.004  1.00  0.00     0.276 C 
ATOM     15  O   UNL A   1      45.023  26.964  35.016  1.00  0.00    -0.267 OA
ATOM     16  H   UNL A   1      44.872  27.975  32.956  1.00  0.00     0.170 HD
BRANCH  14  17
ATOM     17  C   UNL A   1      46.352  25.202  34.129  1.00  0.00     0.155 A 
ATOM     18  C   UNL A   1      51.806  22.987  33.022  1.00  0.00     0.161 A 
ATOM     19  C   UNL A   1      51.218  24.259  33.079  1.00  0.00     0.055 A 
ATOM     20  C   UNL A   1      51.154  21.859  33.566  1.00  0.00     0.161 A 
ATOM     21  C   UNL A   1      49.946  24.372  33.624  1.00  0.00    -0.030 A 
ATOM     22  C   UNL A   1      49.857  21.981  34.074  1.00  0.00     0.061 A 
ATOM     23  C   UNL A   1      49.278  23.232  34.108  1.00  0.00     0.008 A 
ATOM     24  C   UNL A   1      49.047  25.620  33.596  1.00  0.00     0.076 C 
ATOM     25  C   UNL A   1      47.953  23.683  34.395  1.00  0.00     0.079 A 
ATOM     26  C   UNL A   1      47.756  24.986  34.014  1.00  0.00     0.016 A 
ATOM     27  N   UNL A   1      46.771  23.163  34.789  1.00  0.00    -0.232 N 
ATOM     28  N   UNL A   1      45.764  24.020  34.495  1.00  0.00    -0.162 NA
BRANCH  18  29
ATOM     29  O   UNL A   1      53.031  22.898  32.411  1.00  0.00    -0.493 OA
ATOM     30  C   UNL A   1      53.773  24.104  32.606  1.00  0.00     0.278 C 
ENDBRANCH  18  29
BRANCH  20  31
ATOM     31  O   UNL A   1      51.641  20.577  33.577  1.00  0.00    -0.493 OA
ATOM     32  C   UNL A   1      52.357  20.209  34.752  1.00  0.00     0.278 C 
ENDBRANCH  20  31
BRANCH  27  33
ATOM     33  C   UNL A   1      46.558  21.903  35.388  1.00  0.00     0.065 A 
ATOM     34  C   UNL A   1      46.575  21.781  36.781  1.00  0.00     0.031 A 
ATOM     35  C   UNL A   1      46.251  20.796  34.579  1.00  0.00     0.031 A 
ATOM     36  C   UNL A   1      46.169  20.575  37.359  1.00  0.00     0.041 A 
ATOM     37  C   UNL A   1      45.876  19.589  35.164  1.00  0.00     0.041 A 
ATOM     38  C   UNL A   1      45.814  19.499  36.549  1.00  0.00     0.123 A 
ATOM     39  F   UNL A   1      45.393  18.359  37.113  1.00  0.00    -0.207 F 
ENDBRANCH  27  33
ENDBRANCH  14  17
ENDBRANCH   8  13
ENDBRANCH   4   7
ENDBRANCH   2   3
ENDBRANCH   1   2
BRANCH   1  40
ATOM     40  C   UNL A   1      43.781  24.779  25.262  1.00  0.00     0.023 C 
BRANCH  40  41
ATOM     41  C   UNL A   1      43.647  23.573  26.189  1.00  0.00     0.116 C 
BRANCH  41  42
ATOM     42  N   UNL A   1      42.295  23.163  26.495  1.00  0.00    -0.352 N 
ATOM     43  C   UNL A   1      41.155  23.802  26.896  1.00  0.00     0.251 C 
ATOM     44  H   UNL A   1      42.163  22.193  26.389  1.00  0.00     0.163 HD
ATOM     45  O   UNL A   1      40.123  23.129  26.843  1.00  0.00    -0.269 OA
BRANCH  43  46
ATOM     46  C   UNL A   1      41.096  25.176  27.456  1.00  0.00     0.039 A 
ATOM     47  C   UNL A   1      40.452  26.265  26.865  1.00  0.00     0.014 A 
ATOM     48  C   UNL A   1      41.818  25.381  28.646  1.00  0.00     0.014 A 
ATOM     49  C   UNL A   1      40.639  27.547  27.367  1.00  0.00     0.010 A 
ATOM     50  C   UNL A   1      41.985  26.654  29.168  1.00  0.00     0.010 A 
ATOM     51  C   UNL A   1      41.445  27.741  28.488  1.00  0.00    -0.014 A 
BRANCH  51  52
ATOM     52  C   UNL A   1      41.611  29.098  28.997  1.00  0.00     0.031 A 
ATOM     53  C   UNL A   1      42.823  29.807  28.490  1.00  0.00     0.074 A 
ATOM     54  C   UNL A   1      40.654  29.696  29.737  1.00  0.00     0.049 A 
ATOM     55  N   UNL A   1      43.789  30.338  29.170  1.00  0.00    -0.248 NA
ATOM     56  C   UNL A   1      43.043  29.814  27.033  1.00  0.00     0.031 C 
ATOM     57  C   UNL A   1      39.319  29.177  30.053  1.00  0.00     0.029 A 
ATOM     58  N   UNL A   1      40.611  30.966  30.230  1.00  0.00    -0.354 N 
ATOM     59  C   UNL A   1      44.625  30.934  28.225  1.00  0.00     0.074 A 
ATOM     60  C   UNL A   1      44.211  30.447  26.936  1.00  0.00     0.031 C 
ATOM     61  C   UNL A   1      38.523  30.201  30.429  1.00  0.00     0.029 A 
ATOM     62  C   UNL A   1      39.316  31.415  30.497  1.00  0.00     0.049 A 
ATOM     63  H   UNL A   1      41.414  31.514  30.383  1.00  0.00     0.167 HD
ATOM     64  C   UNL A   1      45.457  31.966  28.529  1.00  0.00     0.034 A 
ATOM     65  C   UNL A   1      38.926  32.706  30.650  1.00  0.00     0.034 A 
ATOM     66  C   UNL A   1      45.668  32.110  29.937  1.00  0.00     0.049 A 
ATOM     67  C   UNL A   1      40.147  33.484  30.966  1.00  0.00     0.074 A 
ATOM     68  C   UNL A   1      46.219  31.324  30.927  1.00  0.00     0.029 A 
ATOM     69  N   UNL A   1      44.936  33.078  30.578  1.00  0.00    -0.354 N 
ATOM     70  N   UNL A   1      40.839  33.341  32.060  1.00  0.00    -0.248 NA
ATOM     71  C   UNL A   1      40.832  34.148  29.868  1.00  0.00     0.031 C 
ATOM     72  C   UNL A   1      45.412  31.566  32.076  1.00  0.00     0.029 A 
ATOM     73  C   UNL A   1      44.453  32.522  31.731  1.00  0.00     0.049 A 
ATOM     74  H   UNL A   1      44.786  34.000  30.266  1.00  0.00     0.167 HD
ATOM     75  C   UNL A   1      42.157  33.488  31.654  1.00  0.00     0.074 A 
ATOM     76  C   UNL A   1      42.085  34.089  30.325  1.00  0.00     0.031 C 
ATOM     77  C   UNL A   1      43.167  32.843  32.305  1.00  0.00     0.034 A 
BRANCH  64  78
ATOM     78  C   UNL A   1      45.802  33.062  27.558  1.00  0.00     0.023 A 
ATOM     79  C   UNL A   1      44.772  33.637  26.787  1.00  0.00     0.012 A 
ATOM     80  C   UNL A   1      47.135  33.363  27.193  1.00  0.00     0.148 A 
ATOM     81  C   UNL A   1      45.058  34.479  25.705  1.00  0.00     0.002 A 
ATOM     82  C   UNL A   1      47.412  34.258  26.168  1.00  0.00     0.091 A 
ATOM     83  F   UNL A   1      48.141  32.683  27.753  1.00  0.00    -0.205 F 
ATOM     84  C   UNL A   1      46.377  34.804  25.407  1.00  0.00     0.022 A 
BRANCH  82  85
ATOM     85  S   UNL A   1      49.099  34.733  25.775  1.00  0.00     0.127 S 
ATOM     86  O   UNL A   1      49.563  35.248  27.065  1.00  0.00    -0.237 OA
ATOM     87  O   UNL A   1      49.684  33.448  25.378  1.00  0.00    -0.237 OA
ATOM     88  O   UNL A   1      48.990  35.697  24.700  1.00  0.00    -0.744 OA
ENDBRANCH  82  85
ENDBRANCH  64  78
BRANCH  65  89
ATOM     89  C   UNL A   1      37.661  33.383  30.260  1.00  0.00     0.023 A 
ATOM     90  C   UNL A   1      37.266  33.363  28.903  1.00  0.00     0.012 A 
ATOM     91  C   UNL A   1      36.698  33.781  31.215  1.00  0.00     0.148 A 
ATOM     92  C   UNL A   1      35.953  33.661  28.520  1.00  0.00     0.002 A 
ATOM     93  C   UNL A   1      35.396  34.094  30.827  1.00  0.00     0.091 A 
ATOM     94  F   UNL A   1      37.020  33.758  32.513  1.00  0.00    -0.205 F 
ATOM     95  C   UNL A   1      35.014  34.015  29.484  1.00  0.00     0.022 A 
BRANCH  93  96
ATOM     96  S   UNL A   1      34.135  34.556  32.024  1.00  0.00     0.127 S 
ATOM     97  O   UNL A   1      33.903  33.294  32.729  1.00  0.00    -0.237 OA
ATOM     98  O   UNL A   1      34.820  35.578  32.809  1.00  0.00    -0.237 OA
ATOM     99  O   UNL A   1      32.996  35.014  31.237  1.00  0.00    -0.744 OA
ENDBRANCH  93  96
ENDBRANCH  65  89
BRANCH  77 100
ATOM    100  C   UNL A   1      42.850  32.175  33.616  1.00  0.00     0.023 A 
ATOM    101  C   UNL A   1      42.785  32.897  34.829  1.00  0.00     0.012 A 
ATOM    102  C   UNL A   1      42.401  30.846  33.584  1.00  0.00     0.148 A 
ATOM    103  C   UNL A   1      42.278  32.298  35.986  1.00  0.00     0.002 A 
ATOM    104  C   UNL A   1      41.861  30.270  34.725  1.00  0.00     0.091 A 
ATOM    105  F   UNL A   1      42.462  30.190  32.416  1.00  0.00    -0.205 F 
ATOM    106  C   UNL A   1      41.801  30.990  35.930  1.00  0.00     0.022 A 
BRANCH 104 107
ATOM    107  S   UNL A   1      41.120  28.637  34.697  1.00  0.00     0.127 S 
ATOM    108  O   UNL A   1      39.910  28.864  33.909  1.00  0.00    -0.237 OA
ATOM    109  O   UNL A   1      42.149  27.843  34.025  1.00  0.00    -0.237 OA
ATOM    110  O   UNL A   1      40.893  28.268  36.089  1.00  0.00    -0.744 OA
ENDBRANCH 104 107
ENDBRANCH  77 100
ENDBRANCH  51  52
ENDBRANCH  43  46
ENDBRANCH  41  42
ENDBRANCH  40  41
ENDBRANCH   1  40
TORSDOF 19
ENDMDL
MODEL 2
REMARK VINA RESULT:     -10.0      3.871     11.825
REMARK SMILES COc1cc2c(cc1OC)-c1c(c(C(=O)Nc3ccc(C(=O)NCCCCNC(=O)c4ccc(-c5c6nc(c(-c7cccc(S(=O)(=O)[O-])c7F)c7ccc([nH]7)c(-c7cccc(S(=O)(=O)[O-])c7F)c7nc(c(-c8cccc(S(=O)(=O)[O-])c8F)c8ccc5[nH]8)C=C7)C=C6)cc4)cc3)nn1-c1ccc(F)cc1)C2
REMARK SMILES IDX 25 1 24 2 23 3 21 4 22 5 20 7 17 8 18 9 95 10 19 11 94 12
REMARK SMILES IDX 16 13 14 14 15 15 13 17 3 18 4 19 8 20 5 21 7 22 6 23 105 24
REMARK SMILES IDX 11 25 12 26 97 27 96 28 2 29 1 30 9 31 10 32 98 33 99 34
REMARK SMILES IDX 104 35 100 36 103 37 101 38 102 39 26 40 27 41 28 42 29 43
REMARK SMILES IDX 30 45 31 46 32 47 93 48 33 49 92 50 34 51 35 52 36 53 86 54
REMARK SMILES IDX 37 55 91 56 85 57 87 58 38 59 90 60 84 61 83 62 39 64 71 65
REMARK SMILES IDX 51 66 70 67 52 68 55 69 69 70 88 71 53 72 54 73 68 75 89 76
REMARK SMILES IDX 56 77 40 78 41 79 49 80 42 81 44 82 50 83 43 84 45 85 46 86
REMARK SMILES IDX 47 87 48 88 72 89 73 90 81 91 74 92 76 93 82 94 75 95 77 96
REMARK SMILES IDX 78 97 79 98 80 99 57 100 58 101 66 102 59 103 61 104 67 105
REMARK SMILES IDX 60 106 62 107 63 108 64 109 65 110
REMARK H PARENT 23 6 16 16 28 44 87 63 55 74
REMARK Flexibility Score: inf
ROOT
ATOM      1  C   UNL A   1      42.534  34.670  30.919  1.00  0.00     0.023 C 
ENDROOT
BRANCH   1   2
ATOM      2  C   UNL A   1      41.846  34.657  32.280  1.00  0.00     0.116 C 
BRANCH   2   3
ATOM      3  N   UNL A   1      42.001  35.852  33.087  1.00  0.00    -0.352 N 
ATOM      4  C   UNL A   1      42.093  36.021  34.454  1.00  0.00     0.251 C 
ATOM      5  O   UNL A   1      42.341  37.157  34.867  1.00  0.00    -0.269 OA
ATOM      6  H   UNL A   1      42.048  36.688  32.570  1.00  0.00     0.163 HD
BRANCH   4   7
ATOM      7  C   UNL A   1      41.753  34.954  35.455  1.00  0.00     0.039 A 
ATOM      8  C   UNL A   1      40.476  32.676  36.434  1.00  0.00     0.041 A 
ATOM      9  C   UNL A   1      39.857  33.906  36.576  1.00  0.00     0.027 A 
ATOM     10  C   UNL A   1      41.839  32.641  36.139  1.00  0.00     0.027 A 
ATOM     11  C   UNL A   1      40.501  35.051  36.084  1.00  0.00     0.016 A 
ATOM     12  C   UNL A   1      42.483  33.790  35.669  1.00  0.00     0.016 A 
BRANCH   8  13
ATOM     13  N   UNL A   1      39.815  31.460  36.579  1.00  0.00    -0.321 N 
ATOM     14  C   UNL A   1      38.617  30.961  36.107  1.00  0.00     0.276 C 
ATOM     15  O   UNL A   1      38.214  29.962  36.719  1.00  0.00    -0.267 OA
ATOM     16  H   UNL A   1      40.306  30.818  37.140  1.00  0.00     0.170 HD
BRANCH  14  17
ATOM     17  C   UNL A   1      37.909  31.434  34.876  1.00  0.00     0.155 A 
ATOM     18  C   UNL A   1      33.976  35.350  32.624  1.00  0.00     0.161 A 
ATOM     19  C   UNL A   1      34.744  35.239  33.793  1.00  0.00     0.055 A 
ATOM     20  C   UNL A   1      34.256  34.557  31.491  1.00  0.00     0.161 A 
ATOM     21  C   UNL A   1      35.746  34.279  33.833  1.00  0.00    -0.030 A 
ATOM     22  C   UNL A   1      35.241  33.566  31.559  1.00  0.00     0.061 A 
ATOM     23  C   UNL A   1      35.978  33.450  32.720  1.00  0.00     0.008 A 
ATOM     24  C   UNL A   1      36.557  33.854  35.069  1.00  0.00     0.076 C 
ATOM     25  C   UNL A   1      36.915  32.475  33.182  1.00  0.00     0.079 A 
ATOM     26  C   UNL A   1      37.174  32.603  34.523  1.00  0.00     0.016 A 
ATOM     27  N   UNL A   1      37.513  31.352  32.730  1.00  0.00    -0.232 N 
ATOM     28  N   UNL A   1      37.995  30.630  33.771  1.00  0.00    -0.162 NA
BRANCH  18  29
ATOM     29  O   UNL A   1      32.947  36.257  32.644  1.00  0.00    -0.493 OA
ATOM     30  C   UNL A   1      33.350  37.481  32.025  1.00  0.00     0.278 C 
ENDBRANCH  18  29
BRANCH  20  31
ATOM     31  O   UNL A   1      33.582  34.594  30.298  1.00  0.00    -0.493 OA
ATOM     32  C   UNL A   1      34.401  34.711  29.139  1.00  0.00     0.278 C 
ENDBRANCH  20  31
BRANCH  27  33
ATOM     33  C   UNL A   1      37.615  30.929  31.387  1.00  0.00     0.065 A 
ATOM     34  C   UNL A   1      38.361  31.681  30.475  1.00  0.00     0.031 A 
ATOM     35  C   UNL A   1      37.030  29.712  31.000  1.00  0.00     0.031 A 
ATOM     36  C   UNL A   1      38.614  31.148  29.207  1.00  0.00     0.041 A 
ATOM     37  C   UNL A   1      37.263  29.203  29.725  1.00  0.00     0.041 A 
ATOM     38  C   UNL A   1      38.074  29.913  28.850  1.00  0.00     0.123 A 
ATOM     39  F   UNL A   1      38.351  29.396  27.646  1.00  0.00    -0.207 F 
ENDBRANCH  27  33
ENDBRANCH  14  17
ENDBRANCH   8  13
ENDBRANCH   4   7
ENDBRANCH   2   3
ENDBRANCH   1   2
BRANCH   1  40
ATOM     40  C   UNL A   1      41.679  34.472  29.671  1.00  0.00     0.023 C 
BRANCH  40  41
ATOM     41  C   UNL A   1      41.507  35.680  28.753  1.00  0.00     0.116 C 
BRANCH  41  42
ATOM     42  N   UNL A   1      42.724  36.207  28.174  1.00  0.00    -0.352 N 
ATOM     43  C   UNL A   1      43.840  35.664  27.602  1.00  0.00     0.251 C 
ATOM     44  H   UNL A   1      42.754  37.191  28.196  1.00  0.00     0.163 HD
ATOM     45  O   UNL A   1      44.578  36.462  27.018  1.00  0.00    -0.269 OA
BRANCH  43  46
ATOM     46  C   UNL A   1      44.252  34.242  27.711  1.00  0.00     0.039 A 
ATOM     47  C   UNL A   1      43.862  33.217  26.847  1.00  0.00     0.014 A 
ATOM     48  C   UNL A   1      45.044  33.920  28.829  1.00  0.00     0.014 A 
ATOM     49  C   UNL A   1      44.134  31.891  27.163  1.00  0.00     0.010 A 
ATOM     50  C   UNL A   1      45.342  32.602  29.135  1.00  0.00     0.010 A 
ATOM     51  C   UNL A   1      44.830  31.587  28.332  1.00  0.00    -0.014 A 
BRANCH  51  52
ATOM     52  C   UNL A   1      45.110  30.187  28.629  1.00  0.00     0.031 A 
ATOM     53  C   UNL A   1      46.267  29.613  27.881  1.00  0.00     0.074 A 
ATOM     54  C   UNL A   1      44.463  29.532  29.616  1.00  0.00     0.049 A 
ATOM     55  N   UNL A   1      46.290  28.578  27.104  1.00  0.00    -0.248 NA
ATOM     56  C   UNL A   1      47.532  30.368  27.908  1.00  0.00     0.031 C 
ATOM     57  C   UNL A   1      43.509  30.092  30.579  1.00  0.00     0.029 A 
ATOM     58  N   UNL A   1      44.644  28.260  30.071  1.00  0.00    -0.354 N 
ATOM     59  C   UNL A   1      47.623  28.429  26.720  1.00  0.00     0.074 A 
ATOM     60  C   UNL A   1      48.305  29.636  27.107  1.00  0.00     0.031 C 
ATOM     61  C   UNL A   1      43.415  29.264  31.642  1.00  0.00     0.029 A 
ATOM     62  C   UNL A   1      44.198  28.070  31.380  1.00  0.00     0.049 A 
ATOM     63  H   UNL A   1      45.049  27.545  29.530  1.00  0.00     0.167 HD
ATOM     64  C   UNL A   1      48.144  27.239  26.317  1.00  0.00     0.034 A 
ATOM     65  C   UNL A   1      44.548  27.056  32.212  1.00  0.00     0.034 A 
ATOM     66  C   UNL A   1      47.135  26.286  25.964  1.00  0.00     0.049 A 
ATOM     67  C   UNL A   1      45.071  25.966  31.355  1.00  0.00     0.074 A 
ATOM     68  C   UNL A   1      46.145  26.223  25.005  1.00  0.00     0.029 A 
ATOM     69  N   UNL A   1      46.820  25.340  26.905  1.00  0.00    -0.354 N 
ATOM     70  N   UNL A   1      44.347  25.299  30.501  1.00  0.00    -0.248 NA
ATOM     71  C   UNL A   1      46.510  25.886  31.159  1.00  0.00     0.031 C 
ATOM     72  C   UNL A   1      45.050  25.586  25.655  1.00  0.00     0.029 A 
ATOM     73  C   UNL A   1      45.455  25.254  26.950  1.00  0.00     0.049 A 
ATOM     74  H   UNL A   1      47.457  24.819  27.446  1.00  0.00     0.167 HD
ATOM     75  C   UNL A   1      45.194  25.089  29.423  1.00  0.00     0.074 A 
ATOM     76  C   UNL A   1      46.535  25.372  29.927  1.00  0.00     0.031 C 
ATOM     77  C   UNL A   1      44.702  24.990  28.155  1.00  0.00     0.034 A 
BRANCH  64  78
ATOM     78  C   UNL A   1      49.567  26.828  26.579  1.00  0.00     0.023 A 
ATOM     79  C   UNL A   1      50.264  26.119  25.580  1.00  0.00     0.012 A 
ATOM     80  C   UNL A   1      50.151  26.887  27.865  1.00  0.00     0.148 A 
ATOM     81  C   UNL A   1      51.492  25.502  25.851  1.00  0.00     0.002 A 
ATOM     82  C   UNL A   1      51.404  26.340  28.108  1.00  0.00     0.091 A 
ATOM     83  F   UNL A   1      49.438  27.362  28.891  1.00  0.00    -0.205 F 
ATOM     84  C   UNL A   1      52.071  25.627  27.110  1.00  0.00     0.022 A 
BRANCH  82  85
ATOM     85  S   UNL A   1      52.203  26.512  29.708  1.00  0.00     0.127 S 
ATOM     86  O   UNL A   1      51.432  25.567  30.520  1.00  0.00    -0.237 OA
ATOM     87  O   UNL A   1      53.573  26.087  29.402  1.00  0.00    -0.237 OA
ATOM     88  O   UNL A   1      52.076  27.912  30.057  1.00  0.00    -0.744 OA
ENDBRANCH  82  85
ENDBRANCH  64  78
BRANCH  65  89
ATOM     89  C   UNL A   1      44.756  27.044  33.684  1.00  0.00     0.023 A 
ATOM     90  C   UNL A   1      45.802  27.821  34.232  1.00  0.00     0.012 A 
ATOM     91  C   UNL A   1      43.782  26.538  34.574  1.00  0.00     0.148 A 
ATOM     92  C   UNL A   1      45.841  28.134  35.596  1.00  0.00     0.002 A 
ATOM     93  C   UNL A   1      43.834  26.839  35.935  1.00  0.00     0.091 A 
ATOM     94  F   UNL A   1      42.747  25.847  34.084  1.00  0.00    -0.205 F 
ATOM     95  C   UNL A   1      44.850  27.653  36.446  1.00  0.00     0.022 A 
BRANCH  93  96
ATOM     96  S   UNL A   1      42.582  26.250  37.085  1.00  0.00     0.127 S 
ATOM     97  O   UNL A   1      42.522  24.822  36.769  1.00  0.00    -0.237 OA
ATOM     98  O   UNL A   1      43.184  26.567  38.377  1.00  0.00    -0.237 OA
ATOM     99  O   UNL A   1      41.367  26.984  36.751  1.00  0.00    -0.744 OA
ENDBRANCH  93  96
ENDBRANCH  65  89
BRANCH  77 100
ATOM    100  C   UNL A   1      43.212  24.865  27.981  1.00  0.00     0.023 A 
ATOM    101  C   UNL A   1      42.369  25.994  27.903  1.00  0.00     0.012 A 
ATOM    102  C   UNL A   1      42.691  23.597  27.678  1.00  0.00     0.148 A 
ATOM    103  C   UNL A   1      41.029  25.858  27.526  1.00  0.00     0.002 A 
ATOM    104  C   UNL A   1      41.372  23.472  27.264  1.00  0.00     0.091 A 
ATOM    105  F   UNL A   1      43.519  22.544  27.748  1.00  0.00    -0.205 F 
ATOM    106  C   UNL A   1      40.536  24.598  27.191  1.00  0.00     0.022 A 
BRANCH 104 107
ATOM    107  S   UNL A   1      40.705  21.905  26.704  1.00  0.00     0.127 S 
ATOM    108  O   UNL A   1      40.730  21.107  27.929  1.00  0.00    -0.237 OA
ATOM    109  O   UNL A   1      39.367  22.285  26.248  1.00  0.00    -0.237 OA
ATOM    110  O   UNL A   1      41.590  21.440  25.643  1.00  0.00    -0.744 OA
ENDBRANCH 104 107
ENDBRANCH  77 100
ENDBRANCH  51  52
ENDBRANCH  43  46
ENDBRANCH  41  42
ENDBRANCH  40  41
ENDBRANCH   1  40
TORSDOF 19
ENDMDL
MODEL 3
REMARK VINA RESULT:      -9.9      5.310     11.393
REMARK SMILES COc1cc2c(cc1OC)-c1c(c(C(=O)Nc3ccc(C(=O)NCCCCNC(=O)c4ccc(-c5c6nc(c(-c7cccc(S(=O)(=O)[O-])c7F)c7ccc([nH]7)c(-c7cccc(S(=O)(=O)[O-])c7F)c7nc(c(-c8cccc(S(=O)(=O)[O-])c8F)c8ccc5[nH]8)C=C7)C=C6)cc4)cc3)nn1-c1ccc(F)cc1)C2
REMARK SMILES IDX 25 1 24 2 23 3 21 4 22 5 20 7 17 8 18 9 95 10 19 11 94 12
REMARK SMILES IDX 16 13 14 14 15 15 13 17 3 18 4 19 8 20 5 21 7 22 6 23 105 24
REMARK SMILES IDX 11 25 12 26 97 27 96 28 2 29 1 30 9 31 10 32 98 33 99 34
REMARK SMILES IDX 104 35 100 36 103 37 101 38 102 39 26 40 27 41 28 42 29 43
REMARK SMILES IDX 30 45 31 46 32 47 93 48 33 49 92 50 34 51 35 52 36 53 86 54
REMARK SMILES IDX 37 55 91 56 85 57 87 58 38 59 90 60 84 61 83 62 39 64 71 65
REMARK SMILES IDX 51 66 70 67 52 68 55 69 69 70 88 71 53 72 54 73 68 75 89 76
REMARK SMILES IDX 56 77 40 78 41 79 49 80 42 81 44 82 50 83 43 84 45 85 46 86
REMARK SMILES IDX 47 87 48 88 72 89 73 90 81 91 74 92 76 93 82 94 75 95 77 96
REMARK SMILES IDX 78 97 79 98 80 99 57 100 58 101 66 102 59 103 61 104 67 105
REMARK SMILES IDX 60 106 62 107 63 108 64 109 65 110
REMARK H PARENT 23 6 16 16 28 44 87 63 55 74
REMARK Flexibility Score: inf
ROOT
ATOM      1  C   UNL A   1      40.325  23.895  27.377  1.00  0.00     0.023 C 
ENDROOT
BRANCH   1   2
ATOM      2  C   UNL A   1      38.925  23.637  26.831  1.00  0.00     0.116 C 
BRANCH   2   3
ATOM      3  N   UNL A   1      38.688  22.321  26.270  1.00  0.00    -0.352 N 
ATOM      4  C   UNL A   1      37.698  21.855  25.428  1.00  0.00     0.251 C 
ATOM      5  O   UNL A   1      37.810  20.699  25.012  1.00  0.00    -0.269 OA
ATOM      6  H   UNL A   1      39.348  21.641  26.538  1.00  0.00     0.163 HD
BRANCH   4   7
ATOM      7  C   UNL A   1      36.433  22.605  25.127  1.00  0.00     0.039 A 
ATOM      8  C   UNL A   1      33.926  23.042  23.985  1.00  0.00     0.041 A 
ATOM      9  C   UNL A   1      35.059  23.387  23.269  1.00  0.00     0.027 A 
ATOM     10  C   UNL A   1      34.040  22.826  25.359  1.00  0.00     0.027 A 
ATOM     11  C   UNL A   1      36.320  23.167  23.844  1.00  0.00     0.016 A 
ATOM     12  C   UNL A   1      35.300  22.629  25.933  1.00  0.00     0.016 A 
BRANCH   8  13
ATOM     13  N   UNL A   1      32.665  22.908  23.413  1.00  0.00    -0.321 N 
ATOM     14  C   UNL A   1      31.507  23.660  23.462  1.00  0.00     0.276 C 
ATOM     15  O   UNL A   1      30.496  23.048  23.090  1.00  0.00    -0.267 OA
ATOM     16  H   UNL A   1      32.579  22.103  22.852  1.00  0.00     0.170 HD
BRANCH  14  17
ATOM     17  C   UNL A   1      31.440  25.123  23.765  1.00  0.00     0.155 A 
ATOM     18  C   UNL A   1      33.916  29.675  26.770  1.00  0.00     0.161 A 
ATOM     19  C   UNL A   1      34.302  28.383  26.384  1.00  0.00     0.055 A 
ATOM     20  C   UNL A   1      32.796  30.306  26.187  1.00  0.00     0.161 A 
ATOM     21  C   UNL A   1      33.514  27.709  25.460  1.00  0.00    -0.030 A 
ATOM     22  C   UNL A   1      31.989  29.601  25.288  1.00  0.00     0.061 A 
ATOM     23  C   UNL A   1      32.364  28.323  24.928  1.00  0.00     0.008 A 
ATOM     24  C   UNL A   1      33.637  26.230  25.059  1.00  0.00     0.076 C 
ATOM     25  C   UNL A   1      31.709  27.289  24.192  1.00  0.00     0.079 A 
ATOM     26  C   UNL A   1      32.334  26.076  24.337  1.00  0.00     0.016 A 
ATOM     27  N   UNL A   1      30.556  27.105  23.513  1.00  0.00    -0.232 N 
ATOM     28  N   UNL A   1      30.303  25.781  23.375  1.00  0.00    -0.162 NA
BRANCH  18  29
ATOM     29  O   UNL A   1      34.674  30.283  27.739  1.00  0.00    -0.493 OA
ATOM     30  C   UNL A   1      35.369  29.303  28.515  1.00  0.00     0.278 C 
ENDBRANCH  18  29
BRANCH  20  31
ATOM     31  O   UNL A   1      32.341  31.565  26.478  1.00  0.00    -0.493 OA
ATOM     32  C   UNL A   1      30.990  31.826  26.109  1.00  0.00     0.278 C 
ENDBRANCH  20  31
BRANCH  27  33
ATOM     33  C   UNL A   1      29.689  28.108  23.029  1.00  0.00     0.065 A 
ATOM     34  C   UNL A   1      28.331  28.073  23.358  1.00  0.00     0.031 A 
ATOM     35  C   UNL A   1      30.217  29.179  22.288  1.00  0.00     0.031 A 
ATOM     36  C   UNL A   1      27.530  29.173  23.039  1.00  0.00     0.041 A 
ATOM     37  C   UNL A   1      29.404  30.257  21.949  1.00  0.00     0.041 A 
ATOM     38  C   UNL A   1      28.075  30.256  22.350  1.00  0.00     0.123 A 
ATOM     39  F   UNL A   1      27.307  31.320  22.079  1.00  0.00    -0.207 F 
ENDBRANCH  27  33
ENDBRANCH  14  17
ENDBRANCH   8  13
ENDBRANCH   4   7
ENDBRANCH   2   3
ENDBRANCH   1   2
BRANCH   1  40
ATOM     40  C   UNL A   1      41.365  24.514  26.447  1.00  0.00     0.023 C 
BRANCH  40  41
ATOM     41  C   UNL A   1      42.823  24.130  26.688  1.00  0.00     0.116 C 
BRANCH  41  42
ATOM     42  N   UNL A   1      43.783  24.692  25.765  1.00  0.00    -0.352 N 
ATOM     43  C   UNL A   1      44.519  25.842  25.712  1.00  0.00     0.251 C 
ATOM     44  H   UNL A   1      43.945  24.107  24.989  1.00  0.00     0.163 HD
ATOM     45  O   UNL A   1      45.408  25.865  24.857  1.00  0.00    -0.269 OA
BRANCH  43  46
ATOM     46  C   UNL A   1      44.270  27.056  26.529  1.00  0.00     0.039 A 
ATOM     47  C   UNL A   1      45.006  27.444  27.650  1.00  0.00     0.014 A 
ATOM     48  C   UNL A   1      43.148  27.821  26.159  1.00  0.00     0.014 A 
ATOM     49  C   UNL A   1      44.557  28.479  28.461  1.00  0.00     0.010 A 
ATOM     50  C   UNL A   1      42.710  28.872  26.949  1.00  0.00     0.010 A 
ATOM     51  C   UNL A   1      43.383  29.156  28.133  1.00  0.00    -0.014 A 
BRANCH  51  52
ATOM     52  C   UNL A   1      42.945  30.246  28.998  1.00  0.00     0.031 A 
ATOM     53  C   UNL A   1      43.664  31.536  28.784  1.00  0.00     0.074 A 
ATOM     54  C   UNL A   1      41.872  30.117  29.807  1.00  0.00     0.049 A 
ATOM     55  N   UNL A   1      44.324  32.244  29.644  1.00  0.00    -0.248 NA
ATOM     56  C   UNL A   1      43.760  32.035  27.400  1.00  0.00     0.031 C 
ATOM     57  C   UNL A   1      40.945  28.983  29.882  1.00  0.00     0.029 A 
ATOM     58  N   UNL A   1      41.288  31.042  30.620  1.00  0.00    -0.354 N 
ATOM     59  C   UNL A   1      44.733  33.385  28.953  1.00  0.00     0.074 A 
ATOM     60  C   UNL A   1      44.501  33.131  27.555  1.00  0.00     0.031 C 
ATOM     61  C   UNL A   1      39.796  29.387  30.466  1.00  0.00     0.029 A 
ATOM     62  C   UNL A   1      39.952  30.760  30.911  1.00  0.00     0.049 A 
ATOM     63  H   UNL A   1      41.761  31.831  30.968  1.00  0.00     0.167 HD
ATOM     64  C   UNL A   1      45.020  34.558  29.577  1.00  0.00     0.034 A 
ATOM     65  C   UNL A   1      39.027  31.636  31.380  1.00  0.00     0.034 A 
ATOM     66  C   UNL A   1      45.235  34.397  30.984  1.00  0.00     0.049 A 
ATOM     67  C   UNL A   1      39.777  32.768  31.974  1.00  0.00     0.074 A 
ATOM     68  C   UNL A   1      46.148  33.714  31.759  1.00  0.00     0.029 A 
ATOM     69  N   UNL A   1      44.187  34.711  31.811  1.00  0.00    -0.354 N 
ATOM     70  N   UNL A   1      40.529  32.667  33.033  1.00  0.00    -0.248 NA
ATOM     71  C   UNL A   1      40.010  33.939  31.144  1.00  0.00     0.031 C 
ATOM     72  C   UNL A   1      45.398  33.242  32.874  1.00  0.00     0.029 A 
ATOM     73  C   UNL A   1      44.088  33.708  32.737  1.00  0.00     0.049 A 
ATOM     74  H   UNL A   1      43.613  35.509  31.750  1.00  0.00     0.167 HD
ATOM     75  C   UNL A   1      41.605  33.502  32.770  1.00  0.00     0.074 A 
ATOM     76  C   UNL A   1      41.179  34.338  31.651  1.00  0.00     0.031 C 
ATOM     77  C   UNL A   1      42.839  33.240  33.290  1.00  0.00     0.034 A 
BRANCH  64  78
ATOM     78  C   UNL A   1      44.762  35.907  28.963  1.00  0.00     0.023 A 
ATOM     79  C   UNL A   1      43.431  36.301  28.723  1.00  0.00     0.012 A 
ATOM     80  C   UNL A   1      45.788  36.685  28.378  1.00  0.00     0.148 A 
ATOM     81  C   UNL A   1      43.136  37.424  27.941  1.00  0.00     0.002 A 
ATOM     82  C   UNL A   1      45.493  37.840  27.667  1.00  0.00     0.091 A 
ATOM     83  F   UNL A   1      47.048  36.237  28.400  1.00  0.00    -0.205 F 
ATOM     84  C   UNL A   1      44.167  38.205  27.428  1.00  0.00     0.022 A 
BRANCH  82  85
ATOM     85  S   UNL A   1      46.795  38.896  27.020  1.00  0.00     0.127 S 
ATOM     86  O   UNL A   1      46.216  40.226  27.221  1.00  0.00    -0.237 OA
ATOM     87  O   UNL A   1      47.912  38.569  27.913  1.00  0.00    -0.237 OA
ATOM     88  O   UNL A   1      46.986  38.478  25.647  1.00  0.00    -0.744 OA
ENDBRANCH  82  85
ENDBRANCH  64  78
BRANCH  65  89
ATOM     89  C   UNL A   1      37.569  31.739  31.103  1.00  0.00     0.023 A 
ATOM     90  C   UNL A   1      36.655  31.395  32.124  1.00  0.00     0.012 A 
ATOM     91  C   UNL A   1      37.068  32.442  29.984  1.00  0.00     0.148 A 
ATOM     92  C   UNL A   1      35.313  31.790  32.065  1.00  0.00     0.002 A 
ATOM     93  C   UNL A   1      35.727  32.819  29.922  1.00  0.00     0.091 A 
ATOM     94  F   UNL A   1      37.915  32.834  29.027  1.00  0.00    -0.205 F 
ATOM     95  C   UNL A   1      34.851  32.513  30.969  1.00  0.00     0.022 A 
BRANCH  93  96
ATOM     96  S   UNL A   1      35.068  33.757  28.535  1.00  0.00     0.127 S 
ATOM     97  O   UNL A   1      35.651  33.059  27.388  1.00  0.00    -0.237 OA
ATOM     98  O   UNL A   1      33.630  33.572  28.699  1.00  0.00    -0.237 OA
ATOM     99  O   UNL A   1      35.560  35.118  28.714  1.00  0.00    -0.744 OA
ENDBRANCH  93  96
ENDBRANCH  65  89
BRANCH  77 100
ATOM    100  C   UNL A   1      42.949  32.176  34.348  1.00  0.00     0.023 A 
ATOM    101  C   UNL A   1      43.266  30.836  34.034  1.00  0.00     0.012 A 
ATOM    102  C   UNL A   1      42.945  32.583  35.691  1.00  0.00     0.148 A 
ATOM    103  C   UNL A   1      43.574  29.922  35.046  1.00  0.00     0.002 A 
ATOM    104  C   UNL A   1      43.292  31.682  36.689  1.00  0.00     0.091 A 
ATOM    105  F   UNL A   1      42.653  33.864  35.959  1.00  0.00    -0.205 F 
ATOM    106  C   UNL A   1      43.603  30.349  36.372  1.00  0.00     0.022 A 
BRANCH 104 107
ATOM    107  S   UNL A   1      43.467  32.191  38.399  1.00  0.00     0.127 S 
ATOM    108  O   UNL A   1      44.418  33.296  38.294  1.00  0.00    -0.237 OA
ATOM    109  O   UNL A   1      42.101  32.589  38.744  1.00  0.00    -0.237 OA
ATOM    110  O   UNL A   1      43.951  31.022  39.124  1.00  0.00    -0.744 OA
ENDBRANCH 104 107
ENDBRANCH  77 100
ENDBRANCH  51  52
ENDBRANCH  43  46
ENDBRANCH  41  42
ENDBRANCH  40  41
ENDBRANCH   1  40
TORSDOF 19
ENDMDL
