MODEL 1
REMARK VINA RESULT:     -11.9      0.000      0.000
REMARK SMILES C#Cc1cc(Cl)cc2c1O[C@H](C(F)(F)F)C(C(=O)NCCCCNC(=O)c1ccc(-c3c4nc(c(-c5cccc(S(=O)(=O)[O-])c5F)c5ccc([nH]5)c(-c5cccc(S(=O)(=O)[O-])c5F)c5nc(c(-c6cccc(S(=O)(=O)[O-])c6F)c6ccc3[nH]6)C=C5)C=C4)cc1)=C2
REMARK SMILES IDX 22 1 21 2 20 3 19 4 17 5 18 6 16 8 3 9 4 10 9 11 5 12 8 13
REMARK SMILES IDX 10 14 6 15 7 16 90 17 11 18 2 19 1 20 12 21 13 22 14 23
REMARK SMILES IDX 15 24 23 25 24 26 25 27 26 29 27 30 28 31 89 32 29 33 88 34
REMARK SMILES IDX 30 35 31 36 32 37 82 38 33 39 87 40 81 41 83 42 34 43 86 44
REMARK SMILES IDX 80 45 79 46 35 48 67 49 47 50 66 51 48 52 51 53 65 54 84 55
REMARK SMILES IDX 49 56 50 57 64 59 85 60 52 61 36 62 37 63 45 64 38 65 40 66
REMARK SMILES IDX 46 67 39 68 41 69 42 70 43 71 44 72 68 73 69 74 77 75 70 76
REMARK SMILES IDX 72 77 78 78 71 79 73 80 74 81 75 82 76 83 53 84 54 85 62 86
REMARK SMILES IDX 55 87 57 88 63 89 56 90 58 91 59 92 60 93 61 94
REMARK H PARENT 19 7 24 28 83 47 51 58
REMARK Flexibility Score: inf
ROOT
ATOM      1  C   UNL A   1      33.921  28.320  25.789  1.00  0.00     0.023 C 
ENDROOT
BRANCH   1   2
ATOM      2  C   UNL A   1      32.856  28.779  24.801  1.00  0.00     0.023 C 
BRANCH   2   3
ATOM      3  C   UNL A   1      32.104  27.623  24.154  1.00  0.00     0.116 C 
BRANCH   3   4
ATOM      4  N   UNL A   1      31.201  26.963  25.084  1.00  0.00    -0.352 N 
ATOM      5  C   UNL A   1      31.136  25.768  25.720  1.00  0.00     0.251 C 
ATOM      6  O   UNL A   1      30.191  25.620  26.501  1.00  0.00    -0.270 OA
ATOM      7  H   UNL A   1      30.435  27.538  25.312  1.00  0.00     0.163 HD
BRANCH   5   8
ATOM      8  C   UNL A   1      32.111  24.654  25.530  1.00  0.00     0.067 C 
ATOM      9  C   UNL A   1      34.859  21.483  25.306  1.00  0.00     0.068 A 
ATOM     10  C   UNL A   1      36.214  21.718  25.525  1.00  0.00     0.041 A 
ATOM     11  C   UNL A   1      33.947  22.542  25.409  1.00  0.00     0.143 A 
ATOM     12  C   UNL A   1      36.642  23.008  25.847  1.00  0.00     0.043 A 
ATOM     13  C   UNL A   1      34.372  23.832  25.737  1.00  0.00     0.020 A 
ATOM     14  O   UNL A   1      32.629  22.237  25.225  1.00  0.00    -0.474 OA
ATOM     15  Cl  UNL A   1      38.316  23.295  26.126  1.00  0.00    -0.084 Cl
ATOM     16  C   UNL A   1      35.732  24.063  25.955  1.00  0.00     0.032 A 
ATOM     17  C   UNL A   1      33.384  24.895  25.892  1.00  0.00     0.025 C 
ATOM     18  C   UNL A   1      31.729  23.329  24.947  1.00  0.00     0.314 C 
BRANCH   9  19
ATOM     19  C   UNL A   1      34.398  20.165  24.978  1.00  0.00    -0.067 C 
ATOM     20  C   UNL A   1      34.038  19.073  24.625  1.00  0.00     0.010 C 
ENDBRANCH   9  19
BRANCH  18  21
ATOM     21  C   UNL A   1      31.474  23.402  23.428  1.00  0.00     0.429 C 
ATOM     22  F   UNL A   1      32.281  24.333  22.858  1.00  0.00    -0.167 F 
ATOM     23  F   UNL A   1      31.728  22.236  22.793  1.00  0.00    -0.167 F 
ATOM     24  F   UNL A   1      30.197  23.739  23.136  1.00  0.00    -0.167 F 
ENDBRANCH  18  21
ENDBRANCH   5   8
ENDBRANCH   3   4
ENDBRANCH   2   3
ENDBRANCH   1   2
BRANCH   1  25
ATOM     25  C   UNL A   1      33.598  28.616  27.248  1.00  0.00     0.116 C 
BRANCH  25  26
ATOM     26  N   UNL A   1      33.608  30.041  27.567  1.00  0.00    -0.352 N 
ATOM     27  C   UNL A   1      34.623  30.764  28.147  1.00  0.00     0.251 C 
ATOM     28  H   UNL A   1      32.792  30.542  27.339  1.00  0.00     0.163 HD
ATOM     29  O   UNL A   1      34.457  31.933  28.478  1.00  0.00    -0.269 OA
BRANCH  27  30
ATOM     30  C   UNL A   1      35.904  30.079  28.392  1.00  0.00     0.039 A 
ATOM     31  C   UNL A   1      36.919  30.182  27.442  1.00  0.00     0.014 A 
ATOM     32  C   UNL A   1      36.125  29.452  29.622  1.00  0.00     0.014 A 
ATOM     33  C   UNL A   1      38.190  29.703  27.757  1.00  0.00     0.010 A 
ATOM     34  C   UNL A   1      37.414  29.071  29.968  1.00  0.00     0.010 A 
ATOM     35  C   UNL A   1      38.454  29.178  29.034  1.00  0.00    -0.014 A 
BRANCH  35  36
ATOM     36  C   UNL A   1      39.814  28.716  29.402  1.00  0.00     0.031 A 
ATOM     37  C   UNL A   1      40.578  29.439  30.475  1.00  0.00     0.074 A 
ATOM     38  C   UNL A   1      40.376  27.685  28.743  1.00  0.00     0.049 A 
ATOM     39  N   UNL A   1      41.777  29.195  30.935  1.00  0.00    -0.248 NA
ATOM     40  C   UNL A   1      39.923  30.601  31.098  1.00  0.00     0.031 C 
ATOM     41  C   UNL A   1      39.754  26.946  27.641  1.00  0.00     0.029 A 
ATOM     42  N   UNL A   1      41.599  27.083  28.897  1.00  0.00    -0.354 N 
ATOM     43  C   UNL A   1      42.025  30.181  31.881  1.00  0.00     0.074 A 
ATOM     44  C   UNL A   1      40.879  31.061  31.891  1.00  0.00     0.031 C 
ATOM     45  C   UNL A   1      40.588  25.974  27.239  1.00  0.00     0.029 A 
ATOM     46  C   UNL A   1      41.817  26.043  28.023  1.00  0.00     0.049 A 
ATOM     47  H   UNL A   1      42.259  27.368  29.569  1.00  0.00     0.167 HD
ATOM     48  C   UNL A   1      43.094  30.318  32.699  1.00  0.00     0.034 A 
ATOM     49  C   UNL A   1      42.886  25.236  27.872  1.00  0.00     0.034 A 
ATOM     50  C   UNL A   1      44.217  29.422  32.704  1.00  0.00     0.049 A 
ATOM     51  C   UNL A   1      44.067  25.411  28.789  1.00  0.00     0.074 A 
ATOM     52  C   UNL A   1      45.320  29.437  33.535  1.00  0.00     0.029 A 
ATOM     53  N   UNL A   1      44.389  28.360  31.827  1.00  0.00    -0.354 N 
ATOM     54  N   UNL A   1      44.225  26.261  29.774  1.00  0.00    -0.248 NA
ATOM     55  C   UNL A   1      45.203  24.498  28.596  1.00  0.00     0.031 C 
ATOM     56  C   UNL A   1      46.182  28.414  33.133  1.00  0.00     0.029 A 
ATOM     57  C   UNL A   1      45.591  27.727  32.083  1.00  0.00     0.049 A 
ATOM     58  H   UNL A   1      43.748  28.097  31.127  1.00  0.00     0.167 HD
ATOM     59  C   UNL A   1      45.463  25.970  30.337  1.00  0.00     0.074 A 
ATOM     60  C   UNL A   1      46.002  24.847  29.597  1.00  0.00     0.031 C 
ATOM     61  C   UNL A   1      46.100  26.586  31.364  1.00  0.00     0.034 A 
BRANCH  48  62
ATOM     62  C   UNL A   1      43.077  31.452  33.691  1.00  0.00     0.023 A 
ATOM     63  C   UNL A   1      43.588  32.714  33.318  1.00  0.00     0.012 A 
ATOM     64  C   UNL A   1      42.495  31.293  34.963  1.00  0.00     0.148 A 
ATOM     65  C   UNL A   1      43.552  33.787  34.207  1.00  0.00     0.002 A 
ATOM     66  C   UNL A   1      42.412  32.381  35.823  1.00  0.00     0.091 A 
ATOM     67  F   UNL A   1      42.035  30.081  35.309  1.00  0.00    -0.205 F 
ATOM     68  C   UNL A   1      42.953  33.624  35.452  1.00  0.00     0.022 A 
BRANCH  66  69
ATOM     69  S   UNL A   1      41.575  32.304  37.409  1.00  0.00     0.127 S 
ATOM     70  O   UNL A   1      41.729  33.676  37.891  1.00  0.00    -0.237 OA
ATOM     71  O   UNL A   1      40.213  31.944  37.017  1.00  0.00    -0.237 OA
ATOM     72  O   UNL A   1      42.276  31.292  38.187  1.00  0.00    -0.744 OA
ENDBRANCH  66  69
ENDBRANCH  48  62
BRANCH  49  73
ATOM     73  C   UNL A   1      42.846  24.145  26.856  1.00  0.00     0.023 A 
ATOM     74  C   UNL A   1      43.521  24.313  25.631  1.00  0.00     0.012 A 
ATOM     75  C   UNL A   1      42.205  22.919  27.123  1.00  0.00     0.148 A 
ATOM     76  C   UNL A   1      43.547  23.288  24.686  1.00  0.00     0.002 A 
ATOM     77  C   UNL A   1      42.285  21.881  26.203  1.00  0.00     0.091 A 
ATOM     78  F   UNL A   1      41.562  22.782  28.290  1.00  0.00    -0.205 F 
ATOM     79  C   UNL A   1      42.941  22.067  24.976  1.00  0.00     0.022 A 
BRANCH  77  80
ATOM     80  S   UNL A   1      41.662  20.232  26.547  1.00  0.00     0.127 S 
ATOM     81  O   UNL A   1      40.220  20.460  26.597  1.00  0.00    -0.237 OA
ATOM     82  O   UNL A   1      42.129  19.488  25.376  1.00  0.00    -0.237 OA
ATOM     83  O   UNL A   1      42.277  19.829  27.804  1.00  0.00    -0.744 OA
ENDBRANCH  77  80
ENDBRANCH  49  73
BRANCH  61  84
ATOM     84  C   UNL A   1      47.454  26.063  31.776  1.00  0.00     0.023 A 
ATOM     85  C   UNL A   1      48.614  26.551  31.143  1.00  0.00     0.012 A 
ATOM     86  C   UNL A   1      47.582  25.187  32.872  1.00  0.00     0.148 A 
ATOM     87  C   UNL A   1      49.879  26.154  31.578  1.00  0.00     0.002 A 
ATOM     88  C   UNL A   1      48.845  24.842  33.337  1.00  0.00     0.091 A 
ATOM     89  F   UNL A   1      46.465  24.726  33.455  1.00  0.00    -0.205 F 
ATOM     90  C   UNL A   1      49.995  25.314  32.682  1.00  0.00     0.022 A 
BRANCH  88  91
ATOM     91  S   UNL A   1      49.098  23.859  34.820  1.00  0.00     0.127 S 
ATOM     92  O   UNL A   1      48.290  24.584  35.799  1.00  0.00    -0.237 OA
ATOM     93  O   UNL A   1      48.556  22.559  34.423  1.00  0.00    -0.237 OA
ATOM     94  O   UNL A   1      50.532  23.869  35.072  1.00  0.00    -0.744 OA
ENDBRANCH  88  91
ENDBRANCH  61  84
ENDBRANCH  35  36
ENDBRANCH  27  30
ENDBRANCH  25  26
ENDBRANCH   1  25
TORSDOF 16
ENDMDL
MODEL 2
REMARK VINA RESULT:     -11.7      2.252      3.077
REMARK SMILES C#Cc1cc(Cl)cc2c1O[C@H](C(F)(F)F)C(C(=O)NCCCCNC(=O)c1ccc(-c3c4nc(c(-c5cccc(S(=O)(=O)[O-])c5F)c5ccc([nH]5)c(-c5cccc(S(=O)(=O)[O-])c5F)c5nc(c(-c6cccc(S(=O)(=O)[O-])c6F)c6ccc3[nH]6)C=C5)C=C4)cc1)=C2
REMARK SMILES IDX 22 1 21 2 20 3 19 4 17 5 18 6 16 8 3 9 4 10 9 11 5 12 8 13
REMARK SMILES IDX 10 14 6 15 7 16 90 17 11 18 2 19 1 20 12 21 13 22 14 23
REMARK SMILES IDX 15 24 23 25 24 26 25 27 26 29 27 30 28 31 89 32 29 33 88 34
REMARK SMILES IDX 30 35 31 36 32 37 82 38 33 39 87 40 81 41 83 42 34 43 86 44
REMARK SMILES IDX 80 45 79 46 35 48 67 49 47 50 66 51 48 52 51 53 65 54 84 55
REMARK SMILES IDX 49 56 50 57 64 59 85 60 52 61 36 62 37 63 45 64 38 65 40 66
REMARK SMILES IDX 46 67 39 68 41 69 42 70 43 71 44 72 68 73 69 74 77 75 70 76
REMARK SMILES IDX 72 77 78 78 71 79 73 80 74 81 75 82 76 83 53 84 54 85 62 86
REMARK SMILES IDX 55 87 57 88 63 89 56 90 58 91 59 92 60 93 61 94
REMARK H PARENT 19 7 24 28 83 47 51 58
REMARK Flexibility Score: inf
ROOT
ATOM      1  C   UNL A   1      31.729  29.671  25.039  1.00  0.00     0.023 C 
ENDROOT
BRANCH   1   2
ATOM      2  C   UNL A   1      32.411  28.717  24.066  1.00  0.00     0.023 C 
BRANCH   2   3
ATOM      3  C   UNL A   1      31.519  27.557  23.644  1.00  0.00     0.116 C 
BRANCH   3   4
ATOM      4  N   UNL A   1      30.769  27.003  24.761  1.00  0.00    -0.352 N 
ATOM      5  C   UNL A   1      30.842  25.905  25.553  1.00  0.00     0.251 C 
ATOM      6  O   UNL A   1      30.008  25.835  26.460  1.00  0.00    -0.270 OA
ATOM      7  H   UNL A   1      30.009  27.578  25.006  1.00  0.00     0.163 HD
BRANCH   5   8
ATOM      8  C   UNL A   1      31.840  24.808  25.389  1.00  0.00     0.067 C 
ATOM      9  C   UNL A   1      34.654  21.689  25.241  1.00  0.00     0.068 A 
ATOM     10  C   UNL A   1      36.002  21.956  25.467  1.00  0.00     0.041 A 
ATOM     11  C   UNL A   1      33.720  22.731  25.318  1.00  0.00     0.143 A 
ATOM     12  C   UNL A   1      36.401  23.259  25.771  1.00  0.00     0.043 A 
ATOM     13  C   UNL A   1      34.116  24.035  25.629  1.00  0.00     0.020 A 
ATOM     14  O   UNL A   1      32.410  22.397  25.129  1.00  0.00    -0.474 OA
ATOM     15  Cl  UNL A   1      38.067  23.585  26.058  1.00  0.00    -0.084 Cl
ATOM     16  C   UNL A   1      35.469  24.297  25.854  1.00  0.00     0.032 A 
ATOM     17  C   UNL A   1      33.106  25.081  25.758  1.00  0.00     0.025 C 
ATOM     18  C   UNL A   1      31.490  23.465  24.826  1.00  0.00     0.314 C 
BRANCH   9  19
ATOM     19  C   UNL A   1      34.223  20.357  24.931  1.00  0.00    -0.067 C 
ATOM     20  C   UNL A   1      33.939  19.216  24.681  1.00  0.00     0.010 C 
ENDBRANCH   9  19
BRANCH  18  21
ATOM     21  C   UNL A   1      31.247  23.509  23.303  1.00  0.00     0.429 C 
ATOM     22  F   UNL A   1      29.952  23.817  23.040  1.00  0.00    -0.167 F 
ATOM     23  F   UNL A   1      31.998  24.443  22.676  1.00  0.00    -0.167 F 
ATOM     24  F   UNL A   1      31.513  22.325  22.706  1.00  0.00    -0.167 F 
ENDBRANCH  18  21
ENDBRANCH   5   8
ENDBRANCH   3   4
ENDBRANCH   2   3
ENDBRANCH   1   2
BRANCH   1  25
ATOM     25  C   UNL A   1      32.613  30.141  26.187  1.00  0.00     0.116 C 
BRANCH  25  26
ATOM     26  N   UNL A   1      32.386  31.534  26.560  1.00  0.00    -0.352 N 
ATOM     27  C   UNL A   1      33.179  32.332  27.351  1.00  0.00     0.251 C 
ATOM     28  H   UNL A   1      31.568  31.951  26.205  1.00  0.00     0.163 HD
ATOM     29  O   UNL A   1      32.811  33.449  27.693  1.00  0.00    -0.269 OA
BRANCH  27  30
ATOM     30  C   UNL A   1      34.471  31.786  27.804  1.00  0.00     0.039 A 
ATOM     31  C   UNL A   1      35.559  32.646  27.940  1.00  0.00     0.014 A 
ATOM     32  C   UNL A   1      34.549  30.450  28.211  1.00  0.00     0.014 A 
ATOM     33  C   UNL A   1      36.720  32.176  28.551  1.00  0.00     0.010 A 
ATOM     34  C   UNL A   1      35.667  30.019  28.909  1.00  0.00     0.010 A 
ATOM     35  C   UNL A   1      36.769  30.871  29.071  1.00  0.00    -0.014 A 
BRANCH  35  36
ATOM     36  C   UNL A   1      37.977  30.374  29.773  1.00  0.00     0.031 A 
ATOM     37  C   UNL A   1      38.248  30.810  31.185  1.00  0.00     0.074 A 
ATOM     38  C   UNL A   1      38.849  29.576  29.128  1.00  0.00     0.049 A 
ATOM     39  N   UNL A   1      39.248  30.493  31.964  1.00  0.00    -0.248 NA
ATOM     40  C   UNL A   1      37.284  31.741  31.796  1.00  0.00     0.031 C 
ATOM     41  C   UNL A   1      38.724  29.137  27.736  1.00  0.00     0.029 A 
ATOM     42  N   UNL A   1      40.018  28.997  29.554  1.00  0.00    -0.354 N 
ATOM     43  C   UNL A   1      39.044  31.199  33.144  1.00  0.00     0.074 A 
ATOM     44  C   UNL A   1      37.858  32.004  32.959  1.00  0.00     0.031 C 
ATOM     45  C   UNL A   1      39.758  28.337  27.433  1.00  0.00     0.029 A 
ATOM     46  C   UNL A   1      40.640  28.236  28.592  1.00  0.00     0.049 A 
ATOM     47  H   UNL A   1      40.377  29.115  30.462  1.00  0.00     0.167 HD
ATOM     48  C   UNL A   1      39.756  31.149  34.293  1.00  0.00     0.034 A 
ATOM     49  C   UNL A   1      41.791  27.536  28.639  1.00  0.00     0.034 A 
ATOM     50  C   UNL A   1      40.917  30.324  34.478  1.00  0.00     0.049 A 
ATOM     51  C   UNL A   1      42.571  27.500  29.926  1.00  0.00     0.074 A 
ATOM     52  C   UNL A   1      41.672  30.154  35.623  1.00  0.00     0.029 A 
ATOM     53  N   UNL A   1      41.500  29.541  33.492  1.00  0.00    -0.354 N 
ATOM     54  N   UNL A   1      42.287  28.061  31.076  1.00  0.00    -0.248 NA
ATOM     55  C   UNL A   1      43.811  26.711  29.933  1.00  0.00     0.031 C 
ATOM     56  C   UNL A   1      42.739  29.305  35.317  1.00  0.00     0.029 A 
ATOM     57  C   UNL A   1      42.619  28.904  33.996  1.00  0.00     0.049 A 
ATOM     58  H   UNL A   1      41.165  29.452  32.570  1.00  0.00     0.167 HD
ATOM     59  C   UNL A   1      43.296  27.673  31.951  1.00  0.00     0.074 A 
ATOM     60  C   UNL A   1      44.185  26.807  31.203  1.00  0.00     0.031 C 
ATOM     61  C   UNL A   1      43.475  28.014  33.252  1.00  0.00     0.034 A 
BRANCH  48  62
ATOM     62  C   UNL A   1      39.271  31.976  35.455  1.00  0.00     0.023 A 
ATOM     63  C   UNL A   1      38.387  31.407  36.397  1.00  0.00     0.012 A 
ATOM     64  C   UNL A   1      39.740  33.289  35.656  1.00  0.00     0.148 A 
ATOM     65  C   UNL A   1      37.952  32.142  37.499  1.00  0.00     0.002 A 
ATOM     66  C   UNL A   1      39.346  33.995  36.785  1.00  0.00     0.091 A 
ATOM     67  F   UNL A   1      40.560  33.821  34.738  1.00  0.00    -0.205 F 
ATOM     68  C   UNL A   1      38.441  33.429  37.699  1.00  0.00     0.022 A 
BRANCH  66  69
ATOM     69  S   UNL A   1      39.991  35.621  37.187  1.00  0.00     0.127 S 
ATOM     70  O   UNL A   1      41.421  35.346  37.322  1.00  0.00    -0.237 OA
ATOM     71  O   UNL A   1      39.627  36.395  36.001  1.00  0.00    -0.237 OA
ATOM     72  O   UNL A   1      39.321  36.030  38.414  1.00  0.00    -0.744 OA
ENDBRANCH  66  69
ENDBRANCH  48  62
BRANCH  49  73
ATOM     73  C   UNL A   1      42.226  26.755  27.445  1.00  0.00     0.023 A 
ATOM     74  C   UNL A   1      42.920  27.405  26.405  1.00  0.00     0.012 A 
ATOM     75  C   UNL A   1      42.018  25.363  27.364  1.00  0.00     0.148 A 
ATOM     76  C   UNL A   1      43.386  26.688  25.303  1.00  0.00     0.002 A 
ATOM     77  C   UNL A   1      42.538  24.646  26.294  1.00  0.00     0.091 A 
ATOM     78  F   UNL A   1      41.349  24.765  28.359  1.00  0.00    -0.205 F 
ATOM     79  C   UNL A   1      43.207  25.308  25.253  1.00  0.00     0.022 A 
BRANCH  77  80
ATOM     80  S   UNL A   1      42.484  22.852  26.212  1.00  0.00     0.127 S 
ATOM     81  O   UNL A   1      41.064  22.584  26.428  1.00  0.00    -0.237 OA
ATOM     82  O   UNL A   1      42.959  22.603  24.851  1.00  0.00    -0.237 OA
ATOM     83  O   UNL A   1      43.377  22.380  27.261  1.00  0.00    -0.744 OA
ENDBRANCH  77  80
ENDBRANCH  49  73
BRANCH  61  84
ATOM     84  C   UNL A   1      44.671  27.447  33.976  1.00  0.00     0.023 A 
ATOM     85  C   UNL A   1      45.872  28.181  34.025  1.00  0.00     0.012 A 
ATOM     86  C   UNL A   1      44.563  26.249  34.711  1.00  0.00     0.148 A 
ATOM     87  C   UNL A   1      46.956  27.719  34.773  1.00  0.00     0.002 A 
ATOM     88  C   UNL A   1      45.625  25.826  35.501  1.00  0.00     0.091 A 
ATOM     89  F   UNL A   1      43.415  25.560  34.644  1.00  0.00    -0.205 F 
ATOM     90  C   UNL A   1      46.827  26.552  35.522  1.00  0.00     0.022 A 
BRANCH  88  91
ATOM     91  S   UNL A   1      45.517  24.399  36.589  1.00  0.00     0.127 S 
ATOM     92  O   UNL A   1      45.209  23.328  35.643  1.00  0.00    -0.237 OA
ATOM     93  O   UNL A   1      46.865  24.343  37.156  1.00  0.00    -0.237 OA
ATOM     94  O   UNL A   1      44.465  24.700  37.548  1.00  0.00    -0.744 OA
ENDBRANCH  88  91
ENDBRANCH  61  84
ENDBRANCH  35  36
ENDBRANCH  27  30
ENDBRANCH  25  26
ENDBRANCH   1  25
TORSDOF 16
ENDMDL
MODEL 3
REMARK VINA RESULT:     -11.7      4.984      9.574
REMARK SMILES C#Cc1cc(Cl)cc2c1O[C@H](C(F)(F)F)C(C(=O)NCCCCNC(=O)c1ccc(-c3c4nc(c(-c5cccc(S(=O)(=O)[O-])c5F)c5ccc([nH]5)c(-c5cccc(S(=O)(=O)[O-])c5F)c5nc(c(-c6cccc(S(=O)(=O)[O-])c6F)c6ccc3[nH]6)C=C5)C=C4)cc1)=C2
REMARK SMILES IDX 22 1 21 2 20 3 19 4 17 5 18 6 16 8 3 9 4 10 9 11 5 12 8 13
REMARK SMILES IDX 10 14 6 15 7 16 90 17 11 18 2 19 1 20 12 21 13 22 14 23
REMARK SMILES IDX 15 24 23 25 24 26 25 27 26 29 27 30 28 31 89 32 29 33 88 34
REMARK SMILES IDX 30 35 31 36 32 37 82 38 33 39 87 40 81 41 83 42 34 43 86 44
REMARK SMILES IDX 80 45 79 46 35 48 67 49 47 50 66 51 48 52 51 53 65 54 84 55
REMARK SMILES IDX 49 56 50 57 64 59 85 60 52 61 36 62 37 63 45 64 38 65 40 66
REMARK SMILES IDX 46 67 39 68 41 69 42 70 43 71 44 72 68 73 69 74 77 75 70 76
REMARK SMILES IDX 72 77 78 78 71 79 73 80 74 81 75 82 76 83 53 84 54 85 62 86
REMARK SMILES IDX 55 87 57 88 63 89 56 90 58 91 59 92 60 93 61 94
REMARK H PARENT 19 7 24 28 83 47 51 58
REMARK Flexibility Score: inf
ROOT
ATOM      1  C   UNL A   1      35.783  21.379  24.736  1.00  0.00     0.023 C 
ENDROOT
BRANCH   1   2
ATOM      2  C   UNL A   1      34.562  21.376  25.647  1.00  0.00     0.023 C 
BRANCH   2   3
ATOM      3  C   UNL A   1      33.316  21.939  24.976  1.00  0.00     0.116 C 
BRANCH   3   4
ATOM      4  N   UNL A   1      33.556  22.311  23.590  1.00  0.00    -0.352 N 
ATOM      5  C   UNL A   1      33.482  23.438  22.842  1.00  0.00     0.251 C 
ATOM      6  O   UNL A   1      33.840  23.332  21.665  1.00  0.00    -0.270 OA
ATOM      7  H   UNL A   1      33.851  21.538  23.055  1.00  0.00     0.163 HD
BRANCH   5   8
ATOM      8  C   UNL A   1      33.001  24.758  23.345  1.00  0.00     0.067 C 
ATOM      9  C   UNL A   1      31.865  28.610  24.585  1.00  0.00     0.068 A 
ATOM     10  C   UNL A   1      32.580  29.257  25.590  1.00  0.00     0.041 A 
ATOM     11  C   UNL A   1      32.267  27.336  24.160  1.00  0.00     0.143 A 
ATOM     12  C   UNL A   1      33.690  28.627  26.155  1.00  0.00     0.043 A 
ATOM     13  C   UNL A   1      33.382  26.706  24.721  1.00  0.00     0.020 A 
ATOM     14  O   UNL A   1      31.551  26.774  23.143  1.00  0.00    -0.474 OA
ATOM     15  Cl  UNL A   1      34.578  29.433  27.391  1.00  0.00    -0.084 Cl
ATOM     16  C   UNL A   1      34.095  27.360  25.728  1.00  0.00     0.032 A 
ATOM     17  C   UNL A   1      33.803  25.406  24.210  1.00  0.00     0.025 C 
ATOM     18  C   UNL A   1      31.685  25.351  22.946  1.00  0.00     0.314 C 
BRANCH   9  19
ATOM     19  C   UNL A   1      30.724  29.241  23.988  1.00  0.00    -0.067 C 
ATOM     20  C   UNL A   1      29.800  29.842  23.508  1.00  0.00     0.010 C 
ENDBRANCH   9  19
BRANCH  18  21
ATOM     21  C   UNL A   1      30.489  24.633  23.603  1.00  0.00     0.429 C 
ATOM     22  F   UNL A   1      29.447  25.490  23.753  1.00  0.00    -0.167 F 
ATOM     23  F   UNL A   1      30.028  23.596  22.868  1.00  0.00    -0.167 F 
ATOM     24  F   UNL A   1      30.792  24.144  24.827  1.00  0.00    -0.167 F 
ENDBRANCH  18  21
ENDBRANCH   5   8
ENDBRANCH   3   4
ENDBRANCH   2   3
ENDBRANCH   1   2
BRANCH   1  25
ATOM     25  C   UNL A   1      37.065  21.869  25.399  1.00  0.00     0.116 C 
BRANCH  25  26
ATOM     26  N   UNL A   1      38.059  20.816  25.586  1.00  0.00    -0.352 N 
ATOM     27  C   UNL A   1      39.321  20.938  26.119  1.00  0.00     0.251 C 
ATOM     28  H   UNL A   1      37.795  19.913  25.297  1.00  0.00     0.163 HD
ATOM     29  O   UNL A   1      40.107  19.998  26.104  1.00  0.00    -0.269 OA
BRANCH  27  30
ATOM     30  C   UNL A   1      39.710  22.246  26.674  1.00  0.00     0.039 A 
ATOM     31  C   UNL A   1      40.709  22.298  27.645  1.00  0.00     0.014 A 
ATOM     32  C   UNL A   1      39.169  23.415  26.130  1.00  0.00     0.014 A 
ATOM     33  C   UNL A   1      41.215  23.540  28.028  1.00  0.00     0.010 A 
ATOM     34  C   UNL A   1      39.746  24.638  26.439  1.00  0.00     0.010 A 
ATOM     35  C   UNL A   1      40.762  24.714  27.402  1.00  0.00    -0.014 A 
BRANCH  35  36
ATOM     36  C   UNL A   1      41.329  26.036  27.759  1.00  0.00     0.031 A 
ATOM     37  C   UNL A   1      42.735  26.377  27.351  1.00  0.00     0.074 A 
ATOM     38  C   UNL A   1      40.603  26.905  28.488  1.00  0.00     0.049 A 
ATOM     39  N   UNL A   1      43.411  27.473  27.572  1.00  0.00    -0.248 NA
ATOM     40  C   UNL A   1      43.488  25.345  26.619  1.00  0.00     0.031 C 
ATOM     41  C   UNL A   1      39.250  26.660  28.994  1.00  0.00     0.029 A 
ATOM     42  N   UNL A   1      40.901  28.167  28.936  1.00  0.00    -0.354 N 
ATOM     43  C   UNL A   1      44.670  27.254  27.027  1.00  0.00     0.074 A 
ATOM     44  C   UNL A   1      44.685  25.903  26.515  1.00  0.00     0.031 C 
ATOM     45  C   UNL A   1      38.826  27.748  29.659  1.00  0.00     0.029 A 
ATOM     46  C   UNL A   1      39.887  28.751  29.661  1.00  0.00     0.049 A 
ATOM     47  H   UNL A   1      41.759  28.614  28.756  1.00  0.00     0.167 HD
ATOM     48  C   UNL A   1      45.708  28.116  26.923  1.00  0.00     0.034 A 
ATOM     49  C   UNL A   1      39.821  29.957  30.259  1.00  0.00     0.034 A 
ATOM     50  C   UNL A   1      45.675  29.467  27.408  1.00  0.00     0.049 A 
ATOM     51  C   UNL A   1      40.990  30.897  30.136  1.00  0.00     0.074 A 
ATOM     52  C   UNL A   1      46.650  30.440  27.298  1.00  0.00     0.029 A 
ATOM     53  N   UNL A   1      44.620  30.034  28.109  1.00  0.00    -0.354 N 
ATOM     54  N   UNL A   1      42.121  30.725  29.495  1.00  0.00    -0.248 NA
ATOM     55  C   UNL A   1      40.865  32.207  30.792  1.00  0.00     0.031 C 
ATOM     56  C   UNL A   1      46.205  31.580  27.971  1.00  0.00     0.029 A 
ATOM     57  C   UNL A   1      44.930  31.336  28.456  1.00  0.00     0.049 A 
ATOM     58  H   UNL A   1      43.775  29.577  28.326  1.00  0.00     0.167 HD
ATOM     59  C   UNL A   1      42.830  31.912  29.645  1.00  0.00     0.074 A 
ATOM     60  C   UNL A   1      41.989  32.804  30.418  1.00  0.00     0.031 C 
ATOM     61  C   UNL A   1      44.070  32.228  29.194  1.00  0.00     0.034 A 
BRANCH  48  62
ATOM     62  C   UNL A   1      46.949  27.637  26.217  1.00  0.00     0.023 A 
ATOM     63  C   UNL A   1      47.890  26.849  26.915  1.00  0.00     0.012 A 
ATOM     64  C   UNL A   1      47.154  27.904  24.850  1.00  0.00     0.148 A 
ATOM     65  C   UNL A   1      49.029  26.366  26.273  1.00  0.00     0.002 A 
ATOM     66  C   UNL A   1      48.262  27.373  24.203  1.00  0.00     0.091 A 
ATOM     67  F   UNL A   1      46.262  28.674  24.209  1.00  0.00    -0.205 F 
ATOM     68  C   UNL A   1      49.208  26.616  24.916  1.00  0.00     0.022 A 
BRANCH  66  69
ATOM     69  S   UNL A   1      48.537  27.555  22.438  1.00  0.00     0.127 S 
ATOM     70  O   UNL A   1      47.351  28.308  22.032  1.00  0.00    -0.237 OA
ATOM     71  O   UNL A   1      49.786  28.315  22.402  1.00  0.00    -0.237 OA
ATOM     72  O   UNL A   1      48.627  26.204  21.902  1.00  0.00    -0.744 OA
ENDBRANCH  66  69
ENDBRANCH  48  62
BRANCH  49  73
ATOM     73  C   UNL A   1      38.568  30.361  30.960  1.00  0.00     0.023 A 
ATOM     74  C   UNL A   1      38.396  30.030  32.319  1.00  0.00     0.012 A 
ATOM     75  C   UNL A   1      37.581  31.129  30.312  1.00  0.00     0.148 A 
ATOM     76  C   UNL A   1      37.260  30.444  33.014  1.00  0.00     0.002 A 
ATOM     77  C   UNL A   1      36.481  31.590  31.026  1.00  0.00     0.091 A 
ATOM     78  F   UNL A   1      37.760  31.427  29.018  1.00  0.00    -0.205 F 
ATOM     79  C   UNL A   1      36.309  31.234  32.373  1.00  0.00     0.022 A 
BRANCH  77  80
ATOM     80  S   UNL A   1      35.280  32.728  30.327  1.00  0.00     0.127 S 
ATOM     81  O   UNL A   1      34.754  31.958  29.204  1.00  0.00    -0.237 OA
ATOM     82  O   UNL A   1      34.352  32.903  31.446  1.00  0.00    -0.237 OA
ATOM     83  O   UNL A   1      36.029  33.925  29.971  1.00  0.00    -0.744 OA
ENDBRANCH  77  80
ENDBRANCH  49  73
BRANCH  61  84
ATOM     84  C   UNL A   1      44.610  33.602  29.504  1.00  0.00     0.023 A 
ATOM     85  C   UNL A   1      45.326  33.819  30.697  1.00  0.00     0.012 A 
ATOM     86  C   UNL A   1      44.514  34.642  28.557  1.00  0.00     0.148 A 
ATOM     87  C   UNL A   1      45.918  35.056  30.954  1.00  0.00     0.002 A 
ATOM     88  C   UNL A   1      45.155  35.851  28.793  1.00  0.00     0.091 A 
ATOM     89  F   UNL A   1      43.820  34.418  27.432  1.00  0.00    -0.205 F 
ATOM     90  C   UNL A   1      45.846  36.065  29.997  1.00  0.00     0.022 A 
BRANCH  88  91
ATOM     91  S   UNL A   1      45.217  37.171  27.574  1.00  0.00     0.127 S 
ATOM     92  O   UNL A   1      45.916  38.222  28.310  1.00  0.00    -0.237 OA
ATOM     93  O   UNL A   1      45.996  36.558  26.497  1.00  0.00    -0.237 OA
ATOM     94  O   UNL A   1      43.834  37.470  27.230  1.00  0.00    -0.744 OA
ENDBRANCH  88  91
ENDBRANCH  61  84
ENDBRANCH  35  36
ENDBRANCH  27  30
ENDBRANCH  25  26
ENDBRANCH   1  25
TORSDOF 16
ENDMDL
