MODEL 1
REMARK VINA RESULT:     -11.4      0.000      0.000
REMARK SMILES O=C(NCCCCNC(=O)C1([NH+]2CCOCC2)CCC1)c1ccc(-c2c3nc(c(-c4cccc(S(=O)(=O)[O-])c4F)c4ccc([nH]4)c(-c4cccc(S(=O)(=O)[O-])c4F)c4nc(c(-c5cccc(S(=O)(=O)[O-])c5F)c5ccc2[nH]5)C=C4)C=C3)cc1
REMARK SMILES IDX 4 1 3 2 1 3 2 4 21 6 22 7 83 8 23 9 82 10 24 11 25 12 26 13
REMARK SMILES IDX 76 14 27 15 81 16 75 17 77 18 28 19 80 20 74 21 73 22 29 24
REMARK SMILES IDX 61 25 41 26 60 27 42 28 45 29 59 30 78 31 43 32 44 33 58 35
REMARK SMILES IDX 79 36 46 37 30 38 31 39 39 40 32 41 34 42 40 43 33 44 35 45
REMARK SMILES IDX 36 46 37 47 38 48 62 49 63 50 71 51 64 52 66 53 72 54 65 55
REMARK SMILES IDX 67 56 68 57 69 58 70 59 47 60 48 61 56 62 49 63 51 64 57 65
REMARK SMILES IDX 50 66 52 67 53 68 54 69 55 70 5 71 6 72 7 73 8 74 9 75 10 77
REMARK SMILES IDX 11 78 18 79 20 80 19 81 12 82 13 83 17 84 14 86 16 87 15 88
REMARK H PARENT 3 5 77 23 45 34 8 76 12 85
REMARK Flexibility Score: inf
ROOT
ATOM      1  C   UNL A   1      32.834  29.774  25.571  1.00  0.00     0.116 C 
ENDROOT
BRANCH   1   2
ATOM      2  N   UNL A   1      32.376  31.020  26.174  1.00  0.00    -0.352 N 
ATOM      3  O   UNL A   1      32.440  32.754  27.618  1.00  0.00    -0.269 OA
ATOM      4  C   UNL A   1      32.999  31.773  27.140  1.00  0.00     0.251 C 
ATOM      5  H   UNL A   1      31.513  31.364  25.848  1.00  0.00     0.163 HD
BRANCH   4   6
ATOM      6  C   UNL A   1      34.329  31.349  27.623  1.00  0.00     0.039 A 
ATOM      7  C   UNL A   1      34.544  30.023  28.011  1.00  0.00     0.014 A 
ATOM      8  C   UNL A   1      35.341  32.302  27.767  1.00  0.00     0.014 A 
ATOM      9  C   UNL A   1      35.708  29.691  28.693  1.00  0.00     0.010 A 
ATOM     10  C   UNL A   1      36.541  31.944  28.384  1.00  0.00     0.010 A 
ATOM     11  C   UNL A   1      36.714  30.650  28.899  1.00  0.00    -0.014 A 
BRANCH  11  12
ATOM     12  C   UNL A   1      37.939  30.264  29.645  1.00  0.00     0.031 A 
ATOM     13  C   UNL A   1      38.166  30.720  31.061  1.00  0.00     0.074 A 
ATOM     14  C   UNL A   1      38.838  29.462  29.041  1.00  0.00     0.049 A 
ATOM     15  N   UNL A   1      39.144  30.411  31.876  1.00  0.00    -0.248 NA
ATOM     16  C   UNL A   1      37.180  31.648  31.640  1.00  0.00     0.031 C 
ATOM     17  C   UNL A   1      38.746  28.993  27.657  1.00  0.00     0.029 A 
ATOM     18  N   UNL A   1      39.991  28.890  29.512  1.00  0.00    -0.354 N 
ATOM     19  C   UNL A   1      38.920  31.139  33.038  1.00  0.00     0.074 A 
ATOM     20  C   UNL A   1      37.713  31.908  32.827  1.00  0.00     0.031 C 
ATOM     21  C   UNL A   1      39.775  28.171  27.403  1.00  0.00     0.029 A 
ATOM     22  C   UNL A   1      40.618  28.084  28.591  1.00  0.00     0.049 A 
ATOM     23  H   UNL A   1      40.337  29.042  30.421  1.00  0.00     0.167 HD
ATOM     24  C   UNL A   1      39.644  31.150  34.184  1.00  0.00     0.034 A 
ATOM     25  C   UNL A   1      41.741  27.349  28.693  1.00  0.00     0.034 A 
ATOM     26  C   UNL A   1      40.807  30.336  34.414  1.00  0.00     0.049 A 
ATOM     27  C   UNL A   1      42.482  27.326  29.999  1.00  0.00     0.074 A 
ATOM     28  C   UNL A   1      41.568  30.227  35.565  1.00  0.00     0.029 A 
ATOM     29  N   UNL A   1      41.377  29.487  33.477  1.00  0.00    -0.354 N 
ATOM     30  N   UNL A   1      42.178  27.920  31.128  1.00  0.00    -0.248 NA
ATOM     31  C   UNL A   1      43.701  26.508  30.057  1.00  0.00     0.031 C 
ATOM     32  C   UNL A   1      42.599  29.312  35.324  1.00  0.00     0.029 A 
ATOM     33  C   UNL A   1      42.477  28.849  34.024  1.00  0.00     0.049 A 
ATOM     34  H   UNL A   1      41.047  29.356  32.560  1.00  0.00     0.167 HD
ATOM     35  C   UNL A   1      43.154  27.531  32.036  1.00  0.00     0.074 A 
ATOM     36  C   UNL A   1      44.043  26.627  31.332  1.00  0.00     0.031 C 
ATOM     37  C   UNL A   1      43.315  27.906  33.329  1.00  0.00     0.034 A 
BRANCH  24  38
ATOM     38  C   UNL A   1      39.170  32.036  35.306  1.00  0.00     0.023 A 
ATOM     39  C   UNL A   1      38.214  31.546  36.218  1.00  0.00     0.012 A 
ATOM     40  C   UNL A   1      39.720  33.317  35.504  1.00  0.00     0.148 A 
ATOM     41  C   UNL A   1      37.795  32.326  37.296  1.00  0.00     0.002 A 
ATOM     42  C   UNL A   1      39.324  34.076  36.601  1.00  0.00     0.091 A 
ATOM     43  F   UNL A   1      40.609  33.779  34.612  1.00  0.00    -0.205 F 
ATOM     44  C   UNL A   1      38.358  33.585  37.494  1.00  0.00     0.022 A 
BRANCH  42  45
ATOM     45  S   UNL A   1      40.048  35.679  36.968  1.00  0.00     0.127 S 
ATOM     46  O   UNL A   1      39.644  36.460  35.801  1.00  0.00    -0.237 OA
ATOM     47  O   UNL A   1      39.376  36.052  38.213  1.00  0.00    -0.237 OA
ATOM     48  O   UNL A   1      41.478  35.441  37.106  1.00  0.00    -0.744 OA
ENDBRANCH  42  45
ENDBRANCH  24  38
BRANCH  25  49
ATOM     49  C   UNL A   1      42.173  26.509  27.542  1.00  0.00     0.023 A 
ATOM     50  C   UNL A   1      43.043  27.055  26.580  1.00  0.00     0.012 A 
ATOM     51  C   UNL A   1      41.788  25.159  27.432  1.00  0.00     0.148 A 
ATOM     52  C   UNL A   1      43.510  26.277  25.520  1.00  0.00     0.002 A 
ATOM     53  C   UNL A   1      42.303  24.373  26.408  1.00  0.00     0.091 A 
ATOM     54  F   UNL A   1      40.941  24.661  28.345  1.00  0.00    -0.205 F 
ATOM     55  C   UNL A   1      43.153  24.933  25.443  1.00  0.00     0.022 A 
BRANCH  53  56
ATOM     56  S   UNL A   1      42.007  22.602  26.338  1.00  0.00     0.127 S 
ATOM     57  O   UNL A   1      40.550  22.544  26.266  1.00  0.00    -0.237 OA
ATOM     58  O   UNL A   1      42.701  22.219  25.108  1.00  0.00    -0.237 OA
ATOM     59  O   UNL A   1      42.614  22.069  27.550  1.00  0.00    -0.744 OA
ENDBRANCH  53  56
ENDBRANCH  25  49
BRANCH  37  60
ATOM     60  C   UNL A   1      44.486  27.329  34.074  1.00  0.00     0.023 A 
ATOM     61  C   UNL A   1      45.734  27.978  34.013  1.00  0.00     0.012 A 
ATOM     62  C   UNL A   1      44.339  26.185  34.882  1.00  0.00     0.148 A 
ATOM     63  C   UNL A   1      46.827  27.482  34.722  1.00  0.00     0.002 A 
ATOM     64  C   UNL A   1      45.423  25.718  35.617  1.00  0.00     0.091 A 
ATOM     65  F   UNL A   1      43.150  25.564  34.909  1.00  0.00    -0.205 F 
ATOM     66  C   UNL A   1      46.669  26.360  35.532  1.00  0.00     0.022 A 
BRANCH  64  67
ATOM     67  S   UNL A   1      45.266  24.328  36.744  1.00  0.00     0.127 S 
ATOM     68  O   UNL A   1      44.293  24.831  37.711  1.00  0.00    -0.237 OA
ATOM     69  O   UNL A   1      44.764  23.264  35.872  1.00  0.00    -0.237 OA
ATOM     70  O   UNL A   1      46.610  24.092  37.257  1.00  0.00    -0.744 OA
ENDBRANCH  64  67
ENDBRANCH  37  60
ENDBRANCH  11  12
ENDBRANCH   4   6
ENDBRANCH   1   2
BRANCH   1  71
ATOM     71  C   UNL A   1      31.706  28.922  25.003  1.00  0.00     0.023 C 
BRANCH  71  72
ATOM     72  C   UNL A   1      31.595  28.918  23.479  1.00  0.00     0.023 C 
BRANCH  72  73
ATOM     73  C   UNL A   1      31.028  27.632  22.885  1.00  0.00     0.116 C 
BRANCH  73  74
ATOM     74  N   UNL A   1      31.886  27.082  21.859  1.00  0.00    -0.351 N 
ATOM     75  C   UNL A   1      32.698  25.966  21.879  1.00  0.00     0.281 C 
ATOM     76  H   UNL A   1      31.892  27.582  21.010  1.00  0.00     0.163 HD
ATOM     77  O   UNL A   1      33.275  25.712  20.812  1.00  0.00    -0.268 OA
BRANCH  75  78
ATOM     78  C   UNL A   1      32.849  25.079  23.217  1.00  0.00     0.177 C 
ATOM     79  C   UNL A   1      34.164  24.210  23.161  1.00  0.00     0.079 C 
ATOM     80  C   UNL A   1      33.435  25.723  24.501  1.00  0.00     0.079 C 
ATOM     81  C   UNL A   1      34.504  24.629  24.598  1.00  0.00     0.014 C 
BRANCH  78  82
ATOM     82  N   UNL A   1      31.683  24.168  23.444  1.00  0.00    -0.318 N 
ATOM     83  C   UNL A   1      30.818  24.515  24.585  1.00  0.00     0.291 C 
ATOM     84  C   UNL A   1      31.823  22.707  23.359  1.00  0.00     0.291 C 
ATOM     85  H   UNL A   1      31.233  24.400  22.560  1.00  0.00     0.349 HD
ATOM     86  C   UNL A   1      31.185  23.793  25.891  1.00  0.00     0.221 C 
ATOM     87  C   UNL A   1      32.126  21.998  24.690  1.00  0.00     0.221 C 
ATOM     88  O   UNL A   1      31.198  22.373  25.714  1.00  0.00    -0.370 OA
ENDBRANCH  78  82
ENDBRANCH  75  78
ENDBRANCH  73  74
ENDBRANCH  72  73
ENDBRANCH  71  72
ENDBRANCH   1  71
TORSDOF 15
ENDMDL
MODEL 2
REMARK VINA RESULT:     -11.4      1.280      1.930
REMARK SMILES O=C(NCCCCNC(=O)C1([NH+]2CCOCC2)CCC1)c1ccc(-c2c3nc(c(-c4cccc(S(=O)(=O)[O-])c4F)c4ccc([nH]4)c(-c4cccc(S(=O)(=O)[O-])c4F)c4nc(c(-c5cccc(S(=O)(=O)[O-])c5F)c5ccc2[nH]5)C=C4)C=C3)cc1
REMARK SMILES IDX 4 1 3 2 1 3 2 4 21 6 22 7 83 8 23 9 82 10 24 11 25 12 26 13
REMARK SMILES IDX 76 14 27 15 81 16 75 17 77 18 28 19 80 20 74 21 73 22 29 24
REMARK SMILES IDX 61 25 41 26 60 27 42 28 45 29 59 30 78 31 43 32 44 33 58 35
REMARK SMILES IDX 79 36 46 37 30 38 31 39 39 40 32 41 34 42 40 43 33 44 35 45
REMARK SMILES IDX 36 46 37 47 38 48 62 49 63 50 71 51 64 52 66 53 72 54 65 55
REMARK SMILES IDX 67 56 68 57 69 58 70 59 47 60 48 61 56 62 49 63 51 64 57 65
REMARK SMILES IDX 50 66 52 67 53 68 54 69 55 70 5 71 6 72 7 73 8 74 9 75 10 77
REMARK SMILES IDX 11 78 18 79 20 80 19 81 12 82 13 83 17 84 14 86 16 87 15 88
REMARK H PARENT 3 5 77 23 45 34 8 76 12 85
REMARK Flexibility Score: inf
ROOT
ATOM      1  C   UNL A   1      32.778  29.758  25.913  1.00  0.00     0.116 C 
ENDROOT
BRANCH   1   2
ATOM      2  N   UNL A   1      32.421  31.092  26.378  1.00  0.00    -0.352 N 
ATOM      3  O   UNL A   1      32.650  32.978  27.599  1.00  0.00    -0.269 OA
ATOM      4  C   UNL A   1      33.130  31.914  27.221  1.00  0.00     0.251 C 
ATOM      5  H   UNL A   1      31.565  31.449  26.047  1.00  0.00     0.163 HD
BRANCH   4   6
ATOM      6  C   UNL A   1      34.455  31.468  27.699  1.00  0.00     0.039 A 
ATOM      7  C   UNL A   1      34.646  30.142  28.098  1.00  0.00     0.014 A 
ATOM      8  C   UNL A   1      35.486  32.402  27.828  1.00  0.00     0.014 A 
ATOM      9  C   UNL A   1      35.807  29.793  28.776  1.00  0.00     0.010 A 
ATOM     10  C   UNL A   1      36.683  32.026  28.441  1.00  0.00     0.010 A 
ATOM     11  C   UNL A   1      36.833  30.733  28.967  1.00  0.00    -0.014 A 
BRANCH  11  12
ATOM     12  C   UNL A   1      38.055  30.329  29.708  1.00  0.00     0.031 A 
ATOM     13  C   UNL A   1      38.291  30.778  31.126  1.00  0.00     0.074 A 
ATOM     14  C   UNL A   1      38.943  29.519  29.100  1.00  0.00     0.049 A 
ATOM     15  N   UNL A   1      39.266  30.454  31.937  1.00  0.00    -0.248 NA
ATOM     16  C   UNL A   1      37.317  31.716  31.710  1.00  0.00     0.031 C 
ATOM     17  C   UNL A   1      38.842  29.056  27.715  1.00  0.00     0.029 A 
ATOM     18  N   UNL A   1      40.089  28.931  29.566  1.00  0.00    -0.354 N 
ATOM     19  C   UNL A   1      39.055  31.180  33.103  1.00  0.00     0.074 A 
ATOM     20  C   UNL A   1      37.856  31.965  32.897  1.00  0.00     0.031 C 
ATOM     21  C   UNL A   1      39.860  28.222  27.456  1.00  0.00     0.029 A 
ATOM     22  C   UNL A   1      40.705  28.121  28.641  1.00  0.00     0.049 A 
ATOM     23  H   UNL A   1      40.440  29.075  30.475  1.00  0.00     0.167 HD
ATOM     24  C   UNL A   1      39.781  31.179  34.246  1.00  0.00     0.034 A 
ATOM     25  C   UNL A   1      41.819  27.371  28.737  1.00  0.00     0.034 A 
ATOM     26  C   UNL A   1      40.935  30.350  34.471  1.00  0.00     0.049 A 
ATOM     27  C   UNL A   1      42.562  27.335  30.042  1.00  0.00     0.074 A 
ATOM     28  C   UNL A   1      41.697  30.228  35.620  1.00  0.00     0.029 A 
ATOM     29  N   UNL A   1      41.492  29.497  33.530  1.00  0.00    -0.354 N 
ATOM     30  N   UNL A   1      42.268  27.929  31.173  1.00  0.00    -0.248 NA
ATOM     31  C   UNL A   1      43.771  26.502  30.094  1.00  0.00     0.031 C 
ATOM     32  C   UNL A   1      42.716  29.300  35.373  1.00  0.00     0.029 A 
ATOM     33  C   UNL A   1      42.585  28.843  34.073  1.00  0.00     0.049 A 
ATOM     34  H   UNL A   1      41.158  29.373  32.613  1.00  0.00     0.167 HD
ATOM     35  C   UNL A   1      43.241  27.524  32.078  1.00  0.00     0.074 A 
ATOM     36  C   UNL A   1      44.117  26.612  31.369  1.00  0.00     0.031 C 
ATOM     37  C   UNL A   1      43.410  27.893  33.372  1.00  0.00     0.034 A 
BRANCH  24  38
ATOM     38  C   UNL A   1      39.321  32.067  35.373  1.00  0.00     0.023 A 
ATOM     39  C   UNL A   1      38.417  31.560  36.328  1.00  0.00     0.012 A 
ATOM     40  C   UNL A   1      39.834  33.369  35.530  1.00  0.00     0.148 A 
ATOM     41  C   UNL A   1      38.014  32.342  37.411  1.00  0.00     0.002 A 
ATOM     42  C   UNL A   1      39.454  34.131  36.630  1.00  0.00     0.091 A 
ATOM     43  F   UNL A   1      40.671  33.845  34.597  1.00  0.00    -0.205 F 
ATOM     44  C   UNL A   1      38.541  33.623  37.567  1.00  0.00     0.022 A 
BRANCH  42  45
ATOM     45  S   UNL A   1      40.137  35.763  36.944  1.00  0.00     0.127 S 
ATOM     46  O   UNL A   1      39.635  36.520  35.799  1.00  0.00    -0.237 OA
ATOM     47  O   UNL A   1      39.525  36.121  38.225  1.00  0.00    -0.237 OA
ATOM     48  O   UNL A   1      41.581  35.581  37.000  1.00  0.00    -0.744 OA
ENDBRANCH  42  45
ENDBRANCH  24  38
BRANCH  25  49
ATOM     49  C   UNL A   1      42.238  26.530  27.583  1.00  0.00     0.023 A 
ATOM     50  C   UNL A   1      43.117  27.066  26.624  1.00  0.00     0.012 A 
ATOM     51  C   UNL A   1      41.830  25.187  27.466  1.00  0.00     0.148 A 
ATOM     52  C   UNL A   1      43.572  26.286  25.561  1.00  0.00     0.002 A 
ATOM     53  C   UNL A   1      42.333  24.398  26.438  1.00  0.00     0.091 A 
ATOM     54  F   UNL A   1      40.974  24.699  28.375  1.00  0.00    -0.205 F 
ATOM     55  C   UNL A   1      43.193  24.948  25.476  1.00  0.00     0.022 A 
BRANCH  53  56
ATOM     56  S   UNL A   1      42.008  22.633  26.359  1.00  0.00     0.127 S 
ATOM     57  O   UNL A   1      40.550  22.598  26.300  1.00  0.00    -0.237 OA
ATOM     58  O   UNL A   1      42.685  22.247  25.120  1.00  0.00    -0.237 OA
ATOM     59  O   UNL A   1      42.617  22.081  27.562  1.00  0.00    -0.744 OA
ENDBRANCH  53  56
ENDBRANCH  25  49
BRANCH  37  60
ATOM     60  C   UNL A   1      44.576  27.299  34.113  1.00  0.00     0.023 A 
ATOM     61  C   UNL A   1      45.836  27.922  34.034  1.00  0.00     0.012 A 
ATOM     62  C   UNL A   1      44.412  26.165  34.933  1.00  0.00     0.148 A 
ATOM     63  C   UNL A   1      46.925  27.409  34.738  1.00  0.00     0.002 A 
ATOM     64  C   UNL A   1      45.493  25.684  35.663  1.00  0.00     0.091 A 
ATOM     65  F   UNL A   1      43.211  25.569  34.975  1.00  0.00    -0.205 F 
ATOM     66  C   UNL A   1      46.751  26.298  35.560  1.00  0.00     0.022 A 
BRANCH  64  67
ATOM     67  S   UNL A   1      45.318  24.307  36.804  1.00  0.00     0.127 S 
ATOM     68  O   UNL A   1      44.872  23.235  35.918  1.00  0.00    -0.237 OA
ATOM     69  O   UNL A   1      46.678  24.145  37.321  1.00  0.00    -0.237 OA
ATOM     70  O   UNL A   1      44.352  24.752  37.801  1.00  0.00    -0.744 OA
ENDBRANCH  64  67
ENDBRANCH  37  60
ENDBRANCH  11  12
ENDBRANCH   4   6
ENDBRANCH   1   2
BRANCH   1  71
ATOM     71  C   UNL A   1      31.775  28.685  26.314  1.00  0.00     0.023 C 
BRANCH  71  72
ATOM     72  C   UNL A   1      32.337  27.267  26.410  1.00  0.00     0.023 C 
BRANCH  72  73
ATOM     73  C   UNL A   1      31.605  26.233  25.559  1.00  0.00     0.116 C 
BRANCH  73  74
ATOM     74  N   UNL A   1      30.922  25.248  26.368  1.00  0.00    -0.351 N 
ATOM     75  C   UNL A   1      31.172  23.901  26.534  1.00  0.00     0.281 C 
ATOM     76  H   UNL A   1      30.156  25.593  26.882  1.00  0.00     0.163 HD
ATOM     77  O   UNL A   1      30.440  23.324  27.351  1.00  0.00    -0.268 OA
BRANCH  75  78
ATOM     78  C   UNL A   1      32.351  23.173  25.710  1.00  0.00     0.177 C 
ATOM     79  C   UNL A   1      32.076  21.624  25.600  1.00  0.00     0.079 C 
ATOM     80  C   UNL A   1      32.329  23.197  24.159  1.00  0.00     0.079 C 
ATOM     81  C   UNL A   1      32.416  21.668  24.103  1.00  0.00     0.014 C 
BRANCH  78  82
ATOM     82  N   UNL A   1      33.701  23.376  26.325  1.00  0.00    -0.318 N 
ATOM     83  C   UNL A   1      34.651  24.168  25.525  1.00  0.00     0.291 C 
ATOM     84  C   UNL A   1      34.415  22.276  26.989  1.00  0.00     0.291 C 
ATOM     85  H   UNL A   1      33.345  23.917  27.112  1.00  0.00     0.349 HD
ATOM     86  C   UNL A   1      35.575  23.324  24.633  1.00  0.00     0.221 C 
ATOM     87  C   UNL A   1      35.383  21.486  26.092  1.00  0.00     0.221 C 
ATOM     88  O   UNL A   1      36.290  22.350  25.400  1.00  0.00    -0.370 OA
ENDBRANCH  78  82
ENDBRANCH  75  78
ENDBRANCH  73  74
ENDBRANCH  72  73
ENDBRANCH  71  72
ENDBRANCH   1  71
TORSDOF 15
ENDMDL
MODEL 3
REMARK VINA RESULT:     -11.3      5.203     10.301
REMARK SMILES O=C(NCCCCNC(=O)C1([NH+]2CCOCC2)CCC1)c1ccc(-c2c3nc(c(-c4cccc(S(=O)(=O)[O-])c4F)c4ccc([nH]4)c(-c4cccc(S(=O)(=O)[O-])c4F)c4nc(c(-c5cccc(S(=O)(=O)[O-])c5F)c5ccc2[nH]5)C=C4)C=C3)cc1
REMARK SMILES IDX 4 1 3 2 1 3 2 4 21 6 22 7 83 8 23 9 82 10 24 11 25 12 26 13
REMARK SMILES IDX 76 14 27 15 81 16 75 17 77 18 28 19 80 20 74 21 73 22 29 24
REMARK SMILES IDX 61 25 41 26 60 27 42 28 45 29 59 30 78 31 43 32 44 33 58 35
REMARK SMILES IDX 79 36 46 37 30 38 31 39 39 40 32 41 34 42 40 43 33 44 35 45
REMARK SMILES IDX 36 46 37 47 38 48 62 49 63 50 71 51 64 52 66 53 72 54 65 55
REMARK SMILES IDX 67 56 68 57 69 58 70 59 47 60 48 61 56 62 49 63 51 64 57 65
REMARK SMILES IDX 50 66 52 67 53 68 54 69 55 70 5 71 6 72 7 73 8 74 9 75 10 77
REMARK SMILES IDX 11 78 18 79 20 80 19 81 12 82 13 83 17 84 14 86 16 87 15 88
REMARK H PARENT 3 5 77 23 45 34 8 76 12 85
REMARK Flexibility Score: inf
ROOT
ATOM      1  C   UNL A   1      36.559  22.070  25.516  1.00  0.00     0.116 C 
ENDROOT
BRANCH   1   2
ATOM      2  N   UNL A   1      37.550  21.002  25.501  1.00  0.00    -0.352 N 
ATOM      3  O   UNL A   1      39.602  20.094  25.750  1.00  0.00    -0.269 OA
ATOM      4  C   UNL A   1      38.860  21.056  25.915  1.00  0.00     0.251 C 
ATOM      5  H   UNL A   1      37.243  20.134  25.152  1.00  0.00     0.163 HD
BRANCH   4   6
ATOM      6  C   UNL A   1      39.365  22.309  26.513  1.00  0.00     0.039 A 
ATOM      7  C   UNL A   1      38.863  23.541  26.086  1.00  0.00     0.014 A 
ATOM      8  C   UNL A   1      40.405  22.252  27.445  1.00  0.00     0.014 A 
ATOM      9  C   UNL A   1      39.511  24.711  26.464  1.00  0.00     0.010 A 
ATOM     10  C   UNL A   1      41.003  23.436  27.882  1.00  0.00     0.010 A 
ATOM     11  C   UNL A   1      40.596  24.671  27.356  1.00  0.00    -0.014 A 
BRANCH  11  12
ATOM     12  C   UNL A   1      41.273  25.940  27.727  1.00  0.00     0.031 A 
ATOM     13  C   UNL A   1      42.661  26.254  27.236  1.00  0.00     0.074 A 
ATOM     14  C   UNL A   1      40.609  26.829  28.489  1.00  0.00     0.049 A 
ATOM     15  N   UNL A   1      43.363  27.346  27.407  1.00  0.00    -0.248 NA
ATOM     16  C   UNL A   1      43.359  25.213  26.463  1.00  0.00     0.031 C 
ATOM     17  C   UNL A   1      39.277  26.614  29.059  1.00  0.00     0.029 A 
ATOM     18  N   UNL A   1      40.949  28.090  28.903  1.00  0.00    -0.354 N 
ATOM     19  C   UNL A   1      44.595  27.109  26.810  1.00  0.00     0.074 A 
ATOM     20  C   UNL A   1      44.549  25.767  26.270  1.00  0.00     0.031 C 
ATOM     21  C   UNL A   1      38.895  27.721  29.712  1.00  0.00     0.029 A 
ATOM     22  C   UNL A   1      39.968  28.709  29.641  1.00  0.00     0.049 A 
ATOM     23  H   UNL A   1      41.813  28.512  28.693  1.00  0.00     0.167 HD
ATOM     24  C   UNL A   1      45.660  27.940  26.704  1.00  0.00     0.034 A 
ATOM     25  C   UNL A   1      39.928  29.937  30.190  1.00  0.00     0.034 A 
ATOM     26  C   UNL A   1      45.680  29.295  27.185  1.00  0.00     0.049 A 
ATOM     27  C   UNL A   1      41.096  30.861  29.994  1.00  0.00     0.074 A 
ATOM     28  C   UNL A   1      46.688  30.237  27.064  1.00  0.00     0.029 A 
ATOM     29  N   UNL A   1      44.643  29.906  27.874  1.00  0.00    -0.354 N 
ATOM     30  N   UNL A   1      42.198  30.660  29.313  1.00  0.00    -0.248 NA
ATOM     31  C   UNL A   1      41.003  32.189  30.614  1.00  0.00     0.031 C 
ATOM     32  C   UNL A   1      46.259  31.418  27.682  1.00  0.00     0.029 A 
ATOM     33  C   UNL A   1      44.985  31.212  28.183  1.00  0.00     0.049 A 
ATOM     34  H   UNL A   1      43.790  29.475  28.107  1.00  0.00     0.167 HD
ATOM     35  C   UNL A   1      42.920  31.844  29.402  1.00  0.00     0.074 A 
ATOM     36  C   UNL A   1      42.116  32.765  30.181  1.00  0.00     0.031 C 
ATOM     37  C   UNL A   1      44.148  32.134  28.906  1.00  0.00     0.034 A 
BRANCH  24  38
ATOM     38  C   UNL A   1      46.885  27.427  25.992  1.00  0.00     0.023 A 
ATOM     39  C   UNL A   1      47.766  26.559  26.669  1.00  0.00     0.012 A 
ATOM     40  C   UNL A   1      47.126  27.740  24.641  1.00  0.00     0.148 A 
ATOM     41  C   UNL A   1      48.880  26.028  26.018  1.00  0.00     0.002 A 
ATOM     42  C   UNL A   1      48.220  27.180  23.988  1.00  0.00     0.091 A 
ATOM     43  F   UNL A   1      46.294  28.589  24.020  1.00  0.00    -0.205 F 
ATOM     44  C   UNL A   1      49.101  26.330  24.676  1.00  0.00     0.022 A 
BRANCH  42  45
ATOM     45  S   UNL A   1      48.539  27.461  22.242  1.00  0.00     0.127 S 
ATOM     46  O   UNL A   1      49.797  28.203  22.287  1.00  0.00    -0.237 OA
ATOM     47  O   UNL A   1      48.655  26.099  21.719  1.00  0.00    -0.237 OA
ATOM     48  O   UNL A   1      47.386  28.198  21.746  1.00  0.00    -0.744 OA
ENDBRANCH  42  45
ENDBRANCH  24  38
BRANCH  25  49
ATOM     49  C   UNL A   1      38.698  30.383  30.901  1.00  0.00     0.023 A 
ATOM     50  C   UNL A   1      38.602  30.195  32.292  1.00  0.00     0.012 A 
ATOM     51  C   UNL A   1      37.660  31.050  30.224  1.00  0.00     0.148 A 
ATOM     52  C   UNL A   1      37.487  30.652  32.996  1.00  0.00     0.002 A 
ATOM     53  C   UNL A   1      36.579  31.554  30.939  1.00  0.00     0.091 A 
ATOM     54  F   UNL A   1      37.757  31.200  28.895  1.00  0.00    -0.205 F 
ATOM     55  C   UNL A   1      36.484  31.344  32.323  1.00  0.00     0.022 A 
BRANCH  53  56
ATOM     56  S   UNL A   1      35.332  32.586  30.160  1.00  0.00     0.127 S 
ATOM     57  O   UNL A   1      34.821  31.703  29.116  1.00  0.00    -0.237 OA
ATOM     58  O   UNL A   1      34.404  32.839  31.263  1.00  0.00    -0.237 OA
ATOM     59  O   UNL A   1      36.049  33.771  29.707  1.00  0.00    -0.744 OA
ENDBRANCH  53  56
ENDBRANCH  25  49
BRANCH  37  60
ATOM     60  C   UNL A   1      44.693  33.510  29.175  1.00  0.00     0.023 A 
ATOM     61  C   UNL A   1      45.392  33.755  30.373  1.00  0.00     0.012 A 
ATOM     62  C   UNL A   1      44.569  34.538  28.221  1.00  0.00     0.148 A 
ATOM     63  C   UNL A   1      45.937  35.012  30.630  1.00  0.00     0.002 A 
ATOM     64  C   UNL A   1      45.149  35.778  28.468  1.00  0.00     0.091 A 
ATOM     65  F   UNL A   1      43.878  34.294  27.098  1.00  0.00    -0.205 F 
ATOM     66  C   UNL A   1      45.825  36.019  29.674  1.00  0.00     0.022 A 
BRANCH  64  67
ATOM     67  S   UNL A   1      45.113  37.092  27.244  1.00  0.00     0.127 S 
ATOM     68  O   UNL A   1      43.697  37.132  26.885  1.00  0.00    -0.237 OA
ATOM     69  O   UNL A   1      45.581  38.252  28.006  1.00  0.00    -0.237 OA
ATOM     70  O   UNL A   1      46.025  36.664  26.190  1.00  0.00    -0.744 OA
ENDBRANCH  64  67
ENDBRANCH  37  60
ENDBRANCH  11  12
ENDBRANCH   4   6
ENDBRANCH   1   2
BRANCH   1  71
ATOM     71  C   UNL A   1      35.722  22.142  24.245  1.00  0.00     0.023 C 
BRANCH  71  72
ATOM     72  C   UNL A   1      34.212  22.034  24.450  1.00  0.00     0.023 C 
BRANCH  72  73
ATOM     73  C   UNL A   1      33.493  23.372  24.602  1.00  0.00     0.116 C 
BRANCH  73  74
ATOM     74  N   UNL A   1      32.650  23.406  25.777  1.00  0.00    -0.351 N 
ATOM     75  C   UNL A   1      31.790  24.386  26.229  1.00  0.00     0.281 C 
ATOM     76  H   UNL A   1      32.696  22.602  26.344  1.00  0.00     0.163 HD
ATOM     77  O   UNL A   1      31.150  24.097  27.250  1.00  0.00    -0.268 OA
BRANCH  75  78
ATOM     78  C   UNL A   1      31.652  25.788  25.447  1.00  0.00     0.177 C 
ATOM     79  C   UNL A   1      31.030  26.890  26.389  1.00  0.00     0.079 C 
ATOM     80  C   UNL A   1      32.886  26.720  25.320  1.00  0.00     0.079 C 
ATOM     81  C   UNL A   1      32.108  27.886  25.937  1.00  0.00     0.014 C 
BRANCH  78  82
ATOM     82  N   UNL A   1      30.811  25.685  24.212  1.00  0.00    -0.318 N 
ATOM     83  C   UNL A   1      31.540  25.786  22.937  1.00  0.00     0.291 C 
ATOM     84  C   UNL A   1      29.523  26.386  24.101  1.00  0.00     0.291 C 
ATOM     85  H   UNL A   1      30.526  24.724  24.396  1.00  0.00     0.349 HD
ATOM     86  C   UNL A   1      31.590  27.208  22.356  1.00  0.00     0.221 C 
ATOM     87  C   UNL A   1      29.589  27.781  23.457  1.00  0.00     0.221 C 
ATOM     88  O   UNL A   1      30.276  27.754  22.202  1.00  0.00    -0.370 OA
ENDBRANCH  78  82
ENDBRANCH  75  78
ENDBRANCH  73  74
ENDBRANCH  72  73
ENDBRANCH  71  72
ENDBRANCH   1  71
TORSDOF 15
ENDMDL
