MODEL 1
REMARK VINA RESULT:     -10.5      0.000      0.000
REMARK SMILES O=C(CCCCc1nc(C[C@H]2CCCO2)no1)NCCCCNC(=O)c1ccc(-c2c3nc(c(-c4cccc(S(=O)(=O)[O-])c4F)c4ccc([nH]4)c(-c4cccc(S(=O)(=O)[O-])c4F)c4nc(c(-c5cccc(S(=O)(=O)[O-])c5F)c5ccc2[nH]5)C=C4)C=C3)cc1
REMARK SMILES IDX 19 1 18 2 1 3 2 4 3 6 4 7 5 8 6 9 7 10 8 11 17 12 9 13 16 14
REMARK SMILES IDX 10 15 11 16 12 17 15 18 13 19 14 20 20 21 21 22 22 23 23 24
REMARK SMILES IDX 24 25 25 27 26 28 27 29 88 30 28 31 87 32 29 33 30 34 31 35
REMARK SMILES IDX 81 36 32 37 86 38 80 39 82 40 33 41 85 42 79 43 78 44 34 46
REMARK SMILES IDX 66 47 46 48 65 49 47 50 50 51 64 52 83 53 48 54 49 55 63 57
REMARK SMILES IDX 84 58 51 59 35 60 36 61 44 62 37 63 39 64 45 65 38 66 40 67
REMARK SMILES IDX 41 68 42 69 43 70 67 71 68 72 76 73 69 74 71 75 77 76 70 77
REMARK SMILES IDX 72 78 73 79 74 80 75 81 52 82 53 83 61 84 54 85 56 86 62 87
REMARK SMILES IDX 55 88 57 89 58 90 59 91 60 92
REMARK H PARENT 18 5 23 26 82 45 50 56
REMARK Flexibility Score: inf
ROOT
ATOM      1  C   UNL A   1      31.308  29.372  24.147  1.00  0.00     0.116 C 
ENDROOT
BRANCH   1   2
ATOM      2  N   UNL A   1      30.603  28.121  24.322  1.00  0.00    -0.356 N 
ATOM      3  O   UNL A   1      30.257  27.692  22.091  1.00  0.00    -0.275 OA
ATOM      4  C   UNL A   1      30.171  27.355  23.268  1.00  0.00     0.219 C 
ATOM      5  H   UNL A   1      30.425  27.805  25.237  1.00  0.00     0.163 HD
BRANCH   4   6
ATOM      6  C   UNL A   1      29.593  26.020  23.689  1.00  0.00     0.100 C 
BRANCH   6   7
ATOM      7  C   UNL A   1      29.976  25.663  25.125  1.00  0.00     0.010 C 
BRANCH   7   8
ATOM      8  C   UNL A   1      31.190  24.730  25.305  1.00  0.00     0.010 C 
BRANCH   8   9
ATOM      9  C   UNL A   1      30.878  23.284  25.715  1.00  0.00     0.100 C 
BRANCH   9  10
ATOM     10  C   UNL A   1      31.952  22.346  25.319  1.00  0.00     0.226 A 
ATOM     11  N   UNL A   1      31.897  21.046  25.146  1.00  0.00    -0.196 NA
ATOM     12  O   UNL A   1      33.214  22.855  25.220  1.00  0.00    -0.339 OA
ATOM     13  C   UNL A   1      33.214  20.726  24.972  1.00  0.00     0.174 A 
ATOM     14  N   UNL A   1      34.059  21.764  25.002  1.00  0.00    -0.062 NA
BRANCH  13  15
ATOM     15  C   UNL A   1      33.667  19.324  24.872  1.00  0.00     0.113 C 
BRANCH  15  16
ATOM     16  C   UNL A   1      32.578  18.363  24.392  1.00  0.00     0.126 C 
ATOM     17  C   UNL A   1      32.874  17.692  23.055  1.00  0.00     0.035 C 
ATOM     18  O   UNL A   1      32.495  17.285  25.355  1.00  0.00    -0.378 OA
ATOM     19  C   UNL A   1      33.694  16.496  23.468  1.00  0.00     0.031 C 
ATOM     20  C   UNL A   1      33.018  16.089  24.758  1.00  0.00     0.160 C 
ENDBRANCH  15  16
ENDBRANCH  13  15
ENDBRANCH   9  10
ENDBRANCH   8   9
ENDBRANCH   7   8
ENDBRANCH   6   7
ENDBRANCH   4   6
ENDBRANCH   1   2
BRANCH   1  21
ATOM     21  C   UNL A   1      32.821  29.180  24.200  1.00  0.00     0.023 C 
BRANCH  21  22
ATOM     22  C   UNL A   1      33.308  28.070  25.140  1.00  0.00     0.023 C 
BRANCH  22  23
ATOM     23  C   UNL A   1      34.192  28.529  26.296  1.00  0.00     0.116 C 
BRANCH  23  24
ATOM     24  N   UNL A   1      33.961  29.920  26.655  1.00  0.00    -0.352 N 
ATOM     25  C   UNL A   1      34.645  30.724  27.533  1.00  0.00     0.251 C 
ATOM     26  H   UNL A   1      33.200  30.348  26.200  1.00  0.00     0.163 HD
ATOM     27  O   UNL A   1      34.181  31.825  27.831  1.00  0.00    -0.269 OA
BRANCH  25  28
ATOM     28  C   UNL A   1      35.919  30.274  28.137  1.00  0.00     0.039 A 
ATOM     29  C   UNL A   1      35.889  29.659  29.393  1.00  0.00     0.014 A 
ATOM     30  C   UNL A   1      37.140  30.469  27.487  1.00  0.00     0.014 A 
ATOM     31  C   UNL A   1      37.074  29.182  29.964  1.00  0.00     0.010 A 
ATOM     32  C   UNL A   1      38.308  29.927  28.023  1.00  0.00     0.010 A 
ATOM     33  C   UNL A   1      38.290  29.279  29.267  1.00  0.00    -0.014 A 
BRANCH  33  34
ATOM     34  C   UNL A   1      39.542  28.689  29.817  1.00  0.00     0.031 A 
ATOM     35  C   UNL A   1      40.215  29.300  31.016  1.00  0.00     0.074 A 
ATOM     36  C   UNL A   1      40.120  27.648  29.184  1.00  0.00     0.049 A 
ATOM     37  N   UNL A   1      41.339  28.959  31.593  1.00  0.00    -0.248 NA
ATOM     38  C   UNL A   1      39.553  30.460  31.636  1.00  0.00     0.031 C 
ATOM     39  C   UNL A   1      39.612  27.009  27.968  1.00  0.00     0.029 A 
ATOM     40  N   UNL A   1      41.279  26.962  29.457  1.00  0.00    -0.354 N 
ATOM     41  C   UNL A   1      41.535  29.876  32.620  1.00  0.00     0.074 A 
ATOM     42  C   UNL A   1      40.432  30.811  32.564  1.00  0.00     0.031 C 
ATOM     43  C   UNL A   1      40.452  26.028  27.602  1.00  0.00     0.029 A 
ATOM     44  C   UNL A   1      41.575  25.988  28.533  1.00  0.00     0.049 A 
ATOM     45  H   UNL A   1      41.844  27.150  30.242  1.00  0.00     0.167 HD
ATOM     46  C   UNL A   1      42.526  29.923  33.542  1.00  0.00     0.034 A 
ATOM     47  C   UNL A   1      42.638  25.164  28.432  1.00  0.00     0.034 A 
ATOM     48  C   UNL A   1      43.607  28.976  33.617  1.00  0.00     0.049 A 
ATOM     49  C   UNL A   1      43.714  25.223  29.481  1.00  0.00     0.074 A 
ATOM     50  C   UNL A   1      44.616  28.895  34.562  1.00  0.00     0.029 A 
ATOM     51  N   UNL A   1      43.830  27.955  32.707  1.00  0.00    -0.354 N 
ATOM     52  N   UNL A   1      43.802  26.003  30.530  1.00  0.00    -0.248 NA
ATOM     53  C   UNL A   1      44.820  24.261  29.354  1.00  0.00     0.031 C 
ATOM     54  C   UNL A   1      45.467  27.844  34.206  1.00  0.00     0.029 A 
ATOM     55  C   UNL A   1      44.966  27.245  33.061  1.00  0.00     0.049 A 
ATOM     56  H   UNL A   1      43.266  27.761  31.925  1.00  0.00     0.167 HD
ATOM     57  C   UNL A   1      44.948  25.604  31.208  1.00  0.00     0.074 A 
ATOM     58  C   UNL A   1      45.511  24.497  30.461  1.00  0.00     0.031 C 
ATOM     59  C   UNL A   1      45.492  26.115  32.339  1.00  0.00     0.034 A 
BRANCH  46  60
ATOM     60  C   UNL A   1      42.466  31.013  34.583  1.00  0.00     0.023 A 
ATOM     61  C   UNL A   1      41.830  30.765  35.817  1.00  0.00     0.012 A 
ATOM     62  C   UNL A   1      43.089  32.258  34.367  1.00  0.00     0.148 A 
ATOM     63  C   UNL A   1      41.783  31.748  36.804  1.00  0.00     0.002 A 
ATOM     64  C   UNL A   1      43.080  33.217  35.374  1.00  0.00     0.091 A 
ATOM     65  F   UNL A   1      43.674  32.484  33.181  1.00  0.00    -0.205 F 
ATOM     66  C   UNL A   1      42.417  32.969  36.587  1.00  0.00     0.022 A 
BRANCH  64  67
ATOM     67  S   UNL A   1      43.936  34.789  35.226  1.00  0.00     0.127 S 
ATOM     68  O   UNL A   1      43.144  35.459  34.196  1.00  0.00    -0.237 OA
ATOM     69  O   UNL A   1      43.786  35.347  36.571  1.00  0.00    -0.237 OA
ATOM     70  O   UNL A   1      45.306  34.468  34.849  1.00  0.00    -0.744 OA
ENDBRANCH  64  67
ENDBRANCH  46  60
BRANCH  47  71
ATOM     71  C   UNL A   1      42.715  24.182  27.313  1.00  0.00     0.023 A 
ATOM     72  C   UNL A   1      43.415  24.517  26.138  1.00  0.00     0.012 A 
ATOM     73  C   UNL A   1      42.117  22.911  27.416  1.00  0.00     0.148 A 
ATOM     74  C   UNL A   1      43.485  23.621  25.072  1.00  0.00     0.002 A 
ATOM     75  C   UNL A   1      42.240  22.001  26.374  1.00  0.00     0.091 A 
ATOM     76  F   UNL A   1      41.447  22.615  28.539  1.00  0.00    -0.205 F 
ATOM     77  C   UNL A   1      42.907  22.360  25.193  1.00  0.00     0.022 A 
BRANCH  75  78
ATOM     78  S   UNL A   1      41.646  20.310  26.499  1.00  0.00     0.127 S 
ATOM     79  O   UNL A   1      40.199  20.501  26.498  1.00  0.00    -0.237 OA
ATOM     80  O   UNL A   1      42.191  19.709  25.280  1.00  0.00    -0.237 OA
ATOM     81  O   UNL A   1      42.215  19.783  27.732  1.00  0.00    -0.744 OA
ENDBRANCH  75  78
ENDBRANCH  47  71
BRANCH  59  82
ATOM     82  C   UNL A   1      46.740  25.459  32.876  1.00  0.00     0.023 A 
ATOM     83  C   UNL A   1      48.009  25.933  32.489  1.00  0.00     0.012 A 
ATOM     84  C   UNL A   1      46.650  24.418  33.821  1.00  0.00     0.148 A 
ATOM     85  C   UNL A   1      49.169  25.356  33.006  1.00  0.00     0.002 A 
ATOM     86  C   UNL A   1      47.808  23.883  34.372  1.00  0.00     0.091 A 
ATOM     87  F   UNL A   1      45.433  23.969  34.163  1.00  0.00    -0.205 F 
ATOM     88  C   UNL A   1      49.068  24.341  33.956  1.00  0.00     0.022 A 
BRANCH  86  89
ATOM     89  S   UNL A   1      47.775  22.644  35.670  1.00  0.00     0.127 S 
ATOM     90  O   UNL A   1      47.083  21.538  35.009  1.00  0.00    -0.237 OA
ATOM     91  O   UNL A   1      49.200  22.414  35.913  1.00  0.00    -0.237 OA
ATOM     92  O   UNL A   1      47.061  23.247  36.787  1.00  0.00    -0.744 OA
ENDBRANCH  86  89
ENDBRANCH  59  82
ENDBRANCH  33  34
ENDBRANCH  25  28
ENDBRANCH  23  24
ENDBRANCH  22  23
ENDBRANCH  21  22
ENDBRANCH   1  21
TORSDOF 20
ENDMDL
MODEL 2
REMARK VINA RESULT:     -10.4      5.045      9.584
REMARK SMILES O=C(CCCCc1nc(C[C@H]2CCCO2)no1)NCCCCNC(=O)c1ccc(-c2c3nc(c(-c4cccc(S(=O)(=O)[O-])c4F)c4ccc([nH]4)c(-c4cccc(S(=O)(=O)[O-])c4F)c4nc(c(-c5cccc(S(=O)(=O)[O-])c5F)c5ccc2[nH]5)C=C4)C=C3)cc1
REMARK SMILES IDX 19 1 18 2 1 3 2 4 3 6 4 7 5 8 6 9 7 10 8 11 17 12 9 13 16 14
REMARK SMILES IDX 10 15 11 16 12 17 15 18 13 19 14 20 20 21 21 22 22 23 23 24
REMARK SMILES IDX 24 25 25 27 26 28 27 29 88 30 28 31 87 32 29 33 30 34 31 35
REMARK SMILES IDX 81 36 32 37 86 38 80 39 82 40 33 41 85 42 79 43 78 44 34 46
REMARK SMILES IDX 66 47 46 48 65 49 47 50 50 51 64 52 83 53 48 54 49 55 63 57
REMARK SMILES IDX 84 58 51 59 35 60 36 61 44 62 37 63 39 64 45 65 38 66 40 67
REMARK SMILES IDX 41 68 42 69 43 70 67 71 68 72 76 73 69 74 71 75 77 76 70 77
REMARK SMILES IDX 72 78 73 79 74 80 75 81 52 82 53 83 61 84 54 85 56 86 62 87
REMARK SMILES IDX 55 88 57 89 58 90 59 91 60 92
REMARK H PARENT 18 5 23 26 82 45 50 56
REMARK Flexibility Score: inf
ROOT
ATOM      1  C   UNL A   1      36.312  21.084  25.375  1.00  0.00     0.116 C 
ENDROOT
BRANCH   1   2
ATOM      2  N   UNL A   1      35.593  22.321  25.171  1.00  0.00    -0.356 N 
ATOM      3  O   UNL A   1      34.708  22.473  27.285  1.00  0.00    -0.275 OA
ATOM      4  C   UNL A   1      34.880  22.943  26.166  1.00  0.00     0.219 C 
ATOM      5  H   UNL A   1      35.616  22.737  24.278  1.00  0.00     0.163 HD
BRANCH   4   6
ATOM      6  C   UNL A   1      34.337  24.298  25.762  1.00  0.00     0.100 C 
BRANCH   6   7
ATOM      7  C   UNL A   1      33.000  24.599  26.441  1.00  0.00     0.010 C 
BRANCH   7   8
ATOM      8  C   UNL A   1      31.759  24.654  25.528  1.00  0.00     0.010 C 
BRANCH   8   9
ATOM      9  C   UNL A   1      30.914  23.374  25.456  1.00  0.00     0.100 C 
BRANCH   9  10
ATOM     10  C   UNL A   1      31.648  22.254  24.827  1.00  0.00     0.226 A 
ATOM     11  N   UNL A   1      31.913  21.061  25.308  1.00  0.00    -0.196 NA
ATOM     12  O   UNL A   1      32.242  22.499  23.624  1.00  0.00    -0.339 OA
ATOM     13  C   UNL A   1      32.760  20.554  24.363  1.00  0.00     0.174 A 
ATOM     14  N   UNL A   1      32.998  21.363  23.322  1.00  0.00    -0.062 NA
BRANCH  13  15
ATOM     15  C   UNL A   1      33.440  19.256  24.544  1.00  0.00     0.113 C 
BRANCH  15  16
ATOM     16  C   UNL A   1      32.550  18.051  24.235  1.00  0.00     0.126 C 
ATOM     17  C   UNL A   1      33.251  16.925  23.485  1.00  0.00     0.035 C 
ATOM     18  O   UNL A   1      32.142  17.478  25.501  1.00  0.00    -0.378 OA
ATOM     19  C   UNL A   1      33.874  16.129  24.604  1.00  0.00     0.031 C 
ATOM     20  C   UNL A   1      32.810  16.220  25.676  1.00  0.00     0.160 C 
ENDBRANCH  15  16
ENDBRANCH  13  15
ENDBRANCH   9  10
ENDBRANCH   8   9
ENDBRANCH   7   8
ENDBRANCH   6   7
ENDBRANCH   4   6
ENDBRANCH   1   2
BRANCH   1  21
ATOM     21  C   UNL A   1      37.690  21.115  24.718  1.00  0.00     0.023 C 
BRANCH  21  22
ATOM     22  C   UNL A   1      38.555  19.871  24.952  1.00  0.00     0.023 C 
BRANCH  22  23
ATOM     23  C   UNL A   1      39.311  19.835  26.277  1.00  0.00     0.116 C 
BRANCH  23  24
ATOM     24  N   UNL A   1      40.614  19.199  26.157  1.00  0.00    -0.352 N 
ATOM     25  C   UNL A   1      41.867  19.761  26.161  1.00  0.00     0.251 C 
ATOM     26  H   UNL A   1      40.594  18.220  26.058  1.00  0.00     0.163 HD
ATOM     27  O   UNL A   1      42.841  19.067  25.866  1.00  0.00    -0.269 OA
BRANCH  25  28
ATOM     28  C   UNL A   1      42.056  21.190  26.495  1.00  0.00     0.039 A 
ATOM     29  C   UNL A   1      42.422  21.535  27.800  1.00  0.00     0.014 A 
ATOM     30  C   UNL A   1      41.858  22.192  25.541  1.00  0.00     0.014 A 
ATOM     31  C   UNL A   1      42.652  22.875  28.128  1.00  0.00     0.010 A 
ATOM     32  C   UNL A   1      42.160  23.518  25.850  1.00  0.00     0.010 A 
ATOM     33  C   UNL A   1      42.560  23.875  27.147  1.00  0.00    -0.014 A 
BRANCH  33  34
ATOM     34  C   UNL A   1      42.897  25.292  27.457  1.00  0.00     0.031 A 
ATOM     35  C   UNL A   1      44.304  25.799  27.287  1.00  0.00     0.074 A 
ATOM     36  C   UNL A   1      41.951  26.104  27.971  1.00  0.00     0.049 A 
ATOM     37  N   UNL A   1      44.793  26.981  27.565  1.00  0.00    -0.248 NA
ATOM     38  C   UNL A   1      45.298  24.850  26.761  1.00  0.00     0.031 C 
ATOM     39  C   UNL A   1      40.568  25.717  28.255  1.00  0.00     0.029 A 
ATOM     40  N   UNL A   1      42.016  27.415  28.374  1.00  0.00    -0.354 N 
ATOM     41  C   UNL A   1      46.152  26.910  27.277  1.00  0.00     0.074 A 
ATOM     42  C   UNL A   1      46.417  25.558  26.838  1.00  0.00     0.031 C 
ATOM     43  C   UNL A   1      39.917  26.765  28.784  1.00  0.00     0.029 A 
ATOM     44  C   UNL A   1      40.841  27.887  28.911  1.00  0.00     0.049 A 
ATOM     45  H   UNL A   1      42.827  27.967  28.286  1.00  0.00     0.167 HD
ATOM     46  C   UNL A   1      47.089  27.886  27.345  1.00  0.00     0.034 A 
ATOM     47  C   UNL A   1      40.541  29.081  29.461  1.00  0.00     0.034 A 
ATOM     48  C   UNL A   1      46.819  29.240  27.753  1.00  0.00     0.049 A 
ATOM     49  C   UNL A   1      41.594  30.154  29.505  1.00  0.00     0.074 A 
ATOM     50  C   UNL A   1      47.686  30.318  27.780  1.00  0.00     0.029 A 
ATOM     51  N   UNL A   1      45.597  29.699  28.217  1.00  0.00    -0.354 N 
ATOM     52  N   UNL A   1      42.836  30.109  29.089  1.00  0.00    -0.248 NA
ATOM     53  C   UNL A   1      41.195  31.456  30.061  1.00  0.00     0.031 C 
ATOM     54  C   UNL A   1      46.997  31.422  28.291  1.00  0.00     0.029 A 
ATOM     55  C   UNL A   1      45.689  31.042  28.544  1.00  0.00     0.049 A 
ATOM     56  H   UNL A   1      44.783  29.153  28.301  1.00  0.00     0.167 HD
ATOM     57  C   UNL A   1      43.355  31.382  29.296  1.00  0.00     0.074 A 
ATOM     58  C   UNL A   1      42.285  32.182  29.857  1.00  0.00     0.031 C 
ATOM     59  C   UNL A   1      44.606  31.843  29.056  1.00  0.00     0.034 A 
BRANCH  46  60
ATOM     60  C   UNL A   1      48.495  27.539  26.924  1.00  0.00     0.023 A 
ATOM     61  C   UNL A   1      49.389  26.988  27.866  1.00  0.00     0.012 A 
ATOM     62  C   UNL A   1      48.913  27.698  25.589  1.00  0.00     0.148 A 
ATOM     63  C   UNL A   1      50.685  26.636  27.496  1.00  0.00     0.002 A 
ATOM     64  C   UNL A   1      50.191  27.299  25.215  1.00  0.00     0.091 A 
ATOM     65  F   UNL A   1      48.057  28.239  24.710  1.00  0.00    -0.205 F 
ATOM     66  C   UNL A   1      51.083  26.781  26.169  1.00  0.00     0.022 A 
BRANCH  64  67
ATOM     67  S   UNL A   1      50.773  27.367  23.517  1.00  0.00     0.127 S 
ATOM     68  O   UNL A   1      49.669  26.731  22.802  1.00  0.00    -0.237 OA
ATOM     69  O   UNL A   1      50.896  28.809  23.293  1.00  0.00    -0.237 OA
ATOM     70  O   UNL A   1      52.034  26.638  23.493  1.00  0.00    -0.744 OA
ENDBRANCH  64  67
ENDBRANCH  46  60
BRANCH  47  71
ATOM     71  C   UNL A   1      39.167  29.340  29.978  1.00  0.00     0.023 A 
ATOM     72  C   UNL A   1      38.822  28.925  31.279  1.00  0.00     0.012 A 
ATOM     73  C   UNL A   1      38.208  30.011  29.195  1.00  0.00     0.148 A 
ATOM     74  C   UNL A   1      37.536  29.139  31.775  1.00  0.00     0.002 A 
ATOM     75  C   UNL A   1      36.948  30.275  29.717  1.00  0.00     0.091 A 
ATOM     76  F   UNL A   1      38.553  30.389  27.955  1.00  0.00    -0.205 F 
ATOM     77  C   UNL A   1      36.603  29.822  31.000  1.00  0.00     0.022 A 
BRANCH  75  78
ATOM     78  S   UNL A   1      35.732  31.266  28.842  1.00  0.00     0.127 S 
ATOM     79  O   UNL A   1      34.890  31.740  29.937  1.00  0.00    -0.237 OA
ATOM     80  O   UNL A   1      36.571  32.290  28.220  1.00  0.00    -0.237 OA
ATOM     81  O   UNL A   1      35.093  30.360  27.897  1.00  0.00    -0.744 OA
ENDBRANCH  75  78
ENDBRANCH  47  71
BRANCH  59  82
ATOM     82  C   UNL A   1      44.888  33.295  29.352  1.00  0.00     0.023 A 
ATOM     83  C   UNL A   1      45.468  33.666  30.582  1.00  0.00     0.012 A 
ATOM     84  C   UNL A   1      44.643  34.283  28.378  1.00  0.00     0.148 A 
ATOM     85  C   UNL A   1      45.764  35.002  30.852  1.00  0.00     0.002 A 
ATOM     86  C   UNL A   1      44.990  35.605  28.633  1.00  0.00     0.091 A 
ATOM     87  F   UNL A   1      44.075  33.913  27.221  1.00  0.00    -0.205 F 
ATOM     88  C   UNL A   1      45.537  35.968  29.874  1.00  0.00     0.022 A 
BRANCH  86  89
ATOM     89  S   UNL A   1      44.825  36.900  27.400  1.00  0.00     0.127 S 
ATOM     90  O   UNL A   1      45.886  36.548  26.456  1.00  0.00    -0.237 OA
ATOM     91  O   UNL A   1      43.467  36.681  26.902  1.00  0.00    -0.237 OA
ATOM     92  O   UNL A   1      45.014  38.158  28.109  1.00  0.00    -0.744 OA
ENDBRANCH  86  89
ENDBRANCH  59  82
ENDBRANCH  33  34
ENDBRANCH  25  28
ENDBRANCH  23  24
ENDBRANCH  22  23
ENDBRANCH  21  22
ENDBRANCH   1  21
TORSDOF 20
ENDMDL
MODEL 3
REMARK VINA RESULT:     -10.3      3.290      8.613
REMARK SMILES O=C(CCCCc1nc(C[C@H]2CCCO2)no1)NCCCCNC(=O)c1ccc(-c2c3nc(c(-c4cccc(S(=O)(=O)[O-])c4F)c4ccc([nH]4)c(-c4cccc(S(=O)(=O)[O-])c4F)c4nc(c(-c5cccc(S(=O)(=O)[O-])c5F)c5ccc2[nH]5)C=C4)C=C3)cc1
REMARK SMILES IDX 19 1 18 2 1 3 2 4 3 6 4 7 5 8 6 9 7 10 8 11 17 12 9 13 16 14
REMARK SMILES IDX 10 15 11 16 12 17 15 18 13 19 14 20 20 21 21 22 22 23 23 24
REMARK SMILES IDX 24 25 25 27 26 28 27 29 88 30 28 31 87 32 29 33 30 34 31 35
REMARK SMILES IDX 81 36 32 37 86 38 80 39 82 40 33 41 85 42 79 43 78 44 34 46
REMARK SMILES IDX 66 47 46 48 65 49 47 50 50 51 64 52 83 53 48 54 49 55 63 57
REMARK SMILES IDX 84 58 51 59 35 60 36 61 44 62 37 63 39 64 45 65 38 66 40 67
REMARK SMILES IDX 41 68 42 69 43 70 67 71 68 72 76 73 69 74 71 75 77 76 70 77
REMARK SMILES IDX 72 78 73 79 74 80 75 81 52 82 53 83 61 84 54 85 56 86 62 87
REMARK SMILES IDX 55 88 57 89 58 90 59 91 60 92
REMARK H PARENT 18 5 23 26 82 45 50 56
REMARK Flexibility Score: inf
ROOT
ATOM      1  C   UNL A   1      32.788  29.989  25.518  1.00  0.00     0.116 C 
ENDROOT
BRANCH   1   2
ATOM      2  N   UNL A   1      32.704  28.600  25.126  1.00  0.00    -0.356 N 
ATOM      3  O   UNL A   1      31.539  28.939  23.176  1.00  0.00    -0.275 OA
ATOM      4  C   UNL A   1      32.119  28.190  23.954  1.00  0.00     0.219 C 
ATOM      5  H   UNL A   1      33.082  27.918  25.727  1.00  0.00     0.163 HD
BRANCH   4   6
ATOM      6  C   UNL A   1      32.280  26.708  23.685  1.00  0.00     0.100 C 
BRANCH   6   7
ATOM      7  C   UNL A   1      32.614  25.933  24.959  1.00  0.00     0.010 C 
BRANCH   7   8
ATOM      8  C   UNL A   1      33.962  25.185  24.979  1.00  0.00     0.010 C 
BRANCH   8   9
ATOM      9  C   UNL A   1      34.103  24.070  26.025  1.00  0.00     0.100 C 
BRANCH   9  10
ATOM     10  C   UNL A   1      33.830  22.732  25.456  1.00  0.00     0.226 A 
ATOM     11  N   UNL A   1      34.252  21.556  25.859  1.00  0.00    -0.196 NA
ATOM     12  O   UNL A   1      33.136  22.687  24.282  1.00  0.00    -0.339 OA
ATOM     13  C   UNL A   1      33.830  20.739  24.848  1.00  0.00     0.174 A 
ATOM     14  N   UNL A   1      33.150  21.352  23.870  1.00  0.00    -0.062 NA
BRANCH  13  15
ATOM     15  C   UNL A   1      34.199  19.311  24.796  1.00  0.00     0.113 C 
BRANCH  15  16
ATOM     16  C   UNL A   1      33.022  18.386  24.481  1.00  0.00     0.126 C 
ATOM     17  C   UNL A   1      33.135  17.653  23.149  1.00  0.00     0.035 C 
ATOM     18  O   UNL A   1      33.002  17.350  25.492  1.00  0.00    -0.378 OA
ATOM     19  C   UNL A   1      33.943  16.435  23.518  1.00  0.00     0.031 C 
ATOM     20  C   UNL A   1      33.400  16.109  24.891  1.00  0.00     0.160 C 
ENDBRANCH  15  16
ENDBRANCH  13  15
ENDBRANCH   9  10
ENDBRANCH   8   9
ENDBRANCH   7   8
ENDBRANCH   6   7
ENDBRANCH   4   6
ENDBRANCH   1   2
BRANCH   1  21
ATOM     21  C   UNL A   1      31.628  30.393  26.424  1.00  0.00     0.023 C 
BRANCH  21  22
ATOM     22  C   UNL A   1      31.529  31.891  26.734  1.00  0.00     0.023 C 
BRANCH  22  23
ATOM     23  C   UNL A   1      32.791  32.528  27.309  1.00  0.00     0.116 C 
BRANCH  23  24
ATOM     24  N   UNL A   1      32.608  33.937  27.625  1.00  0.00    -0.352 N 
ATOM     25  C   UNL A   1      33.233  34.711  28.571  1.00  0.00     0.251 C 
ATOM     26  H   UNL A   1      31.936  34.404  27.078  1.00  0.00     0.163 HD
ATOM     27  O   UNL A   1      32.807  35.844  28.801  1.00  0.00    -0.269 OA
BRANCH  25  28
ATOM     28  C   UNL A   1      34.395  34.193  29.327  1.00  0.00     0.039 A 
ATOM     29  C   UNL A   1      34.164  33.392  30.451  1.00  0.00     0.014 A 
ATOM     30  C   UNL A   1      35.704  34.503  28.951  1.00  0.00     0.014 A 
ATOM     31  C   UNL A   1      35.246  32.852  31.154  1.00  0.00     0.010 A 
ATOM     32  C   UNL A   1      36.778  33.903  29.608  1.00  0.00     0.010 A 
ATOM     33  C   UNL A   1      36.562  33.072  30.718  1.00  0.00    -0.014 A 
BRANCH  33  34
ATOM     34  C   UNL A   1      37.718  32.424  31.396  1.00  0.00     0.031 A 
ATOM     35  C   UNL A   1      38.439  31.271  30.750  1.00  0.00     0.074 A 
ATOM     36  C   UNL A   1      38.068  32.820  32.637  1.00  0.00     0.049 A 
ATOM     37  N   UNL A   1      39.423  30.548  31.219  1.00  0.00    -0.248 NA
ATOM     38  C   UNL A   1      37.980  30.861  29.413  1.00  0.00     0.031 C 
ATOM     39  C   UNL A   1      37.404  33.874  33.407  1.00  0.00     0.029 A 
ATOM     40  N   UNL A   1      39.050  32.363  33.481  1.00  0.00    -0.354 N 
ATOM     41  C   UNL A   1      39.682  29.581  30.253  1.00  0.00     0.074 A 
ATOM     42  C   UNL A   1      38.725  29.788  29.187  1.00  0.00     0.031 C 
ATOM     43  C   UNL A   1      37.997  33.983  34.606  1.00  0.00     0.029 A 
ATOM     44  C   UNL A   1      39.059  32.986  34.708  1.00  0.00     0.049 A 
ATOM     45  H   UNL A   1      39.690  31.657  33.233  1.00  0.00     0.167 HD
ATOM     46  C   UNL A   1      40.642  28.626  30.239  1.00  0.00     0.034 A 
ATOM     47  C   UNL A   1      39.820  32.772  35.799  1.00  0.00     0.034 A 
ATOM     48  C   UNL A   1      41.612  28.440  31.285  1.00  0.00     0.049 A 
ATOM     49  C   UNL A   1      40.893  31.719  35.750  1.00  0.00     0.074 A 
ATOM     50  C   UNL A   1      42.672  27.550  31.327  1.00  0.00     0.029 A 
ATOM     51  N   UNL A   1      41.636  29.143  32.479  1.00  0.00    -0.354 N 
ATOM     52  N   UNL A   1      41.216  30.915  34.766  1.00  0.00    -0.248 NA
ATOM     53  C   UNL A   1      41.733  31.568  36.948  1.00  0.00     0.031 C 
ATOM     54  C   UNL A   1      43.318  27.693  32.558  1.00  0.00     0.029 A 
ATOM     55  C   UNL A   1      42.684  28.700  33.269  1.00  0.00     0.049 A 
ATOM     56  H   UNL A   1      41.002  29.853  32.730  1.00  0.00     0.167 HD
ATOM     57  C   UNL A   1      42.317  30.192  35.210  1.00  0.00     0.074 A 
ATOM     58  C   UNL A   1      42.618  30.667  36.546  1.00  0.00     0.031 C 
ATOM     59  C   UNL A   1      43.008  29.213  34.576  1.00  0.00     0.034 A 
BRANCH  46  60
ATOM     60  C   UNL A   1      40.724  27.731  29.028  1.00  0.00     0.023 A 
ATOM     61  C   UNL A   1      39.822  26.654  28.895  1.00  0.00     0.012 A 
ATOM     62  C   UNL A   1      41.646  27.989  27.995  1.00  0.00     0.148 A 
ATOM     63  C   UNL A   1      39.861  25.828  27.773  1.00  0.00     0.002 A 
ATOM     64  C   UNL A   1      41.647  27.190  26.857  1.00  0.00     0.091 A 
ATOM     65  F   UNL A   1      42.507  29.006  28.145  1.00  0.00    -0.205 F 
ATOM     66  C   UNL A   1      40.765  26.102  26.751  1.00  0.00     0.022 A 
BRANCH  64  67
ATOM     67  S   UNL A   1      42.714  27.508  25.448  1.00  0.00     0.127 S 
ATOM     68  O   UNL A   1      42.627  26.242  24.722  1.00  0.00    -0.237 OA
ATOM     69  O   UNL A   1      42.038  28.632  24.798  1.00  0.00    -0.237 OA
ATOM     70  O   UNL A   1      44.025  27.821  25.998  1.00  0.00    -0.744 OA
ENDBRANCH  64  67
ENDBRANCH  46  60
BRANCH  47  71
ATOM     71  C   UNL A   1      39.622  33.602  37.022  1.00  0.00     0.023 A 
ATOM     72  C   UNL A   1      38.608  33.261  37.938  1.00  0.00     0.012 A 
ATOM     73  C   UNL A   1      40.444  34.713  37.289  1.00  0.00     0.148 A 
ATOM     74  C   UNL A   1      38.392  34.035  39.079  1.00  0.00     0.002 A 
ATOM     75  C   UNL A   1      40.262  35.444  38.457  1.00  0.00     0.091 A 
ATOM     76  F   UNL A   1      41.397  35.026  36.399  1.00  0.00    -0.205 F 
ATOM     77  C   UNL A   1      39.225  35.120  39.343  1.00  0.00     0.022 A 
BRANCH  75  78
ATOM     78  S   UNL A   1      41.373  36.770  38.944  1.00  0.00     0.127 S 
ATOM     79  O   UNL A   1      40.435  37.800  39.380  1.00  0.00    -0.237 OA
ATOM     80  O   UNL A   1      42.140  36.138  40.019  1.00  0.00    -0.237 OA
ATOM     81  O   UNL A   1      42.154  37.085  37.756  1.00  0.00    -0.744 OA
ENDBRANCH  75  78
ENDBRANCH  47  71
BRANCH  59  82
ATOM     82  C   UNL A   1      44.192  28.613  35.291  1.00  0.00     0.023 A 
ATOM     83  C   UNL A   1      45.488  29.110  35.052  1.00  0.00     0.012 A 
ATOM     84  C   UNL A   1      44.007  27.603  36.256  1.00  0.00     0.148 A 
ATOM     85  C   UNL A   1      46.586  28.585  35.734  1.00  0.00     0.002 A 
ATOM     86  C   UNL A   1      45.097  27.122  36.970  1.00  0.00     0.091 A 
ATOM     87  F   UNL A   1      42.768  27.130  36.457  1.00  0.00    -0.205 F 
ATOM     88  C   UNL A   1      46.389  27.602  36.700  1.00  0.00     0.022 A 
BRANCH  86  89
ATOM     89  S   UNL A   1      44.929  25.927  38.299  1.00  0.00     0.127 S 
ATOM     90  O   UNL A   1      44.366  24.775  37.595  1.00  0.00    -0.237 OA
ATOM     91  O   UNL A   1      46.314  25.757  38.739  1.00  0.00    -0.237 OA
ATOM     92  O   UNL A   1      44.052  26.542  39.287  1.00  0.00    -0.744 OA
ENDBRANCH  86  89
ENDBRANCH  59  82
ENDBRANCH  33  34
ENDBRANCH  25  28
ENDBRANCH  23  24
ENDBRANCH  22  23
ENDBRANCH  21  22
ENDBRANCH   1  21
TORSDOF 20
ENDMDL
