MODEL 1
REMARK VINA RESULT:     -10.6      0.000      0.000
REMARK SMILES C[C@H]1C[C@](C(=O)NCCCCNC(=O)c2ccc(-c3c4nc(c(-c5cccc(S(=O)(=O)[O-])c5F)c5ccc([nH]5)c(-c5cccc(S(=O)(=O)[O-])c5F)c5nc(c(-c6cccc(S(=O)(=O)[O-])c6F)c6ccc3[nH]6)C=C5)C=C4)cc2)(N(C=O)C2CC2)CS1
REMARK SMILES IDX 10 1 9 2 8 3 7 4 5 5 6 6 4 8 1 9 2 10 3 11 85 12 84 13 78 14
REMARK SMILES IDX 79 15 80 16 81 17 82 18 83 19 11 20 12 21 13 22 14 24 15 25
REMARK SMILES IDX 16 26 77 27 17 28 76 29 18 30 19 31 20 32 70 33 21 34 75 35
REMARK SMILES IDX 69 36 71 37 22 38 74 39 68 40 67 41 23 43 55 44 35 45 54 46
REMARK SMILES IDX 36 47 39 48 53 49 72 50 37 51 38 52 52 54 73 55 40 56 24 57
REMARK SMILES IDX 25 58 33 59 26 60 28 61 34 62 27 63 29 64 30 65 31 66 32 67
REMARK SMILES IDX 56 68 57 69 65 70 58 71 60 72 66 73 59 74 61 75 62 76 63 77
REMARK SMILES IDX 64 78 41 79 42 80 50 81 43 82 45 83 51 84 44 85 46 86 47 87
REMARK SMILES IDX 48 88 49 89
REMARK H PARENT 7 7 12 23 71 42 39 53
REMARK Flexibility Score: inf
ROOT
ATOM      1  C   UNL A   1      31.789  28.850  25.483  1.00  0.00     0.023 C 
ENDROOT
BRANCH   1   2
ATOM      2  C   UNL A   1      31.504  28.059  26.761  1.00  0.00     0.023 C 
BRANCH   2   3
ATOM      3  C   UNL A   1      31.661  26.546  26.631  1.00  0.00     0.116 C 
BRANCH   3   4
ATOM      4  N   UNL A   1      33.003  26.182  26.218  1.00  0.00    -0.354 N 
ATOM      5  C   UNL A   1      33.544  25.158  25.513  1.00  0.00     0.246 C 
ATOM      6  O   UNL A   1      34.779  25.227  25.398  1.00  0.00    -0.272 OA
ATOM      7  H   UNL A   1      33.679  26.830  26.521  1.00  0.00     0.163 HD
BRANCH   5   8
ATOM      8  C   UNL A   1      32.765  24.040  24.727  1.00  0.00     0.131 C 
ATOM      9  C   UNL A   1      30.395  22.872  26.998  1.00  0.00     0.019 C 
ATOM     10  C   UNL A   1      30.719  22.668  25.525  1.00  0.00     0.046 C 
ATOM     11  C   UNL A   1      31.216  23.935  24.824  1.00  0.00     0.054 C 
ATOM     12  S   UNL A   1      32.042  21.475  25.336  1.00  0.00    -0.156 SA
ATOM     13  C   UNL A   1      33.335  22.744  25.374  1.00  0.00     0.108 C 
BRANCH   8  14
ATOM     14  N   UNL A   1      33.138  24.280  23.286  1.00  0.00    -0.327 N 
BRANCH  14  15
ATOM     15  C   UNL A   1      33.572  23.213  22.494  1.00  0.00     0.341 C 
ATOM     16  O   UNL A   1      32.871  22.503  21.782  1.00  0.00    -0.279 OA
ENDBRANCH  14  15
BRANCH  14  17
ATOM     17  C   UNL A   1      33.065  25.561  22.614  1.00  0.00     0.086 C 
ATOM     18  C   UNL A   1      32.775  25.947  21.192  1.00  0.00     0.027 C 
ATOM     19  C   UNL A   1      31.671  25.997  22.186  1.00  0.00     0.027 C 
ENDBRANCH  14  17
ENDBRANCH   8  14
ENDBRANCH   5   8
ENDBRANCH   3   4
ENDBRANCH   2   3
ENDBRANCH   1   2
BRANCH   1  20
ATOM     20  C   UNL A   1      32.953  29.830  25.577  1.00  0.00     0.116 C 
BRANCH  20  21
ATOM     21  N   UNL A   1      32.583  31.119  26.145  1.00  0.00    -0.352 N 
ATOM     22  C   UNL A   1      33.234  31.829  27.126  1.00  0.00     0.251 C 
ATOM     23  H   UNL A   1      31.766  31.532  25.781  1.00  0.00     0.163 HD
ATOM     24  O   UNL A   1      32.744  32.863  27.570  1.00  0.00    -0.269 OA
BRANCH  22  25
ATOM     25  C   UNL A   1      34.503  31.305  27.669  1.00  0.00     0.039 A 
ATOM     26  C   UNL A   1      35.566  32.188  27.872  1.00  0.00     0.014 A 
ATOM     27  C   UNL A   1      34.620  29.960  28.029  1.00  0.00     0.014 A 
ATOM     28  C   UNL A   1      36.727  31.734  28.501  1.00  0.00     0.010 A 
ATOM     29  C   UNL A   1      35.747  29.529  28.719  1.00  0.00     0.010 A 
ATOM     30  C   UNL A   1      36.812  30.410  28.961  1.00  0.00    -0.014 A 
BRANCH  30  31
ATOM     31  C   UNL A   1      37.999  29.927  29.709  1.00  0.00     0.031 A 
ATOM     32  C   UNL A   1      38.249  30.402  31.114  1.00  0.00     0.074 A 
ATOM     33  C   UNL A   1      38.901  29.142  29.088  1.00  0.00     0.049 A 
ATOM     34  N   UNL A   1      39.256  30.137  31.904  1.00  0.00    -0.248 NA
ATOM     35  C   UNL A   1      37.257  31.322  31.694  1.00  0.00     0.031 C 
ATOM     36  C   UNL A   1      38.813  28.686  27.698  1.00  0.00     0.029 A 
ATOM     37  N   UNL A   1      40.083  28.608  29.536  1.00  0.00    -0.354 N 
ATOM     38  C   UNL A   1      39.042  30.886  33.054  1.00  0.00     0.074 A 
ATOM     39  C   UNL A   1      37.826  31.642  32.847  1.00  0.00     0.031 C 
ATOM     40  C   UNL A   1      39.890  27.936  27.412  1.00  0.00     0.029 A 
ATOM     41  C   UNL A   1      40.755  27.876  28.585  1.00  0.00     0.049 A 
ATOM     42  H   UNL A   1      40.420  28.739  30.452  1.00  0.00     0.167 HD
ATOM     43  C   UNL A   1      39.774  30.920  34.193  1.00  0.00     0.034 A 
ATOM     44  C   UNL A   1      41.934  27.228  28.654  1.00  0.00     0.034 A 
ATOM     45  C   UNL A   1      40.946  30.118  34.418  1.00  0.00     0.049 A 
ATOM     46  C   UNL A   1      42.695  27.231  29.952  1.00  0.00     0.074 A 
ATOM     47  C   UNL A   1      41.691  29.991  35.576  1.00  0.00     0.029 A 
ATOM     48  N   UNL A   1      41.546  29.311  33.465  1.00  0.00    -0.354 N 
ATOM     49  N   UNL A   1      42.380  27.801  31.091  1.00  0.00    -0.248 NA
ATOM     50  C   UNL A   1      43.953  26.472  29.988  1.00  0.00     0.031 C 
ATOM     51  C   UNL A   1      42.752  29.117  35.317  1.00  0.00     0.029 A 
ATOM     52  C   UNL A   1      42.658  28.688  34.003  1.00  0.00     0.049 A 
ATOM     53  H   UNL A   1      41.227  29.197  32.540  1.00  0.00     0.167 HD
ATOM     54  C   UNL A   1      43.379  27.438  31.987  1.00  0.00     0.074 A 
ATOM     55  C   UNL A   1      44.300  26.585  31.264  1.00  0.00     0.031 C 
ATOM     56  C   UNL A   1      43.529  27.793  33.287  1.00  0.00     0.034 A 
BRANCH  43  57
ATOM     57  C   UNL A   1      39.291  31.808  35.309  1.00  0.00     0.023 A 
ATOM     58  C   UNL A   1      38.385  31.296  36.261  1.00  0.00     0.012 A 
ATOM     59  C   UNL A   1      39.767  33.126  35.447  1.00  0.00     0.148 A 
ATOM     60  C   UNL A   1      37.934  32.092  37.312  1.00  0.00     0.002 A 
ATOM     61  C   UNL A   1      39.345  33.900  36.522  1.00  0.00     0.091 A 
ATOM     62  F   UNL A   1      40.608  33.604  34.519  1.00  0.00    -0.205 F 
ATOM     63  C   UNL A   1      38.421  33.388  37.448  1.00  0.00     0.022 A 
BRANCH  61  64
ATOM     64  S   UNL A   1      39.975  35.554  36.826  1.00  0.00     0.127 S 
ATOM     65  O   UNL A   1      39.361  35.872  38.115  1.00  0.00    -0.237 OA
ATOM     66  O   UNL A   1      41.421  35.332  36.878  1.00  0.00    -0.237 OA
ATOM     67  O   UNL A   1      39.528  36.363  35.700  1.00  0.00    -0.744 OA
ENDBRANCH  61  64
ENDBRANCH  43  57
BRANCH  44  68
ATOM     68  C   UNL A   1      42.421  26.441  27.485  1.00  0.00     0.023 A 
ATOM     69  C   UNL A   1      43.240  27.073  26.528  1.00  0.00     0.012 A 
ATOM     70  C   UNL A   1      42.110  25.077  27.329  1.00  0.00     0.148 A 
ATOM     71  C   UNL A   1      43.717  26.370  25.422  1.00  0.00     0.002 A 
ATOM     72  C   UNL A   1      42.632  24.369  26.251  1.00  0.00     0.091 A 
ATOM     73  F   UNL A   1      41.319  24.496  28.241  1.00  0.00    -0.205 F 
ATOM     74  C   UNL A   1      43.421  25.016  25.288  1.00  0.00     0.022 A 
BRANCH  72  75
ATOM     75  S   UNL A   1      42.411  22.594  26.070  1.00  0.00     0.127 S 
ATOM     76  O   UNL A   1      43.065  22.341  24.788  1.00  0.00    -0.237 OA
ATOM     77  O   UNL A   1      43.122  22.078  27.240  1.00  0.00    -0.237 OA
ATOM     78  O   UNL A   1      40.971  22.376  26.103  1.00  0.00    -0.744 OA
ENDBRANCH  72  75
ENDBRANCH  44  68
BRANCH  56  79
ATOM     79  C   UNL A   1      44.714  27.236  34.031  1.00  0.00     0.023 A 
ATOM     80  C   UNL A   1      45.920  27.963  34.068  1.00  0.00     0.012 A 
ATOM     81  C   UNL A   1      44.606  26.036  34.762  1.00  0.00     0.148 A 
ATOM     82  C   UNL A   1      47.010  27.490  34.797  1.00  0.00     0.002 A 
ATOM     83  C   UNL A   1      45.680  25.595  35.525  1.00  0.00     0.091 A 
ATOM     84  F   UNL A   1      43.455  25.349  34.697  1.00  0.00    -0.205 F 
ATOM     85  C   UNL A   1      46.886  26.314  35.535  1.00  0.00     0.022 A 
BRANCH  83  86
ATOM     86  S   UNL A   1      45.574  24.145  36.580  1.00  0.00     0.127 S 
ATOM     87  O   UNL A   1      46.963  23.984  37.005  1.00  0.00    -0.237 OA
ATOM     88  O   UNL A   1      44.663  24.592  37.635  1.00  0.00    -0.237 OA
ATOM     89  O   UNL A   1      45.045  23.079  35.740  1.00  0.00    -0.744 OA
ENDBRANCH  83  86
ENDBRANCH  56  79
ENDBRANCH  30  31
ENDBRANCH  22  25
ENDBRANCH  20  21
ENDBRANCH   1  20
TORSDOF 17
ENDMDL
MODEL 2
REMARK VINA RESULT:     -10.6      4.839      9.995
REMARK SMILES C[C@H]1C[C@](C(=O)NCCCCNC(=O)c2ccc(-c3c4nc(c(-c5cccc(S(=O)(=O)[O-])c5F)c5ccc([nH]5)c(-c5cccc(S(=O)(=O)[O-])c5F)c5nc(c(-c6cccc(S(=O)(=O)[O-])c6F)c6ccc3[nH]6)C=C5)C=C4)cc2)(N(C=O)C2CC2)CS1
REMARK SMILES IDX 10 1 9 2 8 3 7 4 5 5 6 6 4 8 1 9 2 10 3 11 85 12 84 13 78 14
REMARK SMILES IDX 79 15 80 16 81 17 82 18 83 19 11 20 12 21 13 22 14 24 15 25
REMARK SMILES IDX 16 26 77 27 17 28 76 29 18 30 19 31 20 32 70 33 21 34 75 35
REMARK SMILES IDX 69 36 71 37 22 38 74 39 68 40 67 41 23 43 55 44 35 45 54 46
REMARK SMILES IDX 36 47 39 48 53 49 72 50 37 51 38 52 52 54 73 55 40 56 24 57
REMARK SMILES IDX 25 58 33 59 26 60 28 61 34 62 27 63 29 64 30 65 31 66 32 67
REMARK SMILES IDX 56 68 57 69 65 70 58 71 60 72 66 73 59 74 61 75 62 76 63 77
REMARK SMILES IDX 64 78 41 79 42 80 50 81 43 82 45 83 51 84 44 85 46 86 47 87
REMARK SMILES IDX 48 88 49 89
REMARK H PARENT 7 7 12 23 71 42 39 53
REMARK Flexibility Score: inf
ROOT
ATOM      1  C   UNL A   1      35.337  21.790  25.814  1.00  0.00     0.023 C 
ENDROOT
BRANCH   1   2
ATOM      2  C   UNL A   1      34.208  22.640  25.228  1.00  0.00     0.023 C 
BRANCH   2   3
ATOM      3  C   UNL A   1      34.219  24.106  25.651  1.00  0.00     0.116 C 
BRANCH   3   4
ATOM      4  N   UNL A   1      32.922  24.529  26.144  1.00  0.00    -0.354 N 
ATOM      5  C   UNL A   1      32.202  25.678  26.089  1.00  0.00     0.246 C 
ATOM      6  O   UNL A   1      31.108  25.612  26.673  1.00  0.00    -0.272 OA
ATOM      7  H   UNL A   1      32.454  23.815  26.634  1.00  0.00     0.163 HD
BRANCH   5   8
ATOM      8  C   UNL A   1      32.544  26.964  25.249  1.00  0.00     0.131 C 
ATOM      9  C   UNL A   1      34.380  28.965  27.430  1.00  0.00     0.019 C 
ATOM     10  C   UNL A   1      33.998  28.986  25.958  1.00  0.00     0.046 C 
ATOM     11  C   UNL A   1      33.963  27.598  25.311  1.00  0.00     0.054 C 
ATOM     12  S   UNL A   1      32.343  29.642  25.752  1.00  0.00    -0.156 SA
ATOM     13  C   UNL A   1      31.567  28.009  25.861  1.00  0.00     0.108 C 
BRANCH   8  14
ATOM     14  N   UNL A   1      32.268  26.552  23.825  1.00  0.00    -0.327 N 
BRANCH  14  15
ATOM     15  C   UNL A   1      33.330  26.400  22.928  1.00  0.00     0.341 C 
ATOM     16  O   UNL A   1      33.791  25.341  22.519  1.00  0.00    -0.279 OA
ENDBRANCH  14  15
BRANCH  14  17
ATOM     17  C   UNL A   1      30.955  26.268  23.284  1.00  0.00     0.086 C 
ATOM     18  C   UNL A   1      29.573  26.676  23.705  1.00  0.00     0.027 C 
ATOM     19  C   UNL A   1      30.249  27.446  22.628  1.00  0.00     0.027 C 
ENDBRANCH  14  17
ENDBRANCH   8  14
ENDBRANCH   5   8
ENDBRANCH   3   4
ENDBRANCH   2   3
ENDBRANCH   1   2
BRANCH   1  20
ATOM     20  C   UNL A   1      36.722  22.083  25.250  1.00  0.00     0.116 C 
BRANCH  20  21
ATOM     21  N   UNL A   1      37.678  21.007  25.467  1.00  0.00    -0.352 N 
ATOM     22  C   UNL A   1      38.939  21.092  26.009  1.00  0.00     0.251 C 
ATOM     23  H   UNL A   1      37.385  20.107  25.193  1.00  0.00     0.163 HD
ATOM     24  O   UNL A   1      39.667  20.105  26.040  1.00  0.00    -0.269 OA
BRANCH  22  25
ATOM     25  C   UNL A   1      39.419  22.396  26.508  1.00  0.00     0.039 A 
ATOM     26  C   UNL A   1      40.467  22.422  27.431  1.00  0.00     0.014 A 
ATOM     27  C   UNL A   1      38.875  23.587  26.020  1.00  0.00     0.014 A 
ATOM     28  C   UNL A   1      41.015  23.646  27.816  1.00  0.00     0.010 A 
ATOM     29  C   UNL A   1      39.470  24.800  26.349  1.00  0.00     0.010 A 
ATOM     30  C   UNL A   1      40.544  24.842  27.251  1.00  0.00    -0.014 A 
BRANCH  30  31
ATOM     31  C   UNL A   1      41.167  26.149  27.576  1.00  0.00     0.031 A 
ATOM     32  C   UNL A   1      42.579  26.438  27.148  1.00  0.00     0.074 A 
ATOM     33  C   UNL A   1      40.497  27.032  28.342  1.00  0.00     0.049 A 
ATOM     34  N   UNL A   1      43.311  27.495  27.386  1.00  0.00    -0.248 NA
ATOM     35  C   UNL A   1      43.272  25.389  26.381  1.00  0.00     0.031 C 
ATOM     36  C   UNL A   1      39.154  26.828  28.892  1.00  0.00     0.029 A 
ATOM     37  N   UNL A   1      40.863  28.268  28.814  1.00  0.00    -0.354 N 
ATOM     38  C   UNL A   1      44.559  27.224  26.838  1.00  0.00     0.074 A 
ATOM     39  C   UNL A   1      44.495  25.890  26.283  1.00  0.00     0.031 C 
ATOM     40  C   UNL A   1      38.807  27.904  29.617  1.00  0.00     0.029 A 
ATOM     41  C   UNL A   1      39.908  28.862  29.605  1.00  0.00     0.049 A 
ATOM     42  H   UNL A   1      41.728  28.689  28.606  1.00  0.00     0.167 HD
ATOM     43  C   UNL A   1      45.649  28.024  26.775  1.00  0.00     0.034 A 
ATOM     44  C   UNL A   1      39.919  30.048  30.246  1.00  0.00     0.034 A 
ATOM     45  C   UNL A   1      45.686  29.372  27.272  1.00  0.00     0.049 A 
ATOM     46  C   UNL A   1      41.120  30.942  30.106  1.00  0.00     0.074 A 
ATOM     47  C   UNL A   1      46.700  30.304  27.154  1.00  0.00     0.029 A 
ATOM     48  N   UNL A   1      44.664  29.979  27.985  1.00  0.00    -0.354 N 
ATOM     49  N   UNL A   1      42.224  30.740  29.427  1.00  0.00    -0.248 NA
ATOM     50  C   UNL A   1      41.064  32.244  30.787  1.00  0.00     0.031 C 
ATOM     51  C   UNL A   1      46.296  31.472  27.811  1.00  0.00     0.029 A 
ATOM     52  C   UNL A   1      45.025  31.271  28.323  1.00  0.00     0.049 A 
ATOM     53  H   UNL A   1      43.807  29.553  28.217  1.00  0.00     0.167 HD
ATOM     54  C   UNL A   1      42.976  31.901  29.568  1.00  0.00     0.074 A 
ATOM     55  C   UNL A   1      42.194  32.810  30.382  1.00  0.00     0.031 C 
ATOM     56  C   UNL A   1      44.210  32.184  29.081  1.00  0.00     0.034 A 
BRANCH  43  57
ATOM     57  C   UNL A   1      46.875  27.481  26.088  1.00  0.00     0.023 A 
ATOM     58  C   UNL A   1      47.046  27.694  24.704  1.00  0.00     0.012 A 
ATOM     59  C   UNL A   1      47.877  26.811  26.814  1.00  0.00     0.148 A 
ATOM     60  C   UNL A   1      48.178  27.216  24.047  1.00  0.00     0.002 A 
ATOM     61  C   UNL A   1      49.024  26.375  26.159  1.00  0.00     0.091 A 
ATOM     62  F   UNL A   1      47.687  26.596  28.123  1.00  0.00    -0.205 F 
ATOM     63  C   UNL A   1      49.170  26.566  24.775  1.00  0.00     0.022 A 
BRANCH  61  64
ATOM     64  S   UNL A   1      50.392  25.596  27.023  1.00  0.00     0.127 S 
ATOM     65  O   UNL A   1      49.761  24.385  27.547  1.00  0.00    -0.237 OA
ATOM     66  O   UNL A   1      51.351  25.364  25.942  1.00  0.00    -0.237 OA
ATOM     67  O   UNL A   1      50.831  26.559  28.024  1.00  0.00    -0.744 OA
ENDBRANCH  61  64
ENDBRANCH  43  57
BRANCH  44  68
ATOM     68  C   UNL A   1      38.714  30.498  30.999  1.00  0.00     0.023 A 
ATOM     69  C   UNL A   1      38.646  30.260  32.386  1.00  0.00     0.012 A 
ATOM     70  C   UNL A   1      37.658  31.183  30.368  1.00  0.00     0.148 A 
ATOM     71  C   UNL A   1      37.536  30.668  33.126  1.00  0.00     0.002 A 
ATOM     72  C   UNL A   1      36.579  31.633  31.120  1.00  0.00     0.091 A 
ATOM     73  F   UNL A   1      37.735  31.389  29.045  1.00  0.00    -0.205 F 
ATOM     74  C   UNL A   1      36.507  31.363  32.495  1.00  0.00     0.022 A 
BRANCH  72  75
ATOM     75  S   UNL A   1      35.273  32.649  30.417  1.00  0.00     0.127 S 
ATOM     76  O   UNL A   1      34.348  32.768  31.541  1.00  0.00    -0.237 OA
ATOM     77  O   UNL A   1      35.993  33.876  30.075  1.00  0.00    -0.237 OA
ATOM     78  O   UNL A   1      34.781  31.906  29.264  1.00  0.00    -0.744 OA
ENDBRANCH  72  75
ENDBRANCH  44  68
BRANCH  56  79
ATOM     79  C   UNL A   1      44.785  33.542  29.382  1.00  0.00     0.023 A 
ATOM     80  C   UNL A   1      45.604  33.718  30.515  1.00  0.00     0.012 A 
ATOM     81  C   UNL A   1      44.583  34.622  28.499  1.00  0.00     0.148 A 
ATOM     82  C   UNL A   1      46.191  34.954  30.779  1.00  0.00     0.002 A 
ATOM     83  C   UNL A   1      45.210  35.837  28.743  1.00  0.00     0.091 A 
ATOM     84  F   UNL A   1      43.784  34.439  27.438  1.00  0.00    -0.205 F 
ATOM     85  C   UNL A   1      46.005  36.009  29.888  1.00  0.00     0.022 A 
BRANCH  83  86
ATOM     86  S   UNL A   1      45.102  37.217  27.598  1.00  0.00     0.127 S 
ATOM     87  O   UNL A   1      45.454  38.346  28.458  1.00  0.00    -0.237 OA
ATOM     88  O   UNL A   1      46.115  36.874  26.599  1.00  0.00    -0.237 OA
ATOM     89  O   UNL A   1      43.735  37.212  27.095  1.00  0.00    -0.744 OA
ENDBRANCH  83  86
ENDBRANCH  56  79
ENDBRANCH  30  31
ENDBRANCH  22  25
ENDBRANCH  20  21
ENDBRANCH   1  20
TORSDOF 17
ENDMDL
MODEL 3
REMARK VINA RESULT:     -10.5      5.486      8.453
REMARK SMILES C[C@H]1C[C@](C(=O)NCCCCNC(=O)c2ccc(-c3c4nc(c(-c5cccc(S(=O)(=O)[O-])c5F)c5ccc([nH]5)c(-c5cccc(S(=O)(=O)[O-])c5F)c5nc(c(-c6cccc(S(=O)(=O)[O-])c6F)c6ccc3[nH]6)C=C5)C=C4)cc2)(N(C=O)C2CC2)CS1
REMARK SMILES IDX 10 1 9 2 8 3 7 4 5 5 6 6 4 8 1 9 2 10 3 11 85 12 84 13 78 14
REMARK SMILES IDX 79 15 80 16 81 17 82 18 83 19 11 20 12 21 13 22 14 24 15 25
REMARK SMILES IDX 16 26 77 27 17 28 76 29 18 30 19 31 20 32 70 33 21 34 75 35
REMARK SMILES IDX 69 36 71 37 22 38 74 39 68 40 67 41 23 43 55 44 35 45 54 46
REMARK SMILES IDX 36 47 39 48 53 49 72 50 37 51 38 52 52 54 73 55 40 56 24 57
REMARK SMILES IDX 25 58 33 59 26 60 28 61 34 62 27 63 29 64 30 65 31 66 32 67
REMARK SMILES IDX 56 68 57 69 65 70 58 71 60 72 66 73 59 74 61 75 62 76 63 77
REMARK SMILES IDX 64 78 41 79 42 80 50 81 43 82 45 83 51 84 44 85 46 86 47 87
REMARK SMILES IDX 48 88 49 89
REMARK H PARENT 7 7 12 23 71 42 39 53
REMARK Flexibility Score: inf
ROOT
ATOM      1  C   UNL A   1      37.779  20.018  24.805  1.00  0.00     0.023 C 
ENDROOT
BRANCH   1   2
ATOM      2  C   UNL A   1      36.366  20.575  24.986  1.00  0.00     0.023 C 
BRANCH   2   3
ATOM      3  C   UNL A   1      36.299  21.985  25.566  1.00  0.00     0.116 C 
BRANCH   3   4
ATOM      4  N   UNL A   1      35.400  22.053  26.703  1.00  0.00    -0.354 N 
ATOM      5  C   UNL A   1      34.158  22.556  26.916  1.00  0.00     0.246 C 
ATOM      6  O   UNL A   1      33.751  22.407  28.079  1.00  0.00    -0.272 OA
ATOM      7  H   UNL A   1      35.781  21.637  27.510  1.00  0.00     0.163 HD
BRANCH   5   8
ATOM      8  C   UNL A   1      33.176  23.130  25.829  1.00  0.00     0.131 C 
ATOM      9  C   UNL A   1      33.514  26.587  26.092  1.00  0.00     0.019 C 
ATOM     10  C   UNL A   1      32.813  25.606  25.163  1.00  0.00     0.046 C 
ATOM     11  C   UNL A   1      33.604  24.317  24.920  1.00  0.00     0.054 C 
ATOM     12  S   UNL A   1      31.257  25.075  25.875  1.00  0.00    -0.156 SA
ATOM     13  C   UNL A   1      32.002  23.649  26.709  1.00  0.00     0.108 C 
BRANCH   8  14
ATOM     14  N   UNL A   1      32.871  21.943  24.951  1.00  0.00    -0.327 N 
BRANCH  14  15
ATOM     15  C   UNL A   1      32.506  20.725  25.531  1.00  0.00     0.341 C 
ATOM     16  O   UNL A   1      32.100  19.730  24.941  1.00  0.00    -0.279 OA
ENDBRANCH  14  15
BRANCH  14  17
ATOM     17  C   UNL A   1      32.904  21.954  23.503  1.00  0.00     0.086 C 
ATOM     18  C   UNL A   1      32.100  21.227  22.463  1.00  0.00     0.027 C 
ATOM     19  C   UNL A   1      31.710  22.614  22.827  1.00  0.00     0.027 C 
ENDBRANCH  14  17
ENDBRANCH   8  14
ENDBRANCH   5   8
ENDBRANCH   3   4
ENDBRANCH   2   3
ENDBRANCH   1   2
BRANCH   1  20
ATOM     20  C   UNL A   1      38.641  20.027  26.062  1.00  0.00     0.116 C 
BRANCH  20  21
ATOM     21  N   UNL A   1      39.838  19.205  25.954  1.00  0.00    -0.352 N 
ATOM     22  C   UNL A   1      41.147  19.589  26.125  1.00  0.00     0.251 C 
ATOM     23  H   UNL A   1      39.691  18.257  25.731  1.00  0.00     0.163 HD
ATOM     24  O   UNL A   1      42.058  18.797  25.905  1.00  0.00    -0.269 OA
BRANCH  22  25
ATOM     25  C   UNL A   1      41.439  20.978  26.531  1.00  0.00     0.039 A 
ATOM     26  C   UNL A   1      42.224  21.199  27.665  1.00  0.00     0.014 A 
ATOM     27  C   UNL A   1      40.989  22.053  25.760  1.00  0.00     0.014 A 
ATOM     28  C   UNL A   1      42.615  22.500  27.988  1.00  0.00     0.010 A 
ATOM     29  C   UNL A   1      41.439  23.338  26.043  1.00  0.00     0.010 A 
ATOM     30  C   UNL A   1      42.254  23.575  27.160  1.00  0.00    -0.014 A 
BRANCH  30  31
ATOM     31  C   UNL A   1      42.729  24.954  27.432  1.00  0.00     0.031 A 
ATOM     32  C   UNL A   1      41.813  25.952  28.085  1.00  0.00     0.074 A 
ATOM     33  C   UNL A   1      43.947  25.334  27.000  1.00  0.00     0.049 A 
ATOM     34  N   UNL A   1      42.027  27.213  28.352  1.00  0.00    -0.248 NA
ATOM     35  C   UNL A   1      40.468  25.479  28.456  1.00  0.00     0.031 C 
ATOM     36  C   UNL A   1      44.893  24.481  26.275  1.00  0.00     0.029 A 
ATOM     37  N   UNL A   1      44.590  26.544  27.083  1.00  0.00    -0.354 N 
ATOM     38  C   UNL A   1      40.836  27.696  28.881  1.00  0.00     0.074 A 
ATOM     39  C   UNL A   1      39.893  26.600  28.869  1.00  0.00     0.031 C 
ATOM     40  C   UNL A   1      45.997  25.192  25.989  1.00  0.00     0.029 A 
ATOM     41  C   UNL A   1      45.829  26.554  26.485  1.00  0.00     0.049 A 
ATOM     42  H   UNL A   1      44.201  27.332  27.527  1.00  0.00     0.167 HD
ATOM     43  C   UNL A   1      40.562  28.931  29.363  1.00  0.00     0.034 A 
ATOM     44  C   UNL A   1      46.729  27.549  26.357  1.00  0.00     0.034 A 
ATOM     45  C   UNL A   1      41.523  29.998  29.431  1.00  0.00     0.049 A 
ATOM     46  C   UNL A   1      46.421  28.893  26.958  1.00  0.00     0.074 A 
ATOM     47  C   UNL A   1      41.380  31.247  30.006  1.00  0.00     0.029 A 
ATOM     48  N   UNL A   1      42.803  29.943  28.904  1.00  0.00    -0.354 N 
ATOM     49  N   UNL A   1      45.355  29.277  27.619  1.00  0.00    -0.248 NA
ATOM     50  C   UNL A   1      47.455  29.932  26.829  1.00  0.00     0.031 C 
ATOM     51  C   UNL A   1      42.572  31.955  29.813  1.00  0.00     0.029 A 
ATOM     52  C   UNL A   1      43.461  31.138  29.131  1.00  0.00     0.049 A 
ATOM     53  H   UNL A   1      43.188  29.166  28.437  1.00  0.00     0.167 HD
ATOM     54  C   UNL A   1      45.605  30.586  28.017  1.00  0.00     0.074 A 
ATOM     55  C   UNL A   1      46.930  30.923  27.538  1.00  0.00     0.031 C 
ATOM     56  C   UNL A   1      44.802  31.437  28.702  1.00  0.00     0.034 A 
BRANCH  43  57
ATOM     57  C   UNL A   1      39.181  29.176  29.913  1.00  0.00     0.023 A 
ATOM     58  C   UNL A   1      38.871  28.754  31.222  1.00  0.00     0.012 A 
ATOM     59  C   UNL A   1      38.211  29.865  29.160  1.00  0.00     0.148 A 
ATOM     60  C   UNL A   1      37.607  28.982  31.761  1.00  0.00     0.002 A 
ATOM     61  C   UNL A   1      36.965  30.126  29.721  1.00  0.00     0.091 A 
ATOM     62  F   UNL A   1      38.515  30.236  27.909  1.00  0.00    -0.205 F 
ATOM     63  C   UNL A   1      36.658  29.675  31.016  1.00  0.00     0.022 A 
BRANCH  61  64
ATOM     64  S   UNL A   1      35.704  31.078  28.868  1.00  0.00     0.127 S 
ATOM     65  O   UNL A   1      36.512  32.058  28.144  1.00  0.00    -0.237 OA
ATOM     66  O   UNL A   1      35.070  30.066  28.022  1.00  0.00    -0.237 OA
ATOM     67  O   UNL A   1      34.842  31.621  29.910  1.00  0.00    -0.744 OA
ENDBRANCH  61  64
ENDBRANCH  43  57
BRANCH  44  68
ATOM     68  C   UNL A   1      48.046  27.282  25.713  1.00  0.00     0.023 A 
ATOM     69  C   UNL A   1      49.104  26.781  26.497  1.00  0.00     0.012 A 
ATOM     70  C   UNL A   1      48.252  27.489  24.335  1.00  0.00     0.148 A 
ATOM     71  C   UNL A   1      50.350  26.517  25.929  1.00  0.00     0.002 A 
ATOM     72  C   UNL A   1      49.482  27.174  23.765  1.00  0.00     0.091 A 
ATOM     73  F   UNL A   1      47.239  27.979  23.607  1.00  0.00    -0.205 F 
ATOM     74  C   UNL A   1      50.536  26.705  24.562  1.00  0.00     0.022 A 
BRANCH  72  75
ATOM     75  S   UNL A   1      49.770  27.260  21.993  1.00  0.00     0.127 S 
ATOM     76  O   UNL A   1      51.156  26.811  21.894  1.00  0.00    -0.237 OA
ATOM     77  O   UNL A   1      48.776  26.318  21.477  1.00  0.00    -0.237 OA
ATOM     78  O   UNL A   1      49.523  28.648  21.626  1.00  0.00    -0.744 OA
ENDBRANCH  72  75
ENDBRANCH  44  68
BRANCH  56  79
ATOM     79  C   UNL A   1      45.341  32.809  29.011  1.00  0.00     0.023 A 
ATOM     80  C   UNL A   1      45.987  33.044  30.241  1.00  0.00     0.012 A 
ATOM     81  C   UNL A   1      45.281  33.839  28.052  1.00  0.00     0.148 A 
ATOM     82  C   UNL A   1      46.540  34.292  30.523  1.00  0.00     0.002 A 
ATOM     83  C   UNL A   1      45.876  35.065  28.321  1.00  0.00     0.091 A 
ATOM     84  F   UNL A   1      44.644  33.601  26.896  1.00  0.00    -0.205 F 
ATOM     85  C   UNL A   1      46.497  35.298  29.559  1.00  0.00     0.022 A 
BRANCH  83  86
ATOM     86  S   UNL A   1      45.952  36.381  27.100  1.00  0.00     0.127 S 
ATOM     87  O   UNL A   1      47.083  37.171  27.584  1.00  0.00    -0.237 OA
ATOM     88  O   UNL A   1      46.208  35.645  25.862  1.00  0.00    -0.237 OA
ATOM     89  O   UNL A   1      44.655  37.044  27.149  1.00  0.00    -0.744 OA
ENDBRANCH  83  86
ENDBRANCH  56  79
ENDBRANCH  30  31
ENDBRANCH  22  25
ENDBRANCH  20  21
ENDBRANCH   1  20
TORSDOF 17
ENDMDL
