MODEL 1
REMARK VINA RESULT:     -13.6      0.000      0.000
REMARK SMILES Cc1cc(C(=O)NCCCCNC(=O)c2ccc(-c3c4nc(c(-c5cccc(S(=O)(=O)[O-])c5F)c5ccc([nH]5)c(-c5cccc(S(=O)(=O)[O-])c5F)c5nc(c(-c6cccc(S(=O)(=O)[O-])c6F)c6ccc3[nH]6)C=C5)C=C4)cc2)cc(S(=O)(=O)NNC(=O)c2c[nH]c3ccccc23)c1C
REMARK SMILES IDX 9 1 8 2 7 3 5 4 6 5 4 7 1 8 2 9 3 10 96 11 79 12 97 13 78 14
REMARK SMILES IDX 80 15 81 16 82 17 83 18 84 20 85 21 86 23 87 24 88 25 95 26
REMARK SMILES IDX 89 27 90 28 94 29 91 31 93 32 92 33 10 34 11 35 12 36 13 37
REMARK SMILES IDX 14 39 15 40 16 41 77 42 17 43 76 44 18 45 19 46 20 47 70 48
REMARK SMILES IDX 21 49 75 50 69 51 71 52 22 53 74 54 68 55 67 56 23 58 55 59
REMARK SMILES IDX 35 60 54 61 36 62 39 63 53 64 72 65 37 66 38 67 52 69 73 70
REMARK SMILES IDX 40 71 24 72 25 73 33 74 26 75 28 76 34 77 27 78 29 79 30 80
REMARK SMILES IDX 31 81 32 82 56 83 57 84 65 85 58 86 60 87 66 88 59 89 61 90
REMARK SMILES IDX 62 91 63 92 64 93 41 94 42 95 50 96 43 97 45 98 51 99 44 100
REMARK SMILES IDX 46 101 47 102 48 103 49 104
REMARK H PARENT 7 6 83 19 84 22 89 30 12 38 71 57 39 68
REMARK Flexibility Score: inf
ROOT
ATOM      1  C   UNL A   1      36.095  23.326  23.683  1.00  0.00     0.023 C 
ENDROOT
BRANCH   1   2
ATOM      2  C   UNL A   1      34.699  23.133  23.080  1.00  0.00     0.116 C 
BRANCH   2   3
ATOM      3  N   UNL A   1      34.366  24.208  22.162  1.00  0.00    -0.352 N 
ATOM      4  C   UNL A   1      33.752  25.426  22.304  1.00  0.00     0.251 C 
ATOM      5  O   UNL A   1      33.653  26.129  21.297  1.00  0.00    -0.269 OA
ATOM      6  H   UNL A   1      34.641  24.021  21.234  1.00  0.00     0.163 HD
BRANCH   4   7
ATOM      7  C   UNL A   1      33.219  25.975  23.588  1.00  0.00     0.041 A 
ATOM      8  C   UNL A   1      33.602  28.949  25.925  1.00  0.00     0.044 C 
ATOM      9  C   UNL A   1      33.098  27.634  25.388  1.00  0.00    -0.046 A 
ATOM     10  C   UNL A   1      33.683  27.133  24.212  1.00  0.00     0.017 A 
ATOM     11  C   UNL A   1      32.079  26.897  26.026  1.00  0.00    -0.028 A 
ATOM     12  C   UNL A   1      31.694  25.653  25.465  1.00  0.00     0.088 A 
ATOM     13  C   UNL A   1      31.422  27.417  27.283  1.00  0.00     0.046 C 
ATOM     14  C   UNL A   1      32.221  25.227  24.240  1.00  0.00     0.036 A 
BRANCH  12  15
ATOM     15  S   UNL A   1      30.661  24.564  26.426  1.00  0.00     0.257 S 
ATOM     16  O   UNL A   1      31.433  24.228  27.620  1.00  0.00    -0.205 OA
ATOM     17  O   UNL A   1      29.363  25.167  26.529  1.00  0.00    -0.205 OA
BRANCH  15  18
ATOM     18  N   UNL A   1      30.408  23.124  25.554  1.00  0.00    -0.123 NA
ATOM     19  H   UNL A   1      30.733  23.299  24.603  1.00  0.00     0.167 HD
BRANCH  18  20
ATOM     20  N   UNL A   1      31.030  21.862  25.983  1.00  0.00    -0.273 N 
ATOM     21  C   UNL A   1      32.361  21.604  25.679  1.00  0.00     0.268 C 
ATOM     22  H   UNL A   1      30.504  21.200  26.485  1.00  0.00     0.186 HD
ATOM     23  O   UNL A   1      33.229  21.603  26.547  1.00  0.00    -0.268 OA
BRANCH  21  24
ATOM     24  C   UNL A   1      32.564  21.018  24.354  1.00  0.00     0.066 A 
ATOM     25  C   UNL A   1      31.997  21.462  23.171  1.00  0.00     0.097 A 
ATOM     26  C   UNL A   1      33.178  19.766  24.021  1.00  0.00     0.012 A 
ATOM     27  N   UNL A   1      31.730  20.339  22.436  1.00  0.00    -0.360 N 
ATOM     28  C   UNL A   1      32.460  19.286  22.923  1.00  0.00     0.046 A 
ATOM     29  C   UNL A   1      34.141  18.919  24.606  1.00  0.00     0.011 A 
ATOM     30  H   UNL A   1      31.109  20.294  21.673  1.00  0.00     0.166 HD
ATOM     31  C   UNL A   1      32.515  17.955  22.501  1.00  0.00     0.027 A 
ATOM     32  C   UNL A   1      34.314  17.624  24.096  1.00  0.00     0.001 A 
ATOM     33  C   UNL A   1      33.470  17.134  23.101  1.00  0.00     0.002 A 
ENDBRANCH  21  24
ENDBRANCH  18  20
ENDBRANCH  15  18
ENDBRANCH  12  15
ENDBRANCH   4   7
ENDBRANCH   2   3
ENDBRANCH   1   2
BRANCH   1  34
ATOM     34  C   UNL A   1      36.830  22.018  24.003  1.00  0.00     0.023 C 
BRANCH  34  35
ATOM     35  C   UNL A   1      37.126  21.785  25.483  1.00  0.00     0.116 C 
BRANCH  35  36
ATOM     36  N   UNL A   1      38.169  20.797  25.717  1.00  0.00    -0.352 N 
ATOM     37  C   UNL A   1      39.431  20.992  26.230  1.00  0.00     0.251 C 
ATOM     38  H   UNL A   1      37.943  19.869  25.477  1.00  0.00     0.163 HD
ATOM     39  O   UNL A   1      40.229  20.061  26.273  1.00  0.00    -0.269 OA
BRANCH  37  40
ATOM     40  C   UNL A   1      39.832  22.340  26.689  1.00  0.00     0.039 A 
ATOM     41  C   UNL A   1      40.832  22.454  27.659  1.00  0.00     0.014 A 
ATOM     42  C   UNL A   1      39.249  23.486  26.143  1.00  0.00     0.014 A 
ATOM     43  C   UNL A   1      41.298  23.718  28.028  1.00  0.00     0.010 A 
ATOM     44  C   UNL A   1      39.760  24.740  26.462  1.00  0.00     0.010 A 
ATOM     45  C   UNL A   1      40.791  24.870  27.405  1.00  0.00    -0.014 A 
BRANCH  45  46
ATOM     46  C   UNL A   1      41.343  26.217  27.704  1.00  0.00     0.031 A 
ATOM     47  C   UNL A   1      42.752  26.566  27.311  1.00  0.00     0.074 A 
ATOM     48  C   UNL A   1      40.610  27.089  28.424  1.00  0.00     0.049 A 
ATOM     49  N   UNL A   1      43.425  27.663  27.544  1.00  0.00    -0.248 NA
ATOM     50  C   UNL A   1      43.516  25.536  26.589  1.00  0.00     0.031 C 
ATOM     51  C   UNL A   1      39.264  26.835  28.944  1.00  0.00     0.029 A 
ATOM     52  N   UNL A   1      40.905  28.353  28.872  1.00  0.00    -0.354 N 
ATOM     53  C   UNL A   1      44.698  27.444  27.033  1.00  0.00     0.074 A 
ATOM     54  C   UNL A   1      44.715  26.096  26.508  1.00  0.00     0.031 C 
ATOM     55  C   UNL A   1      38.851  27.906  29.638  1.00  0.00     0.029 A 
ATOM     56  C   UNL A   1      39.908  28.914  29.635  1.00  0.00     0.049 A 
ATOM     57  H   UNL A   1      41.750  28.813  28.666  1.00  0.00     0.167 HD
ATOM     58  C   UNL A   1      45.749  28.295  26.976  1.00  0.00     0.034 A 
ATOM     59  C   UNL A   1      39.851  30.105  30.264  1.00  0.00     0.034 A 
ATOM     60  C   UNL A   1      45.714  29.651  27.456  1.00  0.00     0.049 A 
ATOM     61  C   UNL A   1      41.009  31.056  30.137  1.00  0.00     0.074 A 
ATOM     62  C   UNL A   1      46.691  30.626  27.355  1.00  0.00     0.029 A 
ATOM     63  N   UNL A   1      44.648  30.223  28.133  1.00  0.00    -0.354 N 
ATOM     64  N   UNL A   1      42.142  30.895  29.497  1.00  0.00    -0.248 NA
ATOM     65  C   UNL A   1      40.867  32.368  30.785  1.00  0.00     0.031 C 
ATOM     66  C   UNL A   1      46.221  31.783  27.986  1.00  0.00     0.029 A 
ATOM     67  C   UNL A   1      44.944  31.534  28.463  1.00  0.00     0.049 A 
ATOM     68  H   UNL A   1      43.805  29.764  28.348  1.00  0.00     0.167 HD
ATOM     69  C   UNL A   1      42.833  32.093  29.635  1.00  0.00     0.074 A 
ATOM     70  C   UNL A   1      41.981  32.979  30.403  1.00  0.00     0.031 C 
ATOM     71  C   UNL A   1      44.066  32.424  29.182  1.00  0.00     0.034 A 
BRANCH  58  72
ATOM     72  C   UNL A   1      47.010  27.803  26.315  1.00  0.00     0.023 A 
ATOM     73  C   UNL A   1      47.991  27.152  27.092  1.00  0.00     0.012 A 
ATOM     74  C   UNL A   1      47.210  27.942  24.928  1.00  0.00     0.148 A 
ATOM     75  C   UNL A   1      49.168  26.685  26.509  1.00  0.00     0.002 A 
ATOM     76  C   UNL A   1      48.366  27.434  24.346  1.00  0.00     0.091 A 
ATOM     77  F   UNL A   1      46.280  28.583  24.207  1.00  0.00    -0.205 F 
ATOM     78  C   UNL A   1      49.351  26.817  25.136  1.00  0.00     0.022 A 
BRANCH  76  79
ATOM     79  S   UNL A   1      48.658  27.488  22.574  1.00  0.00     0.127 S 
ATOM     80  O   UNL A   1      48.635  26.069  22.227  1.00  0.00    -0.237 OA
ATOM     81  O   UNL A   1      47.507  28.253  22.093  1.00  0.00    -0.237 OA
ATOM     82  O   UNL A   1      49.940  28.157  22.403  1.00  0.00    -0.744 OA
ENDBRANCH  76  79
ENDBRANCH  58  72
BRANCH  59  83
ATOM     83  C   UNL A   1      38.615  30.491  31.003  1.00  0.00     0.023 A 
ATOM     84  C   UNL A   1      38.517  30.197  32.377  1.00  0.00     0.012 A 
ATOM     85  C   UNL A   1      37.566  31.185  30.372  1.00  0.00     0.148 A 
ATOM     86  C   UNL A   1      37.384  30.565  33.104  1.00  0.00     0.002 A 
ATOM     87  C   UNL A   1      36.464  31.596  31.114  1.00  0.00     0.091 A 
ATOM     88  F   UNL A   1      37.675  31.446  29.062  1.00  0.00    -0.205 F 
ATOM     89  C   UNL A   1      36.364  31.273  32.476  1.00  0.00     0.022 A 
BRANCH  87  90
ATOM     90  S   UNL A   1      35.166  32.628  30.422  1.00  0.00     0.127 S 
ATOM     91  O   UNL A   1      34.258  32.767  31.557  1.00  0.00    -0.237 OA
ATOM     92  O   UNL A   1      35.903  33.843  30.069  1.00  0.00    -0.237 OA
ATOM     93  O   UNL A   1      34.646  31.890  29.278  1.00  0.00    -0.744 OA
ENDBRANCH  87  90
ENDBRANCH  59  83
BRANCH  71  94
ATOM     94  C   UNL A   1      44.570  33.813  29.472  1.00  0.00     0.023 A 
ATOM     95  C   UNL A   1      45.164  34.094  30.718  1.00  0.00     0.012 A 
ATOM     96  C   UNL A   1      44.528  34.817  28.485  1.00  0.00     0.148 A 
ATOM     97  C   UNL A   1      45.684  35.359  30.988  1.00  0.00     0.002 A 
ATOM     98  C   UNL A   1      45.089  36.062  28.743  1.00  0.00     0.091 A 
ATOM     99  F   UNL A   1      43.940  34.537  27.313  1.00  0.00    -0.205 F 
ATOM    100  C   UNL A   1      45.658  36.338  29.997  1.00  0.00     0.022 A 
BRANCH  98 101
ATOM    101  S   UNL A   1      45.185  37.350  27.494  1.00  0.00     0.127 S 
ATOM    102  O   UNL A   1      45.876  38.416  28.218  1.00  0.00    -0.237 OA
ATOM    103  O   UNL A   1      45.980  36.710  26.446  1.00  0.00    -0.237 OA
ATOM    104  O   UNL A   1      43.809  37.641  27.113  1.00  0.00    -0.744 OA
ENDBRANCH  98 101
ENDBRANCH  71  94
ENDBRANCH  45  46
ENDBRANCH  37  40
ENDBRANCH  35  36
ENDBRANCH  34  35
ENDBRANCH   1  34
TORSDOF 18
ENDMDL
MODEL 2
REMARK VINA RESULT:     -13.4      0.548      7.183
REMARK SMILES Cc1cc(C(=O)NCCCCNC(=O)c2ccc(-c3c4nc(c(-c5cccc(S(=O)(=O)[O-])c5F)c5ccc([nH]5)c(-c5cccc(S(=O)(=O)[O-])c5F)c5nc(c(-c6cccc(S(=O)(=O)[O-])c6F)c6ccc3[nH]6)C=C5)C=C4)cc2)cc(S(=O)(=O)NNC(=O)c2c[nH]c3ccccc23)c1C
REMARK SMILES IDX 9 1 8 2 7 3 5 4 6 5 4 7 1 8 2 9 3 10 96 11 79 12 97 13 78 14
REMARK SMILES IDX 80 15 81 16 82 17 83 18 84 20 85 21 86 23 87 24 88 25 95 26
REMARK SMILES IDX 89 27 90 28 94 29 91 31 93 32 92 33 10 34 11 35 12 36 13 37
REMARK SMILES IDX 14 39 15 40 16 41 77 42 17 43 76 44 18 45 19 46 20 47 70 48
REMARK SMILES IDX 21 49 75 50 69 51 71 52 22 53 74 54 68 55 67 56 23 58 55 59
REMARK SMILES IDX 35 60 54 61 36 62 39 63 53 64 72 65 37 66 38 67 52 69 73 70
REMARK SMILES IDX 40 71 24 72 25 73 33 74 26 75 28 76 34 77 27 78 29 79 30 80
REMARK SMILES IDX 31 81 32 82 56 83 57 84 65 85 58 86 60 87 66 88 59 89 61 90
REMARK SMILES IDX 62 91 63 92 64 93 41 94 42 95 50 96 43 97 45 98 51 99 44 100
REMARK SMILES IDX 46 101 47 102 48 103 49 104
REMARK H PARENT 7 6 83 19 84 22 89 30 12 38 71 57 39 68
REMARK Flexibility Score: inf
ROOT
ATOM      1  C   UNL A   1      36.532  23.126  23.429  1.00  0.00     0.023 C 
ENDROOT
BRANCH   1   2
ATOM      2  C   UNL A   1      35.005  23.094  23.294  1.00  0.00     0.116 C 
BRANCH   2   3
ATOM      3  N   UNL A   1      34.541  24.057  22.311  1.00  0.00    -0.352 N 
ATOM      4  C   UNL A   1      33.810  25.216  22.384  1.00  0.00     0.251 C 
ATOM      5  O   UNL A   1      33.613  25.826  21.331  1.00  0.00    -0.269 OA
ATOM      6  H   UNL A   1      34.808  23.828  21.391  1.00  0.00     0.163 HD
BRANCH   4   7
ATOM      7  C   UNL A   1      33.259  25.807  23.641  1.00  0.00     0.041 A 
ATOM      8  C   UNL A   1      33.604  28.860  25.880  1.00  0.00     0.044 C 
ATOM      9  C   UNL A   1      33.110  27.525  25.382  1.00  0.00    -0.046 A 
ATOM     10  C   UNL A   1      33.712  26.987  24.231  1.00  0.00     0.017 A 
ATOM     11  C   UNL A   1      32.085  26.809  26.031  1.00  0.00    -0.028 A 
ATOM     12  C   UNL A   1      31.710  25.545  25.507  1.00  0.00     0.088 A 
ATOM     13  C   UNL A   1      31.409  27.369  27.260  1.00  0.00     0.046 C 
ATOM     14  C   UNL A   1      32.254  25.079  24.305  1.00  0.00     0.036 A 
BRANCH  12  15
ATOM     15  S   UNL A   1      30.666  24.486  26.491  1.00  0.00     0.257 S 
ATOM     16  O   UNL A   1      31.441  24.155  27.684  1.00  0.00    -0.205 OA
ATOM     17  O   UNL A   1      29.379  25.112  26.594  1.00  0.00    -0.205 OA
BRANCH  15  18
ATOM     18  N   UNL A   1      30.384  23.039  25.641  1.00  0.00    -0.123 NA
ATOM     19  H   UNL A   1      30.643  23.216  24.671  1.00  0.00     0.167 HD
BRANCH  18  20
ATOM     20  N   UNL A   1      31.055  21.790  26.033  1.00  0.00    -0.273 N 
ATOM     21  C   UNL A   1      32.387  21.581  25.697  1.00  0.00     0.268 C 
ATOM     22  H   UNL A   1      30.561  21.102  26.532  1.00  0.00     0.186 HD
ATOM     23  O   UNL A   1      33.273  21.592  26.547  1.00  0.00    -0.268 OA
BRANCH  21  24
ATOM     24  C   UNL A   1      32.580  21.027  24.356  1.00  0.00     0.066 A 
ATOM     25  C   UNL A   1      32.035  21.521  23.184  1.00  0.00     0.097 A 
ATOM     26  C   UNL A   1      33.159  19.767  23.991  1.00  0.00     0.012 A 
ATOM     27  N   UNL A   1      31.738  20.428  22.415  1.00  0.00    -0.360 N 
ATOM     28  C   UNL A   1      32.433  19.340  22.876  1.00  0.00     0.046 A 
ATOM     29  C   UNL A   1      34.092  18.875  24.557  1.00  0.00     0.011 A 
ATOM     30  H   UNL A   1      31.121  20.423  21.649  1.00  0.00     0.166 HD
ATOM     31  C   UNL A   1      32.451  18.021  22.417  1.00  0.00     0.027 A 
ATOM     32  C   UNL A   1      34.229  17.591  24.012  1.00  0.00     0.001 A 
ATOM     33  C   UNL A   1      33.377  17.155  22.998  1.00  0.00     0.002 A 
ENDBRANCH  21  24
ENDBRANCH  18  20
ENDBRANCH  15  18
ENDBRANCH  12  15
ENDBRANCH   4   7
ENDBRANCH   2   3
ENDBRANCH   1   2
BRANCH   1  34
ATOM     34  C   UNL A   1      37.150  21.808  23.911  1.00  0.00     0.023 C 
BRANCH  34  35
ATOM     35  C   UNL A   1      37.537  21.774  25.388  1.00  0.00     0.116 C 
BRANCH  35  36
ATOM     36  N   UNL A   1      38.513  20.742  25.708  1.00  0.00    -0.352 N 
ATOM     37  C   UNL A   1      39.729  20.880  26.336  1.00  0.00     0.251 C 
ATOM     38  H   UNL A   1      38.271  19.826  25.440  1.00  0.00     0.163 HD
ATOM     39  O   UNL A   1      40.480  19.916  26.443  1.00  0.00    -0.269 OA
BRANCH  37  40
ATOM     40  C   UNL A   1      40.143  22.208  26.841  1.00  0.00     0.039 A 
ATOM     41  C   UNL A   1      41.030  22.274  27.919  1.00  0.00     0.014 A 
ATOM     42  C   UNL A   1      39.684  23.380  26.235  1.00  0.00     0.014 A 
ATOM     43  C   UNL A   1      41.514  23.514  28.342  1.00  0.00     0.010 A 
ATOM     44  C   UNL A   1      40.217  24.608  26.614  1.00  0.00     0.010 A 
ATOM     45  C   UNL A   1      41.140  24.689  27.669  1.00  0.00    -0.014 A 
BRANCH  45  46
ATOM     46  C   UNL A   1      41.721  26.007  28.032  1.00  0.00     0.031 A 
ATOM     47  C   UNL A   1      40.867  27.061  28.682  1.00  0.00     0.074 A 
ATOM     48  C   UNL A   1      42.989  26.293  27.680  1.00  0.00     0.049 A 
ATOM     49  N   UNL A   1      41.180  28.288  29.012  1.00  0.00    -0.248 NA
ATOM     50  C   UNL A   1      39.470  26.701  28.973  1.00  0.00     0.031 C 
ATOM     51  C   UNL A   1      43.891  25.388  26.962  1.00  0.00     0.029 A 
ATOM     52  N   UNL A   1      43.731  27.435  27.848  1.00  0.00    -0.354 N 
ATOM     53  C   UNL A   1      40.016  28.857  29.512  1.00  0.00     0.074 A 
ATOM     54  C   UNL A   1      38.979  27.852  29.411  1.00  0.00     0.031 C 
ATOM     55  C   UNL A   1      45.062  26.009  26.752  1.00  0.00     0.029 A 
ATOM     56  C   UNL A   1      44.989  27.362  27.296  1.00  0.00     0.049 A 
ATOM     57  H   UNL A   1      43.394  28.232  28.318  1.00  0.00     0.167 HD
ATOM     58  C   UNL A   1      39.830  30.091  30.036  1.00  0.00     0.034 A 
ATOM     59  C   UNL A   1      45.973  28.281  27.233  1.00  0.00     0.034 A 
ATOM     60  C   UNL A   1      40.873  31.070  30.179  1.00  0.00     0.049 A 
ATOM     61  C   UNL A   1      45.762  29.625  27.875  1.00  0.00     0.074 A 
ATOM     62  C   UNL A   1      40.812  32.311  30.789  1.00  0.00     0.029 A 
ATOM     63  N   UNL A   1      42.167  30.923  29.703  1.00  0.00    -0.354 N 
ATOM     64  N   UNL A   1      44.705  30.083  28.500  1.00  0.00    -0.248 NA
ATOM     65  C   UNL A   1      46.891  30.566  27.837  1.00  0.00     0.031 C 
ATOM     66  C   UNL A   1      42.065  32.922  30.666  1.00  0.00     0.029 A 
ATOM     67  C   UNL A   1      42.912  32.052  29.997  1.00  0.00     0.049 A 
ATOM     68  H   UNL A   1      42.506  30.133  29.225  1.00  0.00     0.167 HD
ATOM     69  C   UNL A   1      45.050  31.348  28.960  1.00  0.00     0.074 A 
ATOM     70  C   UNL A   1      46.424  31.577  28.557  1.00  0.00     0.031 C 
ATOM     71  C   UNL A   1      44.295  32.246  29.638  1.00  0.00     0.034 A 
BRANCH  58  72
ATOM     72  C   UNL A   1      38.455  30.428  30.553  1.00  0.00     0.023 A 
ATOM     73  C   UNL A   1      38.097  30.051  31.865  1.00  0.00     0.012 A 
ATOM     74  C   UNL A   1      37.535  31.148  29.768  1.00  0.00     0.148 A 
ATOM     75  C   UNL A   1      36.833  30.348  32.371  1.00  0.00     0.002 A 
ATOM     76  C   UNL A   1      36.293  31.480  30.296  1.00  0.00     0.091 A 
ATOM     77  F   UNL A   1      37.881  31.479  28.516  1.00  0.00    -0.205 F 
ATOM     78  C   UNL A   1      35.936  31.071  31.592  1.00  0.00     0.022 A 
BRANCH  76  79
ATOM     79  S   UNL A   1      35.096  32.474  29.396  1.00  0.00     0.127 S 
ATOM     80  O   UNL A   1      34.528  31.491  28.475  1.00  0.00    -0.237 OA
ATOM     81  O   UNL A   1      34.190  32.907  30.460  1.00  0.00    -0.237 OA
ATOM     82  O   UNL A   1      35.859  33.550  28.778  1.00  0.00    -0.744 OA
ENDBRANCH  76  79
ENDBRANCH  58  72
BRANCH  59  83
ATOM     83  C   UNL A   1      47.276  27.925  26.603  1.00  0.00     0.023 A 
ATOM     84  C   UNL A   1      48.371  27.600  27.427  1.00  0.00     0.012 A 
ATOM     85  C   UNL A   1      47.424  27.858  25.205  1.00  0.00     0.148 A 
ATOM     86  C   UNL A   1      49.599  27.239  26.869  1.00  0.00     0.002 A 
ATOM     87  C   UNL A   1      48.634  27.448  24.656  1.00  0.00     0.091 A 
ATOM     88  F   UNL A   1      46.373  28.181  24.439  1.00  0.00    -0.205 F 
ATOM     89  C   UNL A   1      49.727  27.153  25.486  1.00  0.00     0.022 A 
BRANCH  87  90
ATOM     90  S   UNL A   1      48.851  27.176  22.894  1.00  0.00     0.127 S 
ATOM     91  O   UNL A   1      48.111  28.299  22.325  1.00  0.00    -0.237 OA
ATOM     92  O   UNL A   1      50.306  27.261  22.753  1.00  0.00    -0.237 OA
ATOM     93  O   UNL A   1      48.300  25.854  22.629  1.00  0.00    -0.744 OA
ENDBRANCH  87  90
ENDBRANCH  59  83
BRANCH  71  94
ATOM     94  C   UNL A   1      44.936  33.554  30.022  1.00  0.00     0.023 A 
ATOM     95  C   UNL A   1      45.638  33.655  31.239  1.00  0.00     0.012 A 
ATOM     96  C   UNL A   1      44.911  34.655  29.144  1.00  0.00     0.148 A 
ATOM     97  C   UNL A   1      46.283  34.842  31.589  1.00  0.00     0.002 A 
ATOM     98  C   UNL A   1      45.594  35.818  29.478  1.00  0.00     0.091 A 
ATOM     99  F   UNL A   1      44.220  34.545  28.000  1.00  0.00    -0.205 F 
ATOM    100  C   UNL A   1      46.271  35.917  30.704  1.00  0.00     0.022 A 
BRANCH  98 101
ATOM    101  S   UNL A   1      45.712  37.218  28.358  1.00  0.00     0.127 S 
ATOM    102  O   UNL A   1      46.759  38.019  28.990  1.00  0.00    -0.237 OA
ATOM    103  O   UNL A   1      46.109  36.579  27.102  1.00  0.00    -0.237 OA
ATOM    104  O   UNL A   1      44.388  37.824  28.333  1.00  0.00    -0.744 OA
ENDBRANCH  98 101
ENDBRANCH  71  94
ENDBRANCH  45  46
ENDBRANCH  37  40
ENDBRANCH  35  36
ENDBRANCH  34  35
ENDBRANCH   1  34
TORSDOF 18
ENDMDL
MODEL 3
REMARK VINA RESULT:     -13.1      1.952      4.193
REMARK SMILES Cc1cc(C(=O)NCCCCNC(=O)c2ccc(-c3c4nc(c(-c5cccc(S(=O)(=O)[O-])c5F)c5ccc([nH]5)c(-c5cccc(S(=O)(=O)[O-])c5F)c5nc(c(-c6cccc(S(=O)(=O)[O-])c6F)c6ccc3[nH]6)C=C5)C=C4)cc2)cc(S(=O)(=O)NNC(=O)c2c[nH]c3ccccc23)c1C
REMARK SMILES IDX 9 1 8 2 7 3 5 4 6 5 4 7 1 8 2 9 3 10 96 11 79 12 97 13 78 14
REMARK SMILES IDX 80 15 81 16 82 17 83 18 84 20 85 21 86 23 87 24 88 25 95 26
REMARK SMILES IDX 89 27 90 28 94 29 91 31 93 32 92 33 10 34 11 35 12 36 13 37
REMARK SMILES IDX 14 39 15 40 16 41 77 42 17 43 76 44 18 45 19 46 20 47 70 48
REMARK SMILES IDX 21 49 75 50 69 51 71 52 22 53 74 54 68 55 67 56 23 58 55 59
REMARK SMILES IDX 35 60 54 61 36 62 39 63 53 64 72 65 37 66 38 67 52 69 73 70
REMARK SMILES IDX 40 71 24 72 25 73 33 74 26 75 28 76 34 77 27 78 29 79 30 80
REMARK SMILES IDX 31 81 32 82 56 83 57 84 65 85 58 86 60 87 66 88 59 89 61 90
REMARK SMILES IDX 62 91 63 92 64 93 41 94 42 95 50 96 43 97 45 98 51 99 44 100
REMARK SMILES IDX 46 101 47 102 48 103 49 104
REMARK H PARENT 7 6 83 19 84 22 89 30 12 38 71 57 39 68
REMARK Flexibility Score: inf
ROOT
ATOM      1  C   UNL A   1      35.561  19.437  24.638  1.00  0.00     0.023 C 
ENDROOT
BRANCH   1   2
ATOM      2  C   UNL A   1      34.248  18.703  24.932  1.00  0.00     0.116 C 
BRANCH   2   3
ATOM      3  N   UNL A   1      33.311  18.831  23.830  1.00  0.00    -0.352 N 
ATOM      4  C   UNL A   1      32.513  19.848  23.372  1.00  0.00     0.251 C 
ATOM      5  O   UNL A   1      31.842  19.628  22.361  1.00  0.00    -0.269 OA
ATOM      6  H   UNL A   1      33.231  18.008  23.295  1.00  0.00     0.163 HD
BRANCH   4   7
ATOM      7  C   UNL A   1      32.414  21.207  23.987  1.00  0.00     0.041 A 
ATOM      8  C   UNL A   1      31.365  22.933  27.208  1.00  0.00     0.044 C 
ATOM      9  C   UNL A   1      31.870  22.767  25.797  1.00  0.00    -0.046 A 
ATOM     10  C   UNL A   1      31.878  21.473  25.247  1.00  0.00     0.017 A 
ATOM     11  C   UNL A   1      32.319  23.855  25.022  1.00  0.00    -0.028 A 
ATOM     12  C   UNL A   1      32.745  23.606  23.693  1.00  0.00     0.088 A 
ATOM     13  C   UNL A   1      32.337  25.254  25.592  1.00  0.00     0.046 C 
ATOM     14  C   UNL A   1      32.837  22.297  23.205  1.00  0.00     0.036 A 
BRANCH  12  15
ATOM     15  S   UNL A   1      32.995  24.992  22.600  1.00  0.00     0.257 S 
ATOM     16  O   UNL A   1      33.724  25.991  23.379  1.00  0.00    -0.205 OA
ATOM     17  O   UNL A   1      33.523  24.487  21.365  1.00  0.00    -0.205 OA
BRANCH  15  18
ATOM     18  N   UNL A   1      31.483  25.659  22.192  1.00  0.00    -0.123 NA
ATOM     19  H   UNL A   1      30.889  24.880  21.908  1.00  0.00     0.167 HD
BRANCH  18  20
ATOM     20  N   UNL A   1      30.712  26.438  23.173  1.00  0.00    -0.273 N 
ATOM     21  C   UNL A   1      30.555  27.808  23.005  1.00  0.00     0.268 C 
ATOM     22  H   UNL A   1      30.307  25.988  23.948  1.00  0.00     0.186 HD
ATOM     23  O   UNL A   1      29.472  28.297  22.697  1.00  0.00    -0.268 OA
BRANCH  21  24
ATOM     24  C   UNL A   1      31.659  28.601  23.546  1.00  0.00     0.066 A 
ATOM     25  C   UNL A   1      32.689  29.170  22.815  1.00  0.00     0.097 A 
ATOM     26  C   UNL A   1      32.044  28.769  24.917  1.00  0.00     0.012 A 
ATOM     27  N   UNL A   1      33.807  29.069  23.598  1.00  0.00    -0.360 N 
ATOM     28  C   UNL A   1      33.439  28.845  24.899  1.00  0.00     0.046 A 
ATOM     29  C   UNL A   1      31.398  28.708  26.168  1.00  0.00     0.011 A 
ATOM     30  H   UNL A   1      34.734  29.147  23.276  1.00  0.00     0.166 HD
ATOM     31  C   UNL A   1      34.224  28.674  26.042  1.00  0.00     0.027 A 
ATOM     32  C   UNL A   1      32.172  28.687  27.337  1.00  0.00     0.001 A 
ATOM     33  C   UNL A   1      33.562  28.609  27.268  1.00  0.00     0.002 A 
ENDBRANCH  21  24
ENDBRANCH  18  20
ENDBRANCH  15  18
ENDBRANCH  12  15
ENDBRANCH   4   7
ENDBRANCH   2   3
ENDBRANCH   1   2
BRANCH   1  34
ATOM     34  C   UNL A   1      35.650  20.839  25.252  1.00  0.00     0.023 C 
BRANCH  34  35
ATOM     35  C   UNL A   1      37.058  21.428  25.325  1.00  0.00     0.116 C 
BRANCH  35  36
ATOM     36  N   UNL A   1      38.094  20.427  25.536  1.00  0.00    -0.352 N 
ATOM     37  C   UNL A   1      39.365  20.603  26.034  1.00  0.00     0.251 C 
ATOM     38  H   UNL A   1      37.855  19.504  25.290  1.00  0.00     0.163 HD
ATOM     39  O   UNL A   1      40.153  19.664  26.057  1.00  0.00    -0.269 OA
BRANCH  37  40
ATOM     40  C   UNL A   1      39.786  21.943  26.500  1.00  0.00     0.039 A 
ATOM     41  C   UNL A   1      40.761  22.035  27.497  1.00  0.00     0.014 A 
ATOM     42  C   UNL A   1      39.247  23.101  25.934  1.00  0.00     0.014 A 
ATOM     43  C   UNL A   1      41.248  23.289  27.876  1.00  0.00     0.010 A 
ATOM     44  C   UNL A   1      39.780  24.344  26.265  1.00  0.00     0.010 A 
ATOM     45  C   UNL A   1      40.787  24.451  27.235  1.00  0.00    -0.014 A 
BRANCH  45  46
ATOM     46  C   UNL A   1      41.364  25.785  27.546  1.00  0.00     0.031 A 
ATOM     47  C   UNL A   1      42.787  26.102  27.179  1.00  0.00     0.074 A 
ATOM     48  C   UNL A   1      40.638  26.673  28.253  1.00  0.00     0.049 A 
ATOM     49  N   UNL A   1      43.481  27.184  27.426  1.00  0.00    -0.248 NA
ATOM     50  C   UNL A   1      43.541  25.055  26.470  1.00  0.00     0.031 C 
ATOM     51  C   UNL A   1      39.277  26.449  28.748  1.00  0.00     0.029 A 
ATOM     52  N   UNL A   1      40.953  27.929  28.708  1.00  0.00    -0.354 N 
ATOM     53  C   UNL A   1      44.757  26.936  26.938  1.00  0.00     0.074 A 
ATOM     54  C   UNL A   1      44.754  25.588  26.411  1.00  0.00     0.031 C 
ATOM     55  C   UNL A   1      38.876  27.529  29.436  1.00  0.00     0.029 A 
ATOM     56  C   UNL A   1      39.955  28.512  29.453  1.00  0.00     0.049 A 
ATOM     57  H   UNL A   1      41.812  28.371  28.517  1.00  0.00     0.167 HD
ATOM     58  C   UNL A   1      45.829  27.764  26.901  1.00  0.00     0.034 A 
ATOM     59  C   UNL A   1      39.913  29.704  30.082  1.00  0.00     0.034 A 
ATOM     60  C   UNL A   1      45.815  29.119  27.382  1.00  0.00     0.049 A 
ATOM     61  C   UNL A   1      41.095  30.629  29.977  1.00  0.00     0.074 A 
ATOM     62  C   UNL A   1      46.816  30.072  27.299  1.00  0.00     0.029 A 
ATOM     63  N   UNL A   1      44.750  29.715  28.040  1.00  0.00    -0.354 N 
ATOM     64  N   UNL A   1      42.235  30.443  29.358  1.00  0.00    -0.248 NA
ATOM     65  C   UNL A   1      40.971  31.944  30.623  1.00  0.00     0.031 C 
ATOM     66  C   UNL A   1      46.361  31.239  27.923  1.00  0.00     0.029 A 
ATOM     67  C   UNL A   1      45.069  31.019  28.376  1.00  0.00     0.049 A 
ATOM     68  H   UNL A   1      43.893  29.275  28.239  1.00  0.00     0.167 HD
ATOM     69  C   UNL A   1      42.950  31.625  29.509  1.00  0.00     0.074 A 
ATOM     70  C   UNL A   1      42.105  32.529  30.263  1.00  0.00     0.031 C 
ATOM     71  C   UNL A   1      44.199  31.928  29.079  1.00  0.00     0.034 A 
BRANCH  58  72
ATOM     72  C   UNL A   1      47.090  27.243  26.262  1.00  0.00     0.023 A 
ATOM     73  C   UNL A   1      47.317  27.476  24.890  1.00  0.00     0.012 A 
ATOM     74  C   UNL A   1      48.065  26.563  27.017  1.00  0.00     0.148 A 
ATOM     75  C   UNL A   1      48.474  27.006  24.270  1.00  0.00     0.002 A 
ATOM     76  C   UNL A   1      49.236  26.137  26.402  1.00  0.00     0.091 A 
ATOM     77  F   UNL A   1      47.823  26.329  28.315  1.00  0.00    -0.205 F 
ATOM     78  C   UNL A   1      49.437  26.346  25.027  1.00  0.00     0.022 A 
BRANCH  76  79
ATOM     79  S   UNL A   1      50.570  25.345  27.310  1.00  0.00     0.127 S 
ATOM     80  O   UNL A   1      51.513  25.032  26.238  1.00  0.00    -0.237 OA
ATOM     81  O   UNL A   1      51.006  26.410  28.213  1.00  0.00    -0.237 OA
ATOM     82  O   UNL A   1      49.970  24.197  27.975  1.00  0.00    -0.744 OA
ENDBRANCH  76  79
ENDBRANCH  58  72
BRANCH  59  83
ATOM     83  C   UNL A   1      38.673  30.117  30.799  1.00  0.00     0.023 A 
ATOM     84  C   UNL A   1      38.528  29.794  32.162  1.00  0.00     0.012 A 
ATOM     85  C   UNL A   1      37.667  30.865  30.159  1.00  0.00     0.148 A 
ATOM     86  C   UNL A   1      37.390  30.187  32.869  1.00  0.00     0.002 A 
ATOM     87  C   UNL A   1      36.561  31.298  30.882  1.00  0.00     0.091 A 
ATOM     88  F   UNL A   1      37.820  31.152  28.858  1.00  0.00    -0.205 F 
ATOM     89  C   UNL A   1      36.413  30.946  32.232  1.00  0.00     0.022 A 
BRANCH  87  90
ATOM     90  S   UNL A   1      35.320  32.393  30.183  1.00  0.00     0.127 S 
ATOM     91  O   UNL A   1      34.388  32.538  31.297  1.00  0.00    -0.237 OA
ATOM     92  O   UNL A   1      36.110  33.587  29.878  1.00  0.00    -0.237 OA
ATOM     93  O   UNL A   1      34.803  31.701  29.009  1.00  0.00    -0.744 OA
ENDBRANCH  87  90
ENDBRANCH  59  83
BRANCH  71  94
ATOM     94  C   UNL A   1      44.729  33.305  29.380  1.00  0.00     0.023 A 
ATOM     95  C   UNL A   1      45.494  33.520  30.544  1.00  0.00     0.012 A 
ATOM     96  C   UNL A   1      44.537  34.366  28.474  1.00  0.00     0.148 A 
ATOM     97  C   UNL A   1      46.037  34.775  30.814  1.00  0.00     0.002 A 
ATOM     98  C   UNL A   1      45.121  35.602  28.726  1.00  0.00     0.091 A 
ATOM     99  F   UNL A   1      43.789  34.148  27.383  1.00  0.00    -0.205 F 
ATOM    100  C   UNL A   1      45.861  35.812  29.900  1.00  0.00     0.022 A 
BRANCH  98 101
ATOM    101  S   UNL A   1      45.026  36.965  27.559  1.00  0.00     0.127 S 
ATOM    102  O   UNL A   1      45.653  38.048  28.314  1.00  0.00    -0.237 OA
ATOM    103  O   UNL A   1      45.818  36.467  26.434  1.00  0.00    -0.237 OA
ATOM    104  O   UNL A   1      43.610  37.143  27.266  1.00  0.00    -0.744 OA
ENDBRANCH  98 101
ENDBRANCH  71  94
ENDBRANCH  45  46
ENDBRANCH  37  40
ENDBRANCH  35  36
ENDBRANCH  34  35
ENDBRANCH   1  34
TORSDOF 18
ENDMDL
