MODEL 1
REMARK VINA RESULT:     -12.7      0.000      0.000
REMARK SMILES Cc1cc(Cl)c2c(c1)C=C(C(=O)NCCCCNC(=O)c1ccc(-c3c4nc(c(-c5cccc(S(=O)(=O)[O-])c5F)c5ccc([nH]5)c(-c5cccc(S(=O)(=O)[O-])c5F)c5nc(c(-c6cccc(S(=O)(=O)[O-])c6F)c6ccc3[nH]6)C=C5)C=C4)cc1)[C@@H](C(F)(F)F)O2
REMARK SMILES IDX 16 1 15 2 14 3 13 4 11 5 12 6 10 8 1 9 2 10 3 11 8 12 4 13
REMARK SMILES IDX 7 14 5 15 6 16 9 17 89 18 84 19 85 20 86 21 87 22 88 23
REMARK SMILES IDX 17 24 18 25 19 26 20 28 21 29 22 30 83 31 23 32 82 33 24 34
REMARK SMILES IDX 25 35 26 36 76 37 27 38 81 39 75 40 77 41 28 42 80 43 74 44
REMARK SMILES IDX 73 45 29 47 61 48 41 49 60 50 42 51 45 52 59 53 78 54 43 55
REMARK SMILES IDX 44 56 58 58 79 59 46 60 30 61 31 62 39 63 32 64 34 65 40 66
REMARK SMILES IDX 33 67 35 68 36 69 37 70 38 71 62 72 63 73 71 74 64 75 66 76
REMARK SMILES IDX 72 77 65 78 67 79 68 80 69 81 70 82 47 83 48 84 56 85 49 86
REMARK SMILES IDX 51 87 57 88 50 89 52 90 53 91 54 92 55 93
REMARK H PARENT 13 7 18 27 77 46 45 57
REMARK Flexibility Score: inf
ROOT
ATOM      1  C   UNL A   1      32.803  29.615  25.033  1.00  0.00     0.023 C 
ENDROOT
BRANCH   1   2
ATOM      2  C   UNL A   1      33.788  28.457  24.852  1.00  0.00     0.023 C 
BRANCH   2   3
ATOM      3  C   UNL A   1      34.173  28.184  23.402  1.00  0.00     0.116 C 
BRANCH   3   4
ATOM      4  N   UNL A   1      33.736  26.871  22.958  1.00  0.00    -0.352 N 
ATOM      5  C   UNL A   1      32.558  26.242  22.748  1.00  0.00     0.251 C 
ATOM      6  O   UNL A   1      32.644  25.078  22.346  1.00  0.00    -0.270 OA
ATOM      7  H   UNL A   1      34.500  26.285  22.757  1.00  0.00     0.163 HD
BRANCH   5   8
ATOM      8  C   UNL A   1      31.206  26.842  22.960  1.00  0.00     0.067 C 
ATOM      9  C   UNL A   1      28.204  32.165  21.982  1.00  0.00     0.044 C 
ATOM     10  C   UNL A   1      28.368  30.736  22.407  1.00  0.00    -0.049 A 
ATOM     11  C   UNL A   1      27.278  30.012  22.906  1.00  0.00     0.028 A 
ATOM     12  C   UNL A   1      29.601  30.088  22.250  1.00  0.00     0.015 A 
ATOM     13  C   UNL A   1      27.427  28.670  23.263  1.00  0.00     0.084 A 
ATOM     14  C   UNL A   1      29.754  28.744  22.612  1.00  0.00     0.019 A 
ATOM     15  Cl  UNL A   1      26.051  27.826  23.877  1.00  0.00    -0.080 Cl
ATOM     16  C   UNL A   1      28.667  28.037  23.127  1.00  0.00     0.146 A 
ATOM     17  C   UNL A   1      31.028  28.062  22.421  1.00  0.00     0.025 C 
ATOM     18  O   UNL A   1      28.766  26.711  23.453  1.00  0.00    -0.474 OA
ATOM     19  C   UNL A   1      30.098  26.206  23.750  1.00  0.00     0.314 C 
BRANCH  19  20
ATOM     20  C   UNL A   1      30.338  26.274  25.270  1.00  0.00     0.429 C 
ATOM     21  F   UNL A   1      31.397  25.502  25.619  1.00  0.00    -0.167 F 
ATOM     22  F   UNL A   1      30.618  27.527  25.698  1.00  0.00    -0.167 F 
ATOM     23  F   UNL A   1      29.272  25.843  25.982  1.00  0.00    -0.167 F 
ENDBRANCH  19  20
ENDBRANCH   5   8
ENDBRANCH   3   4
ENDBRANCH   2   3
ENDBRANCH   1   2
BRANCH   1  24
ATOM     24  C   UNL A   1      32.411  29.927  26.477  1.00  0.00     0.116 C 
BRANCH  24  25
ATOM     25  N   UNL A   1      32.262  31.351  26.755  1.00  0.00    -0.352 N 
ATOM     26  C   UNL A   1      33.158  32.184  27.381  1.00  0.00     0.251 C 
ATOM     27  H   UNL A   1      31.419  31.765  26.459  1.00  0.00     0.163 HD
ATOM     28  O   UNL A   1      32.876  33.356  27.610  1.00  0.00    -0.269 OA
BRANCH  26  29
ATOM     29  C   UNL A   1      34.452  31.623  27.814  1.00  0.00     0.039 A 
ATOM     30  C   UNL A   1      35.531  32.489  28.002  1.00  0.00     0.014 A 
ATOM     31  C   UNL A   1      34.555  30.265  28.127  1.00  0.00     0.014 A 
ATOM     32  C   UNL A   1      36.701  32.002  28.587  1.00  0.00     0.010 A 
ATOM     33  C   UNL A   1      35.700  29.798  28.763  1.00  0.00     0.010 A 
ATOM     34  C   UNL A   1      36.776  30.664  29.009  1.00  0.00    -0.014 A 
BRANCH  34  35
ATOM     35  C   UNL A   1      37.962  30.159  29.742  1.00  0.00     0.031 A 
ATOM     36  C   UNL A   1      38.246  30.639  31.135  1.00  0.00     0.074 A 
ATOM     37  C   UNL A   1      38.824  29.333  29.116  1.00  0.00     0.049 A 
ATOM     38  N   UNL A   1      39.253  30.346  31.914  1.00  0.00    -0.248 NA
ATOM     39  C   UNL A   1      37.288  31.591  31.721  1.00  0.00     0.031 C 
ATOM     40  C   UNL A   1      38.691  28.860  27.737  1.00  0.00     0.029 A 
ATOM     41  N   UNL A   1      39.991  28.759  29.552  1.00  0.00    -0.354 N 
ATOM     42  C   UNL A   1      39.065  31.092  33.070  1.00  0.00     0.074 A 
ATOM     43  C   UNL A   1      37.868  31.882  32.877  1.00  0.00     0.031 C 
ATOM     44  C   UNL A   1      39.726  28.056  27.445  1.00  0.00     0.029 A 
ATOM     45  C   UNL A   1      40.606  27.971  28.606  1.00  0.00     0.049 A 
ATOM     46  H   UNL A   1      40.355  28.898  30.456  1.00  0.00     0.167 HD
ATOM     47  C   UNL A   1      39.799  31.089  34.207  1.00  0.00     0.034 A 
ATOM     48  C   UNL A   1      41.746  27.253  28.673  1.00  0.00     0.034 A 
ATOM     49  C   UNL A   1      40.956  30.262  34.414  1.00  0.00     0.049 A 
ATOM     50  C   UNL A   1      42.523  27.239  29.962  1.00  0.00     0.074 A 
ATOM     51  C   UNL A   1      41.723  30.131  35.558  1.00  0.00     0.029 A 
ATOM     52  N   UNL A   1      41.508  29.422  33.460  1.00  0.00    -0.354 N 
ATOM     53  N   UNL A   1      42.247  27.836  31.096  1.00  0.00    -0.248 NA
ATOM     54  C   UNL A   1      43.749  26.427  29.993  1.00  0.00     0.031 C 
ATOM     55  C   UNL A   1      42.742  29.209  35.293  1.00  0.00     0.029 A 
ATOM     56  C   UNL A   1      42.607  28.766  33.987  1.00  0.00     0.049 A 
ATOM     57  H   UNL A   1      41.169  29.308  32.543  1.00  0.00     0.167 HD
ATOM     58  C   UNL A   1      43.248  27.454  31.982  1.00  0.00     0.074 A 
ATOM     59  C   UNL A   1      44.125  26.556  31.260  1.00  0.00     0.031 C 
ATOM     60  C   UNL A   1      43.435  27.831  33.270  1.00  0.00     0.034 A 
BRANCH  47  61
ATOM     61  C   UNL A   1      39.318  31.943  35.348  1.00  0.00     0.023 A 
ATOM     62  C   UNL A   1      38.412  31.392  36.277  1.00  0.00     0.012 A 
ATOM     63  C   UNL A   1      39.796  33.252  35.540  1.00  0.00     0.148 A 
ATOM     64  C   UNL A   1      37.969  32.139  37.367  1.00  0.00     0.002 A 
ATOM     65  C   UNL A   1      39.378  33.979  36.649  1.00  0.00     0.091 A 
ATOM     66  F   UNL A   1      40.638  33.768  34.631  1.00  0.00    -0.205 F 
ATOM     67  C   UNL A   1      38.460  33.427  37.558  1.00  0.00     0.022 A 
BRANCH  65  68
ATOM     68  S   UNL A   1      40.003  35.622  37.023  1.00  0.00     0.127 S 
ATOM     69  O   UNL A   1      39.296  35.930  38.264  1.00  0.00    -0.237 OA
ATOM     70  O   UNL A   1      41.437  35.380  37.183  1.00  0.00    -0.237 OA
ATOM     71  O   UNL A   1      39.652  36.451  35.878  1.00  0.00    -0.744 OA
ENDBRANCH  65  68
ENDBRANCH  47  61
BRANCH  48  72
ATOM     72  C   UNL A   1      42.154  26.407  27.516  1.00  0.00     0.023 A 
ATOM     73  C   UNL A   1      42.972  26.970  26.517  1.00  0.00     0.012 A 
ATOM     74  C   UNL A   1      41.797  25.048  27.425  1.00  0.00     0.148 A 
ATOM     75  C   UNL A   1      43.413  26.202  25.439  1.00  0.00     0.002 A 
ATOM     76  C   UNL A   1      42.280  24.274  26.375  1.00  0.00     0.091 A 
ATOM     77  F   UNL A   1      41.004  24.534  28.376  1.00  0.00    -0.205 F 
ATOM     78  C   UNL A   1      43.077  24.852  25.374  1.00  0.00     0.022 A 
BRANCH  76  79
ATOM     79  S   UNL A   1      42.010  22.500  26.286  1.00  0.00     0.127 S 
ATOM     80  O   UNL A   1      40.555  22.422  26.199  1.00  0.00    -0.237 OA
ATOM     81  O   UNL A   1      42.721  22.144  25.056  1.00  0.00    -0.237 OA
ATOM     82  O   UNL A   1      42.608  21.955  27.498  1.00  0.00    -0.744 OA
ENDBRANCH  76  79
ENDBRANCH  48  72
BRANCH  60  83
ATOM     83  C   UNL A   1      44.629  27.278  34.000  1.00  0.00     0.023 A 
ATOM     84  C   UNL A   1      45.842  27.994  33.977  1.00  0.00     0.012 A 
ATOM     85  C   UNL A   1      44.518  26.125  34.803  1.00  0.00     0.148 A 
ATOM     86  C   UNL A   1      46.930  27.566  34.733  1.00  0.00     0.002 A 
ATOM     87  C   UNL A   1      45.596  25.729  35.587  1.00  0.00     0.091 A 
ATOM     88  F   UNL A   1      43.361  25.448  34.795  1.00  0.00    -0.205 F 
ATOM     89  C   UNL A   1      46.804  26.443  35.549  1.00  0.00     0.022 A 
BRANCH  87  90
ATOM     90  S   UNL A   1      45.487  24.354  36.740  1.00  0.00     0.127 S 
ATOM     91  O   UNL A   1      45.190  23.238  35.845  1.00  0.00    -0.237 OA
ATOM     92  O   UNL A   1      46.829  24.328  37.325  1.00  0.00    -0.237 OA
ATOM     93  O   UNL A   1      44.430  24.705  37.679  1.00  0.00    -0.744 OA
ENDBRANCH  87  90
ENDBRANCH  60  83
ENDBRANCH  34  35
ENDBRANCH  26  29
ENDBRANCH  24  25
ENDBRANCH   1  24
TORSDOF 15
ENDMDL
MODEL 2
REMARK VINA RESULT:     -12.7      2.019      3.482
REMARK SMILES Cc1cc(Cl)c2c(c1)C=C(C(=O)NCCCCNC(=O)c1ccc(-c3c4nc(c(-c5cccc(S(=O)(=O)[O-])c5F)c5ccc([nH]5)c(-c5cccc(S(=O)(=O)[O-])c5F)c5nc(c(-c6cccc(S(=O)(=O)[O-])c6F)c6ccc3[nH]6)C=C5)C=C4)cc1)[C@@H](C(F)(F)F)O2
REMARK SMILES IDX 16 1 15 2 14 3 13 4 11 5 12 6 10 8 1 9 2 10 3 11 8 12 4 13
REMARK SMILES IDX 7 14 5 15 6 16 9 17 89 18 84 19 85 20 86 21 87 22 88 23
REMARK SMILES IDX 17 24 18 25 19 26 20 28 21 29 22 30 83 31 23 32 82 33 24 34
REMARK SMILES IDX 25 35 26 36 76 37 27 38 81 39 75 40 77 41 28 42 80 43 74 44
REMARK SMILES IDX 73 45 29 47 61 48 41 49 60 50 42 51 45 52 59 53 78 54 43 55
REMARK SMILES IDX 44 56 58 58 79 59 46 60 30 61 31 62 39 63 32 64 34 65 40 66
REMARK SMILES IDX 33 67 35 68 36 69 37 70 38 71 62 72 63 73 71 74 64 75 66 76
REMARK SMILES IDX 72 77 65 78 67 79 68 80 69 81 70 82 47 83 48 84 56 85 49 86
REMARK SMILES IDX 51 87 57 88 50 89 52 90 53 91 54 92 55 93
REMARK H PARENT 13 7 18 27 77 46 45 57
REMARK Flexibility Score: inf
ROOT
ATOM      1  C   UNL A   1      31.629  29.100  25.272  1.00  0.00     0.023 C 
ENDROOT
BRANCH   1   2
ATOM      2  C   UNL A   1      31.732  28.849  23.765  1.00  0.00     0.023 C 
BRANCH   2   3
ATOM      3  C   UNL A   1      33.150  28.575  23.272  1.00  0.00     0.116 C 
BRANCH   3   4
ATOM      4  N   UNL A   1      33.172  27.613  22.184  1.00  0.00    -0.352 N 
ATOM      5  C   UNL A   1      33.272  26.271  22.054  1.00  0.00     0.251 C 
ATOM      6  O   UNL A   1      33.241  25.847  20.894  1.00  0.00    -0.270 OA
ATOM      7  H   UNL A   1      33.093  28.056  21.308  1.00  0.00     0.163 HD
BRANCH   5   8
ATOM      8  C   UNL A   1      33.409  25.300  23.182  1.00  0.00     0.067 C 
ATOM      9  C   UNL A   1      36.950  20.519  24.884  1.00  0.00     0.044 C 
ATOM     10  C   UNL A   1      35.868  21.549  25.025  1.00  0.00    -0.049 A 
ATOM     11  C   UNL A   1      35.095  21.614  26.190  1.00  0.00     0.028 A 
ATOM     12  C   UNL A   1      35.663  22.500  24.017  1.00  0.00     0.015 A 
ATOM     13  C   UNL A   1      34.116  22.601  26.333  1.00  0.00     0.084 A 
ATOM     14  C   UNL A   1      34.679  23.487  24.155  1.00  0.00     0.019 A 
ATOM     15  Cl  UNL A   1      33.187  22.632  27.788  1.00  0.00    -0.080 Cl
ATOM     16  C   UNL A   1      33.899  23.532  25.311  1.00  0.00     0.146 A 
ATOM     17  C   UNL A   1      34.485  24.495  23.119  1.00  0.00     0.025 C 
ATOM     18  O   UNL A   1      32.956  24.506  25.501  1.00  0.00    -0.474 OA
ATOM     19  C   UNL A   1      32.426  25.147  24.307  1.00  0.00     0.314 C 
BRANCH  19  20
ATOM     20  C   UNL A   1      31.136  24.424  23.876  1.00  0.00     0.429 C 
ATOM     21  F   UNL A   1      30.267  25.299  23.310  1.00  0.00    -0.167 F 
ATOM     22  F   UNL A   1      31.363  23.459  22.955  1.00  0.00    -0.167 F 
ATOM     23  F   UNL A   1      30.500  23.837  24.914  1.00  0.00    -0.167 F 
ENDBRANCH  19  20
ENDBRANCH   5   8
ENDBRANCH   3   4
ENDBRANCH   2   3
ENDBRANCH   1   2
BRANCH   1  24
ATOM     24  C   UNL A   1      32.818  29.823  25.904  1.00  0.00     0.116 C 
BRANCH  24  25
ATOM     25  N   UNL A   1      32.501  31.152  26.412  1.00  0.00    -0.352 N 
ATOM     26  C   UNL A   1      33.254  31.931  27.259  1.00  0.00     0.251 C 
ATOM     27  H   UNL A   1      31.646  31.539  26.113  1.00  0.00     0.163 HD
ATOM     28  O   UNL A   1      32.834  33.011  27.662  1.00  0.00    -0.269 OA
BRANCH  26  29
ATOM     29  C   UNL A   1      34.559  31.414  27.710  1.00  0.00     0.039 A 
ATOM     30  C   UNL A   1      35.596  32.320  27.944  1.00  0.00     0.014 A 
ATOM     31  C   UNL A   1      34.713  30.055  27.996  1.00  0.00     0.014 A 
ATOM     32  C   UNL A   1      36.771  31.869  28.546  1.00  0.00     0.010 A 
ATOM     33  C   UNL A   1      35.862  29.621  28.648  1.00  0.00     0.010 A 
ATOM     34  C   UNL A   1      36.894  30.527  28.940  1.00  0.00    -0.014 A 
BRANCH  34  35
ATOM     35  C   UNL A   1      38.082  30.054  29.689  1.00  0.00     0.031 A 
ATOM     36  C   UNL A   1      38.347  30.560  31.078  1.00  0.00     0.074 A 
ATOM     37  C   UNL A   1      38.964  29.235  29.084  1.00  0.00     0.049 A 
ATOM     38  N   UNL A   1      39.353  30.298  31.869  1.00  0.00    -0.248 NA
ATOM     39  C   UNL A   1      37.367  31.504  31.642  1.00  0.00     0.031 C 
ATOM     40  C   UNL A   1      38.851  28.739  27.710  1.00  0.00     0.029 A 
ATOM     41  N   UNL A   1      40.139  28.689  29.537  1.00  0.00    -0.354 N 
ATOM     42  C   UNL A   1      39.141  31.059  33.012  1.00  0.00     0.074 A 
ATOM     43  C   UNL A   1      37.932  31.823  32.797  1.00  0.00     0.031 C 
ATOM     44  C   UNL A   1      39.903  27.949  27.439  1.00  0.00     0.029 A 
ATOM     45  C   UNL A   1      40.776  27.898  28.609  1.00  0.00     0.049 A 
ATOM     46  H   UNL A   1      40.493  28.849  30.441  1.00  0.00     0.167 HD
ATOM     47  C   UNL A   1      39.866  31.086  34.154  1.00  0.00     0.034 A 
ATOM     48  C   UNL A   1      41.928  27.203  28.695  1.00  0.00     0.034 A 
ATOM     49  C   UNL A   1      41.036  30.284  34.383  1.00  0.00     0.049 A 
ATOM     50  C   UNL A   1      42.695  27.223  29.990  1.00  0.00     0.074 A 
ATOM     51  C   UNL A   1      41.797  30.185  35.534  1.00  0.00     0.029 A 
ATOM     52  N   UNL A   1      41.611  29.440  33.446  1.00  0.00    -0.354 N 
ATOM     53  N   UNL A   1      42.398  27.832  31.113  1.00  0.00    -0.248 NA
ATOM     54  C   UNL A   1      43.935  26.435  30.043  1.00  0.00     0.031 C 
ATOM     55  C   UNL A   1      42.834  29.278  35.292  1.00  0.00     0.029 A 
ATOM     56  C   UNL A   1      42.718  28.813  33.992  1.00  0.00     0.049 A 
ATOM     57  H   UNL A   1      41.282  29.305  32.529  1.00  0.00     0.167 HD
ATOM     58  C   UNL A   1      43.399  27.482  32.012  1.00  0.00     0.074 A 
ATOM     59  C   UNL A   1      44.298  26.589  31.311  1.00  0.00     0.031 C 
ATOM     60  C   UNL A   1      43.569  27.882  33.296  1.00  0.00     0.034 A 
BRANCH  47  61
ATOM     61  C   UNL A   1      39.361  31.949  35.278  1.00  0.00     0.023 A 
ATOM     62  C   UNL A   1      38.439  31.402  36.194  1.00  0.00     0.012 A 
ATOM     63  C   UNL A   1      39.831  33.261  35.468  1.00  0.00     0.148 A 
ATOM     64  C   UNL A   1      37.972  32.157  37.268  1.00  0.00     0.002 A 
ATOM     65  C   UNL A   1      39.389  33.996  36.563  1.00  0.00     0.091 A 
ATOM     66  F   UNL A   1      40.688  33.771  34.571  1.00  0.00    -0.205 F 
ATOM     67  C   UNL A   1      38.455  33.449  37.458  1.00  0.00     0.022 A 
BRANCH  65  68
ATOM     68  S   UNL A   1      40.001  35.644  36.934  1.00  0.00     0.127 S 
ATOM     69  O   UNL A   1      41.441  35.410  37.023  1.00  0.00    -0.237 OA
ATOM     70  O   UNL A   1      39.579  36.404  35.757  1.00  0.00    -0.237 OA
ATOM     71  O   UNL A   1      39.352  36.039  38.176  1.00  0.00    -0.744 OA
ENDBRANCH  65  68
ENDBRANCH  47  61
BRANCH  48  72
ATOM     72  C   UNL A   1      42.361  26.347  27.555  1.00  0.00     0.023 A 
ATOM     73  C   UNL A   1      43.259  26.879  26.608  1.00  0.00     0.012 A 
ATOM     74  C   UNL A   1      41.947  25.007  27.430  1.00  0.00     0.148 A 
ATOM     75  C   UNL A   1      43.724  26.098  25.550  1.00  0.00     0.002 A 
ATOM     76  C   UNL A   1      42.452  24.219  26.402  1.00  0.00     0.091 A 
ATOM     77  F   UNL A   1      41.079  24.524  28.331  1.00  0.00    -0.205 F 
ATOM     78  C   UNL A   1      43.330  24.766  25.452  1.00  0.00     0.022 A 
BRANCH  76  79
ATOM     79  S   UNL A   1      42.106  22.460  26.280  1.00  0.00     0.127 S 
ATOM     80  O   UNL A   1      42.843  22.091  25.076  1.00  0.00    -0.237 OA
ATOM     81  O   UNL A   1      42.672  21.950  27.531  1.00  0.00    -0.237 OA
ATOM     82  O   UNL A   1      40.655  22.355  26.198  1.00  0.00    -0.744 OA
ENDBRANCH  76  79
ENDBRANCH  48  72
BRANCH  60  83
ATOM     83  C   UNL A   1      44.767  27.362  34.044  1.00  0.00     0.023 A 
ATOM     84  C   UNL A   1      45.964  28.104  34.025  1.00  0.00     0.012 A 
ATOM     85  C   UNL A   1      44.673  26.216  34.858  1.00  0.00     0.148 A 
ATOM     86  C   UNL A   1      47.054  27.707  34.797  1.00  0.00     0.002 A 
ATOM     87  C   UNL A   1      45.750  25.851  35.657  1.00  0.00     0.091 A 
ATOM     88  F   UNL A   1      43.530  25.514  34.845  1.00  0.00    -0.205 F 
ATOM     89  C   UNL A   1      46.943  26.591  35.623  1.00  0.00     0.022 A 
BRANCH  87  90
ATOM     90  S   UNL A   1      45.659  24.486  36.823  1.00  0.00     0.127 S 
ATOM     91  O   UNL A   1      44.474  24.837  37.601  1.00  0.00    -0.237 OA
ATOM     92  O   UNL A   1      45.491  23.330  35.940  1.00  0.00    -0.237 OA
ATOM     93  O   UNL A   1      46.920  24.504  37.554  1.00  0.00    -0.744 OA
ENDBRANCH  87  90
ENDBRANCH  60  83
ENDBRANCH  34  35
ENDBRANCH  26  29
ENDBRANCH  24  25
ENDBRANCH   1  24
TORSDOF 15
ENDMDL
MODEL 3
REMARK VINA RESULT:     -12.6      4.916      9.850
REMARK SMILES Cc1cc(Cl)c2c(c1)C=C(C(=O)NCCCCNC(=O)c1ccc(-c3c4nc(c(-c5cccc(S(=O)(=O)[O-])c5F)c5ccc([nH]5)c(-c5cccc(S(=O)(=O)[O-])c5F)c5nc(c(-c6cccc(S(=O)(=O)[O-])c6F)c6ccc3[nH]6)C=C5)C=C4)cc1)[C@@H](C(F)(F)F)O2
REMARK SMILES IDX 16 1 15 2 14 3 13 4 11 5 12 6 10 8 1 9 2 10 3 11 8 12 4 13
REMARK SMILES IDX 7 14 5 15 6 16 9 17 89 18 84 19 85 20 86 21 87 22 88 23
REMARK SMILES IDX 17 24 18 25 19 26 20 28 21 29 22 30 83 31 23 32 82 33 24 34
REMARK SMILES IDX 25 35 26 36 76 37 27 38 81 39 75 40 77 41 28 42 80 43 74 44
REMARK SMILES IDX 73 45 29 47 61 48 41 49 60 50 42 51 45 52 59 53 78 54 43 55
REMARK SMILES IDX 44 56 58 58 79 59 46 60 30 61 31 62 39 63 32 64 34 65 40 66
REMARK SMILES IDX 33 67 35 68 36 69 37 70 38 71 62 72 63 73 71 74 64 75 66 76
REMARK SMILES IDX 72 77 65 78 67 79 68 80 69 81 70 82 47 83 48 84 56 85 49 86
REMARK SMILES IDX 51 87 57 88 50 89 52 90 53 91 54 92 55 93
REMARK H PARENT 13 7 18 27 77 46 45 57
REMARK Flexibility Score: inf
ROOT
ATOM      1  C   UNL A   1      35.508  21.374  25.024  1.00  0.00     0.023 C 
ENDROOT
BRANCH   1   2
ATOM      2  C   UNL A   1      34.307  22.270  25.343  1.00  0.00     0.023 C 
BRANCH   2   3
ATOM      3  C   UNL A   1      33.104  22.052  24.432  1.00  0.00     0.116 C 
BRANCH   3   4
ATOM      4  N   UNL A   1      33.350  22.522  23.080  1.00  0.00    -0.352 N 
ATOM      5  C   UNL A   1      33.268  23.696  22.412  1.00  0.00     0.251 C 
ATOM      6  O   UNL A   1      33.592  23.651  21.222  1.00  0.00    -0.270 OA
ATOM      7  H   UNL A   1      33.659  21.794  22.495  1.00  0.00     0.163 HD
BRANCH   5   8
ATOM      8  C   UNL A   1      32.829  24.997  23.001  1.00  0.00     0.067 C 
ATOM      9  C   UNL A   1      34.730  29.176  27.150  1.00  0.00     0.044 C 
ATOM     10  C   UNL A   1      33.839  28.594  26.093  1.00  0.00    -0.049 A 
ATOM     11  C   UNL A   1      32.706  29.289  25.654  1.00  0.00     0.028 A 
ATOM     12  C   UNL A   1      34.168  27.375  25.485  1.00  0.00     0.015 A 
ATOM     13  C   UNL A   1      31.902  28.761  24.641  1.00  0.00     0.084 A 
ATOM     14  C   UNL A   1      33.362  26.840  24.472  1.00  0.00     0.019 A 
ATOM     15  Cl  UNL A   1      30.514  29.658  24.142  1.00  0.00    -0.080 Cl
ATOM     16  C   UNL A   1      32.222  27.531  24.057  1.00  0.00     0.146 A 
ATOM     17  C   UNL A   1      33.719  25.587  23.820  1.00  0.00     0.025 C 
ATOM     18  O   UNL A   1      31.433  27.062  23.042  1.00  0.00    -0.474 OA
ATOM     19  C   UNL A   1      31.486  25.632  22.775  1.00  0.00     0.314 C 
BRANCH  19  20
ATOM     20  C   UNL A   1      30.359  24.930  23.555  1.00  0.00     0.429 C 
ATOM     21  F   UNL A   1      30.769  24.625  24.812  1.00  0.00    -0.167 F 
ATOM     22  F   UNL A   1      29.257  25.703  23.688  1.00  0.00    -0.167 F 
ATOM     23  F   UNL A   1      29.963  23.777  22.968  1.00  0.00    -0.167 F 
ENDBRANCH  19  20
ENDBRANCH   5   8
ENDBRANCH   3   4
ENDBRANCH   2   3
ENDBRANCH   1   2
BRANCH   1  24
ATOM     24  C   UNL A   1      36.870  21.920  25.451  1.00  0.00     0.116 C 
BRANCH  24  25
ATOM     25  N   UNL A   1      37.913  20.905  25.538  1.00  0.00    -0.352 N 
ATOM     26  C   UNL A   1      39.182  21.045  26.048  1.00  0.00     0.251 C 
ATOM     27  H   UNL A   1      37.681  20.013  25.190  1.00  0.00     0.163 HD
ATOM     28  O   UNL A   1      39.986  20.119  25.999  1.00  0.00    -0.269 OA
BRANCH  26  29
ATOM     29  C   UNL A   1      39.570  22.350  26.613  1.00  0.00     0.039 A 
ATOM     30  C   UNL A   1      40.568  22.391  27.590  1.00  0.00     0.014 A 
ATOM     31  C   UNL A   1      39.018  23.526  26.100  1.00  0.00     0.014 A 
ATOM     32  C   UNL A   1      41.073  23.626  27.997  1.00  0.00     0.010 A 
ATOM     33  C   UNL A   1      39.565  24.752  26.465  1.00  0.00     0.010 A 
ATOM     34  C   UNL A   1      40.604  24.810  27.406  1.00  0.00    -0.014 A 
BRANCH  34  35
ATOM     35  C   UNL A   1      41.212  26.122  27.734  1.00  0.00     0.031 A 
ATOM     36  C   UNL A   1      42.628  26.417  27.333  1.00  0.00     0.074 A 
ATOM     37  C   UNL A   1      40.513  27.011  28.467  1.00  0.00     0.049 A 
ATOM     38  N   UNL A   1      43.342  27.485  27.571  1.00  0.00    -0.248 NA
ATOM     39  C   UNL A   1      43.344  25.366  26.591  1.00  0.00     0.031 C 
ATOM     40  C   UNL A   1      39.156  26.803  28.978  1.00  0.00     0.029 A 
ATOM     41  N   UNL A   1      40.851  28.259  28.925  1.00  0.00    -0.354 N 
ATOM     42  C   UNL A   1      44.596  27.227  27.029  1.00  0.00     0.074 A 
ATOM     43  C   UNL A   1      44.558  25.888  26.486  1.00  0.00     0.031 C 
ATOM     44  C   UNL A   1      38.772  27.892  29.664  1.00  0.00     0.029 A 
ATOM     45  C   UNL A   1      39.859  28.867  29.660  1.00  0.00     0.049 A 
ATOM     46  H   UNL A   1      41.722  28.681  28.745  1.00  0.00     0.167 HD
ATOM     47  C   UNL A   1      45.668  28.049  26.955  1.00  0.00     0.034 A 
ATOM     48  C   UNL A   1      39.827  30.076  30.255  1.00  0.00     0.034 A 
ATOM     49  C   UNL A   1      45.683  29.398  27.448  1.00  0.00     0.049 A 
ATOM     50  C   UNL A   1      41.020  30.983  30.124  1.00  0.00     0.074 A 
ATOM     51  C   UNL A   1      46.696  30.335  27.353  1.00  0.00     0.029 A 
ATOM     52  N   UNL A   1      44.635  30.005  28.123  1.00  0.00    -0.354 N 
ATOM     53  N   UNL A   1      42.143  30.778  29.479  1.00  0.00    -0.248 NA
ATOM     54  C   UNL A   1      40.932  32.300  30.773  1.00  0.00     0.031 C 
ATOM     55  C   UNL A   1      46.259  31.511  27.972  1.00  0.00     0.029 A 
ATOM     56  C   UNL A   1      44.975  31.306  28.450  1.00  0.00     0.049 A 
ATOM     57  H   UNL A   1      43.777  29.574  28.337  1.00  0.00     0.167 HD
ATOM     58  C   UNL A   1      42.884  31.946  29.623  1.00  0.00     0.074 A 
ATOM     59  C   UNL A   1      42.074  32.863  30.397  1.00  0.00     0.031 C 
ATOM     60  C   UNL A   1      44.132  32.224  29.172  1.00  0.00     0.034 A 
BRANCH  47  61
ATOM     61  C   UNL A   1      46.887  27.539  26.234  1.00  0.00     0.023 A 
ATOM     62  C   UNL A   1      47.043  27.836  24.865  1.00  0.00     0.012 A 
ATOM     63  C   UNL A   1      47.896  26.826  26.908  1.00  0.00     0.148 A 
ATOM     64  C   UNL A   1      48.173  27.410  24.170  1.00  0.00     0.002 A 
ATOM     65  C   UNL A   1      49.037  26.437  26.217  1.00  0.00     0.091 A 
ATOM     66  F   UNL A   1      47.716  26.531  28.204  1.00  0.00    -0.205 F 
ATOM     67  C   UNL A   1      49.174  26.720  24.848  1.00  0.00     0.022 A 
BRANCH  65  68
ATOM     68  S   UNL A   1      50.415  25.602  27.015  1.00  0.00     0.127 S 
ATOM     69  O   UNL A   1      51.326  25.398  25.890  1.00  0.00    -0.237 OA
ATOM     70  O   UNL A   1      50.861  26.600  27.987  1.00  0.00    -0.237 OA
ATOM     71  O   UNL A   1      49.860  24.390  27.601  1.00  0.00    -0.744 OA
ENDBRANCH  65  68
ENDBRANCH  47  61
BRANCH  48  72
ATOM     72  C   UNL A   1      38.580  30.533  30.931  1.00  0.00     0.023 A 
ATOM     73  C   UNL A   1      38.432  30.303  32.313  1.00  0.00     0.012 A 
ATOM     74  C   UNL A   1      37.575  31.241  30.242  1.00  0.00     0.148 A 
ATOM     75  C   UNL A   1      37.301  30.753  32.994  1.00  0.00     0.002 A 
ATOM     76  C   UNL A   1      36.474  31.730  30.936  1.00  0.00     0.091 A 
ATOM     77  F   UNL A   1      37.725  31.436  28.924  1.00  0.00    -0.205 F 
ATOM     78  C   UNL A   1      36.328  31.476  32.309  1.00  0.00     0.022 A 
BRANCH  76  79
ATOM     79  S   UNL A   1      35.243  32.785  30.162  1.00  0.00     0.127 S 
ATOM     80  O   UNL A   1      36.055  33.908  29.703  1.00  0.00    -0.237 OA
ATOM     81  O   UNL A   1      34.726  31.922  29.097  1.00  0.00    -0.237 OA
ATOM     82  O   UNL A   1      34.274  33.084  31.208  1.00  0.00    -0.744 OA
ENDBRANCH  76  79
ENDBRANCH  48  72
BRANCH  60  83
ATOM     83  C   UNL A   1      44.712  33.575  29.493  1.00  0.00     0.023 A 
ATOM     84  C   UNL A   1      45.440  33.744  30.687  1.00  0.00     0.012 A 
ATOM     85  C   UNL A   1      44.645  34.633  28.564  1.00  0.00     0.148 A 
ATOM     86  C   UNL A   1      46.083  34.950  30.958  1.00  0.00     0.002 A 
ATOM     87  C   UNL A   1      45.324  35.818  28.823  1.00  0.00     0.091 A 
ATOM     88  F   UNL A   1      43.930  34.456  27.444  1.00  0.00    -0.205 F 
ATOM     89  C   UNL A   1      46.038  35.981  30.021  1.00  0.00     0.022 A 
BRANCH  87  90
ATOM     90  S   UNL A   1      45.400  37.159  27.629  1.00  0.00     0.127 S 
ATOM     91  O   UNL A   1      43.993  37.535  27.513  1.00  0.00    -0.237 OA
ATOM     92  O   UNL A   1      46.240  38.142  28.314  1.00  0.00    -0.237 OA
ATOM     93  O   UNL A   1      46.000  36.589  26.430  1.00  0.00    -0.744 OA
ENDBRANCH  87  90
ENDBRANCH  60  83
ENDBRANCH  34  35
ENDBRANCH  26  29
ENDBRANCH  24  25
ENDBRANCH   1  24
TORSDOF 15
ENDMDL
