MODEL 1
REMARK VINA RESULT:     -10.1      0.000      0.000
REMARK SMILES Cc1n[nH]c(CCC(=O)NCCCCNC(=O)c2ccc(-c3c4nc(c(-c5cccc(S(=O)(=O)[O-])c5F)c5ccc([nH]5)c(-c5cccc(S(=O)(=O)[O-])c5F)c5nc(c(-c6cccc(S(=O)(=O)[O-])c6F)c6ccc3[nH]6)C=C5)C=C4)cc2)c1C
REMARK SMILES IDX 13 1 12 2 11 3 10 4 8 5 9 6 7 8 6 9 5 10 1 11 2 12 3 13
REMARK SMILES IDX 81 14 4 15 82 16 14 18 15 19 16 20 17 22 18 23 19 24 80 25
REMARK SMILES IDX 20 26 79 27 21 28 22 29 23 30 73 31 24 32 78 33 72 34 74 35
REMARK SMILES IDX 25 36 77 37 71 38 70 39 26 41 58 42 38 43 57 44 39 45 42 46
REMARK SMILES IDX 56 47 75 48 40 49 41 50 55 52 76 53 43 54 27 55 28 56 36 57
REMARK SMILES IDX 29 58 31 59 37 60 30 61 32 62 33 63 34 64 35 65 59 66 60 67
REMARK SMILES IDX 68 68 61 69 63 70 69 71 62 72 64 73 65 74 66 75 67 76 44 77
REMARK SMILES IDX 45 78 53 79 46 80 48 81 54 82 47 83 49 84 50 85 51 86 52 87
REMARK H PARENT 10 7 4 17 15 21 74 40 42 51
REMARK Flexibility Score: inf
ROOT
ATOM      1  C   UNL A   1      34.182  34.399  30.989  1.00  0.00     0.023 C 
ENDROOT
BRANCH   1   2
ATOM      2  C   UNL A   1      33.709  34.854  32.377  1.00  0.00     0.023 C 
BRANCH   2   3
ATOM      3  C   UNL A   1      34.729  35.602  33.234  1.00  0.00     0.116 C 
BRANCH   3   4
ATOM      4  N   UNL A   1      35.053  34.868  34.450  1.00  0.00    -0.356 N 
ATOM      5  C   UNL A   1      36.019  33.940  34.701  1.00  0.00     0.220 C 
ATOM      6  O   UNL A   1      35.983  33.324  35.769  1.00  0.00    -0.275 OA
ATOM      7  H   UNL A   1      34.477  35.078  35.220  1.00  0.00     0.163 HD
BRANCH   5   8
ATOM      8  C   UNL A   1      37.134  33.677  33.707  1.00  0.00     0.106 C 
BRANCH   8   9
ATOM      9  C   UNL A   1      37.246  32.193  33.332  1.00  0.00     0.066 C 
BRANCH   9  10
ATOM     10  C   UNL A   1      38.274  31.485  34.153  1.00  0.00     0.039 A 
ATOM     11  C   UNL A   1      41.396  30.727  35.910  1.00  0.00     0.069 C 
ATOM     12  C   UNL A   1      40.046  30.808  35.297  1.00  0.00     0.062 A 
ATOM     13  N   UNL A   1      38.989  30.342  35.974  1.00  0.00    -0.181 NA
ATOM     14  C   UNL A   1      39.657  31.467  34.092  1.00  0.00    -0.007 A 
ATOM     15  N   UNL A   1      37.936  30.757  35.259  1.00  0.00    -0.282 N 
ATOM     16  C   UNL A   1      40.528  32.145  33.098  1.00  0.00     0.048 C 
ATOM     17  H   UNL A   1      37.004  30.556  35.508  1.00  0.00     0.190 HD
ENDBRANCH   9  10
ENDBRANCH   8   9
ENDBRANCH   5   8
ENDBRANCH   3   4
ENDBRANCH   2   3
ENDBRANCH   1   2
BRANCH   1  18
ATOM     18  C   UNL A   1      34.498  32.909  30.904  1.00  0.00     0.116 C 
BRANCH  18  19
ATOM     19  N   UNL A   1      34.421  32.390  29.533  1.00  0.00    -0.352 N 
ATOM     20  C   UNL A   1      35.392  31.707  28.813  1.00  0.00     0.251 C 
ATOM     21  H   UNL A   1      33.571  32.545  29.063  1.00  0.00     0.163 HD
ATOM     22  O   UNL A   1      35.330  31.572  27.611  1.00  0.00    -0.269 OA
BRANCH  20  23
ATOM     23  C   UNL A   1      36.525  31.168  29.586  1.00  0.00     0.039 A 
ATOM     24  C   UNL A   1      36.491  29.848  30.029  1.00  0.00     0.014 A 
ATOM     25  C   UNL A   1      37.698  31.918  29.599  1.00  0.00     0.014 A 
ATOM     26  C   UNL A   1      37.696  29.223  30.332  1.00  0.00     0.010 A 
ATOM     27  C   UNL A   1      38.895  31.257  29.780  1.00  0.00     0.010 A 
ATOM     28  C   UNL A   1      38.912  29.902  30.124  1.00  0.00    -0.014 A 
BRANCH  28  29
ATOM     29  C   UNL A   1      40.158  29.127  30.054  1.00  0.00     0.031 A 
ATOM     30  C   UNL A   1      40.792  28.799  31.370  1.00  0.00     0.074 A 
ATOM     31  C   UNL A   1      40.651  28.524  28.950  1.00  0.00     0.049 A 
ATOM     32  N   UNL A   1      41.882  29.296  31.858  1.00  0.00    -0.248 NA
ATOM     33  C   UNL A   1      40.080  27.909  32.299  1.00  0.00     0.031 C 
ATOM     34  C   UNL A   1      40.043  28.427  27.620  1.00  0.00     0.029 A 
ATOM     35  N   UNL A   1      41.767  27.745  28.831  1.00  0.00    -0.354 N 
ATOM     36  C   UNL A   1      42.125  28.600  33.043  1.00  0.00     0.074 A 
ATOM     37  C   UNL A   1      40.897  27.916  33.355  1.00  0.00     0.031 C 
ATOM     38  C   UNL A   1      40.637  27.433  26.926  1.00  0.00     0.029 A 
ATOM     39  C   UNL A   1      41.791  26.978  27.675  1.00  0.00     0.049 A 
ATOM     40  H   UNL A   1      42.486  27.729  29.503  1.00  0.00     0.167 HD
ATOM     41  C   UNL A   1      43.391  28.450  33.526  1.00  0.00     0.034 A 
ATOM     42  C   UNL A   1      42.695  26.032  27.340  1.00  0.00     0.034 A 
ATOM     43  C   UNL A   1      44.315  29.327  32.846  1.00  0.00     0.049 A 
ATOM     44  C   UNL A   1      43.935  26.335  28.084  1.00  0.00     0.074 A 
ATOM     45  C   UNL A   1      44.441  30.686  32.647  1.00  0.00     0.029 A 
ATOM     46  N   UNL A   1      45.136  28.726  31.925  1.00  0.00    -0.354 N 
ATOM     47  N   UNL A   1      44.663  27.396  27.872  1.00  0.00    -0.248 NA
ATOM     48  C   UNL A   1      44.225  25.614  29.312  1.00  0.00     0.031 C 
ATOM     49  C   UNL A   1      44.998  30.819  31.339  1.00  0.00     0.029 A 
ATOM     50  C   UNL A   1      45.225  29.538  30.830  1.00  0.00     0.049 A 
ATOM     51  H   UNL A   1      45.585  27.858  32.034  1.00  0.00     0.167 HD
ATOM     52  C   UNL A   1      45.157  27.728  29.123  1.00  0.00     0.074 A 
ATOM     53  C   UNL A   1      45.009  26.512  29.914  1.00  0.00     0.031 C 
ATOM     54  C   UNL A   1      45.349  29.035  29.477  1.00  0.00     0.034 A 
BRANCH  41  55
ATOM     55  C   UNL A   1      43.924  27.248  34.298  1.00  0.00     0.023 A 
ATOM     56  C   UNL A   1      43.844  25.987  33.651  1.00  0.00     0.012 A 
ATOM     57  C   UNL A   1      44.187  27.226  35.686  1.00  0.00     0.148 A 
ATOM     58  C   UNL A   1      43.911  24.781  34.359  1.00  0.00     0.002 A 
ATOM     59  C   UNL A   1      44.331  26.022  36.373  1.00  0.00     0.091 A 
ATOM     60  F   UNL A   1      44.176  28.357  36.392  1.00  0.00    -0.205 F 
ATOM     61  C   UNL A   1      44.153  24.798  35.724  1.00  0.00     0.022 A 
BRANCH  59  62
ATOM     62  S   UNL A   1      44.698  25.985  38.132  1.00  0.00     0.127 S 
ATOM     63  O   UNL A   1      44.853  24.553  38.366  1.00  0.00    -0.237 OA
ATOM     64  O   UNL A   1      45.936  26.764  38.197  1.00  0.00    -0.237 OA
ATOM     65  O   UNL A   1      43.558  26.625  38.779  1.00  0.00    -0.744 OA
ENDBRANCH  59  62
ENDBRANCH  41  55
BRANCH  42  66
ATOM     66  C   UNL A   1      42.547  24.832  26.492  1.00  0.00     0.023 A 
ATOM     67  C   UNL A   1      43.505  24.558  25.498  1.00  0.00     0.012 A 
ATOM     68  C   UNL A   1      41.622  23.819  26.830  1.00  0.00     0.148 A 
ATOM     69  C   UNL A   1      43.572  23.299  24.892  1.00  0.00     0.002 A 
ATOM     70  C   UNL A   1      41.687  22.571  26.218  1.00  0.00     0.091 A 
ATOM     71  F   UNL A   1      40.740  24.051  27.812  1.00  0.00    -0.205 F 
ATOM     72  C   UNL A   1      42.672  22.302  25.259  1.00  0.00     0.022 A 
BRANCH  70  73
ATOM     73  S   UNL A   1      40.566  21.235  26.655  1.00  0.00     0.127 S 
ATOM     74  O   UNL A   1      41.164  20.094  25.961  1.00  0.00    -0.237 OA
ATOM     75  O   UNL A   1      40.688  21.199  28.109  1.00  0.00    -0.237 OA
ATOM     76  O   UNL A   1      39.263  21.631  26.135  1.00  0.00    -0.744 OA
ENDBRANCH  70  73
ENDBRANCH  42  66
BRANCH  54  77
ATOM     77  C   UNL A   1      45.414  30.071  28.384  1.00  0.00     0.023 A 
ATOM     78  C   UNL A   1      44.260  30.599  27.770  1.00  0.00     0.012 A 
ATOM     79  C   UNL A   1      46.663  30.643  28.084  1.00  0.00     0.148 A 
ATOM     80  C   UNL A   1      44.353  31.652  26.857  1.00  0.00     0.002 A 
ATOM     81  C   UNL A   1      46.747  31.724  27.215  1.00  0.00     0.091 A 
ATOM     82  F   UNL A   1      47.755  30.132  28.675  1.00  0.00    -0.205 F 
ATOM     83  C   UNL A   1      45.595  32.224  26.590  1.00  0.00     0.022 A 
BRANCH  81  84
ATOM     84  S   UNL A   1      48.299  32.583  26.944  1.00  0.00     0.127 S 
ATOM     85  O   UNL A   1      48.612  33.083  28.281  1.00  0.00    -0.237 OA
ATOM     86  O   UNL A   1      49.178  31.511  26.471  1.00  0.00    -0.237 OA
ATOM     87  O   UNL A   1      48.016  33.601  25.939  1.00  0.00    -0.744 OA
ENDBRANCH  81  84
ENDBRANCH  54  77
ENDBRANCH  28  29
ENDBRANCH  20  23
ENDBRANCH  18  19
ENDBRANCH   1  18
TORSDOF 16
ENDMDL
MODEL 2
REMARK VINA RESULT:     -10.0      4.653     10.271
REMARK SMILES Cc1n[nH]c(CCC(=O)NCCCCNC(=O)c2ccc(-c3c4nc(c(-c5cccc(S(=O)(=O)[O-])c5F)c5ccc([nH]5)c(-c5cccc(S(=O)(=O)[O-])c5F)c5nc(c(-c6cccc(S(=O)(=O)[O-])c6F)c6ccc3[nH]6)C=C5)C=C4)cc2)c1C
REMARK SMILES IDX 13 1 12 2 11 3 10 4 8 5 9 6 7 8 6 9 5 10 1 11 2 12 3 13
REMARK SMILES IDX 81 14 4 15 82 16 14 18 15 19 16 20 17 22 18 23 19 24 80 25
REMARK SMILES IDX 20 26 79 27 21 28 22 29 23 30 73 31 24 32 78 33 72 34 74 35
REMARK SMILES IDX 25 36 77 37 71 38 70 39 26 41 58 42 38 43 57 44 39 45 42 46
REMARK SMILES IDX 56 47 75 48 40 49 41 50 55 52 76 53 43 54 27 55 28 56 36 57
REMARK SMILES IDX 29 58 31 59 37 60 30 61 32 62 33 63 34 64 35 65 59 66 60 67
REMARK SMILES IDX 68 68 61 69 63 70 69 71 62 72 64 73 65 74 66 75 67 76 44 77
REMARK SMILES IDX 45 78 53 79 46 80 48 81 54 82 47 83 49 84 50 85 51 86 52 87
REMARK H PARENT 10 7 4 17 15 21 74 40 42 51
REMARK Flexibility Score: inf
ROOT
ATOM      1  C   UNL A   1      38.930  21.612  25.563  1.00  0.00     0.023 C 
ENDROOT
BRANCH   1   2
ATOM      2  C   UNL A   1      37.661  20.914  25.052  1.00  0.00     0.023 C 
BRANCH   2   3
ATOM      3  C   UNL A   1      36.372  21.734  25.085  1.00  0.00     0.116 C 
BRANCH   3   4
ATOM      4  N   UNL A   1      35.557  21.409  26.248  1.00  0.00    -0.356 N 
ATOM      5  C   UNL A   1      34.209  21.477  26.439  1.00  0.00     0.220 C 
ATOM      6  O   UNL A   1      33.765  21.317  27.579  1.00  0.00    -0.275 OA
ATOM      7  H   UNL A   1      36.065  21.088  27.027  1.00  0.00     0.163 HD
BRANCH   5   8
ATOM      8  C   UNL A   1      33.262  21.721  25.280  1.00  0.00     0.106 C 
BRANCH   8   9
ATOM      9  C   UNL A   1      32.040  20.793  25.318  1.00  0.00     0.066 C 
BRANCH   9  10
ATOM     10  C   UNL A   1      32.417  19.363  25.111  1.00  0.00     0.039 A 
ATOM     11  C   UNL A   1      33.798  16.315  23.622  1.00  0.00     0.069 C 
ATOM     12  C   UNL A   1      33.172  17.396  24.426  1.00  0.00     0.062 A 
ATOM     13  N   UNL A   1      33.291  17.375  25.759  1.00  0.00    -0.181 NA
ATOM     14  C   UNL A   1      32.548  18.594  23.967  1.00  0.00    -0.007 A 
ATOM     15  N   UNL A   1      32.822  18.568  26.147  1.00  0.00    -0.282 N 
ATOM     16  C   UNL A   1      32.276  19.005  22.565  1.00  0.00     0.048 C 
ATOM     17  H   UNL A   1      32.773  18.846  27.090  1.00  0.00     0.190 HD
ENDBRANCH   9  10
ENDBRANCH   8   9
ENDBRANCH   5   8
ENDBRANCH   3   4
ENDBRANCH   2   3
ENDBRANCH   1   2
BRANCH   1  18
ATOM     18  C   UNL A   1      39.696  20.808  26.608  1.00  0.00     0.116 C 
BRANCH  18  19
ATOM     19  N   UNL A   1      40.604  19.821  26.012  1.00  0.00    -0.352 N 
ATOM     20  C   UNL A   1      41.965  19.937  25.767  1.00  0.00     0.251 C 
ATOM     21  H   UNL A   1      40.195  18.964  25.752  1.00  0.00     0.163 HD
ATOM     22  O   UNL A   1      42.556  19.182  25.026  1.00  0.00    -0.269 OA
BRANCH  20  23
ATOM     23  C   UNL A   1      42.661  21.047  26.442  1.00  0.00     0.039 A 
ATOM     24  C   UNL A   1      42.955  22.208  25.732  1.00  0.00     0.014 A 
ATOM     25  C   UNL A   1      42.745  20.993  27.830  1.00  0.00     0.014 A 
ATOM     26  C   UNL A   1      43.174  23.381  26.447  1.00  0.00     0.010 A 
ATOM     27  C   UNL A   1      42.839  22.180  28.527  1.00  0.00     0.010 A 
ATOM     28  C   UNL A   1      43.030  23.386  27.848  1.00  0.00    -0.014 A 
BRANCH  28  29
ATOM     29  C   UNL A   1      42.862  24.671  28.542  1.00  0.00     0.031 A 
ATOM     30  C   UNL A   1      41.574  25.386  28.280  1.00  0.00     0.074 A 
ATOM     31  C   UNL A   1      43.656  25.144  29.527  1.00  0.00     0.049 A 
ATOM     32  N   UNL A   1      41.405  26.467  27.591  1.00  0.00    -0.248 NA
ATOM     33  C   UNL A   1      40.317  24.773  28.735  1.00  0.00     0.031 C 
ATOM     34  C   UNL A   1      44.787  24.480  30.182  1.00  0.00     0.029 A 
ATOM     35  N   UNL A   1      43.523  26.297  30.248  1.00  0.00    -0.354 N 
ATOM     36  C   UNL A   1      40.059  26.807  27.731  1.00  0.00     0.074 A 
ATOM     37  C   UNL A   1      39.413  25.638  28.268  1.00  0.00     0.031 C 
ATOM     38  C   UNL A   1      45.055  25.097  31.352  1.00  0.00     0.029 A 
ATOM     39  C   UNL A   1      44.266  26.310  31.421  1.00  0.00     0.049 A 
ATOM     40  H   UNL A   1      42.953  27.047  29.964  1.00  0.00     0.167 HD
ATOM     41  C   UNL A   1      39.644  28.102  27.627  1.00  0.00     0.034 A 
ATOM     42  C   UNL A   1      44.247  27.251  32.390  1.00  0.00     0.034 A 
ATOM     43  C   UNL A   1      40.683  28.939  27.075  1.00  0.00     0.049 A 
ATOM     44  C   UNL A   1      43.777  28.505  31.768  1.00  0.00     0.074 A 
ATOM     45  C   UNL A   1      41.426  28.976  25.915  1.00  0.00     0.029 A 
ATOM     46  N   UNL A   1      41.333  29.748  27.973  1.00  0.00    -0.354 N 
ATOM     47  N   UNL A   1      44.452  29.159  30.863  1.00  0.00    -0.248 NA
ATOM     48  C   UNL A   1      42.385  28.896  31.912  1.00  0.00     0.031 C 
ATOM     49  C   UNL A   1      42.710  29.461  26.310  1.00  0.00     0.029 A 
ATOM     50  C   UNL A   1      42.667  29.737  27.679  1.00  0.00     0.049 A 
ATOM     51  H   UNL A   1      40.910  30.252  28.705  1.00  0.00     0.167 HD
ATOM     52  C   UNL A   1      43.481  29.693  30.031  1.00  0.00     0.074 A 
ATOM     53  C   UNL A   1      42.255  29.653  30.820  1.00  0.00     0.031 C 
ATOM     54  C   UNL A   1      43.703  29.825  28.688  1.00  0.00     0.034 A 
BRANCH  41  55
ATOM     55  C   UNL A   1      38.487  28.740  28.389  1.00  0.00     0.023 A 
ATOM     56  C   UNL A   1      37.596  29.550  27.637  1.00  0.00     0.012 A 
ATOM     57  C   UNL A   1      38.406  28.855  29.794  1.00  0.00     0.148 A 
ATOM     58  C   UNL A   1      36.758  30.494  28.242  1.00  0.00     0.002 A 
ATOM     59  C   UNL A   1      37.514  29.742  30.394  1.00  0.00     0.091 A 
ATOM     60  F   UNL A   1      39.274  28.210  30.574  1.00  0.00    -0.205 F 
ATOM     61  C   UNL A   1      36.718  30.592  29.623  1.00  0.00     0.022 A 
BRANCH  59  62
ATOM     62  S   UNL A   1      37.382  29.871  32.182  1.00  0.00     0.127 S 
ATOM     63  O   UNL A   1      37.239  28.470  32.564  1.00  0.00    -0.237 OA
ATOM     64  O   UNL A   1      38.662  30.486  32.535  1.00  0.00    -0.237 OA
ATOM     65  O   UNL A   1      36.224  30.726  32.423  1.00  0.00    -0.744 OA
ENDBRANCH  59  62
ENDBRANCH  41  55
BRANCH  42  66
ATOM     66  C   UNL A   1      44.521  27.133  33.837  1.00  0.00     0.023 A 
ATOM     67  C   UNL A   1      45.670  27.734  34.381  1.00  0.00     0.012 A 
ATOM     68  C   UNL A   1      43.526  26.662  34.723  1.00  0.00     0.148 A 
ATOM     69  C   UNL A   1      45.807  27.907  35.762  1.00  0.00     0.002 A 
ATOM     70  C   UNL A   1      43.670  26.829  36.097  1.00  0.00     0.091 A 
ATOM     71  F   UNL A   1      42.404  26.136  34.215  1.00  0.00    -0.205 F 
ATOM     72  C   UNL A   1      44.803  27.465  36.620  1.00  0.00     0.022 A 
BRANCH  70  73
ATOM     73  S   UNL A   1      42.406  26.296  37.260  1.00  0.00     0.127 S 
ATOM     74  O   UNL A   1      42.156  24.919  36.831  1.00  0.00    -0.237 OA
ATOM     75  O   UNL A   1      43.098  26.422  38.539  1.00  0.00    -0.237 OA
ATOM     76  O   UNL A   1      41.279  27.197  37.055  1.00  0.00    -0.744 OA
ENDBRANCH  70  73
ENDBRANCH  42  66
BRANCH  54  77
ATOM     77  C   UNL A   1      45.124  29.776  28.189  1.00  0.00     0.023 A 
ATOM     78  C   UNL A   1      45.738  28.581  27.763  1.00  0.00     0.012 A 
ATOM     79  C   UNL A   1      45.802  30.993  27.995  1.00  0.00     0.148 A 
ATOM     80  C   UNL A   1      47.009  28.596  27.183  1.00  0.00     0.002 A 
ATOM     81  C   UNL A   1      47.043  31.011  27.371  1.00  0.00     0.091 A 
ATOM     82  F   UNL A   1      45.208  32.125  28.405  1.00  0.00    -0.205 F 
ATOM     83  C   UNL A   1      47.656  29.813  26.974  1.00  0.00     0.022 A 
BRANCH  81  84
ATOM     84  S   UNL A   1      47.856  32.555  26.955  1.00  0.00     0.127 S 
ATOM     85  O   UNL A   1      46.922  33.147  26.000  1.00  0.00    -0.237 OA
ATOM     86  O   UNL A   1      47.922  33.239  28.249  1.00  0.00    -0.237 OA
ATOM     87  O   UNL A   1      49.159  32.184  26.417  1.00  0.00    -0.744 OA
ENDBRANCH  81  84
ENDBRANCH  54  77
ENDBRANCH  28  29
ENDBRANCH  20  23
ENDBRANCH  18  19
ENDBRANCH   1  18
TORSDOF 16
ENDMDL
MODEL 3
REMARK VINA RESULT:     -10.0      2.033      2.837
REMARK SMILES Cc1n[nH]c(CCC(=O)NCCCCNC(=O)c2ccc(-c3c4nc(c(-c5cccc(S(=O)(=O)[O-])c5F)c5ccc([nH]5)c(-c5cccc(S(=O)(=O)[O-])c5F)c5nc(c(-c6cccc(S(=O)(=O)[O-])c6F)c6ccc3[nH]6)C=C5)C=C4)cc2)c1C
REMARK SMILES IDX 13 1 12 2 11 3 10 4 8 5 9 6 7 8 6 9 5 10 1 11 2 12 3 13
REMARK SMILES IDX 81 14 4 15 82 16 14 18 15 19 16 20 17 22 18 23 19 24 80 25
REMARK SMILES IDX 20 26 79 27 21 28 22 29 23 30 73 31 24 32 78 33 72 34 74 35
REMARK SMILES IDX 25 36 77 37 71 38 70 39 26 41 58 42 38 43 57 44 39 45 42 46
REMARK SMILES IDX 56 47 75 48 40 49 41 50 55 52 76 53 43 54 27 55 28 56 36 57
REMARK SMILES IDX 29 58 31 59 37 60 30 61 32 62 33 63 34 64 35 65 59 66 60 67
REMARK SMILES IDX 68 68 61 69 63 70 69 71 62 72 64 73 65 74 66 75 67 76 44 77
REMARK SMILES IDX 45 78 53 79 46 80 48 81 54 82 47 83 49 84 50 85 51 86 52 87
REMARK H PARENT 10 7 4 17 15 21 74 40 42 51
REMARK Flexibility Score: inf
ROOT
ATOM      1  C   UNL A   1      34.883  34.706  28.074  1.00  0.00     0.023 C 
ENDROOT
BRANCH   1   2
ATOM      2  C   UNL A   1      34.140  35.997  28.448  1.00  0.00     0.023 C 
BRANCH   2   3
ATOM      3  C   UNL A   1      33.343  35.972  29.751  1.00  0.00     0.116 C 
BRANCH   3   4
ATOM      4  N   UNL A   1      33.442  37.236  30.468  1.00  0.00    -0.356 N 
ATOM      5  C   UNL A   1      33.223  37.538  31.779  1.00  0.00     0.220 C 
ATOM      6  O   UNL A   1      33.199  38.724  32.117  1.00  0.00    -0.275 OA
ATOM      7  H   UNL A   1      33.713  38.001  29.912  1.00  0.00     0.163 HD
BRANCH   5   8
ATOM      8  C   UNL A   1      33.033  36.447  32.816  1.00  0.00     0.106 C 
BRANCH   8   9
ATOM      9  C   UNL A   1      34.363  35.978  33.422  1.00  0.00     0.066 C 
BRANCH   9  10
ATOM     10  C   UNL A   1      34.733  34.606  32.961  1.00  0.00     0.039 A 
ATOM     11  C   UNL A   1      36.464  31.393  32.659  1.00  0.00     0.069 C 
ATOM     12  C   UNL A   1      35.601  32.599  32.600  1.00  0.00     0.062 A 
ATOM     13  N   UNL A   1      34.284  32.455  32.408  1.00  0.00    -0.181 NA
ATOM     14  C   UNL A   1      35.952  33.956  32.871  1.00  0.00    -0.007 A 
ATOM     15  N   UNL A   1      33.786  33.679  32.623  1.00  0.00    -0.282 N 
ATOM     16  C   UNL A   1      37.297  34.509  33.174  1.00  0.00     0.048 C 
ATOM     17  H   UNL A   1      32.828  33.892  32.546  1.00  0.00     0.190 HD
ENDBRANCH   9  10
ENDBRANCH   8   9
ENDBRANCH   5   8
ENDBRANCH   3   4
ENDBRANCH   2   3
ENDBRANCH   1   2
BRANCH   1  18
ATOM     18  C   UNL A   1      34.525  33.513  28.954  1.00  0.00     0.116 C 
BRANCH  18  19
ATOM     19  N   UNL A   1      34.103  32.342  28.177  1.00  0.00    -0.352 N 
ATOM     20  C   UNL A   1      34.813  31.179  27.914  1.00  0.00     0.251 C 
ATOM     21  H   UNL A   1      33.198  32.386  27.793  1.00  0.00     0.163 HD
ATOM     22  O   UNL A   1      34.486  30.404  27.041  1.00  0.00    -0.269 OA
BRANCH  20  23
ATOM     23  C   UNL A   1      36.009  30.938  28.740  1.00  0.00     0.039 A 
ATOM     24  C   UNL A   1      36.131  29.742  29.443  1.00  0.00     0.014 A 
ATOM     25  C   UNL A   1      37.088  31.799  28.561  1.00  0.00     0.014 A 
ATOM     26  C   UNL A   1      37.404  29.329  29.825  1.00  0.00     0.010 A 
ATOM     27  C   UNL A   1      38.356  31.325  28.830  1.00  0.00     0.010 A 
ATOM     28  C   UNL A   1      38.531  30.081  29.441  1.00  0.00    -0.014 A 
BRANCH  28  29
ATOM     29  C   UNL A   1      39.858  29.450  29.488  1.00  0.00     0.031 A 
ATOM     30  C   UNL A   1      40.430  29.243  30.855  1.00  0.00     0.074 A 
ATOM     31  C   UNL A   1      40.490  28.868  28.446  1.00  0.00     0.049 A 
ATOM     32  N   UNL A   1      41.422  29.878  31.391  1.00  0.00    -0.248 NA
ATOM     33  C   UNL A   1      39.758  28.312  31.773  1.00  0.00     0.031 C 
ATOM     34  C   UNL A   1      39.992  28.654  27.083  1.00  0.00     0.029 A 
ATOM     35  N   UNL A   1      41.691  28.217  28.434  1.00  0.00    -0.354 N 
ATOM     36  C   UNL A   1      41.656  29.258  32.619  1.00  0.00     0.074 A 
ATOM     37  C   UNL A   1      40.493  28.450  32.880  1.00  0.00     0.031 C 
ATOM     38  C   UNL A   1      40.740  27.710  26.474  1.00  0.00     0.029 A 
ATOM     39  C   UNL A   1      41.881  27.416  27.316  1.00  0.00     0.049 A 
ATOM     40  H   UNL A   1      42.359  28.306  29.152  1.00  0.00     0.167 HD
ATOM     41  C   UNL A   1      42.894  29.270  33.191  1.00  0.00     0.034 A 
ATOM     42  C   UNL A   1      42.906  26.568  27.083  1.00  0.00     0.034 A 
ATOM     43  C   UNL A   1      43.760  30.221  32.535  1.00  0.00     0.049 A 
ATOM     44  C   UNL A   1      44.050  27.036  27.893  1.00  0.00     0.074 A 
ATOM     45  C   UNL A   1      43.749  31.577  32.285  1.00  0.00     0.029 A 
ATOM     46  N   UNL A   1      44.705  29.684  31.697  1.00  0.00    -0.354 N 
ATOM     47  N   UNL A   1      44.668  28.164  27.683  1.00  0.00    -0.248 NA
ATOM     48  C   UNL A   1      44.331  26.397  29.168  1.00  0.00     0.031 C 
ATOM     49  C   UNL A   1      44.378  31.726  31.013  1.00  0.00     0.029 A 
ATOM     50  C   UNL A   1      44.781  30.461  30.576  1.00  0.00     0.049 A 
ATOM     51  H   UNL A   1      45.239  28.876  31.874  1.00  0.00     0.167 HD
ATOM     52  C   UNL A   1      45.034  28.595  28.948  1.00  0.00     0.074 A 
ATOM     53  C   UNL A   1      44.966  27.399  29.780  1.00  0.00     0.031 C 
ATOM     54  C   UNL A   1      45.055  29.927  29.257  1.00  0.00     0.034 A 
BRANCH  41  55
ATOM     55  C   UNL A   1      43.501  28.164  34.048  1.00  0.00     0.023 A 
ATOM     56  C   UNL A   1      44.093  28.559  35.276  1.00  0.00     0.012 A 
ATOM     57  C   UNL A   1      43.803  26.860  33.596  1.00  0.00     0.148 A 
ATOM     58  C   UNL A   1      45.014  27.751  35.952  1.00  0.00     0.002 A 
ATOM     59  C   UNL A   1      44.661  26.029  34.314  1.00  0.00     0.091 A 
ATOM     60  F   UNL A   1      43.375  26.444  32.404  1.00  0.00    -0.205 F 
ATOM     61  C   UNL A   1      45.300  26.484  35.470  1.00  0.00     0.022 A 
BRANCH  59  62
ATOM     62  S   UNL A   1      45.025  24.357  33.764  1.00  0.00     0.127 S 
ATOM     63  O   UNL A   1      46.112  23.987  34.664  1.00  0.00    -0.237 OA
ATOM     64  O   UNL A   1      43.753  23.677  34.009  1.00  0.00    -0.237 OA
ATOM     65  O   UNL A   1      45.371  24.482  32.352  1.00  0.00    -0.744 OA
ENDBRANCH  59  62
ENDBRANCH  41  55
BRANCH  42  66
ATOM     66  C   UNL A   1      42.952  25.329  26.281  1.00  0.00     0.023 A 
ATOM     67  C   UNL A   1      43.914  25.193  25.262  1.00  0.00     0.012 A 
ATOM     68  C   UNL A   1      42.235  24.180  26.684  1.00  0.00     0.148 A 
ATOM     69  C   UNL A   1      44.189  23.944  24.695  1.00  0.00     0.002 A 
ATOM     70  C   UNL A   1      42.506  22.941  26.111  1.00  0.00     0.091 A 
ATOM     71  F   UNL A   1      41.355  24.288  27.689  1.00  0.00    -0.205 F 
ATOM     72  C   UNL A   1      43.494  22.816  25.126  1.00  0.00     0.022 A 
BRANCH  70  73
ATOM     73  S   UNL A   1      41.657  21.444  26.631  1.00  0.00     0.127 S 
ATOM     74  O   UNL A   1      40.254  21.857  26.590  1.00  0.00    -0.237 OA
ATOM     75  O   UNL A   1      42.047  20.497  25.590  1.00  0.00    -0.237 OA
ATOM     76  O   UNL A   1      42.154  21.157  27.971  1.00  0.00    -0.744 OA
ENDBRANCH  70  73
ENDBRANCH  42  66
BRANCH  54  77
ATOM     77  C   UNL A   1      45.081  30.924  28.127  1.00  0.00     0.023 A 
ATOM     78  C   UNL A   1      43.909  31.378  27.490  1.00  0.00     0.012 A 
ATOM     79  C   UNL A   1      46.306  31.537  27.811  1.00  0.00     0.148 A 
ATOM     80  C   UNL A   1      43.962  32.400  26.538  1.00  0.00     0.002 A 
ATOM     81  C   UNL A   1      46.348  32.588  26.903  1.00  0.00     0.091 A 
ATOM     82  F   UNL A   1      47.416  31.096  28.424  1.00  0.00    -0.205 F 
ATOM     83  C   UNL A   1      45.179  33.015  26.255  1.00  0.00     0.022 A 
BRANCH  81  84
ATOM     84  S   UNL A   1      47.863  33.503  26.605  1.00  0.00     0.127 S 
ATOM     85  O   UNL A   1      47.481  34.379  25.500  1.00  0.00    -0.237 OA
ATOM     86  O   UNL A   1      48.077  34.187  27.882  1.00  0.00    -0.237 OA
ATOM     87  O   UNL A   1      48.876  32.501  26.295  1.00  0.00    -0.744 OA
ENDBRANCH  81  84
ENDBRANCH  54  77
ENDBRANCH  28  29
ENDBRANCH  20  23
ENDBRANCH  18  19
ENDBRANCH   1  18
TORSDOF 16
ENDMDL
