MODEL 1
REMARK VINA RESULT:     -14.0      0.000      0.000
REMARK SMILES O=C(NCCCCNC(=O)c1ccc(-c2c3nc(c(-c4cccc(S(=O)(=O)[O-])c4F)c4ccc([nH]4)c(-c4cccc(S(=O)(=O)[O-])c4F)c4nc(c(-c5cccc(S(=O)(=O)[O-])c5F)c5ccc2[nH]5)C=C4)C=C3)cc1)C1=Cc2cc(Cl)cc(-c3ccccc3)c2O[C@@H]1C(F)(F)F
REMARK SMILES IDX 6 1 5 2 4 3 3 4 1 5 2 6 74 8 75 9 90 10 76 11 89 12 77 13
REMARK SMILES IDX 88 14 78 15 81 16 79 17 80 18 91 19 92 20 93 21 94 22 82 23
REMARK SMILES IDX 83 24 87 25 84 26 86 27 85 28 7 29 8 30 9 31 10 33 11 34
REMARK SMILES IDX 12 35 73 36 13 37 72 38 14 39 15 40 16 41 66 42 17 43 71 44
REMARK SMILES IDX 65 45 67 46 18 47 70 48 64 49 63 50 19 52 51 53 31 54 50 55
REMARK SMILES IDX 32 56 35 57 49 58 68 59 33 60 34 61 48 63 69 64 36 65 20 66
REMARK SMILES IDX 21 67 29 68 22 69 24 70 30 71 23 72 25 73 26 74 27 75 28 76
REMARK SMILES IDX 52 77 53 78 61 79 54 80 56 81 62 82 55 83 57 84 58 85 59 86
REMARK SMILES IDX 60 87 37 88 38 89 46 90 39 91 41 92 47 93 40 94 42 95 43 96
REMARK SMILES IDX 44 97 45 98
REMARK H PARENT 3 7 8 32 67 51 35 62
REMARK Flexibility Score: inf
ROOT
ATOM      1  C   UNL A   1      35.783  20.965  25.267  1.00  0.00     0.023 C 
ENDROOT
BRANCH   1   2
ATOM      2  C   UNL A   1      34.767  21.482  26.284  1.00  0.00     0.023 C 
BRANCH   2   3
ATOM      3  C   UNL A   1      34.537  22.988  26.333  1.00  0.00     0.116 C 
BRANCH   3   4
ATOM      4  N   UNL A   1      33.214  23.427  26.750  1.00  0.00    -0.352 N 
ATOM      5  O   UNL A   1      31.425  24.776  26.922  1.00  0.00    -0.270 OA
ATOM      6  C   UNL A   1      32.601  24.640  26.585  1.00  0.00     0.251 C 
ATOM      7  H   UNL A   1      32.679  22.748  27.222  1.00  0.00     0.163 HD
BRANCH   6   8
ATOM      8  C   UNL A   1      33.274  25.815  25.944  1.00  0.00     0.067 C 
ATOM      9  C   UNL A   1      33.941  25.737  24.780  1.00  0.00     0.025 C 
ATOM     10  C   UNL A   1      32.565  27.118  26.253  1.00  0.00     0.314 C 
ATOM     11  C   UNL A   1      33.117  26.280  23.664  1.00  0.00     0.019 A 
ATOM     12  O   UNL A   1      31.608  27.425  25.203  1.00  0.00    -0.475 OA
ATOM     13  C   UNL A   1      33.409  25.845  22.368  1.00  0.00     0.032 A 
ATOM     14  C   UNL A   1      31.918  26.972  23.938  1.00  0.00     0.135 A 
ATOM     15  C   UNL A   1      32.462  26.015  21.366  1.00  0.00     0.042 A 
ATOM     16  C   UNL A   1      30.941  27.105  22.936  1.00  0.00     0.026 A 
ATOM     17  Cl  UNL A   1      32.754  25.352  19.807  1.00  0.00    -0.084 Cl
ATOM     18  C   UNL A   1      31.236  26.620  21.646  1.00  0.00     0.033 A 
BRANCH  10  19
ATOM     19  C   UNL A   1      33.537  28.285  26.506  1.00  0.00     0.429 C 
ATOM     20  F   UNL A   1      33.148  29.047  27.556  1.00  0.00    -0.167 F 
ATOM     21  F   UNL A   1      34.788  27.840  26.788  1.00  0.00    -0.167 F 
ATOM     22  F   UNL A   1      33.653  29.113  25.437  1.00  0.00    -0.167 F 
ENDBRANCH  10  19
BRANCH  16  23
ATOM     23  C   UNL A   1      29.567  27.550  23.215  1.00  0.00    -0.015 A 
ATOM     24  C   UNL A   1      28.646  26.665  23.804  1.00  0.00     0.009 A 
ATOM     25  C   UNL A   1      29.109  28.807  22.804  1.00  0.00     0.009 A 
ATOM     26  C   UNL A   1      27.297  27.001  23.924  1.00  0.00     0.001 A 
ATOM     27  C   UNL A   1      27.761  29.152  22.941  1.00  0.00     0.001 A 
ATOM     28  C   UNL A   1      26.853  28.243  23.483  1.00  0.00     0.000 A 
ENDBRANCH  16  23
ENDBRANCH   6   8
ENDBRANCH   3   4
ENDBRANCH   2   3
ENDBRANCH   1   2
BRANCH   1  29
ATOM     29  C   UNL A   1      37.156  21.637  25.221  1.00  0.00     0.116 C 
BRANCH  29  30
ATOM     30  N   UNL A   1      38.309  20.752  25.336  1.00  0.00    -0.352 N 
ATOM     31  C   UNL A   1      39.474  20.951  26.057  1.00  0.00     0.251 C 
ATOM     32  H   UNL A   1      38.252  19.905  24.836  1.00  0.00     0.163 HD
ATOM     33  O   UNL A   1      40.347  20.094  26.081  1.00  0.00    -0.269 OA
BRANCH  31  34
ATOM     34  C   UNL A   1      39.688  22.248  26.742  1.00  0.00     0.039 A 
ATOM     35  C   UNL A   1      40.692  22.330  27.712  1.00  0.00     0.014 A 
ATOM     36  C   UNL A   1      38.996  23.395  26.348  1.00  0.00     0.014 A 
ATOM     37  C   UNL A   1      41.101  23.582  28.178  1.00  0.00     0.010 A 
ATOM     38  C   UNL A   1      39.450  24.649  26.764  1.00  0.00     0.010 A 
ATOM     39  C   UNL A   1      40.538  24.756  27.646  1.00  0.00    -0.014 A 
BRANCH  39  40
ATOM     40  C   UNL A   1      41.175  26.080  27.888  1.00  0.00     0.031 A 
ATOM     41  C   UNL A   1      42.582  26.370  27.452  1.00  0.00     0.074 A 
ATOM     42  C   UNL A   1      40.505  26.999  28.616  1.00  0.00     0.049 A 
ATOM     43  N   UNL A   1      43.276  27.470  27.600  1.00  0.00    -0.248 NA
ATOM     44  C   UNL A   1      43.315  25.282  26.789  1.00  0.00     0.031 C 
ATOM     45  C   UNL A   1      39.176  26.806  29.202  1.00  0.00     0.029 A 
ATOM     46  N   UNL A   1      40.858  28.266  29.015  1.00  0.00    -0.354 N 
ATOM     47  C   UNL A   1      44.532  27.203  27.072  1.00  0.00     0.074 A 
ATOM     48  C   UNL A   1      44.515  25.825  26.627  1.00  0.00     0.031 C 
ATOM     49  C   UNL A   1      38.827  27.910  29.881  1.00  0.00     0.029 A 
ATOM     50  C   UNL A   1      39.910  28.884  29.799  1.00  0.00     0.049 A 
ATOM     51  H   UNL A   1      41.709  28.692  28.763  1.00  0.00     0.167 HD
ATOM     52  C   UNL A   1      45.593  28.036  26.940  1.00  0.00     0.034 A 
ATOM     53  C   UNL A   1      39.906  30.096  30.387  1.00  0.00     0.034 A 
ATOM     54  C   UNL A   1      45.599  29.418  27.345  1.00  0.00     0.049 A 
ATOM     55  C   UNL A   1      41.071  31.022  30.176  1.00  0.00     0.074 A 
ATOM     56  C   UNL A   1      46.583  30.369  27.140  1.00  0.00     0.029 A 
ATOM     57  N   UNL A   1      44.581  30.043  28.048  1.00  0.00    -0.354 N 
ATOM     58  N   UNL A   1      42.167  30.822  29.484  1.00  0.00    -0.248 NA
ATOM     59  C   UNL A   1      40.987  32.356  30.791  1.00  0.00     0.031 C 
ATOM     60  C   UNL A   1      46.168  31.565  27.737  1.00  0.00     0.029 A 
ATOM     61  C   UNL A   1      44.920  31.362  28.301  1.00  0.00     0.049 A 
ATOM     62  H   UNL A   1      43.741  29.612  28.328  1.00  0.00     0.167 HD
ATOM     63  C   UNL A   1      42.887  32.007  29.559  1.00  0.00     0.074 A 
ATOM     64  C   UNL A   1      42.094  32.932  30.342  1.00  0.00     0.031 C 
ATOM     65  C   UNL A   1      44.107  32.294  29.040  1.00  0.00     0.034 A 
BRANCH  52  66
ATOM     66  C   UNL A   1      46.823  27.495  26.260  1.00  0.00     0.023 A 
ATOM     67  C   UNL A   1      47.681  26.635  26.977  1.00  0.00     0.012 A 
ATOM     68  C   UNL A   1      47.096  27.776  24.908  1.00  0.00     0.148 A 
ATOM     69  C   UNL A   1      48.809  26.090  26.368  1.00  0.00     0.002 A 
ATOM     70  C   UNL A   1      48.203  27.198  24.297  1.00  0.00     0.091 A 
ATOM     71  F   UNL A   1      46.283  28.614  24.249  1.00  0.00    -0.205 F 
ATOM     72  C   UNL A   1      49.065  26.362  25.027  1.00  0.00     0.022 A 
BRANCH  70  73
ATOM     73  S   UNL A   1      48.574  27.436  22.555  1.00  0.00     0.127 S 
ATOM     74  O   UNL A   1      47.426  28.224  22.114  1.00  0.00    -0.237 OA
ATOM     75  O   UNL A   1      49.838  28.173  22.602  1.00  0.00    -0.237 OA
ATOM     76  O   UNL A   1      48.678  26.098  21.987  1.00  0.00    -0.744 OA
ENDBRANCH  70  73
ENDBRANCH  52  66
BRANCH  53  77
ATOM     77  C   UNL A   1      38.716  30.529  31.174  1.00  0.00     0.023 A 
ATOM     78  C   UNL A   1      38.698  30.323  32.568  1.00  0.00     0.012 A 
ATOM     79  C   UNL A   1      37.632  31.185  30.562  1.00  0.00     0.148 A 
ATOM     80  C   UNL A   1      37.611  30.742  33.334  1.00  0.00     0.002 A 
ATOM     81  C   UNL A   1      36.576  31.650  31.339  1.00  0.00     0.091 A 
ATOM     82  F   UNL A   1      37.660  31.357  29.232  1.00  0.00    -0.205 F 
ATOM     83  C   UNL A   1      36.557  31.417  32.722  1.00  0.00     0.022 A 
BRANCH  81  84
ATOM     84  S   UNL A   1      35.252  32.650  30.652  1.00  0.00     0.127 S 
ATOM     85  O   UNL A   1      34.816  31.835  29.521  1.00  0.00    -0.237 OA
ATOM     86  O   UNL A   1      34.307  32.714  31.767  1.00  0.00    -0.237 OA
ATOM     87  O   UNL A   1      35.865  33.930  30.318  1.00  0.00    -0.744 OA
ENDBRANCH  81  84
ENDBRANCH  53  77
BRANCH  65  88
ATOM     88  C   UNL A   1      44.667  33.670  29.289  1.00  0.00     0.023 A 
ATOM     89  C   UNL A   1      45.367  33.926  30.485  1.00  0.00     0.012 A 
ATOM     90  C   UNL A   1      44.575  34.680  28.312  1.00  0.00     0.148 A 
ATOM     91  C   UNL A   1      45.946  35.174  30.714  1.00  0.00     0.002 A 
ATOM     92  C   UNL A   1      45.191  35.908  28.530  1.00  0.00     0.091 A 
ATOM     93  F   UNL A   1      43.887  34.425  27.189  1.00  0.00    -0.205 F 
ATOM     94  C   UNL A   1      45.868  36.159  29.734  1.00  0.00     0.022 A 
BRANCH  92  95
ATOM     95  S   UNL A   1      45.218  37.206  27.287  1.00  0.00     0.127 S 
ATOM     96  O   UNL A   1      45.999  36.581  26.221  1.00  0.00    -0.237 OA
ATOM     97  O   UNL A   1      43.798  37.377  26.983  1.00  0.00    -0.237 OA
ATOM     98  O   UNL A   1      45.840  38.357  27.926  1.00  0.00    -0.744 OA
ENDBRANCH  92  95
ENDBRANCH  65  88
ENDBRANCH  39  40
ENDBRANCH  31  34
ENDBRANCH  29  30
ENDBRANCH   1  29
TORSDOF 16
ENDMDL
MODEL 2
REMARK VINA RESULT:     -13.9      0.539      7.318
REMARK SMILES O=C(NCCCCNC(=O)c1ccc(-c2c3nc(c(-c4cccc(S(=O)(=O)[O-])c4F)c4ccc([nH]4)c(-c4cccc(S(=O)(=O)[O-])c4F)c4nc(c(-c5cccc(S(=O)(=O)[O-])c5F)c5ccc2[nH]5)C=C4)C=C3)cc1)C1=Cc2cc(Cl)cc(-c3ccccc3)c2O[C@@H]1C(F)(F)F
REMARK SMILES IDX 6 1 5 2 4 3 3 4 1 5 2 6 74 8 75 9 90 10 76 11 89 12 77 13
REMARK SMILES IDX 88 14 78 15 81 16 79 17 80 18 91 19 92 20 93 21 94 22 82 23
REMARK SMILES IDX 83 24 87 25 84 26 86 27 85 28 7 29 8 30 9 31 10 33 11 34
REMARK SMILES IDX 12 35 73 36 13 37 72 38 14 39 15 40 16 41 66 42 17 43 71 44
REMARK SMILES IDX 65 45 67 46 18 47 70 48 64 49 63 50 19 52 51 53 31 54 50 55
REMARK SMILES IDX 32 56 35 57 49 58 68 59 33 60 34 61 48 63 69 64 36 65 20 66
REMARK SMILES IDX 21 67 29 68 22 69 24 70 30 71 23 72 25 73 26 74 27 75 28 76
REMARK SMILES IDX 52 77 53 78 61 79 54 80 56 81 62 82 55 83 57 84 58 85 59 86
REMARK SMILES IDX 60 87 37 88 38 89 46 90 39 91 41 92 47 93 40 94 42 95 43 96
REMARK SMILES IDX 44 97 45 98
REMARK H PARENT 3 7 8 32 67 51 35 62
REMARK Flexibility Score: inf
ROOT
ATOM      1  C   UNL A   1      35.804  21.005  25.283  1.00  0.00     0.023 C 
ENDROOT
BRANCH   1   2
ATOM      2  C   UNL A   1      34.844  21.476  26.373  1.00  0.00     0.023 C 
BRANCH   2   3
ATOM      3  C   UNL A   1      34.601  22.977  26.483  1.00  0.00     0.116 C 
BRANCH   3   4
ATOM      4  N   UNL A   1      33.248  23.388  26.824  1.00  0.00    -0.352 N 
ATOM      5  O   UNL A   1      31.418  24.693  26.875  1.00  0.00    -0.270 OA
ATOM      6  C   UNL A   1      32.613  24.581  26.600  1.00  0.00     0.251 C 
ATOM      7  H   UNL A   1      32.707  22.707  27.284  1.00  0.00     0.163 HD
BRANCH   6   8
ATOM      8  C   UNL A   1      33.286  25.759  25.967  1.00  0.00     0.067 C 
ATOM      9  C   UNL A   1      33.959  25.687  24.805  1.00  0.00     0.025 C 
ATOM     10  C   UNL A   1      32.575  27.060  26.277  1.00  0.00     0.314 C 
ATOM     11  C   UNL A   1      33.139  26.233  23.688  1.00  0.00     0.019 A 
ATOM     12  O   UNL A   1      31.622  27.370  25.225  1.00  0.00    -0.475 OA
ATOM     13  C   UNL A   1      33.437  25.803  22.391  1.00  0.00     0.032 A 
ATOM     14  C   UNL A   1      31.938  26.922  23.960  1.00  0.00     0.135 A 
ATOM     15  C   UNL A   1      32.493  25.976  21.386  1.00  0.00     0.042 A 
ATOM     16  C   UNL A   1      30.964  27.058  22.954  1.00  0.00     0.026 A 
ATOM     17  Cl  UNL A   1      32.793  25.319  19.826  1.00  0.00    -0.084 Cl
ATOM     18  C   UNL A   1      31.266  26.578  21.663  1.00  0.00     0.033 A 
BRANCH  10  19
ATOM     19  C   UNL A   1      33.545  28.228  26.539  1.00  0.00     0.429 C 
ATOM     20  F   UNL A   1      33.687  29.019  25.450  1.00  0.00    -0.167 F 
ATOM     21  F   UNL A   1      33.106  29.023  27.547  1.00  0.00    -0.167 F 
ATOM     22  F   UNL A   1      34.787  27.809  26.890  1.00  0.00    -0.167 F 
ENDBRANCH  10  19
BRANCH  16  23
ATOM     23  C   UNL A   1      29.589  27.500  23.228  1.00  0.00    -0.015 A 
ATOM     24  C   UNL A   1      28.674  26.619  23.834  1.00  0.00     0.009 A 
ATOM     25  C   UNL A   1      29.123  28.748  22.798  1.00  0.00     0.009 A 
ATOM     26  C   UNL A   1      27.324  26.950  23.952  1.00  0.00     0.001 A 
ATOM     27  C   UNL A   1      27.773  29.088  22.933  1.00  0.00     0.001 A 
ATOM     28  C   UNL A   1      26.872  28.182  23.492  1.00  0.00     0.000 A 
ENDBRANCH  16  23
ENDBRANCH   6   8
ENDBRANCH   3   4
ENDBRANCH   2   3
ENDBRANCH   1   2
BRANCH   1  29
ATOM     29  C   UNL A   1      37.207  21.614  25.250  1.00  0.00     0.116 C 
BRANCH  29  30
ATOM     30  N   UNL A   1      38.319  20.674  25.331  1.00  0.00    -0.352 N 
ATOM     31  C   UNL A   1      39.497  20.801  26.047  1.00  0.00     0.251 C 
ATOM     32  H   UNL A   1      38.219  19.844  24.810  1.00  0.00     0.163 HD
ATOM     33  O   UNL A   1      40.330  19.904  26.042  1.00  0.00    -0.269 OA
BRANCH  31  34
ATOM     34  C   UNL A   1      39.776  22.069  26.765  1.00  0.00     0.039 A 
ATOM     35  C   UNL A   1      40.845  22.101  27.665  1.00  0.00     0.014 A 
ATOM     36  C   UNL A   1      39.074  23.238  26.462  1.00  0.00     0.014 A 
ATOM     37  C   UNL A   1      41.303  23.331  28.147  1.00  0.00     0.010 A 
ATOM     38  C   UNL A   1      39.573  24.469  26.893  1.00  0.00     0.010 A 
ATOM     39  C   UNL A   1      40.720  24.530  27.701  1.00  0.00    -0.014 A 
BRANCH  39  40
ATOM     40  C   UNL A   1      41.390  25.837  27.947  1.00  0.00     0.031 A 
ATOM     41  C   UNL A   1      40.677  26.975  28.619  1.00  0.00     0.074 A 
ATOM     42  C   UNL A   1      42.632  26.032  27.453  1.00  0.00     0.049 A 
ATOM     43  N   UNL A   1      41.124  28.174  28.895  1.00  0.00    -0.248 NA
ATOM     44  C   UNL A   1      39.278  26.751  29.009  1.00  0.00     0.031 C 
ATOM     45  C   UNL A   1      43.396  25.052  26.678  1.00  0.00     0.029 A 
ATOM     46  N   UNL A   1      43.459  27.129  27.500  1.00  0.00    -0.354 N 
ATOM     47  C   UNL A   1      40.060  28.857  29.467  1.00  0.00     0.074 A 
ATOM     48  C   UNL A   1      38.933  27.946  29.472  1.00  0.00     0.031 C 
ATOM     49  C   UNL A   1      44.574  25.588  26.325  1.00  0.00     0.029 A 
ATOM     50  C   UNL A   1      44.647  26.955  26.828  1.00  0.00     0.049 A 
ATOM     51  H   UNL A   1      43.222  27.962  27.970  1.00  0.00     0.167 HD
ATOM     52  C   UNL A   1      40.029  30.114  29.972  1.00  0.00     0.034 A 
ATOM     53  C   UNL A   1      45.683  27.796  26.635  1.00  0.00     0.034 A 
ATOM     54  C   UNL A   1      41.159  31.006  30.005  1.00  0.00     0.049 A 
ATOM     55  C   UNL A   1      45.646  29.165  27.256  1.00  0.00     0.074 A 
ATOM     56  C   UNL A   1      41.254  32.250  30.604  1.00  0.00     0.029 A 
ATOM     57  N   UNL A   1      42.383  30.759  29.403  1.00  0.00    -0.354 N 
ATOM     58  N   UNL A   1      44.704  29.713  27.984  1.00  0.00    -0.248 NA
ATOM     59  C   UNL A   1      46.829  30.018  27.064  1.00  0.00     0.031 C 
ATOM     60  C   UNL A   1      42.531  32.763  30.349  1.00  0.00     0.029 A 
ATOM     61  C   UNL A   1      43.234  31.833  29.601  1.00  0.00     0.049 A 
ATOM     62  H   UNL A   1      42.612  29.941  28.907  1.00  0.00     0.167 HD
ATOM     63  C   UNL A   1      45.189  30.961  28.357  1.00  0.00     0.074 A 
ATOM     64  C   UNL A   1      46.519  31.079  27.797  1.00  0.00     0.031 C 
ATOM     65  C   UNL A   1      44.575  31.928  29.083  1.00  0.00     0.034 A 
BRANCH  52  66
ATOM     66  C   UNL A   1      38.744  30.579  30.603  1.00  0.00     0.023 A 
ATOM     67  C   UNL A   1      38.571  30.436  31.996  1.00  0.00     0.012 A 
ATOM     68  C   UNL A   1      37.743  31.214  29.844  1.00  0.00     0.148 A 
ATOM     69  C   UNL A   1      37.408  30.886  32.617  1.00  0.00     0.002 A 
ATOM     70  C   UNL A   1      36.602  31.694  30.477  1.00  0.00     0.091 A 
ATOM     71  F   UNL A   1      37.913  31.321  28.519  1.00  0.00    -0.205 F 
ATOM     72  C   UNL A   1      36.429  31.524  31.861  1.00  0.00     0.022 A 
BRANCH  70  73
ATOM     73  S   UNL A   1      35.318  32.591  29.596  1.00  0.00     0.127 S 
ATOM     74  O   UNL A   1      36.084  33.673  28.979  1.00  0.00    -0.237 OA
ATOM     75  O   UNL A   1      34.821  31.584  28.657  1.00  0.00    -0.237 OA
ATOM     76  O   UNL A   1      34.353  32.998  30.609  1.00  0.00    -0.744 OA
ENDBRANCH  70  73
ENDBRANCH  52  66
BRANCH  53  77
ATOM     77  C   UNL A   1      46.877  27.330  25.876  1.00  0.00     0.023 A 
ATOM     78  C   UNL A   1      47.770  26.424  26.482  1.00  0.00     0.012 A 
ATOM     79  C   UNL A   1      47.106  27.735  24.547  1.00  0.00     0.148 A 
ATOM     80  C   UNL A   1      48.882  25.949  25.786  1.00  0.00     0.002 A 
ATOM     81  C   UNL A   1      48.185  27.215  23.840  1.00  0.00     0.091 A 
ATOM     82  F   UNL A   1      46.255  28.611  23.993  1.00  0.00    -0.205 F 
ATOM     83  C   UNL A   1      49.082  26.334  24.463  1.00  0.00     0.022 A 
BRANCH  81  84
ATOM     84  S   UNL A   1      48.433  27.548  22.093  1.00  0.00     0.127 S 
ATOM     85  O   UNL A   1      49.580  28.451  22.119  1.00  0.00    -0.237 OA
ATOM     86  O   UNL A   1      48.710  26.212  21.564  1.00  0.00    -0.237 OA
ATOM     87  O   UNL A   1      47.178  28.124  21.626  1.00  0.00    -0.744 OA
ENDBRANCH  81  84
ENDBRANCH  53  77
BRANCH  65  88
ATOM     88  C   UNL A   1      45.334  33.206  29.330  1.00  0.00     0.023 A 
ATOM     89  C   UNL A   1      46.173  33.305  30.458  1.00  0.00     0.012 A 
ATOM     90  C   UNL A   1      45.283  34.271  28.410  1.00  0.00     0.148 A 
ATOM     91  C   UNL A   1      46.931  34.455  30.678  1.00  0.00     0.002 A 
ATOM     92  C   UNL A   1      46.074  35.396  28.614  1.00  0.00     0.091 A 
ATOM     93  F   UNL A   1      44.463  34.166  27.354  1.00  0.00    -0.205 F 
ATOM     94  C   UNL A   1      46.891  35.494  29.751  1.00  0.00     0.022 A 
BRANCH  92  95
ATOM     95  S   UNL A   1      46.153  36.745  27.429  1.00  0.00     0.127 S 
ATOM     96  O   UNL A   1      47.085  37.662  28.083  1.00  0.00    -0.237 OA
ATOM     97  O   UNL A   1      46.683  36.084  26.237  1.00  0.00    -0.237 OA
ATOM     98  O   UNL A   1      44.788  37.235  27.290  1.00  0.00    -0.744 OA
ENDBRANCH  92  95
ENDBRANCH  65  88
ENDBRANCH  39  40
ENDBRANCH  31  34
ENDBRANCH  29  30
ENDBRANCH   1  29
TORSDOF 16
ENDMDL
MODEL 3
REMARK VINA RESULT:     -13.9      5.145     10.142
REMARK SMILES O=C(NCCCCNC(=O)c1ccc(-c2c3nc(c(-c4cccc(S(=O)(=O)[O-])c4F)c4ccc([nH]4)c(-c4cccc(S(=O)(=O)[O-])c4F)c4nc(c(-c5cccc(S(=O)(=O)[O-])c5F)c5ccc2[nH]5)C=C4)C=C3)cc1)C1=Cc2cc(Cl)cc(-c3ccccc3)c2O[C@@H]1C(F)(F)F
REMARK SMILES IDX 6 1 5 2 4 3 3 4 1 5 2 6 74 8 75 9 90 10 76 11 89 12 77 13
REMARK SMILES IDX 88 14 78 15 81 16 79 17 80 18 91 19 92 20 93 21 94 22 82 23
REMARK SMILES IDX 83 24 87 25 84 26 86 27 85 28 7 29 8 30 9 31 10 33 11 34
REMARK SMILES IDX 12 35 73 36 13 37 72 38 14 39 15 40 16 41 66 42 17 43 71 44
REMARK SMILES IDX 65 45 67 46 18 47 70 48 64 49 63 50 19 52 51 53 31 54 50 55
REMARK SMILES IDX 32 56 35 57 49 58 68 59 33 60 34 61 48 63 69 64 36 65 20 66
REMARK SMILES IDX 21 67 29 68 22 69 24 70 30 71 23 72 25 73 26 74 27 75 28 76
REMARK SMILES IDX 52 77 53 78 61 79 54 80 56 81 62 82 55 83 57 84 58 85 59 86
REMARK SMILES IDX 60 87 37 88 38 89 46 90 39 91 41 92 47 93 40 94 42 95 43 96
REMARK SMILES IDX 44 97 45 98
REMARK H PARENT 3 7 8 32 67 51 35 62
REMARK Flexibility Score: inf
ROOT
ATOM      1  C   UNL A   1      31.436  29.710  25.035  1.00  0.00     0.023 C 
ENDROOT
BRANCH   1   2
ATOM      2  C   UNL A   1      31.923  28.873  23.854  1.00  0.00     0.023 C 
BRANCH   2   3
ATOM      3  C   UNL A   1      33.164  28.016  24.075  1.00  0.00     0.116 C 
BRANCH   3   4
ATOM      4  N   UNL A   1      33.443  27.010  23.062  1.00  0.00    -0.352 N 
ATOM      5  O   UNL A   1      33.988  24.999  22.217  1.00  0.00    -0.270 OA
ATOM      6  C   UNL A   1      33.921  25.735  23.203  1.00  0.00     0.251 C 
ATOM      7  H   UNL A   1      33.261  27.289  22.136  1.00  0.00     0.163 HD
BRANCH   6   8
ATOM      8  C   UNL A   1      34.311  25.149  24.525  1.00  0.00     0.067 C 
ATOM      9  C   UNL A   1      33.546  25.242  25.627  1.00  0.00     0.025 C 
ATOM     10  C   UNL A   1      35.158  23.902  24.371  1.00  0.00     0.314 C 
ATOM     11  C   UNL A   1      32.826  23.963  25.877  1.00  0.00     0.019 A 
ATOM     12  O   UNL A   1      34.313  22.721  24.392  1.00  0.00    -0.475 OA
ATOM     13  C   UNL A   1      31.653  24.013  26.636  1.00  0.00     0.032 A 
ATOM     14  C   UNL A   1      33.156  22.806  25.139  1.00  0.00     0.135 A 
ATOM     15  C   UNL A   1      30.764  22.947  26.581  1.00  0.00     0.042 A 
ATOM     16  C   UNL A   1      32.238  21.745  25.049  1.00  0.00     0.026 A 
ATOM     17  Cl  UNL A   1      29.254  23.067  27.394  1.00  0.00    -0.084 Cl
ATOM     18  C   UNL A   1      31.039  21.835  25.786  1.00  0.00     0.033 A 
BRANCH  10  19
ATOM     19  C   UNL A   1      36.295  23.817  25.407  1.00  0.00     0.429 C 
ATOM     20  F   UNL A   1      36.000  22.956  26.409  1.00  0.00    -0.167 F 
ATOM     21  F   UNL A   1      37.450  23.382  24.844  1.00  0.00    -0.167 F 
ATOM     22  F   UNL A   1      36.571  25.015  25.981  1.00  0.00    -0.167 F 
ENDBRANCH  10  19
BRANCH  16  23
ATOM     23  C   UNL A   1      32.380  20.647  24.082  1.00  0.00    -0.015 A 
ATOM     24  C   UNL A   1      32.046  20.850  22.730  1.00  0.00     0.009 A 
ATOM     25  C   UNL A   1      32.733  19.355  24.491  1.00  0.00     0.009 A 
ATOM     26  C   UNL A   1      32.008  19.787  21.828  1.00  0.00     0.001 A 
ATOM     27  C   UNL A   1      32.714  18.292  23.582  1.00  0.00     0.001 A 
ATOM     28  C   UNL A   1      32.334  18.505  22.258  1.00  0.00     0.000 A 
ENDBRANCH  16  23
ENDBRANCH   6   8
ENDBRANCH   3   4
ENDBRANCH   2   3
ENDBRANCH   1   2
BRANCH   1  29
ATOM     29  C   UNL A   1      32.446  30.070  26.124  1.00  0.00     0.116 C 
BRANCH  29  30
ATOM     30  N   UNL A   1      32.279  31.376  26.752  1.00  0.00    -0.352 N 
ATOM     31  C   UNL A   1      33.221  32.124  27.438  1.00  0.00     0.251 C 
ATOM     32  H   UNL A   1      31.382  31.776  26.678  1.00  0.00     0.163 HD
ATOM     33  O   UNL A   1      32.936  33.227  27.884  1.00  0.00    -0.269 OA
BRANCH  31  34
ATOM     34  C   UNL A   1      34.562  31.543  27.693  1.00  0.00     0.039 A 
ATOM     35  C   UNL A   1      35.635  32.415  27.903  1.00  0.00     0.014 A 
ATOM     36  C   UNL A   1      34.734  30.165  27.844  1.00  0.00     0.014 A 
ATOM     37  C   UNL A   1      36.838  31.916  28.409  1.00  0.00     0.010 A 
ATOM     38  C   UNL A   1      35.914  29.679  28.411  1.00  0.00     0.010 A 
ATOM     39  C   UNL A   1      36.959  30.556  28.743  1.00  0.00    -0.014 A 
BRANCH  39  40
ATOM     40  C   UNL A   1      38.102  30.076  29.569  1.00  0.00     0.031 A 
ATOM     41  C   UNL A   1      38.332  30.579  30.965  1.00  0.00     0.074 A 
ATOM     42  C   UNL A   1      39.012  29.255  29.003  1.00  0.00     0.049 A 
ATOM     43  N   UNL A   1      39.285  30.263  31.804  1.00  0.00    -0.248 NA
ATOM     44  C   UNL A   1      37.387  31.582  31.479  1.00  0.00     0.031 C 
ATOM     45  C   UNL A   1      38.975  28.781  27.617  1.00  0.00     0.029 A 
ATOM     46  N   UNL A   1      40.161  28.696  29.509  1.00  0.00    -0.354 N 
ATOM     47  C   UNL A   1      39.075  31.041  32.934  1.00  0.00     0.074 A 
ATOM     48  C   UNL A   1      37.917  31.869  32.662  1.00  0.00     0.031 C 
ATOM     49  C   UNL A   1      40.046  28.006  27.385  1.00  0.00     0.029 A 
ATOM     50  C   UNL A   1      40.858  27.940  28.595  1.00  0.00     0.049 A 
ATOM     51  H   UNL A   1      40.457  28.824  30.440  1.00  0.00     0.167 HD
ATOM     52  C   UNL A   1      39.760  31.046  34.103  1.00  0.00     0.034 A 
ATOM     53  C   UNL A   1      42.020  27.267  28.710  1.00  0.00     0.034 A 
ATOM     54  C   UNL A   1      40.885  30.195  34.390  1.00  0.00     0.049 A 
ATOM     55  C   UNL A   1      42.729  27.241  30.036  1.00  0.00     0.074 A 
ATOM     56  C   UNL A   1      41.565  30.044  35.586  1.00  0.00     0.029 A 
ATOM     57  N   UNL A   1      41.507  29.364  33.471  1.00  0.00    -0.354 N 
ATOM     58  N   UNL A   1      42.389  27.819  31.162  1.00  0.00    -0.248 NA
ATOM     59  C   UNL A   1      43.961  26.441  30.120  1.00  0.00     0.031 C 
ATOM     60  C   UNL A   1      42.610  29.135  35.386  1.00  0.00     0.029 A 
ATOM     61  C   UNL A   1      42.573  28.710  34.068  1.00  0.00     0.049 A 
ATOM     62  H   UNL A   1      41.232  29.256  32.532  1.00  0.00     0.167 HD
ATOM     63  C   UNL A   1      43.346  27.434  32.093  1.00  0.00     0.074 A 
ATOM     64  C   UNL A   1      44.267  26.551  31.407  1.00  0.00     0.031 C 
ATOM     65  C   UNL A   1      43.459  27.796  33.395  1.00  0.00     0.034 A 
BRANCH  52  66
ATOM     66  C   UNL A   1      39.264  31.954  35.197  1.00  0.00     0.023 A 
ATOM     67  C   UNL A   1      38.310  31.465  36.114  1.00  0.00     0.012 A 
ATOM     68  C   UNL A   1      39.782  33.252  35.362  1.00  0.00     0.148 A 
ATOM     69  C   UNL A   1      37.854  32.267  37.159  1.00  0.00     0.002 A 
ATOM     70  C   UNL A   1      39.350  34.032  36.429  1.00  0.00     0.091 A 
ATOM     71  F   UNL A   1      40.670  33.708  34.467  1.00  0.00    -0.205 F 
ATOM     72  C   UNL A   1      38.381  33.545  37.323  1.00  0.00     0.022 A 
BRANCH  70  73
ATOM     73  S   UNL A   1      40.022  35.665  36.761  1.00  0.00     0.127 S 
ATOM     74  O   UNL A   1      41.456  35.386  36.826  1.00  0.00    -0.237 OA
ATOM     75  O   UNL A   1      39.602  36.422  35.581  1.00  0.00    -0.237 OA
ATOM     76  O   UNL A   1      39.406  36.102  38.006  1.00  0.00    -0.744 OA
ENDBRANCH  70  73
ENDBRANCH  52  66
BRANCH  53  77
ATOM     77  C   UNL A   1      42.544  26.497  27.546  1.00  0.00     0.023 A 
ATOM     78  C   UNL A   1      43.430  27.122  26.647  1.00  0.00     0.012 A 
ATOM     79  C   UNL A   1      42.212  25.143  27.353  1.00  0.00     0.148 A 
ATOM     80  C   UNL A   1      43.958  26.419  25.565  1.00  0.00     0.002 A 
ATOM     81  C   UNL A   1      42.785  24.432  26.305  1.00  0.00     0.091 A 
ATOM     82  F   UNL A   1      41.354  24.569  28.210  1.00  0.00    -0.205 F 
ATOM     83  C   UNL A   1      43.646  25.072  25.401  1.00  0.00     0.022 A 
BRANCH  81  84
ATOM     84  S   UNL A   1      42.547  22.662  26.107  1.00  0.00     0.127 S 
ATOM     85  O   UNL A   1      43.272  22.399  24.867  1.00  0.00    -0.237 OA
ATOM     86  O   UNL A   1      43.179  22.132  27.316  1.00  0.00    -0.237 OA
ATOM     87  O   UNL A   1      41.103  22.468  26.057  1.00  0.00    -0.744 OA
ENDBRANCH  81  84
ENDBRANCH  53  77
BRANCH  65  88
ATOM     88  C   UNL A   1      44.616  27.235  34.179  1.00  0.00     0.023 A 
ATOM     89  C   UNL A   1      45.849  27.918  34.178  1.00  0.00     0.012 A 
ATOM     90  C   UNL A   1      44.464  26.085  34.978  1.00  0.00     0.148 A 
ATOM     91  C   UNL A   1      46.918  27.451  34.942  1.00  0.00     0.002 A 
ATOM     92  C   UNL A   1      45.521  25.651  35.770  1.00  0.00     0.091 A 
ATOM     93  F   UNL A   1      43.290  25.437  34.951  1.00  0.00    -0.205 F 
ATOM     94  C   UNL A   1      46.751  26.327  35.746  1.00  0.00     0.022 A 
BRANCH  92  95
ATOM     95  S   UNL A   1      45.369  24.264  36.903  1.00  0.00     0.127 S 
ATOM     96  O   UNL A   1      45.048  23.168  35.991  1.00  0.00    -0.237 OA
ATOM     97  O   UNL A   1      46.706  24.195  37.493  1.00  0.00    -0.237 OA
ATOM     98  O   UNL A   1      44.315  24.628  37.840  1.00  0.00    -0.744 OA
ENDBRANCH  92  95
ENDBRANCH  65  88
ENDBRANCH  39  40
ENDBRANCH  31  34
ENDBRANCH  29  30
ENDBRANCH   1  29
TORSDOF 16
ENDMDL
