MODEL 1
REMARK VINA RESULT:     -11.1      0.000      0.000
REMARK SMILES [NH3+][C@H](Cn1nnc2ccccc21)C(=O)NCCCCNC(=O)c1ccc(-c2c3nc(c(-c4cccc(S(=O)(=O)[O-])c4F)c4ccc([nH]4)c(-c4cccc(S(=O)(=O)[O-])c4F)c4nc(c(-c5cccc(S(=O)(=O)[O-])c5F)c5ccc2[nH]5)C=C4)C=C3)cc1
REMARK SMILES IDX 18 1 17 2 16 3 15 4 13 5 14 6 2 8 1 9 3 13 4 14 5 15 12 16
REMARK SMILES IDX 6 17 7 18 11 19 8 20 10 21 9 22 19 23 20 24 21 25 22 27
REMARK SMILES IDX 23 28 24 29 85 30 25 31 84 32 26 33 27 34 28 35 78 36 29 37
REMARK SMILES IDX 83 38 77 39 79 40 30 41 82 42 76 43 75 44 31 46 63 47 43 48
REMARK SMILES IDX 62 49 44 50 47 51 61 52 80 53 45 54 46 55 60 57 81 58 48 59
REMARK SMILES IDX 32 60 33 61 41 62 34 63 36 64 42 65 35 66 37 67 38 68 39 69
REMARK SMILES IDX 40 70 64 71 65 72 73 73 66 74 68 75 74 76 67 77 69 78 70 79
REMARK SMILES IDX 71 80 72 81 49 82 50 83 58 84 51 85 53 86 59 87 52 88 54 89
REMARK SMILES IDX 55 90 56 91 57 92
REMARK H PARENT 15 7 1 10 1 11 1 12 20 26 79 45 47 56
REMARK Flexibility Score: inf
ROOT
ATOM      1  C   UNL A   1      41.504  20.757  27.353  1.00  0.00     0.023 C 
ENDROOT
BRANCH   1   2
ATOM      2  C   UNL A   1      41.521  19.634  26.299  1.00  0.00     0.023 C 
BRANCH   2   3
ATOM      3  C   UNL A   1      42.863  18.915  26.205  1.00  0.00     0.116 C 
BRANCH   3   4
ATOM      4  N   UNL A   1      43.559  19.008  24.928  1.00  0.00    -0.351 N 
ATOM      5  C   UNL A   1      44.931  19.195  24.905  1.00  0.00     0.280 C 
ATOM      6  O   UNL A   1      45.653  18.195  24.875  1.00  0.00    -0.268 OA
ATOM      7  H   UNL A   1      43.057  18.939  24.085  1.00  0.00     0.163 HD
BRANCH   5   8
ATOM      8  C   UNL A   1      45.483  20.636  24.677  1.00  0.00     0.292 C 
BRANCH   8   9
ATOM      9  N   UNL A   1      46.834  20.641  24.051  1.00  0.00    -0.346 N 
ATOM     10  H   UNL A   1      47.203  21.592  24.046  1.00  0.00     0.345 HD
ATOM     11  H   UNL A   1      46.766  20.298  23.093  1.00  0.00     0.345 HD
ATOM     12  H   UNL A   1      47.459  20.037  24.585  1.00  0.00     0.345 HD
ENDBRANCH   8   9
BRANCH   8  13
ATOM     13  C   UNL A   1      45.354  21.634  25.823  1.00  0.00     0.222 C 
BRANCH  13  14
ATOM     14  N   UNL A   1      45.877  22.980  25.719  1.00  0.00    -0.238 N 
ATOM     15  N   UNL A   1      46.054  23.430  24.454  1.00  0.00    -0.066 NA
ATOM     16  C   UNL A   1      45.934  24.021  26.620  1.00  0.00     0.089 A 
ATOM     17  N   UNL A   1      45.982  24.750  24.480  1.00  0.00    -0.130 NA
ATOM     18  C   UNL A   1      45.860  25.137  25.781  1.00  0.00     0.113 A 
ATOM     19  C   UNL A   1      45.860  24.149  28.018  1.00  0.00     0.030 A 
ATOM     20  C   UNL A   1      45.608  26.403  26.325  1.00  0.00     0.032 A 
ATOM     21  C   UNL A   1      45.563  25.414  28.538  1.00  0.00     0.002 A 
ATOM     22  C   UNL A   1      45.414  26.519  27.705  1.00  0.00     0.002 A 
ENDBRANCH  13  14
ENDBRANCH   8  13
ENDBRANCH   5   8
ENDBRANCH   3   4
ENDBRANCH   2   3
ENDBRANCH   1   2
BRANCH   1  23
ATOM     23  C   UNL A   1      40.402  21.819  27.218  1.00  0.00     0.116 C 
BRANCH  23  24
ATOM     24  N   UNL A   1      40.670  22.822  26.206  1.00  0.00    -0.352 N 
ATOM     25  C   UNL A   1      41.627  23.815  26.321  1.00  0.00     0.251 C 
ATOM     26  H   UNL A   1      40.134  22.795  25.380  1.00  0.00     0.163 HD
ATOM     27  O   UNL A   1      42.592  23.865  25.567  1.00  0.00    -0.269 OA
BRANCH  25  28
ATOM     28  C   UNL A   1      41.238  24.983  27.142  1.00  0.00     0.039 A 
ATOM     29  C   UNL A   1      40.482  26.001  26.578  1.00  0.00     0.014 A 
ATOM     30  C   UNL A   1      41.899  25.176  28.367  1.00  0.00     0.014 A 
ATOM     31  C   UNL A   1      40.610  27.270  27.081  1.00  0.00     0.010 A 
ATOM     32  C   UNL A   1      41.950  26.446  28.929  1.00  0.00     0.010 A 
ATOM     33  C   UNL A   1      41.380  27.503  28.229  1.00  0.00    -0.014 A 
BRANCH  33  34
ATOM     34  C   UNL A   1      41.394  28.889  28.679  1.00  0.00     0.031 A 
ATOM     35  C   UNL A   1      42.626  29.593  28.233  1.00  0.00     0.074 A 
ATOM     36  C   UNL A   1      40.444  29.473  29.433  1.00  0.00     0.049 A 
ATOM     37  N   UNL A   1      43.634  29.941  28.965  1.00  0.00    -0.248 NA
ATOM     38  C   UNL A   1      42.874  29.671  26.784  1.00  0.00     0.031 C 
ATOM     39  C   UNL A   1      39.097  28.978  29.722  1.00  0.00     0.029 A 
ATOM     40  N   UNL A   1      40.446  30.713  30.003  1.00  0.00    -0.354 N 
ATOM     41  C   UNL A   1      44.540  30.511  28.078  1.00  0.00     0.074 A 
ATOM     42  C   UNL A   1      44.124  30.133  26.753  1.00  0.00     0.031 C 
ATOM     43  C   UNL A   1      38.334  30.007  30.155  1.00  0.00     0.029 A 
ATOM     44  C   UNL A   1      39.174  31.180  30.322  1.00  0.00     0.049 A 
ATOM     45  H   UNL A   1      41.268  31.228  30.173  1.00  0.00     0.167 HD
ATOM     46  C   UNL A   1      45.367  31.514  28.475  1.00  0.00     0.034 A 
ATOM     47  C   UNL A   1      38.852  32.465  30.604  1.00  0.00     0.034 A 
ATOM     48  C   UNL A   1      45.456  31.609  29.902  1.00  0.00     0.049 A 
ATOM     49  C   UNL A   1      40.084  33.124  31.092  1.00  0.00     0.074 A 
ATOM     50  C   UNL A   1      46.126  30.971  30.921  1.00  0.00     0.029 A 
ATOM     51  N   UNL A   1      44.409  32.294  30.459  1.00  0.00    -0.354 N 
ATOM     52  N   UNL A   1      40.684  32.795  32.202  1.00  0.00    -0.248 NA
ATOM     53  C   UNL A   1      40.849  33.985  30.194  1.00  0.00     0.031 C 
ATOM     54  C   UNL A   1      45.348  31.178  32.100  1.00  0.00     0.029 A 
ATOM     55  C   UNL A   1      44.242  31.960  31.773  1.00  0.00     0.049 A 
ATOM     56  H   UNL A   1      43.850  32.943  29.975  1.00  0.00     0.167 HD
ATOM     57  C   UNL A   1      42.019  33.034  31.939  1.00  0.00     0.074 A 
ATOM     58  C   UNL A   1      42.040  33.934  30.794  1.00  0.00     0.031 C 
ATOM     59  C   UNL A   1      42.988  32.221  32.439  1.00  0.00     0.034 A 
BRANCH  46  60
ATOM     60  C   UNL A   1      45.663  32.702  27.597  1.00  0.00     0.023 A 
ATOM     61  C   UNL A   1      44.610  33.278  26.861  1.00  0.00     0.012 A 
ATOM     62  C   UNL A   1      46.979  33.092  27.254  1.00  0.00     0.148 A 
ATOM     63  C   UNL A   1      44.860  34.216  25.851  1.00  0.00     0.002 A 
ATOM     64  C   UNL A   1      47.218  34.086  26.318  1.00  0.00     0.091 A 
ATOM     65  F   UNL A   1      48.020  32.394  27.723  1.00  0.00    -0.205 F 
ATOM     66  C   UNL A   1      46.162  34.639  25.595  1.00  0.00     0.022 A 
BRANCH  64  67
ATOM     67  S   UNL A   1      48.879  34.685  25.998  1.00  0.00     0.127 S 
ATOM     68  O   UNL A   1      49.511  33.505  25.420  1.00  0.00    -0.237 OA
ATOM     69  O   UNL A   1      48.627  35.780  25.063  1.00  0.00    -0.237 OA
ATOM     70  O   UNL A   1      49.387  35.120  27.298  1.00  0.00    -0.744 OA
ENDBRANCH  64  67
ENDBRANCH  46  60
BRANCH  47  71
ATOM     71  C   UNL A   1      37.660  33.263  30.218  1.00  0.00     0.023 A 
ATOM     72  C   UNL A   1      37.281  33.290  28.857  1.00  0.00     0.012 A 
ATOM     73  C   UNL A   1      36.719  33.701  31.175  1.00  0.00     0.148 A 
ATOM     74  C   UNL A   1      35.983  33.638  28.472  1.00  0.00     0.002 A 
ATOM     75  C   UNL A   1      35.430  34.058  30.784  1.00  0.00     0.091 A 
ATOM     76  F   UNL A   1      37.044  33.672  32.472  1.00  0.00    -0.205 F 
ATOM     77  C   UNL A   1      35.051  34.002  29.438  1.00  0.00     0.022 A 
BRANCH  75  78
ATOM     78  S   UNL A   1      34.174  34.535  31.979  1.00  0.00     0.127 S 
ATOM     79  O   UNL A   1      33.936  33.278  32.690  1.00  0.00    -0.237 OA
ATOM     80  O   UNL A   1      34.868  35.556  32.757  1.00  0.00    -0.237 OA
ATOM     81  O   UNL A   1      33.038  34.996  31.191  1.00  0.00    -0.744 OA
ENDBRANCH  75  78
ENDBRANCH  47  71
BRANCH  59  82
ATOM     82  C   UNL A   1      42.660  31.417  33.657  1.00  0.00     0.023 A 
ATOM     83  C   UNL A   1      42.539  31.984  34.941  1.00  0.00     0.012 A 
ATOM     84  C   UNL A   1      42.352  30.062  33.466  1.00  0.00     0.148 A 
ATOM     85  C   UNL A   1      42.113  31.201  36.019  1.00  0.00     0.002 A 
ATOM     86  C   UNL A   1      41.896  29.299  34.529  1.00  0.00     0.091 A 
ATOM     87  F   UNL A   1      42.481  29.555  32.231  1.00  0.00    -0.205 F 
ATOM     88  C   UNL A   1      41.779  29.863  35.810  1.00  0.00     0.022 A 
BRANCH  86  89
ATOM     89  S   UNL A   1      41.357  27.603  34.306  1.00  0.00     0.127 S 
ATOM     90  O   UNL A   1      42.520  26.993  33.664  1.00  0.00    -0.237 OA
ATOM     91  O   UNL A   1      41.122  27.172  35.685  1.00  0.00    -0.237 OA
ATOM     92  O   UNL A   1      40.155  27.663  33.484  1.00  0.00    -0.744 OA
ENDBRANCH  86  89
ENDBRANCH  59  82
ENDBRANCH  33  34
ENDBRANCH  25  28
ENDBRANCH  23  24
ENDBRANCH   1  23
TORSDOF 17
ENDMDL
MODEL 2
REMARK VINA RESULT:     -10.9      4.418     10.880
REMARK SMILES [NH3+][C@H](Cn1nnc2ccccc21)C(=O)NCCCCNC(=O)c1ccc(-c2c3nc(c(-c4cccc(S(=O)(=O)[O-])c4F)c4ccc([nH]4)c(-c4cccc(S(=O)(=O)[O-])c4F)c4nc(c(-c5cccc(S(=O)(=O)[O-])c5F)c5ccc2[nH]5)C=C4)C=C3)cc1
REMARK SMILES IDX 18 1 17 2 16 3 15 4 13 5 14 6 2 8 1 9 3 13 4 14 5 15 12 16
REMARK SMILES IDX 6 17 7 18 11 19 8 20 10 21 9 22 19 23 20 24 21 25 22 27
REMARK SMILES IDX 23 28 24 29 85 30 25 31 84 32 26 33 27 34 28 35 78 36 29 37
REMARK SMILES IDX 83 38 77 39 79 40 30 41 82 42 76 43 75 44 31 46 63 47 43 48
REMARK SMILES IDX 62 49 44 50 47 51 61 52 80 53 45 54 46 55 60 57 81 58 48 59
REMARK SMILES IDX 32 60 33 61 41 62 34 63 36 64 42 65 35 66 37 67 38 68 39 69
REMARK SMILES IDX 40 70 64 71 65 72 73 73 66 74 68 75 74 76 67 77 69 78 70 79
REMARK SMILES IDX 71 80 72 81 49 82 50 83 58 84 51 85 53 86 59 87 52 88 54 89
REMARK SMILES IDX 55 90 56 91 57 92
REMARK H PARENT 15 7 1 10 1 11 1 12 20 26 79 45 47 56
REMARK Flexibility Score: inf
ROOT
ATOM      1  C   UNL A   1      34.711  29.867  27.221  1.00  0.00     0.023 C 
ENDROOT
BRANCH   1   2
ATOM      2  C   UNL A   1      33.359  29.287  26.765  1.00  0.00     0.023 C 
BRANCH   2   3
ATOM      3  C   UNL A   1      32.279  30.348  26.581  1.00  0.00     0.116 C 
BRANCH   3   4
ATOM      4  N   UNL A   1      31.497  30.268  25.353  1.00  0.00    -0.351 N 
ATOM      5  C   UNL A   1      31.619  29.162  24.530  1.00  0.00     0.280 C 
ATOM      6  O   UNL A   1      30.852  28.213  24.715  1.00  0.00    -0.268 OA
ATOM      7  H   UNL A   1      30.885  30.999  25.108  1.00  0.00     0.163 HD
BRANCH   5   8
ATOM      8  C   UNL A   1      32.542  29.263  23.276  1.00  0.00     0.292 C 
BRANCH   8   9
ATOM      9  N   UNL A   1      31.774  29.380  22.006  1.00  0.00    -0.346 N 
ATOM     10  H   UNL A   1      30.889  28.879  22.096  1.00  0.00     0.345 HD
ATOM     11  H   UNL A   1      32.317  28.976  21.243  1.00  0.00     0.345 HD
ATOM     12  H   UNL A   1      31.589  30.364  21.809  1.00  0.00     0.345 HD
ENDBRANCH   8   9
BRANCH   8  13
ATOM     13  C   UNL A   1      33.712  28.289  23.177  1.00  0.00     0.222 C 
BRANCH  13  14
ATOM     14  N   UNL A   1      33.504  26.864  23.036  1.00  0.00    -0.238 N 
ATOM     15  N   UNL A   1      33.303  26.438  21.766  1.00  0.00    -0.066 NA
ATOM     16  C   UNL A   1      33.782  25.802  23.868  1.00  0.00     0.089 A 
ATOM     17  N   UNL A   1      33.678  25.172  21.699  1.00  0.00    -0.130 NA
ATOM     18  C   UNL A   1      34.021  24.771  22.956  1.00  0.00     0.113 A 
ATOM     19  C   UNL A   1      34.030  25.637  25.242  1.00  0.00     0.030 A 
ATOM     20  C   UNL A   1      34.613  23.578  23.390  1.00  0.00     0.032 A 
ATOM     21  C   UNL A   1      34.663  24.456  25.649  1.00  0.00     0.002 A 
ATOM     22  C   UNL A   1      34.973  23.453  24.736  1.00  0.00     0.002 A 
ENDBRANCH  13  14
ENDBRANCH   8  13
ENDBRANCH   5   8
ENDBRANCH   3   4
ENDBRANCH   2   3
ENDBRANCH   1   2
BRANCH   1  23
ATOM     23  C   UNL A   1      34.716  31.328  27.693  1.00  0.00     0.116 C 
BRANCH  23  24
ATOM     24  N   UNL A   1      34.561  31.487  29.126  1.00  0.00    -0.352 N 
ATOM     25  C   UNL A   1      35.460  32.151  29.942  1.00  0.00     0.251 C 
ATOM     26  H   UNL A   1      33.760  31.097  29.546  1.00  0.00     0.163 HD
ATOM     27  O   UNL A   1      35.146  33.173  30.543  1.00  0.00    -0.269 OA
BRANCH  25  28
ATOM     28  C   UNL A   1      36.663  31.379  30.324  1.00  0.00     0.039 A 
ATOM     29  C   UNL A   1      37.917  31.964  30.226  1.00  0.00     0.014 A 
ATOM     30  C   UNL A   1      36.531  29.989  30.478  1.00  0.00     0.014 A 
ATOM     31  C   UNL A   1      39.003  31.157  30.005  1.00  0.00     0.010 A 
ATOM     32  C   UNL A   1      37.649  29.173  30.349  1.00  0.00     0.010 A 
ATOM     33  C   UNL A   1      38.864  29.762  30.020  1.00  0.00    -0.014 A 
BRANCH  33  34
ATOM     34  C   UNL A   1      40.106  29.027  29.815  1.00  0.00     0.031 A 
ATOM     35  C   UNL A   1      40.826  28.810  31.098  1.00  0.00     0.074 A 
ATOM     36  C   UNL A   1      40.580  28.615  28.625  1.00  0.00     0.049 A 
ATOM     37  N   UNL A   1      41.907  29.400  31.496  1.00  0.00    -0.248 NA
ATOM     38  C   UNL A   1      40.122  28.063  32.153  1.00  0.00     0.031 C 
ATOM     39  C   UNL A   1      39.866  28.547  27.349  1.00  0.00     0.029 A 
ATOM     40  N   UNL A   1      41.786  28.045  28.336  1.00  0.00    -0.354 N 
ATOM     41  C   UNL A   1      42.143  28.895  32.769  1.00  0.00     0.074 A 
ATOM     42  C   UNL A   1      40.927  28.255  33.198  1.00  0.00     0.031 C 
ATOM     43  C   UNL A   1      40.537  27.721  26.514  1.00  0.00     0.029 A 
ATOM     44  C   UNL A   1      41.792  27.339  27.136  1.00  0.00     0.049 A 
ATOM     45  H   UNL A   1      42.575  28.126  28.918  1.00  0.00     0.167 HD
ATOM     46  C   UNL A   1      43.409  28.756  33.240  1.00  0.00     0.034 A 
ATOM     47  C   UNL A   1      42.729  26.438  26.755  1.00  0.00     0.034 A 
ATOM     48  C   UNL A   1      44.357  29.512  32.476  1.00  0.00     0.049 A 
ATOM     49  C   UNL A   1      43.972  26.768  27.488  1.00  0.00     0.074 A 
ATOM     50  C   UNL A   1      44.783  30.819  32.396  1.00  0.00     0.029 A 
ATOM     51  N   UNL A   1      44.747  28.878  31.327  1.00  0.00    -0.354 N 
ATOM     52  N   UNL A   1      44.639  27.874  27.309  1.00  0.00    -0.248 NA
ATOM     53  C   UNL A   1      44.348  25.989  28.664  1.00  0.00     0.031 C 
ATOM     54  C   UNL A   1      45.315  30.985  31.082  1.00  0.00     0.029 A 
ATOM     55  C   UNL A   1      45.226  29.770  30.408  1.00  0.00     0.049 A 
ATOM     56  H   UNL A   1      44.691  27.907  31.182  1.00  0.00     0.167 HD
ATOM     57  C   UNL A   1      45.185  28.134  28.551  1.00  0.00     0.074 A 
ATOM     58  C   UNL A   1      45.145  26.870  29.272  1.00  0.00     0.031 C 
ATOM     59  C   UNL A   1      45.300  29.409  29.012  1.00  0.00     0.034 A 
BRANCH  46  60
ATOM     60  C   UNL A   1      43.839  27.550  34.037  1.00  0.00     0.023 A 
ATOM     61  C   UNL A   1      44.214  26.382  33.346  1.00  0.00     0.012 A 
ATOM     62  C   UNL A   1      43.618  27.435  35.430  1.00  0.00     0.148 A 
ATOM     63  C   UNL A   1      44.384  25.166  34.021  1.00  0.00     0.002 A 
ATOM     64  C   UNL A   1      43.875  26.253  36.107  1.00  0.00     0.091 A 
ATOM     65  F   UNL A   1      43.009  28.429  36.088  1.00  0.00    -0.205 F 
ATOM     66  C   UNL A   1      44.239  25.106  35.405  1.00  0.00     0.022 A 
BRANCH  64  67
ATOM     67  S   UNL A   1      43.740  26.156  37.894  1.00  0.00     0.127 S 
ATOM     68  O   UNL A   1      42.300  26.265  38.086  1.00  0.00    -0.237 OA
ATOM     69  O   UNL A   1      44.309  24.837  38.164  1.00  0.00    -0.237 OA
ATOM     70  O   UNL A   1      44.547  27.264  38.400  1.00  0.00    -0.744 OA
ENDBRANCH  64  67
ENDBRANCH  46  60
BRANCH  47  71
ATOM     71  C   UNL A   1      42.582  25.141  26.046  1.00  0.00     0.023 A 
ATOM     72  C   UNL A   1      43.601  24.744  25.151  1.00  0.00     0.012 A 
ATOM     73  C   UNL A   1      41.663  24.160  26.477  1.00  0.00     0.148 A 
ATOM     74  C   UNL A   1      43.764  23.405  24.784  1.00  0.00     0.002 A 
ATOM     75  C   UNL A   1      41.822  22.829  26.097  1.00  0.00     0.091 A 
ATOM     76  F   UNL A   1      40.696  24.503  27.335  1.00  0.00    -0.205 F 
ATOM     77  C   UNL A   1      42.886  22.444  25.274  1.00  0.00     0.022 A 
BRANCH  75  78
ATOM     78  S   UNL A   1      40.727  21.534  26.695  1.00  0.00     0.127 S 
ATOM     79  O   UNL A   1      39.435  21.950  26.149  1.00  0.00    -0.237 OA
ATOM     80  O   UNL A   1      41.300  20.343  26.074  1.00  0.00    -0.237 OA
ATOM     81  O   UNL A   1      40.805  21.595  28.149  1.00  0.00    -0.744 OA
ENDBRANCH  75  78
ENDBRANCH  47  71
BRANCH  59  82
ATOM     82  C   UNL A   1      45.328  30.513  28.003  1.00  0.00     0.023 A 
ATOM     83  C   UNL A   1      44.167  31.023  27.392  1.00  0.00     0.012 A 
ATOM     84  C   UNL A   1      46.566  31.125  27.758  1.00  0.00     0.148 A 
ATOM     85  C   UNL A   1      44.246  32.135  26.547  1.00  0.00     0.002 A 
ATOM     86  C   UNL A   1      46.635  32.249  26.949  1.00  0.00     0.091 A 
ATOM     87  F   UNL A   1      47.652  30.611  28.353  1.00  0.00    -0.205 F 
ATOM     88  C   UNL A   1      45.478  32.755  26.337  1.00  0.00     0.022 A 
BRANCH  86  89
ATOM     89  S   UNL A   1      48.169  33.148  26.719  1.00  0.00     0.127 S 
ATOM     90  O   UNL A   1      47.827  34.068  25.636  1.00  0.00    -0.237 OA
ATOM     91  O   UNL A   1      48.352  33.780  28.026  1.00  0.00    -0.237 OA
ATOM     92  O   UNL A   1      49.180  32.150  26.390  1.00  0.00    -0.744 OA
ENDBRANCH  86  89
ENDBRANCH  59  82
ENDBRANCH  33  34
ENDBRANCH  25  28
ENDBRANCH  23  24
ENDBRANCH   1  23
TORSDOF 17
ENDMDL
MODEL 3
REMARK VINA RESULT:     -10.9      4.365      9.639
REMARK SMILES [NH3+][C@H](Cn1nnc2ccccc21)C(=O)NCCCCNC(=O)c1ccc(-c2c3nc(c(-c4cccc(S(=O)(=O)[O-])c4F)c4ccc([nH]4)c(-c4cccc(S(=O)(=O)[O-])c4F)c4nc(c(-c5cccc(S(=O)(=O)[O-])c5F)c5ccc2[nH]5)C=C4)C=C3)cc1
REMARK SMILES IDX 18 1 17 2 16 3 15 4 13 5 14 6 2 8 1 9 3 13 4 14 5 15 12 16
REMARK SMILES IDX 6 17 7 18 11 19 8 20 10 21 9 22 19 23 20 24 21 25 22 27
REMARK SMILES IDX 23 28 24 29 85 30 25 31 84 32 26 33 27 34 28 35 78 36 29 37
REMARK SMILES IDX 83 38 77 39 79 40 30 41 82 42 76 43 75 44 31 46 63 47 43 48
REMARK SMILES IDX 62 49 44 50 47 51 61 52 80 53 45 54 46 55 60 57 81 58 48 59
REMARK SMILES IDX 32 60 33 61 41 62 34 63 36 64 42 65 35 66 37 67 38 68 39 69
REMARK SMILES IDX 40 70 64 71 65 72 73 73 66 74 68 75 74 76 67 77 69 78 70 79
REMARK SMILES IDX 71 80 72 81 49 82 50 83 58 84 51 85 53 86 59 87 52 88 54 89
REMARK SMILES IDX 55 90 56 91 57 92
REMARK H PARENT 15 7 1 10 1 11 1 12 20 26 79 45 47 56
REMARK Flexibility Score: inf
ROOT
ATOM      1  C   UNL A   1      38.706  21.645  26.091  1.00  0.00     0.023 C 
ENDROOT
BRANCH   1   2
ATOM      2  C   UNL A   1      37.710  22.441  25.227  1.00  0.00     0.023 C 
BRANCH   2   3
ATOM      3  C   UNL A   1      36.712  23.252  26.048  1.00  0.00     0.116 C 
BRANCH   3   4
ATOM      4  N   UNL A   1      35.689  22.493  26.757  1.00  0.00    -0.351 N 
ATOM      5  C   UNL A   1      34.491  22.200  26.128  1.00  0.00     0.280 C 
ATOM      6  O   UNL A   1      34.407  21.139  25.504  1.00  0.00    -0.268 OA
ATOM      7  H   UNL A   1      35.848  22.190  27.680  1.00  0.00     0.163 HD
BRANCH   5   8
ATOM      8  C   UNL A   1      33.250  23.093  26.435  1.00  0.00     0.292 C 
BRANCH   8   9
ATOM      9  N   UNL A   1      32.206  22.376  27.220  1.00  0.00    -0.346 N 
ATOM     10  H   UNL A   1      32.391  22.492  28.217  1.00  0.00     0.345 HD
ATOM     11  H   UNL A   1      32.224  21.384  26.983  1.00  0.00     0.345 HD
ATOM     12  H   UNL A   1      31.288  22.763  26.998  1.00  0.00     0.345 HD
ENDBRANCH   8   9
BRANCH   8  13
ATOM     13  C   UNL A   1      32.671  23.920  25.292  1.00  0.00     0.222 C 
BRANCH  13  14
ATOM     14  N   UNL A   1      32.002  25.180  25.531  1.00  0.00    -0.238 N 
ATOM     15  N   UNL A   1      30.672  25.086  25.772  1.00  0.00    -0.066 NA
ATOM     16  C   UNL A   1      32.473  26.426  25.882  1.00  0.00     0.089 A 
ATOM     17  N   UNL A   1      30.314  26.138  26.489  1.00  0.00    -0.130 NA
ATOM     18  C   UNL A   1      31.403  26.948  26.614  1.00  0.00     0.113 A 
ATOM     19  C   UNL A   1      33.713  27.088  25.824  1.00  0.00     0.030 A 
ATOM     20  C   UNL A   1      31.583  28.100  27.391  1.00  0.00     0.032 A 
ATOM     21  C   UNL A   1      33.887  28.211  26.642  1.00  0.00     0.002 A 
ATOM     22  C   UNL A   1      32.848  28.695  27.432  1.00  0.00     0.002 A 
ENDBRANCH  13  14
ENDBRANCH   8  13
ENDBRANCH   5   8
ENDBRANCH   3   4
ENDBRANCH   2   3
ENDBRANCH   1   2
BRANCH   1  23
ATOM     23  C   UNL A   1      38.968  20.188  25.684  1.00  0.00     0.116 C 
BRANCH  23  24
ATOM     24  N   UNL A   1      40.298  19.952  25.155  1.00  0.00    -0.352 N 
ATOM     25  C   UNL A   1      41.393  19.594  25.920  1.00  0.00     0.251 C 
ATOM     26  H   UNL A   1      40.429  20.052  24.184  1.00  0.00     0.163 HD
ATOM     27  O   UNL A   1      41.950  18.511  25.776  1.00  0.00    -0.269 OA
BRANCH  25  28
ATOM     28  C   UNL A   1      42.057  20.703  26.641  1.00  0.00     0.039 A 
ATOM     29  C   UNL A   1      41.953  20.787  28.023  1.00  0.00     0.014 A 
ATOM     30  C   UNL A   1      42.507  21.800  25.889  1.00  0.00     0.014 A 
ATOM     31  C   UNL A   1      42.028  22.021  28.613  1.00  0.00     0.010 A 
ATOM     32  C   UNL A   1      42.676  23.034  26.506  1.00  0.00     0.010 A 
ATOM     33  C   UNL A   1      42.344  23.154  27.850  1.00  0.00    -0.014 A 
BRANCH  33  34
ATOM     34  C   UNL A   1      42.434  24.393  28.611  1.00  0.00     0.031 A 
ATOM     35  C   UNL A   1      41.289  25.296  28.317  1.00  0.00     0.074 A 
ATOM     36  C   UNL A   1      43.431  24.719  29.454  1.00  0.00     0.049 A 
ATOM     37  N   UNL A   1      41.315  26.388  27.623  1.00  0.00    -0.248 NA
ATOM     38  C   UNL A   1      39.936  24.788  28.594  1.00  0.00     0.031 C 
ATOM     39  C   UNL A   1      44.462  23.840  30.009  1.00  0.00     0.029 A 
ATOM     40  N   UNL A   1      43.657  25.902  30.096  1.00  0.00    -0.354 N 
ATOM     41  C   UNL A   1      39.996  26.826  27.595  1.00  0.00     0.074 A 
ATOM     42  C   UNL A   1      39.178  25.718  28.014  1.00  0.00     0.031 C 
ATOM     43  C   UNL A   1      45.005  24.432  31.096  1.00  0.00     0.029 A 
ATOM     44  C   UNL A   1      44.479  25.780  31.212  1.00  0.00     0.049 A 
ATOM     45  H   UNL A   1      43.275  26.759  29.798  1.00  0.00     0.167 HD
ATOM     46  C   UNL A   1      39.703  28.152  27.545  1.00  0.00     0.034 A 
ATOM     47  C   UNL A   1      44.621  26.703  32.194  1.00  0.00     0.034 A 
ATOM     48  C   UNL A   1      40.831  28.941  27.148  1.00  0.00     0.049 A 
ATOM     49  C   UNL A   1      44.266  28.016  31.610  1.00  0.00     0.074 A 
ATOM     50  C   UNL A   1      41.469  29.279  25.976  1.00  0.00     0.029 A 
ATOM     51  N   UNL A   1      41.693  29.201  28.179  1.00  0.00    -0.354 N 
ATOM     52  N   UNL A   1      44.953  28.590  30.662  1.00  0.00    -0.248 NA
ATOM     53  C   UNL A   1      42.951  28.594  31.873  1.00  0.00     0.031 C 
ATOM     54  C   UNL A   1      42.810  29.613  26.333  1.00  0.00     0.029 A 
ATOM     55  C   UNL A   1      42.944  29.498  27.715  1.00  0.00     0.049 A 
ATOM     56  H   UNL A   1      41.444  29.178  29.130  1.00  0.00     0.167 HD
ATOM     57  C   UNL A   1      44.003  29.288  29.942  1.00  0.00     0.074 A 
ATOM     58  C   UNL A   1      42.855  29.418  30.828  1.00  0.00     0.031 C 
ATOM     59  C   UNL A   1      44.089  29.397  28.589  1.00  0.00     0.034 A 
BRANCH  46  60
ATOM     60  C   UNL A   1      38.579  28.753  28.349  1.00  0.00     0.023 A 
ATOM     61  C   UNL A   1      37.606  29.520  27.681  1.00  0.00     0.012 A 
ATOM     62  C   UNL A   1      38.601  28.826  29.762  1.00  0.00     0.148 A 
ATOM     63  C   UNL A   1      36.685  30.301  28.393  1.00  0.00     0.002 A 
ATOM     64  C   UNL A   1      37.634  29.526  30.465  1.00  0.00     0.091 A 
ATOM     65  F   UNL A   1      39.653  28.340  30.433  1.00  0.00    -0.205 F 
ATOM     66  C   UNL A   1      36.682  30.285  29.786  1.00  0.00     0.022 A 
BRANCH  64  67
ATOM     67  S   UNL A   1      37.577  29.489  32.259  1.00  0.00     0.127 S 
ATOM     68  O   UNL A   1      38.787  30.223  32.607  1.00  0.00    -0.237 OA
ATOM     69  O   UNL A   1      36.321  30.187  32.532  1.00  0.00    -0.237 OA
ATOM     70  O   UNL A   1      37.555  28.071  32.612  1.00  0.00    -0.744 OA
ENDBRANCH  64  67
ENDBRANCH  46  60
BRANCH  47  71
ATOM     71  C   UNL A   1      44.747  26.530  33.663  1.00  0.00     0.023 A 
ATOM     72  C   UNL A   1      45.925  26.989  34.296  1.00  0.00     0.012 A 
ATOM     73  C   UNL A   1      43.628  26.247  34.476  1.00  0.00     0.148 A 
ATOM     74  C   UNL A   1      45.954  27.257  35.668  1.00  0.00     0.002 A 
ATOM     75  C   UNL A   1      43.668  26.505  35.845  1.00  0.00     0.091 A 
ATOM     76  F   UNL A   1      42.496  25.824  33.903  1.00  0.00    -0.205 F 
ATOM     77  C   UNL A   1      44.819  27.035  36.439  1.00  0.00     0.022 A 
BRANCH  75  78
ATOM     78  S   UNL A   1      42.236  26.244  36.901  1.00  0.00     0.127 S 
ATOM     79  O   UNL A   1      42.784  26.515  38.231  1.00  0.00    -0.237 OA
ATOM     80  O   UNL A   1      41.306  27.254  36.405  1.00  0.00    -0.237 OA
ATOM     81  O   UNL A   1      41.842  24.856  36.692  1.00  0.00    -0.744 OA
ENDBRANCH  75  78
ENDBRANCH  47  71
BRANCH  59  82
ATOM     82  C   UNL A   1      45.437  29.224  27.963  1.00  0.00     0.023 A 
ATOM     83  C   UNL A   1      46.403  30.248  27.925  1.00  0.00     0.012 A 
ATOM     84  C   UNL A   1      45.768  27.941  27.502  1.00  0.00     0.148 A 
ATOM     85  C   UNL A   1      47.685  29.988  27.433  1.00  0.00     0.002 A 
ATOM     86  C   UNL A   1      47.052  27.678  27.049  1.00  0.00     0.091 A 
ATOM     87  F   UNL A   1      44.823  26.991  27.549  1.00  0.00    -0.205 F 
ATOM     88  C   UNL A   1      48.013  28.700  27.007  1.00  0.00     0.022 A 
BRANCH  86  89
ATOM     89  S   UNL A   1      47.563  26.024  26.582  1.00  0.00     0.127 S 
ATOM     90  O   UNL A   1      48.971  26.221  26.245  1.00  0.00    -0.237 OA
ATOM     91  O   UNL A   1      47.326  25.271  27.815  1.00  0.00    -0.237 OA
ATOM     92  O   UNL A   1      46.707  25.633  25.469  1.00  0.00    -0.744 OA
ENDBRANCH  86  89
ENDBRANCH  59  82
ENDBRANCH  33  34
ENDBRANCH  25  28
ENDBRANCH  23  24
ENDBRANCH   1  23
TORSDOF 17
ENDMDL
