MODEL 1
REMARK VINA RESULT:     -11.1      0.000      0.000
REMARK SMILES COc1ccccc1C[N@@H+](C)[C@@H](C)c1ccc(C(=O)NCCCCNC(=O)c2ccc(-c3c4nc(c(-c5cccc(S(=O)(=O)[O-])c5F)c5ccc([nH]5)c(-c5cccc(S(=O)(=O)[O-])c5F)c5nc(c(-c6cccc(S(=O)(=O)[O-])c6F)c6ccc3[nH]6)C=C5)C=C4)cc2)o1
REMARK SMILES IDX 21 1 20 2 18 3 19 4 17 6 14 7 15 8 91 9 16 10 12 11 13 12
REMARK SMILES IDX 10 13 11 14 9 16 8 17 3 18 4 19 5 20 7 21 6 22 2 23 1 24
REMARK SMILES IDX 22 25 23 26 24 27 25 28 26 29 27 31 28 32 29 33 90 34 30 35
REMARK SMILES IDX 89 36 31 37 32 38 33 39 83 40 34 41 88 42 82 43 84 44 35 45
REMARK SMILES IDX 87 46 81 47 80 48 36 50 68 51 48 52 67 53 49 54 52 55 66 56
REMARK SMILES IDX 85 57 50 58 51 59 65 61 86 62 53 63 37 64 38 65 46 66 39 67
REMARK SMILES IDX 41 68 47 69 40 70 42 71 43 72 44 73 45 74 69 75 70 76 78 77
REMARK SMILES IDX 71 78 73 79 79 80 72 81 74 82 75 83 76 84 77 85 54 86 55 87
REMARK SMILES IDX 63 88 56 89 58 90 64 91 57 92 59 93 60 94 61 95 62 96
REMARK H PARENT 20 5 10 15 25 30 84 49 52 60
REMARK Flexibility Score: inf
ROOT
ATOM      1  C   UNL A   1      35.495  21.786  24.628  1.00  0.00     0.116 C 
ENDROOT
BRANCH   1   2
ATOM      2  N   UNL A   1      35.122  21.876  26.022  1.00  0.00    -0.349 N 
ATOM      3  C   UNL A   1      33.915  22.168  26.620  1.00  0.00     0.287 C 
ATOM      4  O   UNL A   1      33.869  21.947  27.834  1.00  0.00    -0.266 OA
ATOM      5  H   UNL A   1      35.856  21.696  26.653  1.00  0.00     0.163 HD
BRANCH   3   6
ATOM      6  C   UNL A   1      32.793  22.712  25.869  1.00  0.00     0.191 A 
ATOM      7  C   UNL A   1      31.963  23.935  24.202  1.00  0.00     0.161 A 
ATOM      8  C   UNL A   1      30.901  23.257  24.762  1.00  0.00     0.053 A 
ATOM      9  O   UNL A   1      33.091  23.676  24.928  1.00  0.00    -0.450 OA
ATOM     10  C   UNL A   1      31.435  22.455  25.797  1.00  0.00     0.057 A 
BRANCH   7  11
ATOM     11  C   UNL A   1      32.101  24.841  23.003  1.00  0.00     0.248 C 
ATOM     12  C   UNL A   1      33.198  24.329  22.050  1.00  0.00     0.084 C 
BRANCH  11  13
ATOM     13  N   UNL A   1      32.221  26.283  23.355  1.00  0.00    -0.325 N 
ATOM     14  C   UNL A   1      33.589  26.618  23.755  1.00  0.00     0.333 C 
ATOM     15  H   UNL A   1      31.969  26.765  22.492  1.00  0.00     0.348 HD
BRANCH  13  16
ATOM     16  C   UNL A   1      31.276  26.773  24.376  1.00  0.00     0.303 C 
BRANCH  16  17
ATOM     17  C   UNL A   1      30.259  27.784  23.898  1.00  0.00     0.048 A 
ATOM     18  C   UNL A   1      30.530  29.158  23.844  1.00  0.00     0.127 A 
ATOM     19  C   UNL A   1      29.543  30.075  23.468  1.00  0.00     0.047 A 
ATOM     20  C   UNL A   1      28.283  29.624  23.081  1.00  0.00     0.004 A 
ATOM     21  C   UNL A   1      28.986  27.347  23.492  1.00  0.00     0.013 A 
ATOM     22  C   UNL A   1      28.009  28.258  23.081  1.00  0.00     0.001 A 
BRANCH  18  23
ATOM     23  O   UNL A   1      31.746  29.656  24.242  1.00  0.00    -0.496 OA
ATOM     24  C   UNL A   1      31.708  29.968  25.634  1.00  0.00     0.278 C 
ENDBRANCH  18  23
ENDBRANCH  16  17
ENDBRANCH  13  16
ENDBRANCH  11  13
ENDBRANCH   7  11
ENDBRANCH   3   6
ENDBRANCH   1   2
BRANCH   1  25
ATOM     25  C   UNL A   1      37.009  21.767  24.425  1.00  0.00     0.023 C 
BRANCH  25  26
ATOM     26  C   UNL A   1      37.711  20.495  24.921  1.00  0.00     0.023 C 
BRANCH  26  27
ATOM     27  C   UNL A   1      38.947  20.710  25.795  1.00  0.00     0.116 C 
BRANCH  27  28
ATOM     28  N   UNL A   1      39.848  19.566  25.838  1.00  0.00    -0.352 N 
ATOM     29  C   UNL A   1      41.195  19.542  26.111  1.00  0.00     0.251 C 
ATOM     30  H   UNL A   1      39.435  18.692  25.645  1.00  0.00     0.163 HD
ATOM     31  O   UNL A   1      41.821  18.493  26.035  1.00  0.00    -0.269 OA
BRANCH  29  32
ATOM     32  C   UNL A   1      41.889  20.804  26.449  1.00  0.00     0.039 A 
ATOM     33  C   UNL A   1      42.288  21.648  25.408  1.00  0.00     0.014 A 
ATOM     34  C   UNL A   1      42.096  21.175  27.779  1.00  0.00     0.014 A 
ATOM     35  C   UNL A   1      42.815  22.906  25.705  1.00  0.00     0.010 A 
ATOM     36  C   UNL A   1      42.566  22.452  28.072  1.00  0.00     0.010 A 
ATOM     37  C   UNL A   1      42.913  23.336  27.038  1.00  0.00    -0.014 A 
BRANCH  37  38
ATOM     38  C   UNL A   1      43.308  24.728  27.373  1.00  0.00     0.031 A 
ATOM     39  C   UNL A   1      42.301  25.698  27.926  1.00  0.00     0.074 A 
ATOM     40  C   UNL A   1      44.554  25.147  27.071  1.00  0.00     0.049 A 
ATOM     41  N   UNL A   1      42.449  26.967  28.204  1.00  0.00    -0.248 NA
ATOM     42  C   UNL A   1      40.945  25.182  28.173  1.00  0.00     0.031 C 
ATOM     43  C   UNL A   1      45.595  24.323  26.452  1.00  0.00     0.029 A 
ATOM     44  N   UNL A   1      45.146  26.377  27.213  1.00  0.00    -0.354 N 
ATOM     45  C   UNL A   1      41.202  27.411  28.627  1.00  0.00     0.074 A 
ATOM     46  C   UNL A   1      40.302  26.281  28.542  1.00  0.00     0.031 C 
ATOM     47  C   UNL A   1      46.694  25.071  26.264  1.00  0.00     0.029 A 
ATOM     48  C   UNL A   1      46.430  26.431  26.720  1.00  0.00     0.049 A 
ATOM     49  H   UNL A   1      44.694  27.148  27.626  1.00  0.00     0.167 HD
ATOM     50  C   UNL A   1      40.846  28.639  29.073  1.00  0.00     0.034 A 
ATOM     51  C   UNL A   1      47.294  27.461  26.637  1.00  0.00     0.034 A 
ATOM     52  C   UNL A   1      41.755  29.747  29.195  1.00  0.00     0.049 A 
ATOM     53  C   UNL A   1      46.884  28.804  27.176  1.00  0.00     0.074 A 
ATOM     54  C   UNL A   1      41.513  31.001  29.729  1.00  0.00     0.029 A 
ATOM     55  N   UNL A   1      43.075  29.741  28.773  1.00  0.00    -0.354 N 
ATOM     56  N   UNL A   1      45.753  29.158  27.736  1.00  0.00    -0.248 NA
ATOM     57  C   UNL A   1      47.882  29.882  27.104  1.00  0.00     0.031 C 
ATOM     58  C   UNL A   1      42.684  31.759  29.612  1.00  0.00     0.029 A 
ATOM     59  C   UNL A   1      43.658  30.972  29.021  1.00  0.00     0.049 A 
ATOM     60  H   UNL A   1      43.530  28.974  28.356  1.00  0.00     0.167 HD
ATOM     61  C   UNL A   1      45.911  30.488  28.108  1.00  0.00     0.074 A 
ATOM     62  C   UNL A   1      47.258  30.869  27.734  1.00  0.00     0.031 C 
ATOM     63  C   UNL A   1      45.015  31.324  28.689  1.00  0.00     0.034 A 
BRANCH  50  64
ATOM     64  C   UNL A   1      39.422  28.834  29.522  1.00  0.00     0.023 A 
ATOM     65  C   UNL A   1      39.048  28.441  30.823  1.00  0.00     0.012 A 
ATOM     66  C   UNL A   1      38.474  29.460  28.689  1.00  0.00     0.148 A 
ATOM     67  C   UNL A   1      37.746  28.638  31.279  1.00  0.00     0.002 A 
ATOM     68  C   UNL A   1      37.188  29.691  29.166  1.00  0.00     0.091 A 
ATOM     69  F   UNL A   1      38.841  29.807  27.447  1.00  0.00    -0.205 F 
ATOM     70  C   UNL A   1      36.820  29.271  30.455  1.00  0.00     0.022 A 
BRANCH  68  71
ATOM     71  S   UNL A   1      35.943  30.567  28.210  1.00  0.00     0.127 S 
ATOM     72  O   UNL A   1      36.619  31.835  27.939  1.00  0.00    -0.237 OA
ATOM     73  O   UNL A   1      35.782  29.700  27.043  1.00  0.00    -0.237 OA
ATOM     74  O   UNL A   1      34.769  30.653  29.068  1.00  0.00    -0.744 OA
ENDBRANCH  68  71
ENDBRANCH  50  64
BRANCH  51  75
ATOM     75  C   UNL A   1      48.660  27.242  26.081  1.00  0.00     0.023 A 
ATOM     76  C   UNL A   1      49.670  26.730  26.918  1.00  0.00     0.012 A 
ATOM     77  C   UNL A   1      48.954  27.504  24.729  1.00  0.00     0.148 A 
ATOM     78  C   UNL A   1      50.956  26.509  26.426  1.00  0.00     0.002 A 
ATOM     79  C   UNL A   1      50.223  27.228  24.233  1.00  0.00     0.091 A 
ATOM     80  F   UNL A   1      47.984  28.006  23.952  1.00  0.00    -0.205 F 
ATOM     81  C   UNL A   1      51.230  26.747  25.083  1.00  0.00     0.022 A 
BRANCH  79  82
ATOM     82  S   UNL A   1      50.623  27.377  22.487  1.00  0.00     0.127 S 
ATOM     83  O   UNL A   1      51.949  26.765  22.430  1.00  0.00    -0.237 OA
ATOM     84  O   UNL A   1      49.556  26.595  21.863  1.00  0.00    -0.237 OA
ATOM     85  O   UNL A   1      50.567  28.804  22.194  1.00  0.00    -0.744 OA
ENDBRANCH  79  82
ENDBRANCH  51  75
BRANCH  63  86
ATOM     86  C   UNL A   1      45.463  32.732  28.977  1.00  0.00     0.023 A 
ATOM     87  C   UNL A   1      46.187  33.006  30.155  1.00  0.00     0.012 A 
ATOM     88  C   UNL A   1      45.229  33.769  28.052  1.00  0.00     0.148 A 
ATOM     89  C   UNL A   1      46.646  34.296  30.421  1.00  0.00     0.002 A 
ATOM     90  C   UNL A   1      45.730  35.041  28.302  1.00  0.00     0.091 A 
ATOM     91  F   UNL A   1      44.521  33.494  26.947  1.00  0.00    -0.205 F 
ATOM     92  C   UNL A   1      46.429  35.309  29.491  1.00  0.00     0.022 A 
BRANCH  90  93
ATOM     93  S   UNL A   1      45.577  36.385  27.119  1.00  0.00     0.127 S 
ATOM     94  O   UNL A   1      46.226  35.819  25.938  1.00  0.00    -0.237 OA
ATOM     95  O   UNL A   1      44.126  36.536  27.004  1.00  0.00    -0.237 OA
ATOM     96  O   UNL A   1      46.255  37.525  27.721  1.00  0.00    -0.744 OA
ENDBRANCH  90  93
ENDBRANCH  63  86
ENDBRANCH  37  38
ENDBRANCH  29  32
ENDBRANCH  27  28
ENDBRANCH  26  27
ENDBRANCH  25  26
ENDBRANCH   1  25
TORSDOF 19
ENDMDL
MODEL 2
REMARK VINA RESULT:     -11.0      1.124      7.536
REMARK SMILES COc1ccccc1C[N@@H+](C)[C@@H](C)c1ccc(C(=O)NCCCCNC(=O)c2ccc(-c3c4nc(c(-c5cccc(S(=O)(=O)[O-])c5F)c5ccc([nH]5)c(-c5cccc(S(=O)(=O)[O-])c5F)c5nc(c(-c6cccc(S(=O)(=O)[O-])c6F)c6ccc3[nH]6)C=C5)C=C4)cc2)o1
REMARK SMILES IDX 21 1 20 2 18 3 19 4 17 6 14 7 15 8 91 9 16 10 12 11 13 12
REMARK SMILES IDX 10 13 11 14 9 16 8 17 3 18 4 19 5 20 7 21 6 22 2 23 1 24
REMARK SMILES IDX 22 25 23 26 24 27 25 28 26 29 27 31 28 32 29 33 90 34 30 35
REMARK SMILES IDX 89 36 31 37 32 38 33 39 83 40 34 41 88 42 82 43 84 44 35 45
REMARK SMILES IDX 87 46 81 47 80 48 36 50 68 51 48 52 67 53 49 54 52 55 66 56
REMARK SMILES IDX 85 57 50 58 51 59 65 61 86 62 53 63 37 64 38 65 46 66 39 67
REMARK SMILES IDX 41 68 47 69 40 70 42 71 43 72 44 73 45 74 69 75 70 76 78 77
REMARK SMILES IDX 71 78 73 79 79 80 72 81 74 82 75 83 76 84 77 85 54 86 55 87
REMARK SMILES IDX 63 88 56 89 58 90 64 91 57 92 59 93 60 94 61 95 62 96
REMARK H PARENT 20 5 10 15 25 30 84 49 52 60
REMARK Flexibility Score: inf
ROOT
ATOM      1  C   UNL A   1      37.458  23.383  25.898  1.00  0.00     0.116 C 
ENDROOT
BRANCH   1   2
ATOM      2  N   UNL A   1      36.425  22.434  26.246  1.00  0.00    -0.349 N 
ATOM      3  C   UNL A   1      35.073  22.423  25.972  1.00  0.00     0.287 C 
ATOM      4  O   UNL A   1      34.501  21.358  26.219  1.00  0.00    -0.266 OA
ATOM      5  H   UNL A   1      36.740  21.661  26.768  1.00  0.00     0.163 HD
BRANCH   3   6
ATOM      6  C   UNL A   1      34.384  23.594  25.448  1.00  0.00     0.191 A 
ATOM      7  C   UNL A   1      32.534  24.646  24.793  1.00  0.00     0.161 A 
ATOM      8  C   UNL A   1      33.536  25.592  24.821  1.00  0.00     0.053 A 
ATOM      9  O   UNL A   1      33.065  23.421  25.083  1.00  0.00    -0.450 OA
ATOM     10  C   UNL A   1      34.702  24.929  25.271  1.00  0.00     0.057 A 
BRANCH   7  11
ATOM     11  C   UNL A   1      31.049  24.714  24.531  1.00  0.00     0.248 C 
ATOM     12  C   UNL A   1      30.692  24.018  23.204  1.00  0.00     0.084 C 
BRANCH  11  13
ATOM     13  N   UNL A   1      30.479  26.082  24.675  1.00  0.00    -0.325 N 
ATOM     14  C   UNL A   1      30.261  26.419  26.084  1.00  0.00     0.333 C 
ATOM     15  H   UNL A   1      31.192  26.686  24.266  1.00  0.00     0.348 HD
BRANCH  13  16
ATOM     16  C   UNL A   1      29.245  26.345  23.911  1.00  0.00     0.303 C 
BRANCH  16  17
ATOM     17  C   UNL A   1      29.170  27.693  23.230  1.00  0.00     0.048 A 
ATOM     18  C   UNL A   1      30.278  28.288  22.612  1.00  0.00     0.127 A 
ATOM     19  C   UNL A   1      30.194  29.569  22.057  1.00  0.00     0.047 A 
ATOM     20  C   UNL A   1      28.979  30.252  22.058  1.00  0.00     0.004 A 
ATOM     21  C   UNL A   1      27.950  28.392  23.211  1.00  0.00     0.013 A 
ATOM     22  C   UNL A   1      27.855  29.657  22.625  1.00  0.00     0.001 A 
BRANCH  18  23
ATOM     23  O   UNL A   1      31.504  27.670  22.608  1.00  0.00    -0.496 OA
ATOM     24  C   UNL A   1      32.533  28.637  22.815  1.00  0.00     0.278 C 
ENDBRANCH  18  23
ENDBRANCH  16  17
ENDBRANCH  13  16
ENDBRANCH  11  13
ENDBRANCH   7  11
ENDBRANCH   3   6
ENDBRANCH   1   2
BRANCH   1  25
ATOM     25  C   UNL A   1      38.864  22.834  26.135  1.00  0.00     0.023 C 
BRANCH  25  26
ATOM     26  C   UNL A   1      39.070  21.376  25.700  1.00  0.00     0.023 C 
BRANCH  26  27
ATOM     27  C   UNL A   1      39.644  20.436  26.761  1.00  0.00     0.116 C 
BRANCH  27  28
ATOM     28  N   UNL A   1      40.665  19.528  26.256  1.00  0.00    -0.352 N 
ATOM     29  C   UNL A   1      41.994  19.778  26.010  1.00  0.00     0.251 C 
ATOM     30  H   UNL A   1      40.361  18.610  26.066  1.00  0.00     0.163 HD
ATOM     31  O   UNL A   1      42.704  18.913  25.515  1.00  0.00    -0.269 OA
BRANCH  29  32
ATOM     32  C   UNL A   1      42.545  21.120  26.303  1.00  0.00     0.039 A 
ATOM     33  C   UNL A   1      42.709  22.022  25.248  1.00  0.00     0.014 A 
ATOM     34  C   UNL A   1      42.847  21.501  27.613  1.00  0.00     0.014 A 
ATOM     35  C   UNL A   1      43.091  23.337  25.519  1.00  0.00     0.010 A 
ATOM     36  C   UNL A   1      43.169  22.826  27.886  1.00  0.00     0.010 A 
ATOM     37  C   UNL A   1      43.278  23.761  26.845  1.00  0.00    -0.014 A 
BRANCH  37  38
ATOM     38  C   UNL A   1      43.517  25.190  27.171  1.00  0.00     0.031 A 
ATOM     39  C   UNL A   1      44.888  25.790  27.025  1.00  0.00     0.074 A 
ATOM     40  C   UNL A   1      42.516  25.916  27.709  1.00  0.00     0.049 A 
ATOM     41  N   UNL A   1      45.295  26.994  27.332  1.00  0.00    -0.248 NA
ATOM     42  C   UNL A   1      45.943  24.916  26.487  1.00  0.00     0.031 C 
ATOM     43  C   UNL A   1      41.165  25.421  27.982  1.00  0.00     0.029 A 
ATOM     44  N   UNL A   1      42.488  27.215  28.154  1.00  0.00    -0.354 N 
ATOM     45  C   UNL A   1      46.657  27.015  27.059  1.00  0.00     0.074 A 
ATOM     46  C   UNL A   1      47.012  25.694  26.585  1.00  0.00     0.031 C 
ATOM     47  C   UNL A   1      40.443  26.401  28.550  1.00  0.00     0.029 A 
ATOM     48  C   UNL A   1      41.283  27.583  28.708  1.00  0.00     0.049 A 
ATOM     49  H   UNL A   1      43.258  27.825  28.084  1.00  0.00     0.167 HD
ATOM     50  C   UNL A   1      47.527  28.048  27.163  1.00  0.00     0.034 A 
ATOM     51  C   UNL A   1      40.900  28.737  29.287  1.00  0.00     0.034 A 
ATOM     52  C   UNL A   1      47.160  29.371  27.594  1.00  0.00     0.049 A 
ATOM     53  C   UNL A   1      41.876  29.879  29.354  1.00  0.00     0.074 A 
ATOM     54  C   UNL A   1      47.947  30.508  27.639  1.00  0.00     0.029 A 
ATOM     55  N   UNL A   1      45.907  29.734  28.061  1.00  0.00    -0.354 N 
ATOM     56  N   UNL A   1      43.114  29.933  28.926  1.00  0.00    -0.248 NA
ATOM     57  C   UNL A   1      41.393  31.133  29.952  1.00  0.00     0.031 C 
ATOM     58  C   UNL A   1      47.172  31.555  28.152  1.00  0.00     0.029 A 
ATOM     59  C   UNL A   1      45.900  31.073  28.409  1.00  0.00     0.049 A 
ATOM     60  H   UNL A   1      45.135  29.127  28.136  1.00  0.00     0.167 HD
ATOM     61  C   UNL A   1      43.549  31.229  29.176  1.00  0.00     0.074 A 
ATOM     62  C   UNL A   1      42.432  31.937  29.769  1.00  0.00     0.031 C 
ATOM     63  C   UNL A   1      44.768  31.779  28.953  1.00  0.00     0.034 A 
BRANCH  50  64
ATOM     64  C   UNL A   1      48.954  27.806  26.746  1.00  0.00     0.023 A 
ATOM     65  C   UNL A   1      49.903  27.433  27.719  1.00  0.00     0.012 A 
ATOM     66  C   UNL A   1      49.342  27.883  25.395  1.00  0.00     0.148 A 
ATOM     67  C   UNL A   1      51.224  27.170  27.360  1.00  0.00     0.002 A 
ATOM     68  C   UNL A   1      50.652  27.580  25.038  1.00  0.00     0.091 A 
ATOM     69  F   UNL A   1      48.431  28.261  24.486  1.00  0.00    -0.205 F 
ATOM     70  C   UNL A   1      51.595  27.234  26.020  1.00  0.00     0.022 A 
BRANCH  68  71
ATOM     71  S   UNL A   1      51.211  27.559  23.331  1.00  0.00     0.127 S 
ATOM     72  O   UNL A   1      51.302  28.988  23.034  1.00  0.00    -0.237 OA
ATOM     73  O   UNL A   1      52.500  26.875  23.436  1.00  0.00    -0.237 OA
ATOM     74  O   UNL A   1      50.196  26.827  22.587  1.00  0.00    -0.744 OA
ENDBRANCH  68  71
ENDBRANCH  50  64
BRANCH  51  75
ATOM     75  C   UNL A   1      39.504  28.891  29.786  1.00  0.00     0.023 A 
ATOM     76  C   UNL A   1      39.201  28.518  31.109  1.00  0.00     0.012 A 
ATOM     77  C   UNL A   1      38.489  29.435  28.975  1.00  0.00     0.148 A 
ATOM     78  C   UNL A   1      37.905  28.655  31.607  1.00  0.00     0.002 A 
ATOM     79  C   UNL A   1      37.214  29.621  29.497  1.00  0.00     0.091 A 
ATOM     80  F   UNL A   1      38.793  29.770  27.713  1.00  0.00    -0.205 F 
ATOM     81  C   UNL A   1      36.915  29.217  30.806  1.00  0.00     0.022 A 
BRANCH  79  82
ATOM     82  S   UNL A   1      35.916  30.461  28.580  1.00  0.00     0.127 S 
ATOM     83  O   UNL A   1      35.239  29.343  27.927  1.00  0.00    -0.237 OA
ATOM     84  O   UNL A   1      35.154  31.103  29.651  1.00  0.00    -0.237 OA
ATOM     85  O   UNL A   1      36.604  31.393  27.696  1.00  0.00    -0.744 OA
ENDBRANCH  79  82
ENDBRANCH  51  75
BRANCH  63  86
ATOM     86  C   UNL A   1      44.961  33.223  29.333  1.00  0.00     0.023 A 
ATOM     87  C   UNL A   1      45.346  33.551  30.648  1.00  0.00     0.012 A 
ATOM     88  C   UNL A   1      44.830  34.247  28.375  1.00  0.00     0.148 A 
ATOM     89  C   UNL A   1      45.570  34.879  31.011  1.00  0.00     0.002 A 
ATOM     90  C   UNL A   1      45.100  35.563  28.732  1.00  0.00     0.091 A 
ATOM     91  F   UNL A   1      44.443  33.918  27.133  1.00  0.00    -0.205 F 
ATOM     92  C   UNL A   1      45.459  35.882  30.052  1.00  0.00     0.022 A 
BRANCH  90  93
ATOM     93  S   UNL A   1      45.071  36.908  27.541  1.00  0.00     0.127 S 
ATOM     94  O   UNL A   1      43.676  36.896  27.109  1.00  0.00    -0.237 OA
ATOM     95  O   UNL A   1      45.446  38.060  28.362  1.00  0.00    -0.237 OA
ATOM     96  O   UNL A   1      46.048  36.556  26.518  1.00  0.00    -0.744 OA
ENDBRANCH  90  93
ENDBRANCH  63  86
ENDBRANCH  37  38
ENDBRANCH  29  32
ENDBRANCH  27  28
ENDBRANCH  26  27
ENDBRANCH  25  26
ENDBRANCH   1  25
TORSDOF 19
ENDMDL
MODEL 3
REMARK VINA RESULT:     -11.0      1.722      2.098
REMARK SMILES COc1ccccc1C[N@@H+](C)[C@@H](C)c1ccc(C(=O)NCCCCNC(=O)c2ccc(-c3c4nc(c(-c5cccc(S(=O)(=O)[O-])c5F)c5ccc([nH]5)c(-c5cccc(S(=O)(=O)[O-])c5F)c5nc(c(-c6cccc(S(=O)(=O)[O-])c6F)c6ccc3[nH]6)C=C5)C=C4)cc2)o1
REMARK SMILES IDX 21 1 20 2 18 3 19 4 17 6 14 7 15 8 91 9 16 10 12 11 13 12
REMARK SMILES IDX 10 13 11 14 9 16 8 17 3 18 4 19 5 20 7 21 6 22 2 23 1 24
REMARK SMILES IDX 22 25 23 26 24 27 25 28 26 29 27 31 28 32 29 33 90 34 30 35
REMARK SMILES IDX 89 36 31 37 32 38 33 39 83 40 34 41 88 42 82 43 84 44 35 45
REMARK SMILES IDX 87 46 81 47 80 48 36 50 68 51 48 52 67 53 49 54 52 55 66 56
REMARK SMILES IDX 85 57 50 58 51 59 65 61 86 62 53 63 37 64 38 65 46 66 39 67
REMARK SMILES IDX 41 68 47 69 40 70 42 71 43 72 44 73 45 74 69 75 70 76 78 77
REMARK SMILES IDX 71 78 73 79 79 80 72 81 74 82 75 83 76 84 77 85 54 86 55 87
REMARK SMILES IDX 63 88 56 89 58 90 64 91 57 92 59 93 60 94 61 95 62 96
REMARK H PARENT 20 5 10 15 25 30 84 49 52 60
REMARK Flexibility Score: inf
ROOT
ATOM      1  C   UNL A   1      36.288  22.025  24.239  1.00  0.00     0.116 C 
ENDROOT
BRANCH   1   2
ATOM      2  N   UNL A   1      35.415  20.948  24.649  1.00  0.00    -0.349 N 
ATOM      3  C   UNL A   1      34.050  20.791  24.529  1.00  0.00     0.287 C 
ATOM      4  O   UNL A   1      33.633  19.656  24.781  1.00  0.00    -0.266 OA
ATOM      5  H   UNL A   1      35.874  20.196  25.090  1.00  0.00     0.163 HD
BRANCH   3   6
ATOM      6  C   UNL A   1      33.178  21.893  24.150  1.00  0.00     0.191 A 
ATOM      7  C   UNL A   1      31.956  23.685  24.654  1.00  0.00     0.161 A 
ATOM      8  C   UNL A   1      32.016  23.623  23.278  1.00  0.00     0.053 A 
ATOM      9  O   UNL A   1      32.581  22.590  25.179  1.00  0.00    -0.450 OA
ATOM     10  C   UNL A   1      32.822  22.504  22.960  1.00  0.00     0.057 A 
BRANCH   7  11
ATOM     11  C   UNL A   1      31.376  24.686  25.624  1.00  0.00     0.248 C 
ATOM     12  C   UNL A   1      30.246  24.052  26.458  1.00  0.00     0.084 C 
BRANCH  11  13
ATOM     13  N   UNL A   1      31.015  25.987  24.996  1.00  0.00    -0.325 N 
ATOM     14  C   UNL A   1      30.959  27.058  25.992  1.00  0.00     0.333 C 
ATOM     15  H   UNL A   1      31.770  26.152  24.330  1.00  0.00     0.348 HD
BRANCH  13  16
ATOM     16  C   UNL A   1      29.773  25.990  24.200  1.00  0.00     0.303 C 
BRANCH  16  17
ATOM     17  C   UNL A   1      29.465  27.277  23.470  1.00  0.00     0.048 A 
ATOM     18  C   UNL A   1      30.434  27.981  22.742  1.00  0.00     0.127 A 
ATOM     19  C   UNL A   1      30.135  29.208  22.140  1.00  0.00     0.047 A 
ATOM     20  C   UNL A   1      28.842  29.721  22.207  1.00  0.00     0.004 A 
ATOM     21  C   UNL A   1      28.163  27.805  23.516  1.00  0.00     0.013 A 
ATOM     22  C   UNL A   1      27.853  29.013  22.885  1.00  0.00     0.001 A 
BRANCH  18  23
ATOM     23  O   UNL A   1      31.729  27.533  22.668  1.00  0.00    -0.496 OA
ATOM     24  C   UNL A   1      32.629  28.636  22.773  1.00  0.00     0.278 C 
ENDBRANCH  18  23
ENDBRANCH  16  17
ENDBRANCH  13  16
ENDBRANCH  11  13
ENDBRANCH   7  11
ENDBRANCH   3   6
ENDBRANCH   1   2
BRANCH   1  25
ATOM     25  C   UNL A   1      37.592  22.059  25.033  1.00  0.00     0.023 C 
BRANCH  25  26
ATOM     26  C   UNL A   1      38.225  20.686  25.297  1.00  0.00     0.023 C 
BRANCH  26  27
ATOM     27  C   UNL A   1      39.446  20.677  26.217  1.00  0.00     0.116 C 
BRANCH  27  28
ATOM     28  N   UNL A   1      40.325  19.531  26.022  1.00  0.00    -0.352 N 
ATOM     29  C   UNL A   1      41.699  19.483  26.068  1.00  0.00     0.251 C 
ATOM     30  H   UNL A   1      39.874  18.676  25.831  1.00  0.00     0.163 HD
ATOM     31  O   UNL A   1      42.288  18.442  25.809  1.00  0.00    -0.269 OA
BRANCH  29  32
ATOM     32  C   UNL A   1      42.457  20.713  26.386  1.00  0.00     0.039 A 
ATOM     33  C   UNL A   1      42.941  21.493  25.332  1.00  0.00     0.014 A 
ATOM     34  C   UNL A   1      42.642  21.119  27.709  1.00  0.00     0.014 A 
ATOM     35  C   UNL A   1      43.533  22.727  25.603  1.00  0.00     0.010 A 
ATOM     36  C   UNL A   1      43.178  22.376  27.974  1.00  0.00     0.010 A 
ATOM     37  C   UNL A   1      43.613  23.199  26.923  1.00  0.00    -0.014 A 
BRANCH  37  38
ATOM     38  C   UNL A   1      44.082  24.576  27.223  1.00  0.00     0.031 A 
ATOM     39  C   UNL A   1      43.121  25.620  27.720  1.00  0.00     0.074 A 
ATOM     40  C   UNL A   1      45.356  24.912  26.937  1.00  0.00     0.049 A 
ATOM     41  N   UNL A   1      43.336  26.887  27.962  1.00  0.00    -0.248 NA
ATOM     42  C   UNL A   1      41.732  25.191  27.951  1.00  0.00     0.031 C 
ATOM     43  C   UNL A   1      46.361  24.010  26.369  1.00  0.00     0.029 A 
ATOM     44  N   UNL A   1      46.016  26.110  27.054  1.00  0.00    -0.354 N 
ATOM     45  C   UNL A   1      42.109  27.416  28.340  1.00  0.00     0.074 A 
ATOM     46  C   UNL A   1      41.146  26.338  28.270  1.00  0.00     0.031 C 
ATOM     47  C   UNL A   1      47.505  24.687  26.184  1.00  0.00     0.029 A 
ATOM     48  C   UNL A   1      47.311  26.074  26.591  1.00  0.00     0.049 A 
ATOM     49  H   UNL A   1      45.601  26.920  27.432  1.00  0.00     0.167 HD
ATOM     50  C   UNL A   1      41.815  28.676  28.739  1.00  0.00     0.034 A 
ATOM     51  C   UNL A   1      48.235  27.049  26.495  1.00  0.00     0.034 A 
ATOM     52  C   UNL A   1      42.785  29.734  28.848  1.00  0.00     0.049 A 
ATOM     53  C   UNL A   1      47.893  28.431  26.982  1.00  0.00     0.074 A 
ATOM     54  C   UNL A   1      42.605  31.017  29.335  1.00  0.00     0.029 A 
ATOM     55  N   UNL A   1      44.111  29.638  28.457  1.00  0.00    -0.354 N 
ATOM     56  N   UNL A   1      46.772  28.867  27.503  1.00  0.00    -0.248 NA
ATOM     57  C   UNL A   1      48.953  29.447  26.899  1.00  0.00     0.031 C 
ATOM     58  C   UNL A   1      43.820  31.702  29.222  1.00  0.00     0.029 A 
ATOM     59  C   UNL A   1      44.759  30.840  28.680  1.00  0.00     0.049 A 
ATOM     60  H   UNL A   1      44.530  28.832  28.076  1.00  0.00     0.167 HD
ATOM     61  C   UNL A   1      46.999  30.198  27.836  1.00  0.00     0.074 A 
ATOM     62  C   UNL A   1      48.374  30.488  27.482  1.00  0.00     0.031 C 
ATOM     63  C   UNL A   1      46.141  31.102  28.369  1.00  0.00     0.034 A 
BRANCH  50  64
ATOM     64  C   UNL A   1      40.396  28.968  29.147  1.00  0.00     0.023 A 
ATOM     65  C   UNL A   1      39.445  29.292  28.157  1.00  0.00     0.012 A 
ATOM     66  C   UNL A   1      39.986  28.861  30.491  1.00  0.00     0.148 A 
ATOM     67  C   UNL A   1      38.116  29.535  28.500  1.00  0.00     0.002 A 
ATOM     68  C   UNL A   1      38.650  29.066  30.820  1.00  0.00     0.091 A 
ATOM     69  F   UNL A   1      40.908  28.575  31.421  1.00  0.00    -0.205 F 
ATOM     70  C   UNL A   1      37.718  29.413  29.828  1.00  0.00     0.022 A 
BRANCH  68  71
ATOM     71  S   UNL A   1      38.021  28.857  32.490  1.00  0.00     0.127 S 
ATOM     72  O   UNL A   1      38.202  27.420  32.695  1.00  0.00    -0.237 OA
ATOM     73  O   UNL A   1      38.925  29.703  33.269  1.00  0.00    -0.237 OA
ATOM     74  O   UNL A   1      36.640  29.316  32.456  1.00  0.00    -0.744 OA
ENDBRANCH  68  71
ENDBRANCH  50  64
BRANCH  51  75
ATOM     75  C   UNL A   1      49.598  26.734  25.979  1.00  0.00     0.023 A 
ATOM     76  C   UNL A   1      50.491  26.010  26.791  1.00  0.00     0.012 A 
ATOM     77  C   UNL A   1      50.000  27.114  24.684  1.00  0.00     0.148 A 
ATOM     78  C   UNL A   1      51.771  25.694  26.335  1.00  0.00     0.002 A 
ATOM     79  C   UNL A   1      51.257  26.748  24.216  1.00  0.00     0.091 A 
ATOM     80  F   UNL A   1      49.141  27.816  23.932  1.00  0.00    -0.205 F 
ATOM     81  C   UNL A   1      52.150  26.053  25.045  1.00  0.00     0.022 A 
BRANCH  79  82
ATOM     82  S   UNL A   1      51.774  27.050  22.522  1.00  0.00     0.127 S 
ATOM     83  O   UNL A   1      53.002  26.263  22.438  1.00  0.00    -0.237 OA
ATOM     84  O   UNL A   1      50.646  26.515  21.759  1.00  0.00    -0.237 OA
ATOM     85  O   UNL A   1      51.934  28.495  22.414  1.00  0.00    -0.744 OA
ENDBRANCH  79  82
ENDBRANCH  51  75
BRANCH  63  86
ATOM     86  C   UNL A   1      46.664  32.492  28.623  1.00  0.00     0.023 A 
ATOM     87  C   UNL A   1      47.218  32.809  29.879  1.00  0.00     0.012 A 
ATOM     88  C   UNL A   1      46.671  33.460  27.600  1.00  0.00     0.148 A 
ATOM     89  C   UNL A   1      47.745  34.077  30.122  1.00  0.00     0.002 A 
ATOM     90  C   UNL A   1      47.239  34.706  27.835  1.00  0.00     0.091 A 
ATOM     91  F   UNL A   1      46.121  33.147  26.417  1.00  0.00    -0.205 F 
ATOM     92  C   UNL A   1      47.767  35.020  29.098  1.00  0.00     0.022 A 
BRANCH  90  93
ATOM     93  S   UNL A   1      47.394  35.951  26.548  1.00  0.00     0.127 S 
ATOM     94  O   UNL A   1      46.138  35.785  25.819  1.00  0.00    -0.237 OA
ATOM     95  O   UNL A   1      47.491  37.190  27.322  1.00  0.00    -0.237 OA
ATOM     96  O   UNL A   1      48.600  35.610  25.806  1.00  0.00    -0.744 OA
ENDBRANCH  90  93
ENDBRANCH  63  86
ENDBRANCH  37  38
ENDBRANCH  29  32
ENDBRANCH  27  28
ENDBRANCH  26  27
ENDBRANCH  25  26
ENDBRANCH   1  25
TORSDOF 19
ENDMDL
