MODEL 1
REMARK VINA RESULT:     -12.3      0.000      0.000
REMARK SMILES CC(C)CCc1cc2c(cc1Cl)C=C(C(=O)NCCCCNC(=O)c1ccc(-c3c4nc(c(-c5cccc(S(=O)(=O)[O-])c5F)c5ccc([nH]5)c(-c5cccc(S(=O)(=O)[O-])c5F)c5nc(c(-c6cccc(S(=O)(=O)[O-])c6F)c6ccc3[nH]6)C=C5)C=C4)cc1)[C@@H](C(F)(F)F)O2
REMARK SMILES IDX 19 1 18 2 17 3 15 4 16 5 14 7 6 8 7 9 11 10 8 11 10 12 12 13
REMARK SMILES IDX 9 14 93 15 13 16 88 17 5 18 4 19 2 20 1 21 3 22 89 23 90 24
REMARK SMILES IDX 91 25 92 26 20 27 21 28 22 29 23 30 24 32 25 33 26 34 87 35
REMARK SMILES IDX 27 36 86 37 28 38 29 39 30 40 80 41 31 42 85 43 79 44 81 45
REMARK SMILES IDX 32 46 84 47 78 48 77 49 33 51 65 52 45 53 64 54 46 55 49 56
REMARK SMILES IDX 63 57 82 58 47 59 48 60 62 62 83 63 50 64 34 65 35 66 43 67
REMARK SMILES IDX 36 68 38 69 44 70 37 71 39 72 40 73 41 74 42 75 66 76 67 77
REMARK SMILES IDX 75 78 68 79 70 80 76 81 69 82 71 83 72 84 73 85 74 86 51 87
REMARK SMILES IDX 52 88 60 89 53 90 55 91 61 92 54 93 56 94 57 95 58 96 59 97
REMARK H PARENT 17 6 22 31 81 50 49 61
REMARK Flexibility Score: inf
ROOT
ATOM      1  C   UNL A   1      37.146  22.418  24.398  1.00  0.00     0.023 C 
ENDROOT
BRANCH   1   2
ATOM      2  C   UNL A   1      36.930  23.508  25.446  1.00  0.00     0.116 C 
BRANCH   2   3
ATOM      3  N   UNL A   1      35.982  23.104  26.469  1.00  0.00    -0.352 N 
ATOM      4  C   UNL A   1      34.656  23.248  26.696  1.00  0.00     0.251 C 
ATOM      5  O   UNL A   1      34.238  22.713  27.729  1.00  0.00    -0.270 OA
ATOM      6  H   UNL A   1      36.419  22.591  27.186  1.00  0.00     0.163 HD
BRANCH   4   7
ATOM      7  C   UNL A   1      33.701  23.981  25.814  1.00  0.00     0.067 C 
ATOM      8  C   UNL A   1      31.005  27.557  23.459  1.00  0.00    -0.026 A 
ATOM      9  C   UNL A   1      31.318  26.209  23.188  1.00  0.00     0.052 A 
ATOM     10  C   UNL A   1      31.596  28.145  24.592  1.00  0.00     0.045 A 
ATOM     11  C   UNL A   1      32.178  25.488  24.015  1.00  0.00     0.128 A 
ATOM     12  C   UNL A   1      32.514  27.433  25.380  1.00  0.00     0.032 A 
ATOM     13  Cl  UNL A   1      31.206  29.735  25.140  1.00  0.00    -0.084 Cl
ATOM     14  C   UNL A   1      32.803  26.100  25.096  1.00  0.00     0.019 A 
ATOM     15  O   UNL A   1      32.377  24.165  23.722  1.00  0.00    -0.475 OA
ATOM     16  C   UNL A   1      33.734  25.325  25.909  1.00  0.00     0.025 C 
ATOM     17  C   UNL A   1      32.713  23.337  24.880  1.00  0.00     0.314 C 
BRANCH   8  18
ATOM     18  C   UNL A   1      29.978  28.218  22.560  1.00  0.00     0.037 C 
BRANCH  18  19
ATOM     19  C   UNL A   1      29.918  29.752  22.479  1.00  0.00     0.008 C 
BRANCH  19  20
ATOM     20  C   UNL A   1      28.515  30.377  22.567  1.00  0.00    -0.017 C 
ATOM     21  C   UNL A   1      27.471  29.368  23.042  1.00  0.00     0.007 C 
ATOM     22  C   UNL A   1      28.549  31.578  23.514  1.00  0.00     0.007 C 
ENDBRANCH  19  20
ENDBRANCH  18  19
ENDBRANCH   8  18
BRANCH  17  23
ATOM     23  C   UNL A   1      31.422  22.893  25.601  1.00  0.00     0.429 C 
ATOM     24  F   UNL A   1      31.425  21.551  25.795  1.00  0.00    -0.167 F 
ATOM     25  F   UNL A   1      31.290  23.460  26.823  1.00  0.00    -0.167 F 
ATOM     26  F   UNL A   1      30.300  23.195  24.909  1.00  0.00    -0.167 F 
ENDBRANCH  17  23
ENDBRANCH   4   7
ENDBRANCH   2   3
ENDBRANCH   1   2
BRANCH   1  27
ATOM     27  C   UNL A   1      37.635  21.081  24.963  1.00  0.00     0.023 C 
BRANCH  27  28
ATOM     28  C   UNL A   1      38.932  21.136  25.765  1.00  0.00     0.116 C 
BRANCH  28  29
ATOM     29  N   UNL A   1      39.678  19.884  25.788  1.00  0.00    -0.352 N 
ATOM     30  C   UNL A   1      41.016  19.717  26.075  1.00  0.00     0.251 C 
ATOM     31  H   UNL A   1      39.170  19.069  25.574  1.00  0.00     0.163 HD
ATOM     32  O   UNL A   1      41.539  18.609  26.021  1.00  0.00    -0.269 OA
BRANCH  30  33
ATOM     33  C   UNL A   1      41.808  20.920  26.388  1.00  0.00     0.039 A 
ATOM     34  C   UNL A   1      42.051  21.263  27.720  1.00  0.00     0.014 A 
ATOM     35  C   UNL A   1      42.162  21.781  25.347  1.00  0.00     0.014 A 
ATOM     36  C   UNL A   1      42.502  22.544  28.019  1.00  0.00     0.010 A 
ATOM     37  C   UNL A   1      42.665  23.046  25.650  1.00  0.00     0.010 A 
ATOM     38  C   UNL A   1      42.774  23.458  26.987  1.00  0.00    -0.014 A 
BRANCH  38  39
ATOM     39  C   UNL A   1      43.101  24.865  27.325  1.00  0.00     0.031 A 
ATOM     40  C   UNL A   1      44.428  25.453  26.925  1.00  0.00     0.074 A 
ATOM     41  C   UNL A   1      42.181  25.630  27.942  1.00  0.00     0.049 A 
ATOM     42  N   UNL A   1      44.884  26.664  27.125  1.00  0.00    -0.248 NA
ATOM     43  C   UNL A   1      45.365  24.575  26.205  1.00  0.00     0.031 C 
ATOM     44  C   UNL A   1      40.860  25.173  28.371  1.00  0.00     0.029 A 
ATOM     45  N   UNL A   1      42.213  26.953  28.298  1.00  0.00    -0.354 N 
ATOM     46  C   UNL A   1      46.169  26.679  26.598  1.00  0.00     0.074 A 
ATOM     47  C   UNL A   1      46.424  25.360  26.061  1.00  0.00     0.031 C 
ATOM     48  C   UNL A   1      40.189  26.209  28.898  1.00  0.00     0.029 A 
ATOM     49  C   UNL A   1      41.048  27.391  28.879  1.00  0.00     0.049 A 
ATOM     50  H   UNL A   1      42.994  27.534  28.151  1.00  0.00     0.167 HD
ATOM     51  C   UNL A   1      47.051  27.704  26.548  1.00  0.00     0.034 A 
ATOM     52  C   UNL A   1      40.707  28.609  29.343  1.00  0.00     0.034 A 
ATOM     53  C   UNL A   1      46.778  29.033  27.021  1.00  0.00     0.049 A 
ATOM     54  C   UNL A   1      41.695  29.733  29.258  1.00  0.00     0.074 A 
ATOM     55  C   UNL A   1      47.603  30.143  26.987  1.00  0.00     0.029 A 
ATOM     56  N   UNL A   1      45.586  29.436  27.601  1.00  0.00    -0.354 N 
ATOM     57  N   UNL A   1      42.887  29.739  28.713  1.00  0.00    -0.248 NA
ATOM     58  C   UNL A   1      41.294  31.019  29.846  1.00  0.00     0.031 C 
ATOM     59  C   UNL A   1      46.903  31.224  27.536  1.00  0.00     0.029 A 
ATOM     60  C   UNL A   1      45.649  30.780  27.923  1.00  0.00     0.049 A 
ATOM     61  H   UNL A   1      44.809  28.852  27.759  1.00  0.00     0.167 HD
ATOM     62  C   UNL A   1      43.382  31.023  28.896  1.00  0.00     0.074 A 
ATOM     63  C   UNL A   1      42.348  31.780  29.574  1.00  0.00     0.031 C 
ATOM     64  C   UNL A   1      44.596  31.523  28.561  1.00  0.00     0.034 A 
BRANCH  51  65
ATOM     65  C   UNL A   1      48.383  27.450  25.902  1.00  0.00     0.023 A 
ATOM     66  C   UNL A   1      49.458  27.023  26.705  1.00  0.00     0.012 A 
ATOM     67  C   UNL A   1      48.551  27.557  24.509  1.00  0.00     0.148 A 
ATOM     68  C   UNL A   1      50.689  26.709  26.128  1.00  0.00     0.002 A 
ATOM     69  C   UNL A   1      49.775  27.225  23.939  1.00  0.00     0.091 A 
ATOM     70  F   UNL A   1      47.518  27.990  23.772  1.00  0.00    -0.205 F 
ATOM     71  C   UNL A   1      50.844  26.801  24.747  1.00  0.00     0.022 A 
BRANCH  69  72
ATOM     72  S   UNL A   1      50.065  27.276  22.167  1.00  0.00     0.127 S 
ATOM     73  O   UNL A   1      49.035  26.362  21.675  1.00  0.00    -0.237 OA
ATOM     74  O   UNL A   1      49.830  28.686  21.855  1.00  0.00    -0.237 OA
ATOM     75  O   UNL A   1      51.438  26.832  21.973  1.00  0.00    -0.744 OA
ENDBRANCH  69  72
ENDBRANCH  51  65
BRANCH  52  76
ATOM     76  C   UNL A   1      39.333  28.821  29.872  1.00  0.00     0.023 A 
ATOM     77  C   UNL A   1      39.064  28.508  31.216  1.00  0.00     0.012 A 
ATOM     78  C   UNL A   1      38.330  29.417  29.085  1.00  0.00     0.148 A 
ATOM     79  C   UNL A   1      37.816  28.787  31.772  1.00  0.00     0.002 A 
ATOM     80  C   UNL A   1      37.104  29.734  29.656  1.00  0.00     0.091 A 
ATOM     81  F   UNL A   1      38.605  29.686  27.801  1.00  0.00    -0.205 F 
ATOM     82  C   UNL A   1      36.842  29.413  30.998  1.00  0.00     0.022 A 
BRANCH  80  83
ATOM     83  S   UNL A   1      35.845  30.657  28.766  1.00  0.00     0.127 S 
ATOM     84  O   UNL A   1      35.145  31.333  29.855  1.00  0.00    -0.237 OA
ATOM     85  O   UNL A   1      36.652  31.531  27.914  1.00  0.00    -0.237 OA
ATOM     86  O   UNL A   1      35.077  29.658  28.036  1.00  0.00    -0.744 OA
ENDBRANCH  80  83
ENDBRANCH  52  76
BRANCH  64  87
ATOM     87  C   UNL A   1      44.892  32.944  28.947  1.00  0.00     0.023 A 
ATOM     88  C   UNL A   1      45.373  33.205  30.244  1.00  0.00     0.012 A 
ATOM     89  C   UNL A   1      44.788  33.994  28.016  1.00  0.00     0.148 A 
ATOM     90  C   UNL A   1      45.740  34.497  30.614  1.00  0.00     0.002 A 
ATOM     91  C   UNL A   1      45.178  35.277  28.386  1.00  0.00     0.091 A 
ATOM     92  F   UNL A   1      44.304  33.724  26.796  1.00  0.00    -0.205 F 
ATOM     93  C   UNL A   1      45.653  35.530  29.684  1.00  0.00     0.022 A 
BRANCH  91  94
ATOM     94  S   UNL A   1      45.155  36.645  27.223  1.00  0.00     0.127 S 
ATOM     95  O   UNL A   1      45.796  37.706  27.996  1.00  0.00    -0.237 OA
ATOM     96  O   UNL A   1      45.957  36.132  26.110  1.00  0.00    -0.237 OA
ATOM     97  O   UNL A   1      43.750  36.858  26.898  1.00  0.00    -0.744 OA
ENDBRANCH  91  94
ENDBRANCH  64  87
ENDBRANCH  38  39
ENDBRANCH  30  33
ENDBRANCH  28  29
ENDBRANCH  27  28
ENDBRANCH   1  27
TORSDOF 18
ENDMDL
MODEL 2
REMARK VINA RESULT:     -12.2      1.816      2.487
REMARK SMILES CC(C)CCc1cc2c(cc1Cl)C=C(C(=O)NCCCCNC(=O)c1ccc(-c3c4nc(c(-c5cccc(S(=O)(=O)[O-])c5F)c5ccc([nH]5)c(-c5cccc(S(=O)(=O)[O-])c5F)c5nc(c(-c6cccc(S(=O)(=O)[O-])c6F)c6ccc3[nH]6)C=C5)C=C4)cc1)[C@@H](C(F)(F)F)O2
REMARK SMILES IDX 19 1 18 2 17 3 15 4 16 5 14 7 6 8 7 9 11 10 8 11 10 12 12 13
REMARK SMILES IDX 9 14 93 15 13 16 88 17 5 18 4 19 2 20 1 21 3 22 89 23 90 24
REMARK SMILES IDX 91 25 92 26 20 27 21 28 22 29 23 30 24 32 25 33 26 34 87 35
REMARK SMILES IDX 27 36 86 37 28 38 29 39 30 40 80 41 31 42 85 43 79 44 81 45
REMARK SMILES IDX 32 46 84 47 78 48 77 49 33 51 65 52 45 53 64 54 46 55 49 56
REMARK SMILES IDX 63 57 82 58 47 59 48 60 62 62 83 63 50 64 34 65 35 66 43 67
REMARK SMILES IDX 36 68 38 69 44 70 37 71 39 72 40 73 41 74 42 75 66 76 67 77
REMARK SMILES IDX 75 78 68 79 70 80 76 81 69 82 71 83 72 84 73 85 74 86 51 87
REMARK SMILES IDX 52 88 60 89 53 90 55 91 61 92 54 93 56 94 57 95 58 96 59 97
REMARK H PARENT 17 6 22 31 81 50 49 61
REMARK Flexibility Score: inf
ROOT
ATOM      1  C   UNL A   1      34.447  21.843  24.020  1.00  0.00     0.023 C 
ENDROOT
BRANCH   1   2
ATOM      2  C   UNL A   1      32.957  21.908  24.343  1.00  0.00     0.116 C 
BRANCH   2   3
ATOM      3  N   UNL A   1      32.712  22.185  25.747  1.00  0.00    -0.352 N 
ATOM      4  C   UNL A   1      32.377  23.262  26.495  1.00  0.00     0.251 C 
ATOM      5  O   UNL A   1      32.254  23.045  27.705  1.00  0.00    -0.270 OA
ATOM      6  H   UNL A   1      32.817  21.378  26.300  1.00  0.00     0.163 HD
BRANCH   4   7
ATOM      7  C   UNL A   1      32.154  24.643  25.974  1.00  0.00     0.067 C 
ATOM      8  C   UNL A   1      30.115  28.851  24.040  1.00  0.00    -0.026 A 
ATOM      9  C   UNL A   1      31.276  28.562  24.787  1.00  0.00     0.052 A 
ATOM     10  C   UNL A   1      29.225  27.791  23.788  1.00  0.00     0.045 A 
ATOM     11  C   UNL A   1      31.529  27.274  25.255  1.00  0.00     0.128 A 
ATOM     12  C   UNL A   1      29.454  26.513  24.323  1.00  0.00     0.032 A 
ATOM     13  Cl  UNL A   1      27.838  27.947  22.773  1.00  0.00    -0.084 Cl
ATOM     14  C   UNL A   1      30.611  26.250  25.053  1.00  0.00     0.019 A 
ATOM     15  O   UNL A   1      32.711  27.061  25.914  1.00  0.00    -0.475 OA
ATOM     16  C   UNL A   1      30.890  24.928  25.601  1.00  0.00     0.025 C 
ATOM     17  C   UNL A   1      33.219  25.693  25.813  1.00  0.00     0.314 C 
BRANCH   8  18
ATOM     18  C   UNL A   1      29.987  30.257  23.487  1.00  0.00     0.037 C 
BRANCH  18  19
ATOM     19  C   UNL A   1      28.876  31.179  24.014  1.00  0.00     0.008 C 
BRANCH  19  20
ATOM     20  C   UNL A   1      28.322  32.207  23.013  1.00  0.00    -0.017 C 
ATOM     21  C   UNL A   1      29.068  33.539  23.092  1.00  0.00     0.007 C 
ATOM     22  C   UNL A   1      28.413  31.641  21.594  1.00  0.00     0.007 C 
ENDBRANCH  19  20
ENDBRANCH  18  19
ENDBRANCH   8  18
BRANCH  17  23
ATOM     23  C   UNL A   1      34.019  25.525  24.503  1.00  0.00     0.429 C 
ATOM     24  F   UNL A   1      35.160  24.828  24.732  1.00  0.00    -0.167 F 
ATOM     25  F   UNL A   1      33.330  24.841  23.559  1.00  0.00    -0.167 F 
ATOM     26  F   UNL A   1      34.375  26.705  23.947  1.00  0.00    -0.167 F 
ENDBRANCH  17  23
ENDBRANCH   4   7
ENDBRANCH   2   3
ENDBRANCH   1   2
BRANCH   1  27
ATOM     27  C   UNL A   1      35.332  21.390  25.185  1.00  0.00     0.023 C 
BRANCH  27  28
ATOM     28  C   UNL A   1      36.757  21.940  25.186  1.00  0.00     0.116 C 
BRANCH  28  29
ATOM     29  N   UNL A   1      37.795  20.918  25.190  1.00  0.00    -0.352 N 
ATOM     30  C   UNL A   1      39.025  20.984  25.809  1.00  0.00     0.251 C 
ATOM     31  H   UNL A   1      37.596  20.090  24.696  1.00  0.00     0.163 HD
ATOM     32  O   UNL A   1      39.834  20.068  25.705  1.00  0.00    -0.269 OA
BRANCH  30  33
ATOM     33  C   UNL A   1      39.360  22.215  26.548  1.00  0.00     0.039 A 
ATOM     34  C   UNL A   1      38.765  23.425  26.184  1.00  0.00     0.014 A 
ATOM     35  C   UNL A   1      40.388  22.173  27.492  1.00  0.00     0.014 A 
ATOM     36  C   UNL A   1      39.313  24.616  26.647  1.00  0.00     0.010 A 
ATOM     37  C   UNL A   1      40.900  23.369  27.995  1.00  0.00     0.010 A 
ATOM     38  C   UNL A   1      40.411  24.598  27.525  1.00  0.00    -0.014 A 
BRANCH  38  39
ATOM     39  C   UNL A   1      41.081  25.871  27.883  1.00  0.00     0.031 A 
ATOM     40  C   UNL A   1      42.479  26.155  27.402  1.00  0.00     0.074 A 
ATOM     41  C   UNL A   1      40.411  26.795  28.596  1.00  0.00     0.049 A 
ATOM     42  N   UNL A   1      43.219  27.215  27.607  1.00  0.00    -0.248 NA
ATOM     43  C   UNL A   1      43.132  25.120  26.582  1.00  0.00     0.031 C 
ATOM     44  C   UNL A   1      39.051  26.637  29.110  1.00  0.00     0.029 A 
ATOM     45  N   UNL A   1      40.777  28.056  28.992  1.00  0.00    -0.354 N 
ATOM     46  C   UNL A   1      44.433  26.958  26.982  1.00  0.00     0.074 A 
ATOM     47  C   UNL A   1      44.334  25.645  26.383  1.00  0.00     0.031 C 
ATOM     48  C   UNL A   1      38.680  27.772  29.722  1.00  0.00     0.029 A 
ATOM     49  C   UNL A   1      39.789  28.722  29.676  1.00  0.00     0.049 A 
ATOM     50  H   UNL A   1      41.661  28.446  28.805  1.00  0.00     0.167 HD
ATOM     51  C   UNL A   1      45.526  27.752  26.898  1.00  0.00     0.034 A 
ATOM     52  C   UNL A   1      39.776  29.960  30.206  1.00  0.00     0.034 A 
ATOM     53  C   UNL A   1      45.606  29.082  27.436  1.00  0.00     0.049 A 
ATOM     54  C   UNL A   1      40.993  30.828  30.083  1.00  0.00     0.074 A 
ATOM     55  C   UNL A   1      46.665  29.971  27.375  1.00  0.00     0.029 A 
ATOM     56  N   UNL A   1      44.584  29.720  28.120  1.00  0.00    -0.354 N 
ATOM     57  N   UNL A   1      42.114  30.584  29.447  1.00  0.00    -0.248 NA
ATOM     58  C   UNL A   1      40.947  32.140  30.743  1.00  0.00     0.031 C 
ATOM     59  C   UNL A   1      46.277  31.155  28.013  1.00  0.00     0.029 A 
ATOM     60  C   UNL A   1      44.983  30.995  28.481  1.00  0.00     0.049 A 
ATOM     61  H   UNL A   1      43.704  29.325  28.318  1.00  0.00     0.167 HD
ATOM     62  C   UNL A   1      42.907  31.708  29.635  1.00  0.00     0.074 A 
ATOM     63  C   UNL A   1      42.128  32.648  30.416  1.00  0.00     0.031 C 
ATOM     64  C   UNL A   1      44.180  31.929  29.224  1.00  0.00     0.034 A 
BRANCH  51  65
ATOM     65  C   UNL A   1      46.714  27.229  26.143  1.00  0.00     0.023 A 
ATOM     66  C   UNL A   1      47.507  26.224  26.731  1.00  0.00     0.012 A 
ATOM     67  C   UNL A   1      47.000  27.668  24.836  1.00  0.00     0.148 A 
ATOM     68  C   UNL A   1      48.574  25.665  26.029  1.00  0.00     0.002 A 
ATOM     69  C   UNL A   1      48.054  27.093  24.136  1.00  0.00     0.091 A 
ATOM     70  F   UNL A   1      46.245  28.643  24.311  1.00  0.00    -0.205 F 
ATOM     71  C   UNL A   1      48.841  26.092  24.730  1.00  0.00     0.022 A 
BRANCH  69  72
ATOM     72  S   UNL A   1      48.458  27.549  22.446  1.00  0.00     0.127 S 
ATOM     73  O   UNL A   1      48.578  26.238  21.810  1.00  0.00    -0.237 OA
ATOM     74  O   UNL A   1      47.280  28.317  22.043  1.00  0.00    -0.237 OA
ATOM     75  O   UNL A   1      49.690  28.321  22.522  1.00  0.00    -0.744 OA
ENDBRANCH  69  72
ENDBRANCH  51  65
BRANCH  52  76
ATOM     76  C   UNL A   1      38.530  30.458  30.847  1.00  0.00     0.023 A 
ATOM     77  C   UNL A   1      38.376  30.319  32.238  1.00  0.00     0.012 A 
ATOM     78  C   UNL A   1      37.552  31.148  30.107  1.00  0.00     0.148 A 
ATOM     79  C   UNL A   1      37.267  30.863  32.886  1.00  0.00     0.002 A 
ATOM     80  C   UNL A   1      36.472  31.727  30.764  1.00  0.00     0.091 A 
ATOM     81  F   UNL A   1      37.712  31.248  28.780  1.00  0.00    -0.205 F 
ATOM     82  C   UNL A   1      36.324  31.579  32.152  1.00  0.00     0.022 A 
BRANCH  80  83
ATOM     83  S   UNL A   1      35.287  32.774  29.912  1.00  0.00     0.127 S 
ATOM     84  O   UNL A   1      36.141  33.847  29.411  1.00  0.00    -0.237 OA
ATOM     85  O   UNL A   1      34.762  31.871  28.887  1.00  0.00    -0.237 OA
ATOM     86  O   UNL A   1      34.311  33.156  30.925  1.00  0.00    -0.744 OA
ENDBRANCH  80  83
ENDBRANCH  52  76
BRANCH  64  87
ATOM     87  C   UNL A   1      44.827  33.220  29.633  1.00  0.00     0.023 A 
ATOM     88  C   UNL A   1      45.672  33.225  30.759  1.00  0.00     0.012 A 
ATOM     89  C   UNL A   1      44.680  34.391  28.866  1.00  0.00     0.148 A 
ATOM     90  C   UNL A   1      46.358  34.382  31.122  1.00  0.00     0.002 A 
ATOM     91  C   UNL A   1      45.387  35.535  29.221  1.00  0.00     0.091 A 
ATOM     92  F   UNL A   1      43.851  34.367  27.812  1.00  0.00    -0.205 F 
ATOM     93  C   UNL A   1      46.225  35.532  30.348  1.00  0.00     0.022 A 
BRANCH  91  94
ATOM     94  S   UNL A   1      45.315  37.035  28.236  1.00  0.00     0.127 S 
ATOM     95  O   UNL A   1      45.707  36.546  26.916  1.00  0.00    -0.237 OA
ATOM     96  O   UNL A   1      43.908  37.425  28.350  1.00  0.00    -0.237 OA
ATOM     97  O   UNL A   1      46.245  37.962  28.870  1.00  0.00    -0.744 OA
ENDBRANCH  91  94
ENDBRANCH  64  87
ENDBRANCH  38  39
ENDBRANCH  30  33
ENDBRANCH  28  29
ENDBRANCH  27  28
ENDBRANCH   1  27
TORSDOF 18
ENDMDL
MODEL 3
REMARK VINA RESULT:     -12.2      5.623      9.072
REMARK SMILES CC(C)CCc1cc2c(cc1Cl)C=C(C(=O)NCCCCNC(=O)c1ccc(-c3c4nc(c(-c5cccc(S(=O)(=O)[O-])c5F)c5ccc([nH]5)c(-c5cccc(S(=O)(=O)[O-])c5F)c5nc(c(-c6cccc(S(=O)(=O)[O-])c6F)c6ccc3[nH]6)C=C5)C=C4)cc1)[C@@H](C(F)(F)F)O2
REMARK SMILES IDX 19 1 18 2 17 3 15 4 16 5 14 7 6 8 7 9 11 10 8 11 10 12 12 13
REMARK SMILES IDX 9 14 93 15 13 16 88 17 5 18 4 19 2 20 1 21 3 22 89 23 90 24
REMARK SMILES IDX 91 25 92 26 20 27 21 28 22 29 23 30 24 32 25 33 26 34 87 35
REMARK SMILES IDX 27 36 86 37 28 38 29 39 30 40 80 41 31 42 85 43 79 44 81 45
REMARK SMILES IDX 32 46 84 47 78 48 77 49 33 51 65 52 45 53 64 54 46 55 49 56
REMARK SMILES IDX 63 57 82 58 47 59 48 60 62 62 83 63 50 64 34 65 35 66 43 67
REMARK SMILES IDX 36 68 38 69 44 70 37 71 39 72 40 73 41 74 42 75 66 76 67 77
REMARK SMILES IDX 75 78 68 79 70 80 76 81 69 82 71 83 72 84 73 85 74 86 51 87
REMARK SMILES IDX 52 88 60 89 53 90 55 91 61 92 54 93 56 94 57 95 58 96 59 97
REMARK H PARENT 17 6 22 31 81 50 49 61
REMARK Flexibility Score: inf
ROOT
ATOM      1  C   UNL A   1      30.655  29.632  24.350  1.00  0.00     0.023 C 
ENDROOT
BRANCH   1   2
ATOM      2  C   UNL A   1      31.025  28.487  23.410  1.00  0.00     0.116 C 
BRANCH   2   3
ATOM      3  N   UNL A   1      32.351  28.651  22.843  1.00  0.00    -0.352 N 
ATOM      4  C   UNL A   1      33.477  27.907  22.737  1.00  0.00     0.251 C 
ATOM      5  O   UNL A   1      34.413  28.451  22.142  1.00  0.00    -0.270 OA
ATOM      6  H   UNL A   1      32.461  29.536  22.427  1.00  0.00     0.163 HD
BRANCH   4   7
ATOM      7  C   UNL A   1      33.654  26.524  23.271  1.00  0.00     0.067 C 
ATOM      8  C   UNL A   1      33.681  21.501  23.876  1.00  0.00    -0.026 A 
ATOM      9  C   UNL A   1      34.371  22.577  24.472  1.00  0.00     0.052 A 
ATOM     10  C   UNL A   1      32.814  21.797  22.808  1.00  0.00     0.045 A 
ATOM     11  C   UNL A   1      34.197  23.883  24.018  1.00  0.00     0.128 A 
ATOM     12  C   UNL A   1      32.699  23.106  22.313  1.00  0.00     0.032 A 
ATOM     13  Cl  UNL A   1      31.793  20.618  22.069  1.00  0.00    -0.084 Cl
ATOM     14  C   UNL A   1      33.386  24.154  22.922  1.00  0.00     0.019 A 
ATOM     15  O   UNL A   1      34.851  24.880  24.693  1.00  0.00    -0.475 OA
ATOM     16  C   UNL A   1      33.269  25.528  22.448  1.00  0.00     0.025 C 
ATOM     17  C   UNL A   1      34.188  26.182  24.634  1.00  0.00     0.314 C 
BRANCH   8  18
ATOM     18  C   UNL A   1      33.858  20.135  24.511  1.00  0.00     0.037 C 
BRANCH  18  19
ATOM     19  C   UNL A   1      32.633  19.396  25.072  1.00  0.00     0.008 C 
BRANCH  19  20
ATOM     20  C   UNL A   1      32.425  17.957  24.568  1.00  0.00    -0.017 C 
ATOM     21  C   UNL A   1      33.435  17.582  23.485  1.00  0.00     0.007 C 
ATOM     22  C   UNL A   1      32.535  16.983  25.744  1.00  0.00     0.007 C 
ENDBRANCH  19  20
ENDBRANCH  18  19
ENDBRANCH   8  18
BRANCH  17  23
ATOM     23  C   UNL A   1      33.104  26.270  25.731  1.00  0.00     0.429 C 
ATOM     24  F   UNL A   1      33.132  25.161  26.512  1.00  0.00    -0.167 F 
ATOM     25  F   UNL A   1      33.285  27.329  26.555  1.00  0.00    -0.167 F 
ATOM     26  F   UNL A   1      31.853  26.376  25.230  1.00  0.00    -0.167 F 
ENDBRANCH  17  23
ENDBRANCH   4   7
ENDBRANCH   2   3
ENDBRANCH   1   2
BRANCH   1  27
ATOM     27  C   UNL A   1      31.289  29.545  25.741  1.00  0.00     0.023 C 
BRANCH  27  28
ATOM     28  C   UNL A   1      32.529  30.410  25.957  1.00  0.00     0.116 C 
BRANCH  28  29
ATOM     29  N   UNL A   1      32.255  31.716  26.543  1.00  0.00    -0.352 N 
ATOM     30  C   UNL A   1      33.081  32.446  27.372  1.00  0.00     0.251 C 
ATOM     31  H   UNL A   1      31.385  32.120  26.325  1.00  0.00     0.163 HD
ATOM     32  O   UNL A   1      32.717  33.521  27.836  1.00  0.00    -0.269 OA
BRANCH  30  33
ATOM     33  C   UNL A   1      34.387  31.864  27.729  1.00  0.00     0.039 A 
ATOM     34  C   UNL A   1      34.489  30.496  27.991  1.00  0.00     0.014 A 
ATOM     35  C   UNL A   1      35.465  32.723  27.957  1.00  0.00     0.014 A 
ATOM     36  C   UNL A   1      35.621  30.012  28.637  1.00  0.00     0.010 A 
ATOM     37  C   UNL A   1      36.620  32.222  28.557  1.00  0.00     0.010 A 
ATOM     38  C   UNL A   1      36.678  30.879  28.960  1.00  0.00    -0.014 A 
BRANCH  38  39
ATOM     39  C   UNL A   1      37.805  30.382  29.786  1.00  0.00     0.031 A 
ATOM     40  C   UNL A   1      38.836  29.462  29.189  1.00  0.00     0.074 A 
ATOM     41  C   UNL A   1      37.930  30.801  31.059  1.00  0.00     0.049 A 
ATOM     42  N   UNL A   1      39.893  28.935  29.753  1.00  0.00    -0.248 NA
ATOM     43  C   UNL A   1      38.666  29.086  27.775  1.00  0.00     0.031 C 
ATOM     44  C   UNL A   1      36.999  31.697  31.744  1.00  0.00     0.029 A 
ATOM     45  N   UNL A   1      38.901  30.545  31.993  1.00  0.00    -0.354 N 
ATOM     46  C   UNL A   1      40.485  28.136  28.783  1.00  0.00     0.074 A 
ATOM     47  C   UNL A   1      39.677  28.249  27.588  1.00  0.00     0.031 C 
ATOM     48  C   UNL A   1      37.462  31.948  32.978  1.00  0.00     0.029 A 
ATOM     49  C   UNL A   1      38.701  31.201  33.183  1.00  0.00     0.049 A 
ATOM     50  H   UNL A   1      39.666  29.949  31.827  1.00  0.00     0.167 HD
ATOM     51  C   UNL A   1      41.611  27.391  28.873  1.00  0.00     0.034 A 
ATOM     52  C   UNL A   1      39.433  31.203  34.313  1.00  0.00     0.034 A 
ATOM     53  C   UNL A   1      42.452  27.328  30.036  1.00  0.00     0.049 A 
ATOM     54  C   UNL A   1      40.688  30.384  34.380  1.00  0.00     0.074 A 
ATOM     55  C   UNL A   1      43.628  26.618  30.208  1.00  0.00     0.029 A 
ATOM     56  N   UNL A   1      42.215  28.008  31.220  1.00  0.00    -0.354 N 
ATOM     57  N   UNL A   1      41.255  29.673  33.436  1.00  0.00    -0.248 NA
ATOM     58  C   UNL A   1      41.406  30.368  35.662  1.00  0.00     0.031 C 
ATOM     59  C   UNL A   1      44.111  26.882  31.495  1.00  0.00     0.029 A 
ATOM     60  C   UNL A   1      43.227  27.742  32.125  1.00  0.00     0.049 A 
ATOM     61  H   UNL A   1      41.443  28.594  31.389  1.00  0.00     0.167 HD
ATOM     62  C   UNL A   1      42.393  29.121  34.010  1.00  0.00     0.074 A 
ATOM     63  C   UNL A   1      42.454  29.605  35.375  1.00  0.00     0.031 C 
ATOM     64  C   UNL A   1      43.290  28.264  33.465  1.00  0.00     0.034 A 
BRANCH  51  65
ATOM     65  C   UNL A   1      42.041  26.624  27.654  1.00  0.00     0.023 A 
ATOM     66  C   UNL A   1      42.774  27.291  26.654  1.00  0.00     0.012 A 
ATOM     67  C   UNL A   1      41.791  25.244  27.535  1.00  0.00     0.148 A 
ATOM     68  C   UNL A   1      43.251  26.593  25.545  1.00  0.00     0.002 A 
ATOM     69  C   UNL A   1      42.285  24.552  26.435  1.00  0.00     0.091 A 
ATOM     70  F   UNL A   1      41.068  24.640  28.489  1.00  0.00    -0.205 F 
ATOM     71  C   UNL A   1      43.015  25.225  25.440  1.00  0.00     0.022 A 
BRANCH  69  72
ATOM     72  S   UNL A   1      42.064  22.782  26.225  1.00  0.00     0.127 S 
ATOM     73  O   UNL A   1      42.741  22.552  24.949  1.00  0.00    -0.237 OA
ATOM     74  O   UNL A   1      42.763  22.242  27.392  1.00  0.00    -0.237 OA
ATOM     75  O   UNL A   1      40.626  22.554  26.219  1.00  0.00    -0.744 OA
ENDBRANCH  69  72
ENDBRANCH  51  65
BRANCH  52  76
ATOM     76  C   UNL A   1      39.011  32.069  35.446  1.00  0.00     0.023 A 
ATOM     77  C   UNL A   1      38.157  31.538  36.429  1.00  0.00     0.012 A 
ATOM     78  C   UNL A   1      39.524  33.370  35.603  1.00  0.00     0.148 A 
ATOM     79  C   UNL A   1      37.820  32.288  37.555  1.00  0.00     0.002 A 
ATOM     80  C   UNL A   1      39.221  34.096  36.750  1.00  0.00     0.091 A 
ATOM     81  F   UNL A   1      40.318  33.861  34.642  1.00  0.00    -0.205 F 
ATOM     82  C   UNL A   1      38.364  33.559  37.723  1.00  0.00     0.022 A 
BRANCH  80  83
ATOM     83  S   UNL A   1      39.984  35.684  37.103  1.00  0.00     0.127 S 
ATOM     84  O   UNL A   1      41.391  35.317  37.235  1.00  0.00    -0.237 OA
ATOM     85  O   UNL A   1      39.656  36.455  35.904  1.00  0.00    -0.237 OA
ATOM     86  O   UNL A   1      39.333  36.163  38.316  1.00  0.00    -0.744 OA
ENDBRANCH  80  83
ENDBRANCH  52  76
BRANCH  64  87
ATOM     87  C   UNL A   1      44.398  27.765  34.346  1.00  0.00     0.023 A 
ATOM     88  C   UNL A   1      45.596  28.501  34.405  1.00  0.00     0.012 A 
ATOM     89  C   UNL A   1      44.228  26.641  35.174  1.00  0.00     0.148 A 
ATOM     90  C   UNL A   1      46.617  28.120  35.274  1.00  0.00     0.002 A 
ATOM     91  C   UNL A   1      45.242  26.280  36.056  1.00  0.00     0.091 A 
ATOM     92  F   UNL A   1      43.087  25.942  35.082  1.00  0.00    -0.205 F 
ATOM     93  C   UNL A   1      46.436  27.018  36.106  1.00  0.00     0.022 A 
BRANCH  91  94
ATOM     94  S   UNL A   1      45.056  24.911  37.203  1.00  0.00     0.127 S 
ATOM     95  O   UNL A   1      45.770  23.841  36.511  1.00  0.00    -0.237 OA
ATOM     96  O   UNL A   1      45.723  25.411  38.407  1.00  0.00    -0.237 OA
ATOM     97  O   UNL A   1      43.619  24.720  37.354  1.00  0.00    -0.744 OA
ENDBRANCH  91  94
ENDBRANCH  64  87
ENDBRANCH  38  39
ENDBRANCH  30  33
ENDBRANCH  28  29
ENDBRANCH  27  28
ENDBRANCH   1  27
TORSDOF 18
ENDMDL
