MODEL 1
REMARK VINA RESULT:     -11.8      0.000      0.000
REMARK SMILES C[C@H](/C=C/C(=O)NCCCCNC(=O)c1ccc(-c2c3nc(c(-c4cccc(S(=O)(=O)[O-])c4F)c4ccc([nH]4)c(-c4cccc(S(=O)(=O)[O-])c4F)c4nc(c(-c5cccc(S(=O)(=O)[O-])c5F)c5ccc2[nH]5)C=C4)C=C3)cc1)n1cncn1
REMARK SMILES IDX 10 1 9 2 8 3 7 4 5 5 6 6 4 8 3 9 2 10 1 11 78 12 79 13 82 14
REMARK SMILES IDX 80 15 81 16 11 17 12 18 13 19 14 21 15 22 16 23 77 24 17 25
REMARK SMILES IDX 76 26 18 27 19 28 20 29 70 30 21 31 75 32 69 33 71 34 22 35
REMARK SMILES IDX 74 36 68 37 67 38 23 40 55 41 35 42 54 43 36 44 39 45 53 46
REMARK SMILES IDX 72 47 37 48 38 49 52 51 73 52 40 53 24 54 25 55 33 56 26 57
REMARK SMILES IDX 28 58 34 59 27 60 29 61 30 62 31 63 32 64 56 65 57 66 65 67
REMARK SMILES IDX 58 68 60 69 66 70 59 71 61 72 62 73 63 74 64 75 41 76 42 77
REMARK SMILES IDX 50 78 43 79 45 80 51 81 44 82 46 83 47 84 48 85 49 86
REMARK H PARENT 7 7 12 20 71 39 39 50
REMARK Flexibility Score: inf
ROOT
ATOM      1  C   UNL A   1      36.709  22.174  23.806  1.00  0.00     0.023 C 
ENDROOT
BRANCH   1   2
ATOM      2  C   UNL A   1      35.571  23.152  23.511  1.00  0.00     0.023 C 
BRANCH   2   3
ATOM      3  C   UNL A   1      34.172  22.542  23.528  1.00  0.00     0.116 C 
BRANCH   3   4
ATOM      4  N   UNL A   1      33.528  22.633  24.828  1.00  0.00    -0.353 N 
ATOM      5  C   UNL A   1      32.620  21.807  25.417  1.00  0.00     0.243 C 
ATOM      6  O   UNL A   1      32.118  22.091  26.500  1.00  0.00    -0.270 OA
ATOM      7  H   UNL A   1      33.787  23.415  25.365  1.00  0.00     0.163 HD
BRANCH   5   8
ATOM      8  C   UNL A   1      32.183  20.576  24.722  1.00  0.00     0.069 C 
ATOM      9  C   UNL A   1      32.911  19.448  24.733  1.00  0.00     0.005 C 
BRANCH   9  10
ATOM     10  C   UNL A   1      32.553  18.147  24.049  1.00  0.00     0.129 C 
ATOM     11  C   UNL A   1      32.528  18.296  22.523  1.00  0.00     0.038 C 
BRANCH  10  12
ATOM     12  N   UNL A   1      33.361  17.029  24.542  1.00  0.00    -0.246 N 
ATOM     13  C   UNL A   1      32.954  15.820  25.024  1.00  0.00     0.220 A 
ATOM     14  N   UNL A   1      34.709  17.135  24.627  1.00  0.00    -0.159 NA
ATOM     15  N   UNL A   1      33.997  15.104  25.375  1.00  0.00    -0.223 NA
ATOM     16  C   UNL A   1      35.044  15.934  25.104  1.00  0.00     0.246 A 
ENDBRANCH  10  12
ENDBRANCH   9  10
ENDBRANCH   5   8
ENDBRANCH   3   4
ENDBRANCH   2   3
ENDBRANCH   1   2
BRANCH   1  17
ATOM     17  C   UNL A   1      36.956  21.857  25.280  1.00  0.00     0.116 C 
BRANCH  17  18
ATOM     18  N   UNL A   1      37.979  20.845  25.507  1.00  0.00    -0.352 N 
ATOM     19  C   UNL A   1      39.225  20.986  26.076  1.00  0.00     0.251 C 
ATOM     20  H   UNL A   1      37.747  19.934  25.213  1.00  0.00     0.163 HD
ATOM     21  O   UNL A   1      39.986  20.032  26.137  1.00  0.00    -0.269 OA
BRANCH  19  22
ATOM     22  C   UNL A   1      39.653  22.314  26.570  1.00  0.00     0.039 A 
ATOM     23  C   UNL A   1      40.710  22.380  27.483  1.00  0.00     0.014 A 
ATOM     24  C   UNL A   1      39.049  23.486  26.108  1.00  0.00     0.014 A 
ATOM     25  C   UNL A   1      41.216  23.623  27.866  1.00  0.00     0.010 A 
ATOM     26  C   UNL A   1      39.597  24.723  26.440  1.00  0.00     0.010 A 
ATOM     27  C   UNL A   1      40.692  24.804  27.314  1.00  0.00    -0.014 A 
BRANCH  27  28
ATOM     28  C   UNL A   1      41.308  26.126  27.601  1.00  0.00     0.031 A 
ATOM     29  C   UNL A   1      42.712  26.430  27.156  1.00  0.00     0.074 A 
ATOM     30  C   UNL A   1      40.630  27.021  28.349  1.00  0.00     0.049 A 
ATOM     31  N   UNL A   1      43.423  27.510  27.355  1.00  0.00    -0.248 NA
ATOM     32  C   UNL A   1      43.421  25.374  26.414  1.00  0.00     0.031 C 
ATOM     33  C   UNL A   1      39.298  26.808  28.922  1.00  0.00     0.029 A 
ATOM     34  N   UNL A   1      40.977  28.277  28.780  1.00  0.00    -0.354 N 
ATOM     35  C   UNL A   1      44.667  27.255  26.793  1.00  0.00     0.074 A 
ATOM     36  C   UNL A   1      44.628  25.906  26.274  1.00  0.00     0.031 C 
ATOM     37  C   UNL A   1      38.942  27.897  29.625  1.00  0.00     0.029 A 
ATOM     38  C   UNL A   1      40.023  28.875  29.571  1.00  0.00     0.049 A 
ATOM     39  H   UNL A   1      41.830  28.710  28.544  1.00  0.00     0.167 HD
ATOM     40  C   UNL A   1      45.736  28.081  26.688  1.00  0.00     0.034 A 
ATOM     41  C   UNL A   1      40.020  30.074  30.185  1.00  0.00     0.034 A 
ATOM     42  C   UNL A   1      45.756  29.439  27.161  1.00  0.00     0.049 A 
ATOM     43  C   UNL A   1      41.198  30.992  30.001  1.00  0.00     0.074 A 
ATOM     44  C   UNL A   1      46.757  30.385  27.019  1.00  0.00     0.029 A 
ATOM     45  N   UNL A   1      44.731  30.046  27.868  1.00  0.00    -0.354 N 
ATOM     46  N   UNL A   1      42.297  30.797  29.313  1.00  0.00    -0.248 NA
ATOM     47  C   UNL A   1      41.118  32.313  30.642  1.00  0.00     0.031 C 
ATOM     48  C   UNL A   1      46.341  31.561  27.651  1.00  0.00     0.029 A 
ATOM     49  C   UNL A   1      45.075  31.353  28.173  1.00  0.00     0.049 A 
ATOM     50  H   UNL A   1      43.882  29.613  28.116  1.00  0.00     0.167 HD
ATOM     51  C   UNL A   1      43.023  31.978  29.412  1.00  0.00     0.074 A 
ATOM     52  C   UNL A   1      42.226  32.894  30.203  1.00  0.00     0.031 C 
ATOM     53  C   UNL A   1      44.247  32.272  28.912  1.00  0.00     0.034 A 
BRANCH  40  54
ATOM     54  C   UNL A   1      46.953  27.562  25.969  1.00  0.00     0.023 A 
ATOM     55  C   UNL A   1      47.866  26.742  26.664  1.00  0.00     0.012 A 
ATOM     56  C   UNL A   1      47.162  27.822  24.600  1.00  0.00     0.148 A 
ATOM     57  C   UNL A   1      48.982  26.213  26.018  1.00  0.00     0.002 A 
ATOM     58  C   UNL A   1      48.255  27.256  23.952  1.00  0.00     0.091 A 
ATOM     59  F   UNL A   1      46.294  28.619  23.960  1.00  0.00    -0.205 F 
ATOM     60  C   UNL A   1      49.170  26.460  24.661  1.00  0.00     0.022 A 
BRANCH  58  61
ATOM     61  S   UNL A   1      48.547  27.451  22.190  1.00  0.00     0.127 S 
ATOM     62  O   UNL A   1      47.362  28.202  21.777  1.00  0.00    -0.237 OA
ATOM     63  O   UNL A   1      49.793  28.218  22.168  1.00  0.00    -0.237 OA
ATOM     64  O   UNL A   1      48.653  26.104  21.648  1.00  0.00    -0.744 OA
ENDBRANCH  58  61
ENDBRANCH  40  54
BRANCH  41  65
ATOM     65  C   UNL A   1      38.828  30.509  30.966  1.00  0.00     0.023 A 
ATOM     66  C   UNL A   1      38.785  30.261  32.353  1.00  0.00     0.012 A 
ATOM     67  C   UNL A   1      37.750  31.181  30.357  1.00  0.00     0.148 A 
ATOM     68  C   UNL A   1      37.678  30.641  33.111  1.00  0.00     0.002 A 
ATOM     69  C   UNL A   1      36.674  31.605  31.129  1.00  0.00     0.091 A 
ATOM     70  F   UNL A   1      37.799  31.394  29.035  1.00  0.00    -0.205 F 
ATOM     71  C   UNL A   1      36.628  31.321  32.502  1.00  0.00     0.022 A 
BRANCH  69  72
ATOM     72  S   UNL A   1      35.345  32.603  30.446  1.00  0.00     0.127 S 
ATOM     73  O   UNL A   1      36.049  33.827  30.075  1.00  0.00    -0.237 OA
ATOM     74  O   UNL A   1      34.894  31.785  29.318  1.00  0.00    -0.237 OA
ATOM     75  O   UNL A   1      34.367  32.727  31.518  1.00  0.00    -0.744 OA
ENDBRANCH  69  72
ENDBRANCH  41  65
BRANCH  53  76
ATOM     76  C   UNL A   1      44.798  33.648  29.179  1.00  0.00     0.023 A 
ATOM     77  C   UNL A   1      45.521  33.891  30.363  1.00  0.00     0.012 A 
ATOM     78  C   UNL A   1      44.657  34.679  28.229  1.00  0.00     0.148 A 
ATOM     79  C   UNL A   1      46.067  35.150  30.614  1.00  0.00     0.002 A 
ATOM     80  C   UNL A   1      45.244  35.917  28.466  1.00  0.00     0.091 A 
ATOM     81  F   UNL A   1      43.948  34.436  27.118  1.00  0.00    -0.205 F 
ATOM     82  C   UNL A   1      45.940  36.157  29.661  1.00  0.00     0.022 A 
BRANCH  80  83
ATOM     83  S   UNL A   1      45.207  37.242  27.252  1.00  0.00     0.127 S 
ATOM     84  O   UNL A   1      43.789  37.290  26.904  1.00  0.00    -0.237 OA
ATOM     85  O   UNL A   1      45.684  38.389  28.027  1.00  0.00    -0.237 OA
ATOM     86  O   UNL A   1      46.104  36.826  26.183  1.00  0.00    -0.744 OA
ENDBRANCH  80  83
ENDBRANCH  53  76
ENDBRANCH  27  28
ENDBRANCH  19  22
ENDBRANCH  17  18
ENDBRANCH   1  17
TORSDOF 16
ENDMDL
MODEL 2
REMARK VINA RESULT:     -11.8      6.144     11.242
REMARK SMILES C[C@H](/C=C/C(=O)NCCCCNC(=O)c1ccc(-c2c3nc(c(-c4cccc(S(=O)(=O)[O-])c4F)c4ccc([nH]4)c(-c4cccc(S(=O)(=O)[O-])c4F)c4nc(c(-c5cccc(S(=O)(=O)[O-])c5F)c5ccc2[nH]5)C=C4)C=C3)cc1)n1cncn1
REMARK SMILES IDX 10 1 9 2 8 3 7 4 5 5 6 6 4 8 3 9 2 10 1 11 78 12 79 13 82 14
REMARK SMILES IDX 80 15 81 16 11 17 12 18 13 19 14 21 15 22 16 23 77 24 17 25
REMARK SMILES IDX 76 26 18 27 19 28 20 29 70 30 21 31 75 32 69 33 71 34 22 35
REMARK SMILES IDX 74 36 68 37 67 38 23 40 55 41 35 42 54 43 36 44 39 45 53 46
REMARK SMILES IDX 72 47 37 48 38 49 52 51 73 52 40 53 24 54 25 55 33 56 26 57
REMARK SMILES IDX 28 58 34 59 27 60 29 61 30 62 31 63 32 64 56 65 57 66 65 67
REMARK SMILES IDX 58 68 60 69 66 70 59 71 61 72 62 73 63 74 64 75 41 76 42 77
REMARK SMILES IDX 50 78 43 79 45 80 51 81 44 82 46 83 47 84 48 85 49 86
REMARK H PARENT 7 7 12 20 71 39 39 50
REMARK Flexibility Score: inf
ROOT
ATOM      1  C   UNL A   1      32.633  29.503  25.252  1.00  0.00     0.023 C 
ENDROOT
BRANCH   1   2
ATOM      2  C   UNL A   1      33.879  28.619  25.186  1.00  0.00     0.023 C 
BRANCH   2   3
ATOM      3  C   UNL A   1      33.623  27.165  24.801  1.00  0.00     0.116 C 
BRANCH   3   4
ATOM      4  N   UNL A   1      33.973  26.872  23.421  1.00  0.00    -0.353 N 
ATOM      5  C   UNL A   1      33.174  26.677  22.335  1.00  0.00     0.243 C 
ATOM      6  O   UNL A   1      33.650  26.355  21.251  1.00  0.00    -0.270 OA
ATOM      7  H   UNL A   1      34.938  26.802  23.244  1.00  0.00     0.163 HD
BRANCH   5   8
ATOM      8  C   UNL A   1      31.706  26.797  22.470  1.00  0.00     0.069 C 
ATOM      9  C   UNL A   1      31.070  27.976  22.375  1.00  0.00     0.005 C 
BRANCH   9  10
ATOM     10  C   UNL A   1      29.579  28.199  22.505  1.00  0.00     0.129 C 
ATOM     11  C   UNL A   1      28.994  27.446  23.706  1.00  0.00     0.038 C 
BRANCH  10  12
ATOM     12  N   UNL A   1      29.231  29.621  22.445  1.00  0.00    -0.246 N 
ATOM     13  C   UNL A   1      29.122  30.524  23.461  1.00  0.00     0.220 A 
ATOM     14  N   UNL A   1      28.897  30.202  21.268  1.00  0.00    -0.159 NA
ATOM     15  N   UNL A   1      28.775  31.697  22.983  1.00  0.00    -0.223 NA
ATOM     16  C   UNL A   1      28.664  31.461  21.644  1.00  0.00     0.246 A 
ENDBRANCH  10  12
ENDBRANCH   9  10
ENDBRANCH   5   8
ENDBRANCH   3   4
ENDBRANCH   2   3
ENDBRANCH   1   2
BRANCH   1  17
ATOM     17  C   UNL A   1      32.192  29.939  26.648  1.00  0.00     0.116 C 
BRANCH  17  18
ATOM     18  N   UNL A   1      32.162  31.382  26.837  1.00  0.00    -0.352 N 
ATOM     19  C   UNL A   1      33.111  32.201  27.407  1.00  0.00     0.251 C 
ATOM     20  H   UNL A   1      31.349  31.836  26.512  1.00  0.00     0.163 HD
ATOM     21  O   UNL A   1      32.895  33.397  27.539  1.00  0.00    -0.269 OA
BRANCH  19  22
ATOM     22  C   UNL A   1      34.376  31.612  27.904  1.00  0.00     0.039 A 
ATOM     23  C   UNL A   1      35.503  32.433  28.000  1.00  0.00     0.014 A 
ATOM     24  C   UNL A   1      34.441  30.277  28.310  1.00  0.00     0.014 A 
ATOM     25  C   UNL A   1      36.671  31.938  28.583  1.00  0.00     0.010 A 
ATOM     26  C   UNL A   1      35.583  29.805  28.951  1.00  0.00     0.010 A 
ATOM     27  C   UNL A   1      36.707  30.633  29.103  1.00  0.00    -0.014 A 
BRANCH  27  28
ATOM     28  C   UNL A   1      37.891  30.136  29.850  1.00  0.00     0.031 A 
ATOM     29  C   UNL A   1      38.168  30.612  31.250  1.00  0.00     0.074 A 
ATOM     30  C   UNL A   1      38.771  29.324  29.228  1.00  0.00     0.049 A 
ATOM     31  N   UNL A   1      39.173  30.319  32.035  1.00  0.00    -0.248 NA
ATOM     32  C   UNL A   1      37.208  31.561  31.836  1.00  0.00     0.031 C 
ATOM     33  C   UNL A   1      38.665  28.868  27.840  1.00  0.00     0.029 A 
ATOM     34  N   UNL A   1      39.942  28.762  29.672  1.00  0.00    -0.354 N 
ATOM     35  C   UNL A   1      38.985  31.067  33.190  1.00  0.00     0.074 A 
ATOM     36  C   UNL A   1      37.787  31.854  32.992  1.00  0.00     0.031 C 
ATOM     37  C   UNL A   1      39.724  28.094  27.549  1.00  0.00     0.029 A 
ATOM     38  C   UNL A   1      40.594  28.015  28.718  1.00  0.00     0.049 A 
ATOM     39  H   UNL A   1      40.283  28.881  30.588  1.00  0.00     0.167 HD
ATOM     40  C   UNL A   1      39.721  31.074  34.327  1.00  0.00     0.034 A 
ATOM     41  C   UNL A   1      41.759  27.342  28.777  1.00  0.00     0.034 A 
ATOM     42  C   UNL A   1      40.884  30.253  34.540  1.00  0.00     0.049 A 
ATOM     43  C   UNL A   1      42.525  27.321  30.072  1.00  0.00     0.074 A 
ATOM     44  C   UNL A   1      41.643  30.120  35.689  1.00  0.00     0.029 A 
ATOM     45  N   UNL A   1      41.456  29.429  33.585  1.00  0.00    -0.354 N 
ATOM     46  N   UNL A   1      42.233  27.897  31.213  1.00  0.00    -0.248 NA
ATOM     47  C   UNL A   1      43.760  26.524  30.101  1.00  0.00     0.031 C 
ATOM     48  C   UNL A   1      42.683  29.223  35.425  1.00  0.00     0.029 A 
ATOM     49  C   UNL A   1      42.562  28.786  34.116  1.00  0.00     0.049 A 
ATOM     50  H   UNL A   1      41.126  29.316  32.665  1.00  0.00     0.167 HD
ATOM     51  C   UNL A   1      43.228  27.506  32.102  1.00  0.00     0.074 A 
ATOM     52  C   UNL A   1      44.116  26.622  31.375  1.00  0.00     0.031 C 
ATOM     53  C   UNL A   1      43.404  27.863  33.398  1.00  0.00     0.034 A 
BRANCH  40  54
ATOM     54  C   UNL A   1      39.251  31.945  35.461  1.00  0.00     0.023 A 
ATOM     55  C   UNL A   1      38.355  31.414  36.412  1.00  0.00     0.012 A 
ATOM     56  C   UNL A   1      39.740  33.255  35.630  1.00  0.00     0.148 A 
ATOM     57  C   UNL A   1      37.930  32.180  37.496  1.00  0.00     0.002 A 
ATOM     58  C   UNL A   1      39.344  33.999  36.737  1.00  0.00     0.091 A 
ATOM     59  F   UNL A   1      40.576  33.750  34.706  1.00  0.00    -0.205 F 
ATOM     60  C   UNL A   1      38.433  33.467  37.664  1.00  0.00     0.022 A 
BRANCH  58  61
ATOM     61  S   UNL A   1      39.990  35.639  37.086  1.00  0.00     0.127 S 
ATOM     62  O   UNL A   1      39.283  35.977  38.321  1.00  0.00    -0.237 OA
ATOM     63  O   UNL A   1      41.420  35.377  37.255  1.00  0.00    -0.237 OA
ATOM     64  O   UNL A   1      39.656  36.458  35.930  1.00  0.00    -0.744 OA
ENDBRANCH  58  61
ENDBRANCH  40  54
BRANCH  41  65
ATOM     65  C   UNL A   1      42.235  26.567  27.596  1.00  0.00     0.023 A 
ATOM     66  C   UNL A   1      43.002  27.218  26.609  1.00  0.00     0.012 A 
ATOM     67  C   UNL A   1      41.954  25.195  27.452  1.00  0.00     0.148 A 
ATOM     68  C   UNL A   1      43.449  26.526  25.483  1.00  0.00     0.002 A 
ATOM     69  C   UNL A   1      42.450  24.499  26.355  1.00  0.00     0.091 A 
ATOM     70  F   UNL A   1      41.210  24.595  28.392  1.00  0.00    -0.205 F 
ATOM     71  C   UNL A   1      43.183  25.165  25.361  1.00  0.00     0.022 A 
BRANCH  69  72
ATOM     72  S   UNL A   1      42.264  22.719  26.190  1.00  0.00     0.127 S 
ATOM     73  O   UNL A   1      42.879  22.472  24.889  1.00  0.00    -0.237 OA
ATOM     74  O   UNL A   1      43.028  22.223  27.337  1.00  0.00    -0.237 OA
ATOM     75  O   UNL A   1      40.831  22.471  26.278  1.00  0.00    -0.744 OA
ENDBRANCH  69  72
ENDBRANCH  41  65
BRANCH  53  76
ATOM     76  C   UNL A   1      44.585  27.281  34.127  1.00  0.00     0.023 A 
ATOM     77  C   UNL A   1      45.838  27.919  34.046  1.00  0.00     0.012 A 
ATOM     78  C   UNL A   1      44.440  26.143  34.945  1.00  0.00     0.148 A 
ATOM     79  C   UNL A   1      46.937  27.415  34.741  1.00  0.00     0.002 A 
ATOM     80  C   UNL A   1      45.529  25.674  35.671  1.00  0.00     0.091 A 
ATOM     81  F   UNL A   1      43.245  25.536  34.995  1.00  0.00    -0.205 F 
ATOM     82  C   UNL A   1      46.780  26.302  35.562  1.00  0.00     0.022 A 
BRANCH  80  83
ATOM     83  S   UNL A   1      45.392  24.301  36.823  1.00  0.00     0.127 S 
ATOM     84  O   UNL A   1      45.108  23.184  35.925  1.00  0.00    -0.237 OA
ATOM     85  O   UNL A   1      46.723  24.271  37.433  1.00  0.00    -0.237 OA
ATOM     86  O   UNL A   1      44.320  24.659  37.742  1.00  0.00    -0.744 OA
ENDBRANCH  80  83
ENDBRANCH  53  76
ENDBRANCH  27  28
ENDBRANCH  19  22
ENDBRANCH  17  18
ENDBRANCH   1  17
TORSDOF 16
ENDMDL
MODEL 3
REMARK VINA RESULT:     -11.7      6.958     12.528
REMARK SMILES C[C@H](/C=C/C(=O)NCCCCNC(=O)c1ccc(-c2c3nc(c(-c4cccc(S(=O)(=O)[O-])c4F)c4ccc([nH]4)c(-c4cccc(S(=O)(=O)[O-])c4F)c4nc(c(-c5cccc(S(=O)(=O)[O-])c5F)c5ccc2[nH]5)C=C4)C=C3)cc1)n1cncn1
REMARK SMILES IDX 10 1 9 2 8 3 7 4 5 5 6 6 4 8 3 9 2 10 1 11 78 12 79 13 82 14
REMARK SMILES IDX 80 15 81 16 11 17 12 18 13 19 14 21 15 22 16 23 77 24 17 25
REMARK SMILES IDX 76 26 18 27 19 28 20 29 70 30 21 31 75 32 69 33 71 34 22 35
REMARK SMILES IDX 74 36 68 37 67 38 23 40 55 41 35 42 54 43 36 44 39 45 53 46
REMARK SMILES IDX 72 47 37 48 38 49 52 51 73 52 40 53 24 54 25 55 33 56 26 57
REMARK SMILES IDX 28 58 34 59 27 60 29 61 30 62 31 63 32 64 56 65 57 66 65 67
REMARK SMILES IDX 58 68 60 69 66 70 59 71 61 72 62 73 63 74 64 75 41 76 42 77
REMARK SMILES IDX 50 78 43 79 45 80 51 81 44 82 46 83 47 84 48 85 49 86
REMARK H PARENT 7 7 12 20 71 39 39 50
REMARK Flexibility Score: inf
ROOT
ATOM      1  C   UNL A   1      34.902  34.529  28.384  1.00  0.00     0.023 C 
ENDROOT
BRANCH   1   2
ATOM      2  C   UNL A   1      34.140  35.853  28.473  1.00  0.00     0.023 C 
BRANCH   2   3
ATOM      3  C   UNL A   1      33.061  35.907  29.550  1.00  0.00     0.116 C 
BRANCH   3   4
ATOM      4  N   UNL A   1      33.136  37.105  30.370  1.00  0.00    -0.353 N 
ATOM      5  C   UNL A   1      33.334  37.240  31.711  1.00  0.00     0.243 C 
ATOM      6  O   UNL A   1      33.285  38.342  32.248  1.00  0.00    -0.270 OA
ATOM      7  H   UNL A   1      33.025  37.951  29.880  1.00  0.00     0.163 HD
BRANCH   5   8
ATOM      8  C   UNL A   1      33.554  36.041  32.547  1.00  0.00     0.069 C 
ATOM      9  C   UNL A   1      34.782  35.593  32.854  1.00  0.00     0.005 C 
BRANCH   9  10
ATOM     10  C   UNL A   1      35.106  34.378  33.693  1.00  0.00     0.129 C 
ATOM     11  C   UNL A   1      34.516  33.097  33.090  1.00  0.00     0.038 C 
BRANCH  10  12
ATOM     12  N   UNL A   1      36.533  34.301  34.017  1.00  0.00    -0.246 N 
ATOM     13  C   UNL A   1      37.140  33.739  35.102  1.00  0.00     0.220 A 
ATOM     14  N   UNL A   1      37.455  34.892  33.221  1.00  0.00    -0.159 NA
ATOM     15  N   UNL A   1      38.442  33.896  35.018  1.00  0.00    -0.223 NA
ATOM     16  C   UNL A   1      38.592  34.589  33.853  1.00  0.00     0.246 A 
ENDBRANCH  10  12
ENDBRANCH   9  10
ENDBRANCH   5   8
ENDBRANCH   3   4
ENDBRANCH   2   3
ENDBRANCH   1   2
BRANCH   1  17
ATOM     17  C   UNL A   1      34.223  33.320  29.024  1.00  0.00     0.116 C 
BRANCH  17  18
ATOM     18  N   UNL A   1      33.821  32.293  28.073  1.00  0.00    -0.352 N 
ATOM     19  C   UNL A   1      34.464  31.121  27.740  1.00  0.00     0.251 C 
ATOM     20  H   UNL A   1      32.971  32.459  27.602  1.00  0.00     0.163 HD
ATOM     21  O   UNL A   1      34.010  30.394  26.869  1.00  0.00    -0.269 OA
BRANCH  19  22
ATOM     22  C   UNL A   1      35.737  30.774  28.413  1.00  0.00     0.039 A 
ATOM     23  C   UNL A   1      35.728  29.768  29.384  1.00  0.00     0.014 A 
ATOM     24  C   UNL A   1      36.934  31.402  28.061  1.00  0.00     0.014 A 
ATOM     25  C   UNL A   1      36.933  29.335  29.940  1.00  0.00     0.010 A 
ATOM     26  C   UNL A   1      38.140  30.924  28.568  1.00  0.00     0.010 A 
ATOM     27  C   UNL A   1      38.153  29.878  29.505  1.00  0.00    -0.014 A 
BRANCH  27  28
ATOM     28  C   UNL A   1      39.450  29.334  29.982  1.00  0.00     0.031 A 
ATOM     29  C   UNL A   1      40.185  29.989  31.119  1.00  0.00     0.074 A 
ATOM     30  C   UNL A   1      40.013  28.298  29.325  1.00  0.00     0.049 A 
ATOM     31  N   UNL A   1      41.344  29.678  31.638  1.00  0.00    -0.248 NA
ATOM     32  C   UNL A   1      39.548  31.165  31.736  1.00  0.00     0.031 C 
ATOM     33  C   UNL A   1      39.447  27.636  28.147  1.00  0.00     0.029 A 
ATOM     34  N   UNL A   1      41.199  27.640  29.535  1.00  0.00    -0.354 N 
ATOM     35  C   UNL A   1      41.591  30.632  32.618  1.00  0.00     0.074 A 
ATOM     36  C   UNL A   1      40.477  31.554  32.599  1.00  0.00     0.031 C 
ATOM     37  C   UNL A   1      40.283  26.665  27.743  1.00  0.00     0.029 A 
ATOM     38  C   UNL A   1      41.452  26.648  28.616  1.00  0.00     0.049 A 
ATOM     39  H   UNL A   1      41.812  27.858  30.275  1.00  0.00     0.167 HD
ATOM     40  C   UNL A   1      42.634  30.714  33.479  1.00  0.00     0.034 A 
ATOM     41  C   UNL A   1      42.506  25.819  28.489  1.00  0.00     0.034 A 
ATOM     42  C   UNL A   1      43.716  29.768  33.528  1.00  0.00     0.049 A 
ATOM     43  C   UNL A   1      43.621  25.896  29.496  1.00  0.00     0.074 A 
ATOM     44  C   UNL A   1      44.770  29.712  34.424  1.00  0.00     0.029 A 
ATOM     45  N   UNL A   1      43.886  28.713  32.646  1.00  0.00    -0.354 N 
ATOM     46  N   UNL A   1      43.748  26.696  30.527  1.00  0.00    -0.248 NA
ATOM     47  C   UNL A   1      44.719  24.929  29.349  1.00  0.00     0.031 C 
ATOM     48  C   UNL A   1      45.583  28.629  34.076  1.00  0.00     0.029 A 
ATOM     49  C   UNL A   1      45.029  28.001  32.973  1.00  0.00     0.049 A 
ATOM     50  H   UNL A   1      43.283  28.499  31.899  1.00  0.00     0.167 HD
ATOM     51  C   UNL A   1      44.919  26.309  31.168  1.00  0.00     0.074 A 
ATOM     52  C   UNL A   1      45.451  25.185  30.424  1.00  0.00     0.031 C 
ATOM     53  C   UNL A   1      45.514  26.848  32.259  1.00  0.00     0.034 A 
BRANCH  40  54
ATOM     54  C   UNL A   1      42.620  31.829  34.490  1.00  0.00     0.023 A 
ATOM     55  C   UNL A   1      43.248  33.052  34.176  1.00  0.00     0.012 A 
ATOM     56  C   UNL A   1      41.934  31.700  35.714  1.00  0.00     0.148 A 
ATOM     57  C   UNL A   1      43.219  34.118  35.073  1.00  0.00     0.002 A 
ATOM     58  C   UNL A   1      41.874  32.782  36.586  1.00  0.00     0.091 A 
ATOM     59  F   UNL A   1      41.359  30.524  36.004  1.00  0.00    -0.205 F 
ATOM     60  C   UNL A   1      42.524  33.987  36.272  1.00  0.00     0.022 A 
BRANCH  58  61
ATOM     61  S   UNL A   1      40.942  32.741  38.121  1.00  0.00     0.127 S 
ATOM     62  O   UNL A   1      39.694  32.111  37.691  1.00  0.00    -0.237 OA
ATOM     63  O   UNL A   1      41.786  31.901  38.972  1.00  0.00    -0.237 OA
ATOM     64  O   UNL A   1      40.826  34.124  38.559  1.00  0.00    -0.744 OA
ENDBRANCH  58  61
ENDBRANCH  40  54
BRANCH  41  65
ATOM     65  C   UNL A   1      42.521  24.789  27.412  1.00  0.00     0.023 A 
ATOM     66  C   UNL A   1      43.144  25.086  26.184  1.00  0.00     0.012 A 
ATOM     67  C   UNL A   1      41.944  23.517  27.598  1.00  0.00     0.148 A 
ATOM     68  C   UNL A   1      43.161  24.150  25.148  1.00  0.00     0.002 A 
ATOM     69  C   UNL A   1      42.013  22.571  26.582  1.00  0.00     0.091 A 
ATOM     70  F   UNL A   1      41.341  23.256  28.767  1.00  0.00    -0.205 F 
ATOM     71  C   UNL A   1      42.606  22.890  25.351  1.00  0.00     0.022 A 
BRANCH  69  72
ATOM     72  S   UNL A   1      41.441  20.882  26.809  1.00  0.00     0.127 S 
ATOM     73  O   UNL A   1      42.173  20.476  28.005  1.00  0.00    -0.237 OA
ATOM     74  O   UNL A   1      40.001  21.069  27.002  1.00  0.00    -0.237 OA
ATOM     75  O   UNL A   1      41.790  20.188  25.578  1.00  0.00    -0.744 OA
ENDBRANCH  69  72
ENDBRANCH  41  65
BRANCH  53  76
ATOM     76  C   UNL A   1      46.795  26.218  32.739  1.00  0.00     0.023 A 
ATOM     77  C   UNL A   1      48.031  26.759  32.337  1.00  0.00     0.012 A 
ATOM     78  C   UNL A   1      46.774  25.134  33.639  1.00  0.00     0.148 A 
ATOM     79  C   UNL A   1      49.228  26.211  32.796  1.00  0.00     0.002 A 
ATOM     80  C   UNL A   1      47.971  24.623  34.128  1.00  0.00     0.091 A 
ATOM     81  F   UNL A   1      45.589  24.618  33.995  1.00  0.00    -0.205 F 
ATOM     82  C   UNL A   1      49.198  25.153  33.699  1.00  0.00     0.022 A 
BRANCH  80  83
ATOM     83  S   UNL A   1      48.021  23.321  35.365  1.00  0.00     0.127 S 
ATOM     84  O   UNL A   1      47.227  22.272  34.729  1.00  0.00    -0.237 OA
ATOM     85  O   UNL A   1      49.453  23.031  35.457  1.00  0.00    -0.237 OA
ATOM     86  O   UNL A   1      47.449  23.898  36.574  1.00  0.00    -0.744 OA
ENDBRANCH  80  83
ENDBRANCH  53  76
ENDBRANCH  27  28
ENDBRANCH  19  22
ENDBRANCH  17  18
ENDBRANCH   1  17
TORSDOF 16
ENDMDL
