MODEL 1
REMARK VINA RESULT:     -13.7      0.000      0.000
REMARK SMILES O=C(Cn1nc(C(=O)NCCCCNC(=O)c2ccc(-c3c4nc(c(-c5cccc(S(=O)(=O)[O-])c5F)c5ccc([nH]5)c(-c5cccc(S(=O)(=O)[O-])c5F)c5nc(c(-c6cccc(S(=O)(=O)[O-])c6F)c6ccc3[nH]6)C=C5)C=C4)cc2)c2ccccc2c1=O)Nc1ccc2c(c1)C(=O)c1ccccc1C2=O
REMARK SMILES IDX 11 1 10 2 9 3 7 4 8 5 6 7 4 8 5 9 86 10 85 11 87 12 80 13
REMARK SMILES IDX 84 14 81 15 83 16 82 17 3 18 2 19 1 20 88 21 89 23 90 24
REMARK SMILES IDX 94 25 91 26 93 27 92 28 95 29 103 30 96 31 97 32 102 33
REMARK SMILES IDX 104 34 98 35 101 36 99 37 100 38 12 39 13 40 14 41 15 42
REMARK SMILES IDX 16 44 17 45 18 46 79 47 19 48 78 49 20 50 21 51 22 52 72 53
REMARK SMILES IDX 23 54 77 55 71 56 73 57 24 58 76 59 70 60 69 61 25 63 57 64
REMARK SMILES IDX 37 65 56 66 38 67 41 68 55 69 74 70 39 71 40 72 54 74 75 75
REMARK SMILES IDX 42 76 26 77 27 78 35 79 28 80 30 81 36 82 29 83 31 84 32 85
REMARK SMILES IDX 33 86 34 87 58 88 59 89 67 90 60 91 62 92 68 93 61 94 63 95
REMARK SMILES IDX 64 96 65 97 66 98 43 99 44 100 52 101 45 102 47 103 53 104
REMARK SMILES IDX 46 105 48 106 49 107 50 108 51 109
REMARK H PARENT 9 6 88 22 14 43 73 62 41 73
REMARK Flexibility Score: inf
ROOT
ATOM      1  C   UNL A   1      36.626  23.605  23.421  1.00  0.00     0.023 C 
ENDROOT
BRANCH   1   2
ATOM      2  C   UNL A   1      35.238  24.073  23.855  1.00  0.00     0.116 C 
BRANCH   2   3
ATOM      3  N   UNL A   1      34.348  24.248  22.723  1.00  0.00    -0.351 N 
ATOM      4  C   UNL A   1      33.108  24.834  22.614  1.00  0.00     0.272 C 
ATOM      5  O   UNL A   1      32.587  24.834  21.505  1.00  0.00    -0.267 OA
ATOM      6  H   UNL A   1      34.696  23.878  21.878  1.00  0.00     0.163 HD
BRANCH   4   7
ATOM      7  C   UNL A   1      32.412  25.515  23.818  1.00  0.00     0.156 A 
ATOM      8  N   UNL A   1      31.154  25.258  25.751  1.00  0.00    -0.219 N 
ATOM      9  N   UNL A   1      31.702  24.759  24.602  1.00  0.00    -0.163 NA
ATOM     10  C   UNL A   1      31.411  26.536  26.232  1.00  0.00     0.275 A 
ATOM     11  C   UNL A   1      32.123  27.445  25.315  1.00  0.00     0.051 A 
ATOM     12  O   UNL A   1      31.062  26.931  27.343  1.00  0.00    -0.267 OA
ATOM     13  C   UNL A   1      32.596  26.970  24.091  1.00  0.00     0.020 A 
ATOM     14  C   UNL A   1      32.283  28.793  25.677  1.00  0.00     0.014 A 
ATOM     15  C   UNL A   1      33.196  27.884  23.213  1.00  0.00     0.011 A 
ATOM     16  C   UNL A   1      32.904  29.684  24.805  1.00  0.00     0.001 A 
ATOM     17  C   UNL A   1      33.352  29.229  23.570  1.00  0.00     0.001 A 
BRANCH   8  18
ATOM     18  C   UNL A   1      30.382  24.321  26.569  1.00  0.00     0.248 C 
BRANCH  18  19
ATOM     19  C   UNL A   1      31.206  23.049  26.784  1.00  0.00     0.246 C 
ATOM     20  O   UNL A   1      31.964  22.909  27.742  1.00  0.00    -0.273 OA
ATOM     21  N   UNL A   1      31.086  22.143  25.736  1.00  0.00    -0.324 N 
ATOM     22  H   UNL A   1      30.181  21.927  25.414  1.00  0.00     0.169 HD
BRANCH  21  23
ATOM     23  C   UNL A   1      32.182  21.514  25.108  1.00  0.00     0.042 A 
ATOM     24  C   UNL A   1      33.468  21.855  25.561  1.00  0.00     0.027 A 
ATOM     25  C   UNL A   1      32.016  20.413  24.268  1.00  0.00     0.039 A 
ATOM     26  C   UNL A   1      34.551  21.005  25.320  1.00  0.00     0.015 A 
ATOM     27  C   UNL A   1      33.081  19.535  24.090  1.00  0.00     0.036 A 
ATOM     28  C   UNL A   1      34.326  19.799  24.657  1.00  0.00     0.034 A 
ATOM     29  C   UNL A   1      32.810  18.201  23.525  1.00  0.00     0.194 C 
ATOM     30  C   UNL A   1      35.313  18.703  24.764  1.00  0.00     0.194 C 
ATOM     31  O   UNL A   1      31.967  18.017  22.662  1.00  0.00    -0.289 OA
ATOM     32  C   UNL A   1      33.536  17.082  24.147  1.00  0.00     0.034 A 
ATOM     33  C   UNL A   1      34.765  17.327  24.761  1.00  0.00     0.034 A 
ATOM     34  O   UNL A   1      36.498  18.921  24.970  1.00  0.00    -0.289 OA
ATOM     35  C   UNL A   1      32.933  15.825  24.227  1.00  0.00     0.013 A 
ATOM     36  C   UNL A   1      35.404  16.309  25.469  1.00  0.00     0.013 A 
ATOM     37  C   UNL A   1      33.556  14.819  24.963  1.00  0.00     0.001 A 
ATOM     38  C   UNL A   1      34.785  15.059  25.582  1.00  0.00     0.001 A 
ENDBRANCH  21  23
ENDBRANCH  18  19
ENDBRANCH   8  18
ENDBRANCH   4   7
ENDBRANCH   2   3
ENDBRANCH   1   2
BRANCH   1  39
ATOM     39  C   UNL A   1      37.022  22.219  23.950  1.00  0.00     0.023 C 
BRANCH  39  40
ATOM     40  C   UNL A   1      37.515  22.180  25.396  1.00  0.00     0.116 C 
BRANCH  40  41
ATOM     41  N   UNL A   1      38.525  21.163  25.642  1.00  0.00    -0.352 N 
ATOM     42  C   UNL A   1      39.710  21.299  26.330  1.00  0.00     0.251 C 
ATOM     43  H   UNL A   1      38.338  20.269  25.274  1.00  0.00     0.163 HD
ATOM     44  O   UNL A   1      40.501  20.364  26.397  1.00  0.00    -0.269 OA
BRANCH  42  45
ATOM     45  C   UNL A   1      40.032  22.606  26.936  1.00  0.00     0.039 A 
ATOM     46  C   UNL A   1      39.401  23.769  26.488  1.00  0.00     0.014 A 
ATOM     47  C   UNL A   1      41.033  22.670  27.909  1.00  0.00     0.014 A 
ATOM     48  C   UNL A   1      39.869  25.009  26.913  1.00  0.00     0.010 A 
ATOM     49  C   UNL A   1      41.466  23.915  28.371  1.00  0.00     0.010 A 
ATOM     50  C   UNL A   1      40.923  25.093  27.837  1.00  0.00    -0.014 A 
BRANCH  50  51
ATOM     51  C   UNL A   1      41.466  26.422  28.212  1.00  0.00     0.031 A 
ATOM     52  C   UNL A   1      42.861  26.817  27.812  1.00  0.00     0.074 A 
ATOM     53  C   UNL A   1      40.685  27.291  28.882  1.00  0.00     0.049 A 
ATOM     54  N   UNL A   1      43.491  27.941  28.033  1.00  0.00    -0.248 NA
ATOM     55  C   UNL A   1      43.654  25.823  27.068  1.00  0.00     0.031 C 
ATOM     56  C   UNL A   1      39.321  27.018  29.333  1.00  0.00     0.029 A 
ATOM     57  N   UNL A   1      40.924  28.578  29.288  1.00  0.00    -0.354 N 
ATOM     58  C   UNL A   1      44.761  27.779  27.494  1.00  0.00     0.074 A 
ATOM     59  C   UNL A   1      44.816  26.450  26.929  1.00  0.00     0.031 C 
ATOM     60  C   UNL A   1      38.829  28.118  29.923  1.00  0.00     0.029 A 
ATOM     61  C   UNL A   1      39.852  29.159  29.922  1.00  0.00     0.049 A 
ATOM     62  H   UNL A   1      41.779  29.041  29.140  1.00  0.00     0.167 HD
ATOM     63  C   UNL A   1      45.782  28.667  27.454  1.00  0.00     0.034 A 
ATOM     64  C   UNL A   1      39.706  30.394  30.442  1.00  0.00     0.034 A 
ATOM     65  C   UNL A   1      45.711  30.010  27.960  1.00  0.00     0.049 A 
ATOM     66  C   UNL A   1      40.842  31.371  30.355  1.00  0.00     0.074 A 
ATOM     67  C   UNL A   1      46.690  30.990  27.934  1.00  0.00     0.029 A 
ATOM     68  N   UNL A   1      44.601  30.568  28.572  1.00  0.00    -0.354 N 
ATOM     69  N   UNL A   1      42.011  31.220  29.779  1.00  0.00    -0.248 NA
ATOM     70  C   UNL A   1      40.640  32.689  30.973  1.00  0.00     0.031 C 
ATOM     71  C   UNL A   1      46.164  32.146  28.519  1.00  0.00     0.029 A 
ATOM     72  C   UNL A   1      44.864  31.881  28.919  1.00  0.00     0.049 A 
ATOM     73  H   UNL A   1      43.750  30.099  28.734  1.00  0.00     0.167 HD
ATOM     74  C   UNL A   1      42.681  32.423  29.961  1.00  0.00     0.074 A 
ATOM     75  C   UNL A   1      41.779  33.302  30.678  1.00  0.00     0.031 C 
ATOM     76  C   UNL A   1      43.940  32.757  29.588  1.00  0.00     0.034 A 
BRANCH  63  77
ATOM     77  C   UNL A   1      47.056  28.238  26.784  1.00  0.00     0.023 A 
ATOM     78  C   UNL A   1      48.149  27.852  27.584  1.00  0.00     0.012 A 
ATOM     79  C   UNL A   1      47.148  28.139  25.383  1.00  0.00     0.148 A 
ATOM     80  C   UNL A   1      49.321  27.377  26.998  1.00  0.00     0.002 A 
ATOM     81  C   UNL A   1      48.312  27.645  24.807  1.00  0.00     0.091 A 
ATOM     82  F   UNL A   1      46.104  28.539  24.643  1.00  0.00    -0.205 F 
ATOM     83  C   UNL A   1      49.399  27.265  25.612  1.00  0.00     0.022 A 
BRANCH  81  84
ATOM     84  S   UNL A   1      48.490  27.421  23.033  1.00  0.00     0.127 S 
ATOM     85  O   UNL A   1      49.850  27.909  22.810  1.00  0.00    -0.237 OA
ATOM     86  O   UNL A   1      48.329  25.974  22.883  1.00  0.00    -0.237 OA
ATOM     87  O   UNL A   1      47.430  28.213  22.424  1.00  0.00    -0.744 OA
ENDBRANCH  81  84
ENDBRANCH  63  77
BRANCH  64  88
ATOM     88  C   UNL A   1      38.392  30.781  31.020  1.00  0.00     0.023 A 
ATOM     89  C   UNL A   1      38.180  30.618  32.402  1.00  0.00     0.012 A 
ATOM     90  C   UNL A   1      37.401  31.401  30.235  1.00  0.00     0.148 A 
ATOM     91  C   UNL A   1      37.001  31.070  32.995  1.00  0.00     0.002 A 
ATOM     92  C   UNL A   1      36.249  31.888  30.839  1.00  0.00     0.091 A 
ATOM     93  F   UNL A   1      37.623  31.530  28.919  1.00  0.00    -0.205 F 
ATOM     94  C   UNL A   1      36.043  31.717  32.217  1.00  0.00     0.022 A 
BRANCH  92  95
ATOM     95  S   UNL A   1      35.021  32.847  29.943  1.00  0.00     0.127 S 
ATOM     96  O   UNL A   1      34.093  33.214  31.009  1.00  0.00    -0.237 OA
ATOM     97  O   UNL A   1      35.826  33.951  29.418  1.00  0.00    -0.237 OA
ATOM     98  O   UNL A   1      34.491  31.953  28.923  1.00  0.00    -0.744 OA
ENDBRANCH  92  95
ENDBRANCH  64  88
BRANCH  76  99
ATOM     99  C   UNL A   1      44.438  34.126  29.955  1.00  0.00     0.023 A 
ATOM    100  C   UNL A   1      45.224  34.274  31.114  1.00  0.00     0.012 A 
ATOM    101  C   UNL A   1      44.226  35.231  29.109  1.00  0.00     0.148 A 
ATOM    102  C   UNL A   1      45.792  35.508  31.428  1.00  0.00     0.002 A 
ATOM    103  C   UNL A   1      44.815  36.452  29.417  1.00  0.00     0.091 A 
ATOM    104  F   UNL A   1      43.457  35.066  28.023  1.00  0.00    -0.205 F 
ATOM    105  C   UNL A   1      45.597  36.592  30.575  1.00  0.00     0.022 A 
BRANCH 103 106
ATOM    106  S   UNL A   1      44.669  37.884  28.343  1.00  0.00     0.127 S 
ATOM    107  O   UNL A   1      43.250  38.208  28.467  1.00  0.00    -0.237 OA
ATOM    108  O   UNL A   1      45.573  38.846  28.977  1.00  0.00    -0.237 OA
ATOM    109  O   UNL A   1      45.098  37.438  27.024  1.00  0.00    -0.744 OA
ENDBRANCH 103 106
ENDBRANCH  76  99
ENDBRANCH  50  51
ENDBRANCH  42  45
ENDBRANCH  40  41
ENDBRANCH  39  40
ENDBRANCH   1  39
TORSDOF 17
ENDMDL
MODEL 2
REMARK VINA RESULT:     -13.5      6.954     17.904
REMARK SMILES O=C(Cn1nc(C(=O)NCCCCNC(=O)c2ccc(-c3c4nc(c(-c5cccc(S(=O)(=O)[O-])c5F)c5ccc([nH]5)c(-c5cccc(S(=O)(=O)[O-])c5F)c5nc(c(-c6cccc(S(=O)(=O)[O-])c6F)c6ccc3[nH]6)C=C5)C=C4)cc2)c2ccccc2c1=O)Nc1ccc2c(c1)C(=O)c1ccccc1C2=O
REMARK SMILES IDX 11 1 10 2 9 3 7 4 8 5 6 7 4 8 5 9 86 10 85 11 87 12 80 13
REMARK SMILES IDX 84 14 81 15 83 16 82 17 3 18 2 19 1 20 88 21 89 23 90 24
REMARK SMILES IDX 94 25 91 26 93 27 92 28 95 29 103 30 96 31 97 32 102 33
REMARK SMILES IDX 104 34 98 35 101 36 99 37 100 38 12 39 13 40 14 41 15 42
REMARK SMILES IDX 16 44 17 45 18 46 79 47 19 48 78 49 20 50 21 51 22 52 72 53
REMARK SMILES IDX 23 54 77 55 71 56 73 57 24 58 76 59 70 60 69 61 25 63 57 64
REMARK SMILES IDX 37 65 56 66 38 67 41 68 55 69 74 70 39 71 40 72 54 74 75 75
REMARK SMILES IDX 42 76 26 77 27 78 35 79 28 80 30 81 36 82 29 83 31 84 32 85
REMARK SMILES IDX 33 86 34 87 58 88 59 89 67 90 60 91 62 92 68 93 61 94 63 95
REMARK SMILES IDX 64 96 65 97 66 98 43 99 44 100 52 101 45 102 47 103 53 104
REMARK SMILES IDX 46 105 48 106 49 107 50 108 51 109
REMARK H PARENT 9 6 88 22 14 43 73 62 41 73
REMARK Flexibility Score: inf
ROOT
ATOM      1  C   UNL A   1      48.382  38.499  26.134  1.00  0.00     0.023 C 
ENDROOT
BRANCH   1   2
ATOM      2  C   UNL A   1      47.292  39.542  25.895  1.00  0.00     0.116 C 
BRANCH   2   3
ATOM      3  N   UNL A   1      47.369  40.632  26.850  1.00  0.00    -0.351 N 
ATOM      4  C   UNL A   1      46.474  41.622  27.182  1.00  0.00     0.272 C 
ATOM      5  O   UNL A   1      46.821  42.421  28.045  1.00  0.00    -0.267 OA
ATOM      6  H   UNL A   1      48.216  40.668  27.350  1.00  0.00     0.163 HD
BRANCH   4   7
ATOM      7  C   UNL A   1      45.066  41.708  26.543  1.00  0.00     0.156 A 
ATOM      8  N   UNL A   1      43.692  42.715  24.967  1.00  0.00    -0.219 N 
ATOM      9  N   UNL A   1      44.866  42.646  25.664  1.00  0.00    -0.163 NA
ATOM     10  C   UNL A   1      42.699  41.746  25.037  1.00  0.00     0.275 A 
ATOM     11  C   UNL A   1      42.851  40.734  26.098  1.00  0.00     0.051 A 
ATOM     12  O   UNL A   1      41.722  41.714  24.292  1.00  0.00    -0.267 OA
ATOM     13  C   UNL A   1      44.003  40.719  26.887  1.00  0.00     0.020 A 
ATOM     14  C   UNL A   1      41.811  39.817  26.323  1.00  0.00     0.014 A 
ATOM     15  C   UNL A   1      44.075  39.793  27.938  1.00  0.00     0.011 A 
ATOM     16  C   UNL A   1      41.908  38.886  27.354  1.00  0.00     0.001 A 
ATOM     17  C   UNL A   1      43.037  38.881  28.166  1.00  0.00     0.001 A 
BRANCH   8  18
ATOM     18  C   UNL A   1      43.573  43.801  23.993  1.00  0.00     0.248 C 
BRANCH  18  19
ATOM     19  C   UNL A   1      44.307  43.405  22.710  1.00  0.00     0.246 C 
ATOM     20  O   UNL A   1      45.461  43.756  22.476  1.00  0.00    -0.273 OA
ATOM     21  N   UNL A   1      43.496  42.718  21.812  1.00  0.00    -0.324 N 
ATOM     22  H   UNL A   1      42.958  41.969  22.156  1.00  0.00     0.169 HD
BRANCH  21  23
ATOM     23  C   UNL A   1      43.399  43.030  20.439  1.00  0.00     0.042 A 
ATOM     24  C   UNL A   1      42.153  42.832  19.819  1.00  0.00     0.027 A 
ATOM     25  C   UNL A   1      44.393  43.750  19.777  1.00  0.00     0.039 A 
ATOM     26  C   UNL A   1      41.844  43.492  18.626  1.00  0.00     0.015 A 
ATOM     27  C   UNL A   1      44.058  44.461  18.628  1.00  0.00     0.036 A 
ATOM     28  C   UNL A   1      42.776  44.378  18.086  1.00  0.00     0.034 A 
ATOM     29  C   UNL A   1      44.982  45.502  18.146  1.00  0.00     0.194 C 
ATOM     30  C   UNL A   1      42.343  45.398  17.108  1.00  0.00     0.194 C 
ATOM     31  O   UNL A   1      46.194  45.387  18.227  1.00  0.00    -0.289 OA
ATOM     32  C   UNL A   1      44.355  46.743  17.665  1.00  0.00     0.034 A 
ATOM     33  C   UNL A   1      43.056  46.696  17.158  1.00  0.00     0.034 A 
ATOM     34  O   UNL A   1      41.372  45.227  16.385  1.00  0.00    -0.289 OA
ATOM     35  C   UNL A   1      45.012  47.963  17.838  1.00  0.00     0.013 A 
ATOM     36  C   UNL A   1      42.397  47.879  16.821  1.00  0.00     0.013 A 
ATOM     37  C   UNL A   1      44.341  49.146  17.533  1.00  0.00     0.001 A 
ATOM     38  C   UNL A   1      43.038  49.104  17.028  1.00  0.00     0.001 A 
ENDBRANCH  21  23
ENDBRANCH  18  19
ENDBRANCH   8  18
ENDBRANCH   4   7
ENDBRANCH   2   3
ENDBRANCH   1   2
BRANCH   1  39
ATOM     39  C   UNL A   1      47.912  37.044  25.989  1.00  0.00     0.023 C 
BRANCH  39  40
ATOM     40  C   UNL A   1      47.793  36.256  27.292  1.00  0.00     0.116 C 
BRANCH  40  41
ATOM     41  N   UNL A   1      47.482  37.080  28.449  1.00  0.00    -0.352 N 
ATOM     42  C   UNL A   1      46.573  36.822  29.450  1.00  0.00     0.251 C 
ATOM     43  H   UNL A   1      47.984  37.924  28.527  1.00  0.00     0.163 HD
ATOM     44  O   UNL A   1      46.366  37.650  30.331  1.00  0.00    -0.269 OA
BRANCH  42  45
ATOM     45  C   UNL A   1      45.813  35.557  29.409  1.00  0.00     0.039 A 
ATOM     46  C   UNL A   1      46.051  34.558  30.356  1.00  0.00     0.014 A 
ATOM     47  C   UNL A   1      44.909  35.346  28.365  1.00  0.00     0.014 A 
ATOM     48  C   UNL A   1      45.490  33.297  30.177  1.00  0.00     0.010 A 
ATOM     49  C   UNL A   1      44.308  34.095  28.217  1.00  0.00     0.010 A 
ATOM     50  C   UNL A   1      44.635  33.047  29.091  1.00  0.00    -0.014 A 
BRANCH  50  51
ATOM     51  C   UNL A   1      44.115  31.675  28.867  1.00  0.00     0.031 A 
ATOM     52  C   UNL A   1      42.734  31.297  29.330  1.00  0.00     0.074 A 
ATOM     53  C   UNL A   1      44.875  30.779  28.211  1.00  0.00     0.049 A 
ATOM     54  N   UNL A   1      42.109  30.157  29.200  1.00  0.00    -0.248 NA
ATOM     55  C   UNL A   1      41.952  32.332  30.028  1.00  0.00     0.031 C 
ATOM     56  C   UNL A   1      46.232  31.025  27.723  1.00  0.00     0.029 A 
ATOM     57  N   UNL A   1      44.609  29.489  27.831  1.00  0.00    -0.354 N 
ATOM     58  C   UNL A   1      40.883  30.319  29.831  1.00  0.00     0.074 A 
ATOM     59  C   UNL A   1      40.845  31.671  30.342  1.00  0.00     0.031 C 
ATOM     60  C   UNL A   1      46.668  29.933  27.078  1.00  0.00     0.029 A 
ATOM     61  C   UNL A   1      45.638  28.901  27.134  1.00  0.00     0.049 A 
ATOM     62  H   UNL A   1      43.765  29.028  28.038  1.00  0.00     0.167 HD
ATOM     63  C   UNL A   1      39.870  29.429  29.955  1.00  0.00     0.034 A 
ATOM     64  C   UNL A   1      45.740  27.669  26.597  1.00  0.00     0.034 A 
ATOM     65  C   UNL A   1      39.880  28.105  29.397  1.00  0.00     0.049 A 
ATOM     66  C   UNL A   1      44.590  26.712  26.719  1.00  0.00     0.074 A 
ATOM     67  C   UNL A   1      38.883  27.145  29.447  1.00  0.00     0.029 A 
ATOM     68  N   UNL A   1      40.929  27.557  28.678  1.00  0.00    -0.354 N 
ATOM     69  N   UNL A   1      43.412  26.911  27.260  1.00  0.00    -0.248 NA
ATOM     70  C   UNL A   1      44.773  25.371  26.148  1.00  0.00     0.031 C 
ATOM     71  C   UNL A   1      39.326  26.019  28.745  1.00  0.00     0.029 A 
ATOM     72  C   UNL A   1      40.602  26.276  28.269  1.00  0.00     0.049 A 
ATOM     73  H   UNL A   1      41.781  28.012  28.485  1.00  0.00     0.167 HD
ATOM     74  C   UNL A   1      42.712  25.723  27.092  1.00  0.00     0.074 A 
ATOM     75  C   UNL A   1      43.588  24.818  26.375  1.00  0.00     0.031 C 
ATOM     76  C   UNL A   1      41.465  25.406  27.516  1.00  0.00     0.034 A 
BRANCH  63  77
ATOM     77  C   UNL A   1      38.630  29.876  30.676  1.00  0.00     0.023 A 
ATOM     78  C   UNL A   1      38.465  29.521  32.028  1.00  0.00     0.012 A 
ATOM     79  C   UNL A   1      37.679  30.703  30.050  1.00  0.00     0.148 A 
ATOM     80  C   UNL A   1      37.364  29.981  32.749  1.00  0.00     0.002 A 
ATOM     81  C   UNL A   1      36.596  31.175  30.781  1.00  0.00     0.091 A 
ATOM     82  F   UNL A   1      37.846  31.004  28.754  1.00  0.00    -0.205 F 
ATOM     83  C   UNL A   1      36.435  30.814  32.129  1.00  0.00     0.022 A 
BRANCH  81  84
ATOM     84  S   UNL A   1      35.372  32.290  30.082  1.00  0.00     0.127 S 
ATOM     85  O   UNL A   1      34.891  31.518  28.936  1.00  0.00    -0.237 OA
ATOM     86  O   UNL A   1      34.409  32.422  31.176  1.00  0.00    -0.237 OA
ATOM     87  O   UNL A   1      36.090  33.515  29.758  1.00  0.00    -0.744 OA
ENDBRANCH  81  84
ENDBRANCH  63  77
BRANCH  64  88
ATOM     88  C   UNL A   1      46.964  27.319  25.828  1.00  0.00     0.023 A 
ATOM     89  C   UNL A   1      47.916  26.463  26.414  1.00  0.00     0.012 A 
ATOM     90  C   UNL A   1      47.136  27.738  24.495  1.00  0.00     0.148 A 
ATOM     91  C   UNL A   1      49.020  26.028  25.682  1.00  0.00     0.002 A 
ATOM     92  C   UNL A   1      48.214  27.264  23.758  1.00  0.00     0.091 A 
ATOM     93  F   UNL A   1      46.221  28.563  23.968  1.00  0.00    -0.205 F 
ATOM     94  C   UNL A   1      49.161  26.416  24.352  1.00  0.00     0.022 A 
BRANCH  92  95
ATOM     95  S   UNL A   1      48.408  27.607  22.005  1.00  0.00     0.127 S 
ATOM     96  O   UNL A   1      49.568  28.495  22.002  1.00  0.00    -0.237 OA
ATOM     97  O   UNL A   1      48.654  26.269  21.464  1.00  0.00    -0.237 OA
ATOM     98  O   UNL A   1      47.152  28.206  21.579  1.00  0.00    -0.744 OA
ENDBRANCH  92  95
ENDBRANCH  64  88
BRANCH  76  99
ATOM     99  C   UNL A   1      40.963  24.018  27.236  1.00  0.00     0.023 A 
ATOM    100  C   UNL A   1      41.610  22.927  27.846  1.00  0.00     0.012 A 
ATOM    101  C   UNL A   1      39.802  23.803  26.470  1.00  0.00     0.148 A 
ATOM    102  C   UNL A   1      41.107  21.635  27.695  1.00  0.00     0.002 A 
ATOM    103  C   UNL A   1      39.294  22.516  26.343  1.00  0.00     0.091 A 
ATOM    104  F   UNL A   1      39.217  24.859  25.885  1.00  0.00    -0.205 F 
ATOM    105  C   UNL A   1      39.946  21.431  26.954  1.00  0.00     0.022 A 
BRANCH 103 106
ATOM    106  S   UNL A   1      37.768  22.169  25.462  1.00  0.00     0.127 S 
ATOM    107  O   UNL A   1      36.766  22.383  26.504  1.00  0.00    -0.237 OA
ATOM    108  O   UNL A   1      37.777  23.182  24.406  1.00  0.00    -0.237 OA
ATOM    109  O   UNL A   1      37.889  20.799  24.980  1.00  0.00    -0.744 OA
ENDBRANCH 103 106
ENDBRANCH  76  99
ENDBRANCH  50  51
ENDBRANCH  42  45
ENDBRANCH  40  41
ENDBRANCH  39  40
ENDBRANCH   1  39
TORSDOF 17
ENDMDL
MODEL 3
REMARK VINA RESULT:     -13.5      9.808     18.053
REMARK SMILES O=C(Cn1nc(C(=O)NCCCCNC(=O)c2ccc(-c3c4nc(c(-c5cccc(S(=O)(=O)[O-])c5F)c5ccc([nH]5)c(-c5cccc(S(=O)(=O)[O-])c5F)c5nc(c(-c6cccc(S(=O)(=O)[O-])c6F)c6ccc3[nH]6)C=C5)C=C4)cc2)c2ccccc2c1=O)Nc1ccc2c(c1)C(=O)c1ccccc1C2=O
REMARK SMILES IDX 11 1 10 2 9 3 7 4 8 5 6 7 4 8 5 9 86 10 85 11 87 12 80 13
REMARK SMILES IDX 84 14 81 15 83 16 82 17 3 18 2 19 1 20 88 21 89 23 90 24
REMARK SMILES IDX 94 25 91 26 93 27 92 28 95 29 103 30 96 31 97 32 102 33
REMARK SMILES IDX 104 34 98 35 101 36 99 37 100 38 12 39 13 40 14 41 15 42
REMARK SMILES IDX 16 44 17 45 18 46 79 47 19 48 78 49 20 50 21 51 22 52 72 53
REMARK SMILES IDX 23 54 77 55 71 56 73 57 24 58 76 59 70 60 69 61 25 63 57 64
REMARK SMILES IDX 37 65 56 66 38 67 41 68 55 69 74 70 39 71 40 72 54 74 75 75
REMARK SMILES IDX 42 76 26 77 27 78 35 79 28 80 30 81 36 82 29 83 31 84 32 85
REMARK SMILES IDX 33 86 34 87 58 88 59 89 67 90 60 91 62 92 68 93 61 94 63 95
REMARK SMILES IDX 64 96 65 97 66 98 43 99 44 100 52 101 45 102 47 103 53 104
REMARK SMILES IDX 46 105 48 106 49 107 50 108 51 109
REMARK H PARENT 9 6 88 22 14 43 73 62 41 73
REMARK Flexibility Score: inf
ROOT
ATOM      1  C   UNL A   1      46.827  39.162  25.929  1.00  0.00     0.023 C 
ENDROOT
BRANCH   1   2
ATOM      2  C   UNL A   1      46.902  40.282  24.893  1.00  0.00     0.116 C 
BRANCH   2   3
ATOM      3  N   UNL A   1      46.920  41.593  25.515  1.00  0.00    -0.351 N 
ATOM      4  C   UNL A   1      45.916  42.364  26.053  1.00  0.00     0.272 C 
ATOM      5  O   UNL A   1      46.238  43.452  26.518  1.00  0.00    -0.267 OA
ATOM      6  H   UNL A   1      47.814  42.004  25.559  1.00  0.00     0.163 HD
BRANCH   4   7
ATOM      7  C   UNL A   1      44.449  41.874  26.124  1.00  0.00     0.156 A 
ATOM      8  N   UNL A   1      42.413  41.634  25.036  1.00  0.00    -0.219 N 
ATOM      9  N   UNL A   1      43.684  42.134  25.105  1.00  0.00    -0.163 NA
ATOM     10  C   UNL A   1      41.895  40.727  25.952  1.00  0.00     0.275 A 
ATOM     11  C   UNL A   1      42.698  40.499  27.167  1.00  0.00     0.051 A 
ATOM     12  O   UNL A   1      40.822  40.145  25.805  1.00  0.00    -0.267 OA
ATOM     13  C   UNL A   1      43.955  41.091  27.293  1.00  0.00     0.020 A 
ATOM     14  C   UNL A   1      42.163  39.712  28.202  1.00  0.00     0.014 A 
ATOM     15  C   UNL A   1      44.652  40.916  28.497  1.00  0.00     0.011 A 
ATOM     16  C   UNL A   1      42.879  39.526  29.382  1.00  0.00     0.001 A 
ATOM     17  C   UNL A   1      44.120  40.136  29.531  1.00  0.00     0.001 A 
BRANCH   8  18
ATOM     18  C   UNL A   1      41.639  41.975  23.841  1.00  0.00     0.248 C 
BRANCH  18  19
ATOM     19  C   UNL A   1      42.347  43.107  23.093  1.00  0.00     0.246 C 
ATOM     20  O   UNL A   1      42.030  44.287  23.230  1.00  0.00    -0.273 OA
ATOM     21  N   UNL A   1      43.286  42.646  22.176  1.00  0.00    -0.324 N 
ATOM     22  H   UNL A   1      43.931  41.967  22.478  1.00  0.00     0.169 HD
BRANCH  21  23
ATOM     23  C   UNL A   1      43.370  43.095  20.840  1.00  0.00     0.042 A 
ATOM     24  C   UNL A   1      42.261  42.863  20.010  1.00  0.00     0.027 A 
ATOM     25  C   UNL A   1      44.379  43.962  20.419  1.00  0.00     0.039 A 
ATOM     26  C   UNL A   1      42.075  43.620  18.850  1.00  0.00     0.015 A 
ATOM     27  C   UNL A   1      44.156  44.761  19.301  1.00  0.00     0.036 A 
ATOM     28  C   UNL A   1      42.987  44.632  18.553  1.00  0.00     0.034 A 
ATOM     29  C   UNL A   1      45.036  45.921  19.076  1.00  0.00     0.194 C 
ATOM     30  C   UNL A   1      42.612  45.713  17.617  1.00  0.00     0.194 C 
ATOM     31  O   UNL A   1      46.228  45.897  19.342  1.00  0.00    -0.289 OA
ATOM     32  C   UNL A   1      44.372  47.151  18.617  1.00  0.00     0.034 A 
ATOM     33  C   UNL A   1      43.177  47.052  17.903  1.00  0.00     0.034 A 
ATOM     34  O   UNL A   1      41.785  45.540  16.733  1.00  0.00    -0.289 OA
ATOM     35  C   UNL A   1      44.872  48.395  19.007  1.00  0.00     0.013 A 
ATOM     36  C   UNL A   1      42.465  48.206  17.575  1.00  0.00     0.013 A 
ATOM     37  C   UNL A   1      44.142  49.544  18.708  1.00  0.00     0.001 A 
ATOM     38  C   UNL A   1      42.943  49.450  17.996  1.00  0.00     0.001 A 
ENDBRANCH  21  23
ENDBRANCH  18  19
ENDBRANCH   8  18
ENDBRANCH   4   7
ENDBRANCH   2   3
ENDBRANCH   1   2
BRANCH   1  39
ATOM     39  C   UNL A   1      47.772  37.983  25.659  1.00  0.00     0.023 C 
BRANCH  39  40
ATOM     40  C   UNL A   1      47.327  36.636  26.226  1.00  0.00     0.116 C 
BRANCH  40  41
ATOM     41  N   UNL A   1      46.691  35.770  25.247  1.00  0.00    -0.352 N 
ATOM     42  C   UNL A   1      45.566  34.992  25.411  1.00  0.00     0.251 C 
ATOM     43  H   UNL A   1      47.114  35.736  24.359  1.00  0.00     0.163 HD
ATOM     44  O   UNL A   1      45.184  34.253  24.510  1.00  0.00    -0.269 OA
BRANCH  42  45
ATOM     45  C   UNL A   1      44.865  35.025  26.709  1.00  0.00     0.039 A 
ATOM     46  C   UNL A   1      43.936  36.030  26.987  1.00  0.00     0.014 A 
ATOM     47  C   UNL A   1      45.202  34.080  27.682  1.00  0.00     0.014 A 
ATOM     48  C   UNL A   1      43.449  36.174  28.283  1.00  0.00     0.010 A 
ATOM     49  C   UNL A   1      44.672  34.197  28.969  1.00  0.00     0.010 A 
ATOM     50  C   UNL A   1      43.833  35.276  29.291  1.00  0.00    -0.014 A 
BRANCH  50  51
ATOM     51  C   UNL A   1      43.374  35.495  30.685  1.00  0.00     0.031 A 
ATOM     52  C   UNL A   1      42.115  34.840  31.185  1.00  0.00     0.074 A 
ATOM     53  C   UNL A   1      44.113  36.257  31.513  1.00  0.00     0.049 A 
ATOM     54  N   UNL A   1      41.577  34.901  32.375  1.00  0.00    -0.248 NA
ATOM     55  C   UNL A   1      41.364  34.009  30.230  1.00  0.00     0.031 C 
ATOM     56  C   UNL A   1      45.345  36.951  31.139  1.00  0.00     0.029 A 
ATOM     57  N   UNL A   1      43.942  36.562  32.838  1.00  0.00    -0.354 N 
ATOM     58  C   UNL A   1      40.408  34.154  32.303  1.00  0.00     0.074 A 
ATOM     59  C   UNL A   1      40.314  33.643  30.954  1.00  0.00     0.031 C 
ATOM     60  C   UNL A   1      45.839  37.574  32.220  1.00  0.00     0.029 A 
ATOM     61  C   UNL A   1      44.944  37.351  33.351  1.00  0.00     0.049 A 
ATOM     62  H   UNL A   1      43.177  36.248  33.371  1.00  0.00     0.167 HD
ATOM     63  C   UNL A   1      39.505  33.899  33.279  1.00  0.00     0.034 A 
ATOM     64  C   UNL A   1      45.125  37.838  34.595  1.00  0.00     0.034 A 
ATOM     65  C   UNL A   1      39.626  34.356  34.636  1.00  0.00     0.049 A 
ATOM     66  C   UNL A   1      44.127  37.513  35.668  1.00  0.00     0.074 A 
ATOM     67  C   UNL A   1      38.773  34.119  35.701  1.00  0.00     0.029 A 
ATOM     68  N   UNL A   1      40.667  35.131  35.121  1.00  0.00    -0.354 N 
ATOM     69  N   UNL A   1      43.065  36.747  35.595  1.00  0.00    -0.248 NA
ATOM     70  C   UNL A   1      44.355  38.104  36.994  1.00  0.00     0.031 C 
ATOM     71  C   UNL A   1      39.306  34.740  36.835  1.00  0.00     0.029 A 
ATOM     72  C   UNL A   1      40.485  35.374  36.471  1.00  0.00     0.049 A 
ATOM     73  H   UNL A   1      41.424  35.459  34.585  1.00  0.00     0.167 HD
ATOM     74  C   UNL A   1      42.501  36.760  36.864  1.00  0.00     0.074 A 
ATOM     75  C   UNL A   1      43.352  37.589  37.694  1.00  0.00     0.031 C 
ATOM     76  C   UNL A   1      41.366  36.159  37.294  1.00  0.00     0.034 A 
BRANCH  63  77
ATOM     77  C   UNL A   1      38.327  33.034  32.935  1.00  0.00     0.023 A 
ATOM     78  C   UNL A   1      38.410  31.647  33.165  1.00  0.00     0.012 A 
ATOM     79  C   UNL A   1      37.123  33.592  32.466  1.00  0.00     0.148 A 
ATOM     80  C   UNL A   1      37.311  30.824  32.928  1.00  0.00     0.002 A 
ATOM     81  C   UNL A   1      36.024  32.768  32.252  1.00  0.00     0.091 A 
ATOM     82  F   UNL A   1      37.078  34.911  32.229  1.00  0.00    -0.205 F 
ATOM     83  C   UNL A   1      36.117  31.385  32.481  1.00  0.00     0.022 A 
BRANCH  81  84
ATOM     84  S   UNL A   1      34.430  33.405  31.721  1.00  0.00     0.127 S 
ATOM     85  O   UNL A   1      33.545  32.888  32.763  1.00  0.00    -0.237 OA
ATOM     86  O   UNL A   1      34.642  34.852  31.762  1.00  0.00    -0.237 OA
ATOM     87  O   UNL A   1      34.212  32.865  30.386  1.00  0.00    -0.744 OA
ENDBRANCH  81  84
ENDBRANCH  63  77
BRANCH  64  88
ATOM     88  C   UNL A   1      46.354  38.623  34.888  1.00  0.00     0.023 A 
ATOM     89  C   UNL A   1      47.533  37.938  35.239  1.00  0.00     0.012 A 
ATOM     90  C   UNL A   1      46.389  40.020  34.719  1.00  0.00     0.148 A 
ATOM     91  C   UNL A   1      48.729  38.633  35.415  1.00  0.00     0.002 A 
ATOM     92  C   UNL A   1      47.593  40.700  34.852  1.00  0.00     0.091 A 
ATOM     93  F   UNL A   1      45.249  40.648  34.399  1.00  0.00    -0.205 F 
ATOM     94  C   UNL A   1      48.762  40.010  35.207  1.00  0.00     0.022 A 
BRANCH  92  95
ATOM     95  S   UNL A   1      47.758  42.450  34.479  1.00  0.00     0.127 S 
ATOM     96  O   UNL A   1      47.322  42.501  33.087  1.00  0.00    -0.237 OA
ATOM     97  O   UNL A   1      46.830  43.050  35.439  1.00  0.00    -0.237 OA
ATOM     98  O   UNL A   1      49.157  42.772  34.716  1.00  0.00    -0.744 OA
ENDBRANCH  92  95
ENDBRANCH  64  88
BRANCH  76  99
ATOM     99  C   UNL A   1      40.956  36.377  38.722  1.00  0.00     0.023 A 
ATOM    100  C   UNL A   1      40.016  37.385  39.012  1.00  0.00     0.012 A 
ATOM    101  C   UNL A   1      41.407  35.526  39.749  1.00  0.00     0.148 A 
ATOM    102  C   UNL A   1      39.533  37.546  40.309  1.00  0.00     0.002 A 
ATOM    103  C   UNL A   1      40.903  35.678  41.035  1.00  0.00     0.091 A 
ATOM    104  F   UNL A   1      42.316  34.588  39.448  1.00  0.00    -0.205 F 
ATOM    105  C   UNL A   1      39.966  36.687  41.317  1.00  0.00     0.022 A 
BRANCH 103 106
ATOM    106  S   UNL A   1      41.357  34.578  42.380  1.00  0.00     0.127 S 
ATOM    107  O   UNL A   1      40.898  33.285  41.875  1.00  0.00    -0.237 OA
ATOM    108  O   UNL A   1      42.812  34.730  42.434  1.00  0.00    -0.237 OA
ATOM    109  O   UNL A   1      40.657  35.077  43.556  1.00  0.00    -0.744 OA
ENDBRANCH 103 106
ENDBRANCH  76  99
ENDBRANCH  50  51
ENDBRANCH  42  45
ENDBRANCH  40  41
ENDBRANCH  39  40
ENDBRANCH   1  39
TORSDOF 17
ENDMDL
