MODEL 1
REMARK VINA RESULT:     -12.2      0.000      0.000
REMARK SMILES C/C(=C/C[N@H+]1C[C@H]2CCC[N@H+]2C[C@@H]1C)C(=O)NCCCCNC(=O)c1ccc(-c2c3nc(c(-c4cccc(S(=O)(=O)[O-])c4F)c4ccc([nH]4)c(-c4cccc(S(=O)(=O)[O-])c4F)c4nc(c(-c5cccc(S(=O)(=O)[O-])c5F)c5ccc2[nH]5)C=C4)C=C3)cc1
REMARK SMILES IDX 20 1 19 2 18 3 17 4 15 5 16 6 2 8 1 9 3 10 4 11 5 12 6 13
REMARK SMILES IDX 13 14 7 16 12 17 14 18 8 19 11 20 9 21 10 22 21 24 22 25
REMARK SMILES IDX 23 26 24 28 25 29 26 30 87 31 27 32 86 33 28 34 29 35 30 36
REMARK SMILES IDX 80 37 31 38 85 39 79 40 81 41 32 42 84 43 78 44 77 45 33 47
REMARK SMILES IDX 65 48 45 49 64 50 46 51 49 52 63 53 82 54 47 55 48 56 62 58
REMARK SMILES IDX 83 59 50 60 34 61 35 62 43 63 36 64 38 65 44 66 37 67 39 68
REMARK SMILES IDX 40 69 41 70 42 71 66 72 67 73 75 74 68 75 70 76 76 77 69 78
REMARK SMILES IDX 71 79 72 80 73 81 74 82 51 83 52 84 60 85 53 86 55 87 61 88
REMARK SMILES IDX 54 89 56 90 57 91 58 92 59 93
REMARK H PARENT 17 7 5 15 11 23 22 27 81 46 49 57
REMARK Flexibility Score: inf
ROOT
ATOM      1  C   UNL A   1      31.769  29.514  26.887  1.00  0.00     0.023 C 
ENDROOT
BRANCH   1   2
ATOM      2  C   UNL A   1      32.255  28.163  27.410  1.00  0.00     0.023 C 
BRANCH   2   3
ATOM      3  C   UNL A   1      32.329  27.044  26.363  1.00  0.00     0.116 C 
BRANCH   3   4
ATOM      4  N   UNL A   1      31.723  25.840  26.877  1.00  0.00    -0.352 N 
ATOM      5  C   UNL A   1      31.803  24.531  26.565  1.00  0.00     0.246 C 
ATOM      6  O   UNL A   1      31.075  23.794  27.242  1.00  0.00    -0.270 OA
ATOM      7  H   UNL A   1      31.112  26.015  27.628  1.00  0.00     0.163 HD
BRANCH   5   8
ATOM      8  C   UNL A   1      32.733  23.882  25.561  1.00  0.00     0.015 C 
ATOM      9  C   UNL A   1      34.089  23.650  26.223  1.00  0.00     0.050 C 
ATOM     10  C   UNL A   1      32.624  23.433  24.291  1.00  0.00     0.042 C 
BRANCH  10  11
ATOM     11  C   UNL A   1      31.530  23.346  23.273  1.00  0.00     0.292 C 
BRANCH  11  12
ATOM     12  N   UNL A   1      31.399  24.601  22.511  1.00  0.00    -0.320 N 
ATOM     13  C   UNL A   1      30.608  25.599  23.267  1.00  0.00     0.328 C 
ATOM     14  C   UNL A   1      32.705  25.165  22.062  1.00  0.00     0.237 C 
ATOM     15  H   UNL A   1      30.895  24.366  21.657  1.00  0.00     0.348 HD
ATOM     16  C   UNL A   1      30.648  27.024  22.672  1.00  0.00     0.240 C 
ATOM     17  C   UNL A   1      33.048  26.570  22.643  1.00  0.00     0.328 C 
ATOM     18  C   UNL A   1      32.700  25.242  20.525  1.00  0.00     0.081 C 
ATOM     19  C   UNL A   1      29.999  28.055  23.594  1.00  0.00     0.077 C 
ATOM     20  N   UNL A   1      31.994  27.554  22.381  1.00  0.00    -0.323 N 
ATOM     21  C   UNL A   1      30.768  29.328  23.295  1.00  0.00     0.068 C 
ATOM     22  C   UNL A   1      32.181  28.816  23.091  1.00  0.00     0.263 C 
ATOM     23  H   UNL A   1      32.069  27.746  21.382  1.00  0.00     0.348 HD
ENDBRANCH  11  12
ENDBRANCH  10  11
ENDBRANCH   5   8
ENDBRANCH   3   4
ENDBRANCH   2   3
ENDBRANCH   1   2
BRANCH   1  24
ATOM     24  C   UNL A   1      32.889  30.456  26.456  1.00  0.00     0.116 C 
BRANCH  24  25
ATOM     25  N   UNL A   1      32.792  31.796  27.022  1.00  0.00    -0.352 N 
ATOM     26  C   UNL A   1      33.718  32.473  27.781  1.00  0.00     0.251 C 
ATOM     27  H   UNL A   1      31.953  32.279  26.838  1.00  0.00     0.163 HD
ATOM     28  O   UNL A   1      33.455  33.587  28.227  1.00  0.00    -0.269 OA
BRANCH  26  29
ATOM     29  C   UNL A   1      35.000  31.812  28.112  1.00  0.00     0.039 A 
ATOM     30  C   UNL A   1      36.168  32.578  28.099  1.00  0.00     0.014 A 
ATOM     31  C   UNL A   1      35.037  30.477  28.520  1.00  0.00     0.014 A 
ATOM     32  C   UNL A   1      37.354  32.029  28.592  1.00  0.00     0.010 A 
ATOM     33  C   UNL A   1      36.198  29.960  29.086  1.00  0.00     0.010 A 
ATOM     34  C   UNL A   1      37.365  30.735  29.141  1.00  0.00    -0.014 A 
BRANCH  34  35
ATOM     35  C   UNL A   1      38.569  30.217  29.837  1.00  0.00     0.031 A 
ATOM     36  C   UNL A   1      38.944  30.709  31.206  1.00  0.00     0.074 A 
ATOM     37  C   UNL A   1      39.380  29.359  29.187  1.00  0.00     0.049 A 
ATOM     38  N   UNL A   1      39.933  30.325  31.972  1.00  0.00    -0.248 NA
ATOM     39  C   UNL A   1      38.128  31.791  31.779  1.00  0.00     0.031 C 
ATOM     40  C   UNL A   1      39.202  28.909  27.803  1.00  0.00     0.029 A 
ATOM     41  N   UNL A   1      40.528  28.724  29.593  1.00  0.00    -0.354 N 
ATOM     42  C   UNL A   1      39.876  31.133  33.100  1.00  0.00     0.074 A 
ATOM     43  C   UNL A   1      38.781  32.057  32.902  1.00  0.00     0.031 C 
ATOM     44  C   UNL A   1      40.191  28.059  27.485  1.00  0.00     0.029 A 
ATOM     45  C   UNL A   1      41.077  27.906  28.634  1.00  0.00     0.049 A 
ATOM     46  H   UNL A   1      40.921  28.844  30.488  1.00  0.00     0.167 HD
ATOM     47  C   UNL A   1      40.641  31.087  34.217  1.00  0.00     0.034 A 
ATOM     48  C   UNL A   1      42.158  27.103  28.681  1.00  0.00     0.034 A 
ATOM     49  C   UNL A   1      41.694  30.131  34.431  1.00  0.00     0.049 A 
ATOM     50  C   UNL A   1      42.918  26.982  29.973  1.00  0.00     0.074 A 
ATOM     51  C   UNL A   1      42.453  29.926  35.568  1.00  0.00     0.029 A 
ATOM     52  N   UNL A   1      42.138  29.221  33.485  1.00  0.00    -0.354 N 
ATOM     53  N   UNL A   1      42.714  27.603  31.111  1.00  0.00    -0.248 NA
ATOM     54  C   UNL A   1      44.024  26.014  30.007  1.00  0.00     0.031 C 
ATOM     55  C   UNL A   1      43.362  28.893  35.309  1.00  0.00     0.029 A 
ATOM     56  C   UNL A   1      43.161  28.450  34.011  1.00  0.00     0.049 A 
ATOM     57  H   UNL A   1      41.779  29.135  32.572  1.00  0.00     0.167 HD
ATOM     58  C   UNL A   1      43.639  27.076  32.004  1.00  0.00     0.074 A 
ATOM     59  C   UNL A   1      44.390  26.069  31.282  1.00  0.00     0.031 C 
ATOM     60  C   UNL A   1      43.859  27.410  33.300  1.00  0.00     0.034 A 
BRANCH  47  61
ATOM     61  C   UNL A   1      40.308  32.046  35.328  1.00  0.00     0.023 A 
ATOM     62  C   UNL A   1      41.090  33.207  35.490  1.00  0.00     0.012 A 
ATOM     63  C   UNL A   1      39.206  31.832  36.177  1.00  0.00     0.148 A 
ATOM     64  C   UNL A   1      40.803  34.125  36.500  1.00  0.00     0.002 A 
ATOM     65  C   UNL A   1      38.901  32.772  37.157  1.00  0.00     0.091 A 
ATOM     66  F   UNL A   1      38.488  30.710  36.027  1.00  0.00    -0.205 F 
ATOM     67  C   UNL A   1      39.704  33.912  37.327  1.00  0.00     0.022 A 
BRANCH  65  68
ATOM     68  S   UNL A   1      37.461  32.620  38.220  1.00  0.00     0.127 S 
ATOM     69  O   UNL A   1      37.475  31.192  38.536  1.00  0.00    -0.237 OA
ATOM     70  O   UNL A   1      37.805  33.495  39.341  1.00  0.00    -0.237 OA
ATOM     71  O   UNL A   1      36.331  33.080  37.423  1.00  0.00    -0.744 OA
ENDBRANCH  65  68
ENDBRANCH  47  61
BRANCH  48  72
ATOM     72  C   UNL A   1      42.500  26.257  27.504  1.00  0.00     0.023 A 
ATOM     73  C   UNL A   1      43.334  26.785  26.499  1.00  0.00     0.012 A 
ATOM     74  C   UNL A   1      42.057  24.926  27.398  1.00  0.00     0.148 A 
ATOM     75  C   UNL A   1      43.698  26.013  25.396  1.00  0.00     0.002 A 
ATOM     76  C   UNL A   1      42.466  24.144  26.323  1.00  0.00     0.091 A 
ATOM     77  F   UNL A   1      41.254  24.444  28.358  1.00  0.00    -0.205 F 
ATOM     78  C   UNL A   1      43.275  24.689  25.314  1.00  0.00     0.022 A 
BRANCH  76  79
ATOM     79  S   UNL A   1      42.078  22.392  26.211  1.00  0.00     0.127 S 
ATOM     80  O   UNL A   1      42.796  22.003  25.001  1.00  0.00    -0.237 OA
ATOM     81  O   UNL A   1      42.645  21.875  27.458  1.00  0.00    -0.237 OA
ATOM     82  O   UNL A   1      40.625  22.321  26.143  1.00  0.00    -0.744 OA
ENDBRANCH  76  79
ENDBRANCH  48  72
BRANCH  60  83
ATOM     83  C   UNL A   1      44.939  26.665  34.037  1.00  0.00     0.023 A 
ATOM     84  C   UNL A   1      46.264  27.145  33.999  1.00  0.00     0.012 A 
ATOM     85  C   UNL A   1      44.635  25.537  34.822  1.00  0.00     0.148 A 
ATOM     86  C   UNL A   1      47.273  26.495  34.708  1.00  0.00     0.002 A 
ATOM     87  C   UNL A   1      45.639  24.920  35.561  1.00  0.00     0.091 A 
ATOM     88  F   UNL A   1      43.374  25.078  34.828  1.00  0.00    -0.205 F 
ATOM     89  C   UNL A   1      46.959  25.391  35.497  1.00  0.00     0.022 A 
BRANCH  87  90
ATOM     90  S   UNL A   1      45.291  23.549  36.669  1.00  0.00     0.127 S 
ATOM     91  O   UNL A   1      46.635  23.131  37.062  1.00  0.00    -0.237 OA
ATOM     92  O   UNL A   1      44.517  24.189  37.734  1.00  0.00    -0.237 OA
ATOM     93  O   UNL A   1      44.533  22.589  35.876  1.00  0.00    -0.744 OA
ENDBRANCH  87  90
ENDBRANCH  60  83
ENDBRANCH  34  35
ENDBRANCH  26  29
ENDBRANCH  24  25
ENDBRANCH   1  24
TORSDOF 16
ENDMDL
MODEL 2
REMARK VINA RESULT:     -12.0      2.118      3.419
REMARK SMILES C/C(=C/C[N@H+]1C[C@H]2CCC[N@H+]2C[C@@H]1C)C(=O)NCCCCNC(=O)c1ccc(-c2c3nc(c(-c4cccc(S(=O)(=O)[O-])c4F)c4ccc([nH]4)c(-c4cccc(S(=O)(=O)[O-])c4F)c4nc(c(-c5cccc(S(=O)(=O)[O-])c5F)c5ccc2[nH]5)C=C4)C=C3)cc1
REMARK SMILES IDX 20 1 19 2 18 3 17 4 15 5 16 6 2 8 1 9 3 10 4 11 5 12 6 13
REMARK SMILES IDX 13 14 7 16 12 17 14 18 8 19 11 20 9 21 10 22 21 24 22 25
REMARK SMILES IDX 23 26 24 28 25 29 26 30 87 31 27 32 86 33 28 34 29 35 30 36
REMARK SMILES IDX 80 37 31 38 85 39 79 40 81 41 32 42 84 43 78 44 77 45 33 47
REMARK SMILES IDX 65 48 45 49 64 50 46 51 49 52 63 53 82 54 47 55 48 56 62 58
REMARK SMILES IDX 83 59 50 60 34 61 35 62 43 63 36 64 38 65 44 66 37 67 39 68
REMARK SMILES IDX 40 69 41 70 42 71 66 72 67 73 75 74 68 75 70 76 76 77 69 78
REMARK SMILES IDX 71 79 72 80 73 81 74 82 51 83 52 84 60 85 53 86 55 87 61 88
REMARK SMILES IDX 54 89 56 90 57 91 58 92 59 93
REMARK H PARENT 17 7 5 15 11 23 22 27 81 46 49 57
REMARK Flexibility Score: inf
ROOT
ATOM      1  C   UNL A   1      31.443  28.992  25.274  1.00  0.00     0.023 C 
ENDROOT
BRANCH   1   2
ATOM      2  C   UNL A   1      31.513  28.991  23.748  1.00  0.00     0.023 C 
BRANCH   2   3
ATOM      3  C   UNL A   1      30.997  27.713  23.070  1.00  0.00     0.116 C 
BRANCH   3   4
ATOM      4  N   UNL A   1      31.989  27.197  22.160  1.00  0.00    -0.352 N 
ATOM      5  C   UNL A   1      32.992  26.301  22.260  1.00  0.00     0.246 C 
ATOM      6  O   UNL A   1      33.661  26.160  21.228  1.00  0.00    -0.270 OA
ATOM      7  H   UNL A   1      31.918  27.589  21.260  1.00  0.00     0.163 HD
BRANCH   5   8
ATOM      8  C   UNL A   1      33.314  25.413  23.442  1.00  0.00     0.015 C 
ATOM      9  C   UNL A   1      33.950  26.264  24.540  1.00  0.00     0.050 C 
ATOM     10  C   UNL A   1      33.125  24.112  23.755  1.00  0.00     0.042 C 
BRANCH  10  11
ATOM     11  C   UNL A   1      32.493  22.928  23.091  1.00  0.00     0.292 C 
BRANCH  11  12
ATOM     12  N   UNL A   1      32.474  21.755  23.982  1.00  0.00    -0.320 N 
ATOM     13  C   UNL A   1      32.363  20.500  23.204  1.00  0.00     0.328 C 
ATOM     14  C   UNL A   1      33.621  21.709  24.933  1.00  0.00     0.237 C 
ATOM     15  H   UNL A   1      31.641  21.851  24.563  1.00  0.00     0.348 HD
ATOM     16  C   UNL A   1      32.606  19.217  24.028  1.00  0.00     0.240 C 
ATOM     17  C   UNL A   1      34.563  20.478  24.767  1.00  0.00     0.328 C 
ATOM     18  C   UNL A   1      33.066  21.728  26.369  1.00  0.00     0.081 C 
ATOM     19  C   UNL A   1      32.692  17.970  23.149  1.00  0.00     0.077 C 
ATOM     20  N   UNL A   1      33.838  19.207  24.841  1.00  0.00    -0.323 N 
ATOM     21  C   UNL A   1      33.639  17.065  23.913  1.00  0.00     0.068 C 
ATOM     22  C   UNL A   1      34.648  18.049  24.477  1.00  0.00     0.263 C 
ATOM     23  H   UNL A   1      33.589  19.114  25.825  1.00  0.00     0.348 HD
ENDBRANCH  11  12
ENDBRANCH  10  11
ENDBRANCH   5   8
ENDBRANCH   3   4
ENDBRANCH   2   3
ENDBRANCH   1   2
BRANCH   1  24
ATOM     24  C   UNL A   1      32.633  29.667  25.952  1.00  0.00     0.116 C 
BRANCH  24  25
ATOM     25  N   UNL A   1      32.344  30.995  26.478  1.00  0.00    -0.352 N 
ATOM     26  C   UNL A   1      33.147  31.802  27.250  1.00  0.00     0.251 C 
ATOM     27  H   UNL A   1      31.458  31.363  26.252  1.00  0.00     0.163 HD
ATOM     28  O   UNL A   1      32.726  32.883  27.656  1.00  0.00    -0.269 OA
BRANCH  26  29
ATOM     29  C   UNL A   1      34.488  31.319  27.643  1.00  0.00     0.039 A 
ATOM     30  C   UNL A   1      35.499  32.259  27.861  1.00  0.00     0.014 A 
ATOM     31  C   UNL A   1      34.723  29.963  27.883  1.00  0.00     0.014 A 
ATOM     32  C   UNL A   1      36.712  31.847  28.417  1.00  0.00     0.010 A 
ATOM     33  C   UNL A   1      35.900  29.567  28.512  1.00  0.00     0.010 A 
ATOM     34  C   UNL A   1      36.900  30.506  28.798  1.00  0.00    -0.014 A 
BRANCH  34  35
ATOM     35  C   UNL A   1      38.107  30.098  29.560  1.00  0.00     0.031 A 
ATOM     36  C   UNL A   1      38.340  30.585  30.963  1.00  0.00     0.074 A 
ATOM     37  C   UNL A   1      39.046  29.351  28.945  1.00  0.00     0.049 A 
ATOM     38  N   UNL A   1      39.314  30.285  31.783  1.00  0.00    -0.248 NA
ATOM     39  C   UNL A   1      37.376  31.556  31.505  1.00  0.00     0.031 C 
ATOM     40  C   UNL A   1      39.005  28.928  27.542  1.00  0.00     0.029 A 
ATOM     41  N   UNL A   1      40.228  28.830  29.411  1.00  0.00    -0.354 N 
ATOM     42  C   UNL A   1      39.099  31.047  32.924  1.00  0.00     0.074 A 
ATOM     43  C   UNL A   1      37.925  31.855  32.675  1.00  0.00     0.031 C 
ATOM     44  C   UNL A   1      40.098  28.198  27.269  1.00  0.00     0.029 A 
ATOM     45  C   UNL A   1      40.921  28.105  28.471  1.00  0.00     0.049 A 
ATOM     46  H   UNL A   1      40.548  28.964  30.333  1.00  0.00     0.167 HD
ATOM     47  C   UNL A   1      39.791  31.047  34.087  1.00  0.00     0.034 A 
ATOM     48  C   UNL A   1      42.077  27.419  28.571  1.00  0.00     0.034 A 
ATOM     49  C   UNL A   1      40.926  30.202  34.347  1.00  0.00     0.049 A 
ATOM     50  C   UNL A   1      42.762  27.341  29.907  1.00  0.00     0.074 A 
ATOM     51  C   UNL A   1      41.629  30.044  35.528  1.00  0.00     0.029 A 
ATOM     52  N   UNL A   1      41.525  29.375  33.411  1.00  0.00    -0.354 N 
ATOM     53  N   UNL A   1      42.421  27.901  31.043  1.00  0.00    -0.248 NA
ATOM     54  C   UNL A   1      43.962  26.495  29.991  1.00  0.00     0.031 C 
ATOM     55  C   UNL A   1      42.659  29.122  35.304  1.00  0.00     0.029 A 
ATOM     56  C   UNL A   1      42.589  28.701  33.986  1.00  0.00     0.049 A 
ATOM     57  H   UNL A   1      41.236  29.279  32.475  1.00  0.00     0.167 HD
ATOM     58  C   UNL A   1      43.339  27.448  31.983  1.00  0.00     0.074 A 
ATOM     59  C   UNL A   1      44.238  26.549  31.288  1.00  0.00     0.031 C 
ATOM     60  C   UNL A   1      43.439  27.763  33.298  1.00  0.00     0.034 A 
BRANCH  47  61
ATOM     61  C   UNL A   1      39.287  31.931  35.196  1.00  0.00     0.023 A 
ATOM     62  C   UNL A   1      38.314  31.432  36.085  1.00  0.00     0.012 A 
ATOM     63  C   UNL A   1      39.801  33.227  35.392  1.00  0.00     0.148 A 
ATOM     64  C   UNL A   1      37.835  32.217  37.132  1.00  0.00     0.002 A 
ATOM     65  C   UNL A   1      39.347  33.992  36.463  1.00  0.00     0.091 A 
ATOM     66  F   UNL A   1      40.706  33.699  34.522  1.00  0.00    -0.205 F 
ATOM     67  C   UNL A   1      38.357  33.492  37.326  1.00  0.00     0.022 A 
BRANCH  65  68
ATOM     68  S   UNL A   1      40.015  35.616  36.836  1.00  0.00     0.127 S 
ATOM     69  O   UNL A   1      39.384  35.908  38.122  1.00  0.00    -0.237 OA
ATOM     70  O   UNL A   1      41.453  35.355  36.909  1.00  0.00    -0.237 OA
ATOM     71  O   UNL A   1      39.614  36.473  35.727  1.00  0.00    -0.744 OA
ENDBRANCH  65  68
ENDBRANCH  47  61
BRANCH  48  72
ATOM     72  C   UNL A   1      42.582  26.652  27.398  1.00  0.00     0.023 A 
ATOM     73  C   UNL A   1      43.448  27.284  26.486  1.00  0.00     0.012 A 
ATOM     74  C   UNL A   1      42.260  25.295  27.211  1.00  0.00     0.148 A 
ATOM     75  C   UNL A   1      43.964  26.588  25.392  1.00  0.00     0.002 A 
ATOM     76  C   UNL A   1      42.818  24.591  26.149  1.00  0.00     0.091 A 
ATOM     77  F   UNL A   1      41.425  24.713  28.084  1.00  0.00    -0.205 F 
ATOM     78  C   UNL A   1      43.659  25.239  25.231  1.00  0.00     0.022 A 
BRANCH  76  79
ATOM     79  S   UNL A   1      42.587  22.820  25.947  1.00  0.00     0.127 S 
ATOM     80  O   UNL A   1      43.301  22.291  27.105  1.00  0.00    -0.237 OA
ATOM     81  O   UNL A   1      41.129  22.694  26.010  1.00  0.00    -0.237 OA
ATOM     82  O   UNL A   1      43.155  22.502  24.644  1.00  0.00    -0.744 OA
ENDBRANCH  76  79
ENDBRANCH  48  72
BRANCH  60  83
ATOM     83  C   UNL A   1      44.545  27.115  34.087  1.00  0.00     0.023 A 
ATOM     84  C   UNL A   1      45.773  27.789  34.245  1.00  0.00     0.012 A 
ATOM     85  C   UNL A   1      44.347  25.878  34.729  1.00  0.00     0.148 A 
ATOM     86  C   UNL A   1      46.796  27.226  35.007  1.00  0.00     0.002 A 
ATOM     87  C   UNL A   1      45.357  25.343  35.522  1.00  0.00     0.091 A 
ATOM     88  F   UNL A   1      43.182  25.237  34.547  1.00  0.00    -0.205 F 
ATOM     89  C   UNL A   1      46.585  26.010  35.654  1.00  0.00     0.022 A 
BRANCH  87  90
ATOM     90  S   UNL A   1      45.123  23.827  36.457  1.00  0.00     0.127 S 
ATOM     91  O   UNL A   1      46.464  23.247  36.430  1.00  0.00    -0.237 OA
ATOM     92  O   UNL A   1      44.701  24.324  37.768  1.00  0.00    -0.237 OA
ATOM     93  O   UNL A   1      44.094  23.083  35.742  1.00  0.00    -0.744 OA
ENDBRANCH  87  90
ENDBRANCH  60  83
ENDBRANCH  34  35
ENDBRANCH  26  29
ENDBRANCH  24  25
ENDBRANCH   1  24
TORSDOF 16
ENDMDL
MODEL 3
REMARK VINA RESULT:     -12.0      1.720      3.059
REMARK SMILES C/C(=C/C[N@H+]1C[C@H]2CCC[N@H+]2C[C@@H]1C)C(=O)NCCCCNC(=O)c1ccc(-c2c3nc(c(-c4cccc(S(=O)(=O)[O-])c4F)c4ccc([nH]4)c(-c4cccc(S(=O)(=O)[O-])c4F)c4nc(c(-c5cccc(S(=O)(=O)[O-])c5F)c5ccc2[nH]5)C=C4)C=C3)cc1
REMARK SMILES IDX 20 1 19 2 18 3 17 4 15 5 16 6 2 8 1 9 3 10 4 11 5 12 6 13
REMARK SMILES IDX 13 14 7 16 12 17 14 18 8 19 11 20 9 21 10 22 21 24 22 25
REMARK SMILES IDX 23 26 24 28 25 29 26 30 87 31 27 32 86 33 28 34 29 35 30 36
REMARK SMILES IDX 80 37 31 38 85 39 79 40 81 41 32 42 84 43 78 44 77 45 33 47
REMARK SMILES IDX 65 48 45 49 64 50 46 51 49 52 63 53 82 54 47 55 48 56 62 58
REMARK SMILES IDX 83 59 50 60 34 61 35 62 43 63 36 64 38 65 44 66 37 67 39 68
REMARK SMILES IDX 40 69 41 70 42 71 66 72 67 73 75 74 68 75 70 76 76 77 69 78
REMARK SMILES IDX 71 79 72 80 73 81 74 82 51 83 52 84 60 85 53 86 55 87 61 88
REMARK SMILES IDX 54 89 56 90 57 91 58 92 59 93
REMARK H PARENT 17 7 5 15 11 23 22 27 81 46 49 57
REMARK Flexibility Score: inf
ROOT
ATOM      1  C   UNL A   1      31.697  29.067  25.898  1.00  0.00     0.023 C 
ENDROOT
BRANCH   1   2
ATOM      2  C   UNL A   1      31.693  28.557  24.458  1.00  0.00     0.023 C 
BRANCH   2   3
ATOM      3  C   UNL A   1      30.831  27.312  24.206  1.00  0.00     0.116 C 
BRANCH   3   4
ATOM      4  N   UNL A   1      30.821  26.469  25.376  1.00  0.00    -0.352 N 
ATOM      5  C   UNL A   1      31.597  25.460  25.823  1.00  0.00     0.246 C 
ATOM      6  O   UNL A   1      31.222  24.956  26.890  1.00  0.00    -0.270 OA
ATOM      7  H   UNL A   1      30.080  26.678  25.988  1.00  0.00     0.163 HD
BRANCH   5   8
ATOM      8  C   UNL A   1      32.890  24.958  25.217  1.00  0.00     0.015 C 
ATOM      9  C   UNL A   1      34.041  25.823  25.726  1.00  0.00     0.050 C 
ATOM     10  C   UNL A   1      33.247  23.934  24.411  1.00  0.00     0.042 C 
BRANCH  10  11
ATOM     11  C   UNL A   1      32.540  22.796  23.743  1.00  0.00     0.292 C 
BRANCH  11  12
ATOM     12  N   UNL A   1      32.662  21.552  24.525  1.00  0.00    -0.320 N 
ATOM     13  C   UNL A   1      32.428  20.365  23.671  1.00  0.00     0.328 C 
ATOM     14  C   UNL A   1      33.946  21.442  25.275  1.00  0.00     0.237 C 
ATOM     15  H   UNL A   1      31.932  21.589  25.236  1.00  0.00     0.348 HD
ATOM     16  C   UNL A   1      32.798  19.021  24.336  1.00  0.00     0.240 C 
ATOM     17  C   UNL A   1      34.848  20.241  24.858  1.00  0.00     0.328 C 
ATOM     18  C   UNL A   1      33.626  21.334  26.777  1.00  0.00     0.081 C 
ATOM     19  C   UNL A   1      32.742  17.853  23.352  1.00  0.00     0.077 C 
ATOM     20  N   UNL A   1      34.143  18.959  24.939  1.00  0.00    -0.323 N 
ATOM     21  C   UNL A   1      33.798  16.899  23.878  1.00  0.00     0.068 C 
ATOM     22  C   UNL A   1      34.885  17.845  24.355  1.00  0.00     0.263 C 
ATOM     23  H   UNL A   1      34.054  18.782  25.939  1.00  0.00     0.348 HD
ENDBRANCH  11  12
ENDBRANCH  10  11
ENDBRANCH   5   8
ENDBRANCH   3   4
ENDBRANCH   2   3
ENDBRANCH   1   2
BRANCH   1  24
ATOM     24  C   UNL A   1      33.002  29.737  26.319  1.00  0.00     0.116 C 
BRANCH  24  25
ATOM     25  N   UNL A   1      32.834  31.080  26.860  1.00  0.00    -0.352 N 
ATOM     26  C   UNL A   1      33.725  31.820  27.602  1.00  0.00     0.251 C 
ATOM     27  H   UNL A   1      31.970  31.514  26.671  1.00  0.00     0.163 HD
ATOM     28  O   UNL A   1      33.403  32.926  28.028  1.00  0.00    -0.269 OA
BRANCH  26  29
ATOM     29  C   UNL A   1      35.041  31.236  27.940  1.00  0.00     0.039 A 
ATOM     30  C   UNL A   1      36.156  32.077  27.974  1.00  0.00     0.014 A 
ATOM     31  C   UNL A   1      35.160  29.893  28.308  1.00  0.00     0.014 A 
ATOM     32  C   UNL A   1      37.367  31.593  28.476  1.00  0.00     0.010 A 
ATOM     33  C   UNL A   1      36.342  29.437  28.883  1.00  0.00     0.010 A 
ATOM     34  C   UNL A   1      37.453  30.285  28.985  1.00  0.00    -0.014 A 
BRANCH  34  35
ATOM     35  C   UNL A   1      38.676  29.827  29.691  1.00  0.00     0.031 A 
ATOM     36  C   UNL A   1      39.042  30.372  31.042  1.00  0.00     0.074 A 
ATOM     37  C   UNL A   1      39.512  28.975  29.063  1.00  0.00     0.049 A 
ATOM     38  N   UNL A   1      40.045  30.043  31.814  1.00  0.00    -0.248 NA
ATOM     39  C   UNL A   1      38.194  31.445  31.586  1.00  0.00     0.031 C 
ATOM     40  C   UNL A   1      39.341  28.478  27.694  1.00  0.00     0.029 A 
ATOM     41  N   UNL A   1      40.681  28.390  29.482  1.00  0.00    -0.354 N 
ATOM     42  C   UNL A   1      39.968  30.883  32.917  1.00  0.00     0.074 A 
ATOM     43  C   UNL A   1      38.843  31.766  32.697  1.00  0.00     0.031 C 
ATOM     44  C   UNL A   1      40.355  27.650  27.396  1.00  0.00     0.029 A 
ATOM     45  C   UNL A   1      41.251  27.561  28.545  1.00  0.00     0.049 A 
ATOM     46  H   UNL A   1      41.073  28.549  30.371  1.00  0.00     0.167 HD
ATOM     47  C   UNL A   1      40.738  30.895  34.031  1.00  0.00     0.034 A 
ATOM     48  C   UNL A   1      42.356  26.793  28.611  1.00  0.00     0.034 A 
ATOM     49  C   UNL A   1      41.822  29.979  34.268  1.00  0.00     0.049 A 
ATOM     50  C   UNL A   1      43.125  26.736  29.903  1.00  0.00     0.074 A 
ATOM     51  C   UNL A   1      42.592  29.833  35.408  1.00  0.00     0.029 A 
ATOM     52  N   UNL A   1      42.291  29.056  33.348  1.00  0.00    -0.354 N 
ATOM     53  N   UNL A   1      42.907  27.384  31.022  1.00  0.00    -0.248 NA
ATOM     54  C   UNL A   1      44.261  25.804  29.960  1.00  0.00     0.031 C 
ATOM     55  C   UNL A   1      43.532  28.822  35.175  1.00  0.00     0.029 A 
ATOM     56  C   UNL A   1      43.339  28.334  33.892  1.00  0.00     0.049 A 
ATOM     57  H   UNL A   1      41.931  28.931  32.440  1.00  0.00     0.167 HD
ATOM     58  C   UNL A   1      43.852  26.914  31.926  1.00  0.00     0.074 A 
ATOM     59  C   UNL A   1      44.631  25.910  31.230  1.00  0.00     0.031 C 
ATOM     60  C   UNL A   1      44.067  27.294  33.209  1.00  0.00     0.034 A 
BRANCH  47  61
ATOM     61  C   UNL A   1      40.380  31.877  35.114  1.00  0.00     0.023 A 
ATOM     62  C   UNL A   1      41.103  33.083  35.215  1.00  0.00     0.012 A 
ATOM     63  C   UNL A   1      39.311  31.638  35.997  1.00  0.00     0.148 A 
ATOM     64  C   UNL A   1      40.791  34.021  36.197  1.00  0.00     0.002 A 
ATOM     65  C   UNL A   1      38.978  32.597  36.950  1.00  0.00     0.091 A 
ATOM     66  F   UNL A   1      38.650  30.475  35.906  1.00  0.00    -0.205 F 
ATOM     67  C   UNL A   1      39.724  33.783  37.057  1.00  0.00     0.022 A 
BRANCH  65  68
ATOM     68  S   UNL A   1      37.574  32.410  38.052  1.00  0.00     0.127 S 
ATOM     69  O   UNL A   1      38.060  33.062  39.267  1.00  0.00    -0.237 OA
ATOM     70  O   UNL A   1      36.522  33.143  37.347  1.00  0.00    -0.237 OA
ATOM     71  O   UNL A   1      37.340  30.975  38.156  1.00  0.00    -0.744 OA
ENDBRANCH  65  68
ENDBRANCH  47  61
BRANCH  48  72
ATOM     72  C   UNL A   1      42.719  25.923  27.458  1.00  0.00     0.023 A 
ATOM     73  C   UNL A   1      43.597  26.418  26.475  1.00  0.00     0.012 A 
ATOM     74  C   UNL A   1      42.253  24.599  27.357  1.00  0.00     0.148 A 
ATOM     75  C   UNL A   1      43.982  25.622  25.396  1.00  0.00     0.002 A 
ATOM     76  C   UNL A   1      42.681  23.793  26.308  1.00  0.00     0.091 A 
ATOM     77  F   UNL A   1      41.409  24.149  28.297  1.00  0.00    -0.205 F 
ATOM     78  C   UNL A   1      43.534  24.307  25.319  1.00  0.00     0.022 A 
BRANCH  76  79
ATOM     79  S   UNL A   1      42.261  22.048  26.209  1.00  0.00     0.127 S 
ATOM     80  O   UNL A   1      43.138  21.589  25.135  1.00  0.00    -0.237 OA
ATOM     81  O   UNL A   1      42.622  21.571  27.546  1.00  0.00    -0.237 OA
ATOM     82  O   UNL A   1      40.833  22.009  25.928  1.00  0.00    -0.744 OA
ENDBRANCH  76  79
ENDBRANCH  48  72
BRANCH  60  83
ATOM     83  C   UNL A   1      45.173  26.607  33.963  1.00  0.00     0.023 A 
ATOM     84  C   UNL A   1      46.488  27.107  33.878  1.00  0.00     0.012 A 
ATOM     85  C   UNL A   1      44.903  25.514  34.809  1.00  0.00     0.148 A 
ATOM     86  C   UNL A   1      47.521  26.512  34.601  1.00  0.00     0.002 A 
ATOM     87  C   UNL A   1      45.931  24.952  35.559  1.00  0.00     0.091 A 
ATOM     88  F   UNL A   1      43.652  25.033  34.860  1.00  0.00    -0.205 F 
ATOM     89  C   UNL A   1      47.241  25.443  35.449  1.00  0.00     0.022 A 
BRANCH  87  90
ATOM     90  S   UNL A   1      45.627  23.632  36.740  1.00  0.00     0.127 S 
ATOM     91  O   UNL A   1      44.725  24.281  37.690  1.00  0.00    -0.237 OA
ATOM     92  O   UNL A   1      45.001  22.601  35.911  1.00  0.00    -0.237 OA
ATOM     93  O   UNL A   1      46.938  23.264  37.259  1.00  0.00    -0.744 OA
ENDBRANCH  87  90
ENDBRANCH  60  83
ENDBRANCH  34  35
ENDBRANCH  26  29
ENDBRANCH  24  25
ENDBRANCH   1  24
TORSDOF 16
ENDMDL
