MODEL 1
REMARK VINA RESULT:     -12.3      0.000      0.000
REMARK SMILES O=C(NCCCCNC(=O)c1ccc(-c2c3nc(c(-c4cccc(S(=O)(=O)[O-])c4F)c4ccc([nH]4)c(-c4cccc(S(=O)(=O)[O-])c4F)c4nc(c(-c5cccc(S(=O)(=O)[O-])c5F)c5ccc2[nH]5)C=C4)C=C3)cc1)C1=C[C@H]2C(=N1)C=CC(Cl)=C2Cl
REMARK SMILES IDX 7 1 6 2 5 3 4 4 3 5 1 6 2 7 74 9 75 10 78 11 76 12 77 13
REMARK SMILES IDX 83 14 79 15 81 16 84 17 80 18 82 19 8 20 9 21 10 23 11 24
REMARK SMILES IDX 12 25 73 26 13 27 72 28 14 29 15 30 16 31 66 32 17 33 71 34
REMARK SMILES IDX 65 35 67 36 18 37 70 38 64 39 63 40 19 42 51 43 31 44 50 45
REMARK SMILES IDX 32 46 35 47 49 48 68 49 33 50 34 51 48 53 69 54 36 55 20 56
REMARK SMILES IDX 21 57 29 58 22 59 24 60 30 61 23 62 25 63 26 64 27 65 28 66
REMARK SMILES IDX 52 67 53 68 61 69 54 70 56 71 62 72 55 73 57 74 58 75 59 76
REMARK SMILES IDX 60 77 37 78 38 79 46 80 39 81 41 82 47 83 40 84 42 85 43 86
REMARK SMILES IDX 44 87 45 88
REMARK H PARENT 3 8 8 22 67 41 35 52
REMARK Flexibility Score: inf
ROOT
ATOM      1  C   UNL A   1      37.835  20.585  25.001  1.00  0.00     0.116 C 
ENDROOT
BRANCH   1   2
ATOM      2  C   UNL A   1      36.435  19.975  24.941  1.00  0.00     0.023 C 
BRANCH   2   3
ATOM      3  C   UNL A   1      35.255  20.944  25.086  1.00  0.00     0.023 C 
BRANCH   3   4
ATOM      4  C   UNL A   1      35.455  22.120  26.041  1.00  0.00     0.116 C 
BRANCH   4   5
ATOM      5  N   UNL A   1      34.542  22.107  27.165  1.00  0.00    -0.351 N 
ATOM      6  O   UNL A   1      32.635  22.471  28.292  1.00  0.00    -0.268 OA
ATOM      7  C   UNL A   1      33.337  22.723  27.312  1.00  0.00     0.269 C 
ATOM      8  H   UNL A   1      34.838  21.574  27.938  1.00  0.00     0.163 HD
BRANCH   7   9
ATOM      9  C   UNL A   1      32.909  23.764  26.342  1.00  0.00     0.125 C 
ATOM     10  C   UNL A   1      32.221  23.367  25.264  1.00  0.00     0.023 C 
ATOM     11  N   UNL A   1      33.459  25.027  26.239  1.00  0.00    -0.247 NA
ATOM     12  C   UNL A   1      32.225  24.465  24.273  1.00  0.00     0.106 C 
ATOM     13  C   UNL A   1      33.160  25.393  25.031  1.00  0.00     0.054 C 
ATOM     14  C   UNL A   1      32.791  24.273  22.901  1.00  0.00     0.050 C 
ATOM     15  C   UNL A   1      33.663  26.597  24.326  1.00  0.00     0.026 C 
ATOM     16  C   UNL A   1      33.202  25.376  22.247  1.00  0.00     0.056 C 
ATOM     17  Cl  UNL A   1      33.703  22.816  22.592  1.00  0.00    -0.086 Cl
ATOM     18  C   UNL A   1      33.610  26.565  22.983  1.00  0.00     0.023 C 
ATOM     19  Cl  UNL A   1      32.567  25.641  20.651  1.00  0.00    -0.083 Cl
ENDBRANCH   7   9
ENDBRANCH   4   5
ENDBRANCH   3   4
ENDBRANCH   2   3
ENDBRANCH   1   2
BRANCH   1  20
ATOM     20  N   UNL A   1      38.875  19.618  25.323  1.00  0.00    -0.352 N 
ATOM     21  C   UNL A   1      40.107  19.806  25.901  1.00  0.00     0.251 C 
ATOM     22  H   UNL A   1      38.662  18.686  25.091  1.00  0.00     0.163 HD
ATOM     23  O   UNL A   1      40.881  18.847  25.989  1.00  0.00    -0.269 OA
BRANCH  21  24
ATOM     24  C   UNL A   1      40.537  21.138  26.388  1.00  0.00     0.039 A 
ATOM     25  C   UNL A   1      41.592  21.211  27.306  1.00  0.00     0.014 A 
ATOM     26  C   UNL A   1      39.908  22.312  25.965  1.00  0.00     0.014 A 
ATOM     27  C   UNL A   1      42.065  22.458  27.733  1.00  0.00     0.010 A 
ATOM     28  C   UNL A   1      40.428  23.553  26.336  1.00  0.00     0.010 A 
ATOM     29  C   UNL A   1      41.516  23.643  27.218  1.00  0.00    -0.014 A 
BRANCH  29  30
ATOM     30  C   UNL A   1      42.083  24.978  27.559  1.00  0.00     0.031 A 
ATOM     31  C   UNL A   1      41.230  26.025  28.226  1.00  0.00     0.074 A 
ATOM     32  C   UNL A   1      43.338  25.289  27.171  1.00  0.00     0.049 A 
ATOM     33  N   UNL A   1      41.521  27.269  28.511  1.00  0.00    -0.248 NA
ATOM     34  C   UNL A   1      39.862  25.632  28.605  1.00  0.00     0.031 C 
ATOM     35  C   UNL A   1      44.251  24.392  26.456  1.00  0.00     0.029 A 
ATOM     36  N   UNL A   1      44.052  26.458  27.286  1.00  0.00    -0.354 N 
ATOM     37  C   UNL A   1      40.365  27.820  29.049  1.00  0.00     0.074 A 
ATOM     38  C   UNL A   1      39.361  26.778  29.046  1.00  0.00     0.031 C 
ATOM     39  C   UNL A   1      45.394  25.043  26.193  1.00  0.00     0.029 A 
ATOM     40  C   UNL A   1      45.287  26.415  26.679  1.00  0.00     0.049 A 
ATOM     41  H   UNL A   1      43.713  27.252  27.759  1.00  0.00     0.167 HD
ATOM     42  C   UNL A   1      40.160  29.074  29.516  1.00  0.00     0.034 A 
ATOM     43  C   UNL A   1      46.220  27.374  26.508  1.00  0.00     0.034 A 
ATOM     44  C   UNL A   1      41.173  30.095  29.567  1.00  0.00     0.049 A 
ATOM     45  C   UNL A   1      45.970  28.751  27.066  1.00  0.00     0.074 A 
ATOM     46  C   UNL A   1      41.088  31.357  30.130  1.00  0.00     0.029 A 
ATOM     47  N   UNL A   1      42.440  29.985  29.019  1.00  0.00    -0.354 N 
ATOM     48  N   UNL A   1      44.932  29.196  27.732  1.00  0.00    -0.248 NA
ATOM     49  C   UNL A   1      47.034  29.750  26.879  1.00  0.00     0.031 C 
ATOM     50  C   UNL A   1      42.290  32.027  29.884  1.00  0.00     0.029 A 
ATOM     51  C   UNL A   1      43.138  31.165  29.209  1.00  0.00     0.049 A 
ATOM     52  H   UNL A   1      42.791  29.187  28.564  1.00  0.00     0.167 HD
ATOM     53  C   UNL A   1      45.238  30.507  28.082  1.00  0.00     0.074 A 
ATOM     54  C   UNL A   1      46.564  30.780  27.570  1.00  0.00     0.031 C 
ATOM     55  C   UNL A   1      44.482  31.408  28.754  1.00  0.00     0.034 A 
BRANCH  42  56
ATOM     56  C   UNL A   1      38.795  29.425  30.047  1.00  0.00     0.023 A 
ATOM     57  C   UNL A   1      38.466  29.139  31.387  1.00  0.00     0.012 A 
ATOM     58  C   UNL A   1      37.880  30.139  29.246  1.00  0.00     0.148 A 
ATOM     59  C   UNL A   1      37.238  29.536  31.915  1.00  0.00     0.002 A 
ATOM     60  C   UNL A   1      36.678  30.572  29.794  1.00  0.00     0.091 A 
ATOM     61  F   UNL A   1      38.207  30.387  27.970  1.00  0.00    -0.205 F 
ATOM     62  C   UNL A   1      36.352  30.263  31.124  1.00  0.00     0.022 A 
BRANCH  60  63
ATOM     63  S   UNL A   1      35.510  31.591  28.885  1.00  0.00     0.127 S 
ATOM     64  O   UNL A   1      34.871  30.601  28.016  1.00  0.00    -0.237 OA
ATOM     65  O   UNL A   1      34.654  32.102  29.956  1.00  0.00    -0.237 OA
ATOM     66  O   UNL A   1      36.300  32.600  28.199  1.00  0.00    -0.744 OA
ENDBRANCH  60  63
ENDBRANCH  42  56
BRANCH  43  67
ATOM     67  C   UNL A   1      47.500  27.071  25.802  1.00  0.00     0.023 A 
ATOM     68  C   UNL A   1      48.563  26.483  26.516  1.00  0.00     0.012 A 
ATOM     69  C   UNL A   1      47.677  27.377  24.440  1.00  0.00     0.148 A 
ATOM     70  C   UNL A   1      49.794  26.255  25.901  1.00  0.00     0.002 A 
ATOM     71  C   UNL A   1      48.886  27.092  23.818  1.00  0.00     0.091 A 
ATOM     72  F   UNL A   1      46.660  27.948  23.778  1.00  0.00    -0.205 F 
ATOM     73  C   UNL A   1      49.953  26.551  24.551  1.00  0.00     0.022 A 
BRANCH  71  74
ATOM     74  S   UNL A   1      49.135  27.319  22.053  1.00  0.00     0.127 S 
ATOM     75  O   UNL A   1      50.593  27.347  21.957  1.00  0.00    -0.237 OA
ATOM     76  O   UNL A   1      48.505  26.118  21.501  1.00  0.00    -0.237 OA
ATOM     77  O   UNL A   1      48.452  28.559  21.718  1.00  0.00    -0.744 OA
ENDBRANCH  71  74
ENDBRANCH  43  67
BRANCH  55  78
ATOM     78  C   UNL A   1      45.081  32.760  29.043  1.00  0.00     0.023 A 
ATOM     79  C   UNL A   1      45.820  32.972  30.223  1.00  0.00     0.012 A 
ATOM     80  C   UNL A   1      44.981  33.799  28.094  1.00  0.00     0.148 A 
ATOM     81  C   UNL A   1      46.422  34.205  30.470  1.00  0.00     0.002 A 
ATOM     82  C   UNL A   1      45.630  35.006  28.322  1.00  0.00     0.091 A 
ATOM     83  F   UNL A   1      44.260  33.583  26.984  1.00  0.00    -0.205 F 
ATOM     84  C   UNL A   1      46.339  35.216  29.515  1.00  0.00     0.022 A 
BRANCH  82  85
ATOM     85  S   UNL A   1      45.663  36.327  27.104  1.00  0.00     0.127 S 
ATOM     86  O   UNL A   1      46.072  35.610  25.897  1.00  0.00    -0.237 OA
ATOM     87  O   UNL A   1      44.272  36.780  27.102  1.00  0.00    -0.237 OA
ATOM     88  O   UNL A   1      46.619  37.307  27.599  1.00  0.00    -0.744 OA
ENDBRANCH  82  85
ENDBRANCH  55  78
ENDBRANCH  29  30
ENDBRANCH  21  24
ENDBRANCH   1  20
TORSDOF 14
ENDMDL
MODEL 2
REMARK VINA RESULT:     -12.3      5.667      8.483
REMARK SMILES O=C(NCCCCNC(=O)c1ccc(-c2c3nc(c(-c4cccc(S(=O)(=O)[O-])c4F)c4ccc([nH]4)c(-c4cccc(S(=O)(=O)[O-])c4F)c4nc(c(-c5cccc(S(=O)(=O)[O-])c5F)c5ccc2[nH]5)C=C4)C=C3)cc1)C1=C[C@H]2C(=N1)C=CC(Cl)=C2Cl
REMARK SMILES IDX 7 1 6 2 5 3 4 4 3 5 1 6 2 7 74 9 75 10 78 11 76 12 77 13
REMARK SMILES IDX 83 14 79 15 81 16 84 17 80 18 82 19 8 20 9 21 10 23 11 24
REMARK SMILES IDX 12 25 73 26 13 27 72 28 14 29 15 30 16 31 66 32 17 33 71 34
REMARK SMILES IDX 65 35 67 36 18 37 70 38 64 39 63 40 19 42 51 43 31 44 50 45
REMARK SMILES IDX 32 46 35 47 49 48 68 49 33 50 34 51 48 53 69 54 36 55 20 56
REMARK SMILES IDX 21 57 29 58 22 59 24 60 30 61 23 62 25 63 26 64 27 65 28 66
REMARK SMILES IDX 52 67 53 68 61 69 54 70 56 71 62 72 55 73 57 74 58 75 59 76
REMARK SMILES IDX 60 77 37 78 38 79 46 80 39 81 41 82 47 83 40 84 42 85 43 86
REMARK SMILES IDX 44 87 45 88
REMARK H PARENT 3 8 8 22 67 41 35 52
REMARK Flexibility Score: inf
ROOT
ATOM      1  C   UNL A   1      33.818  29.198  26.134  1.00  0.00     0.116 C 
ENDROOT
BRANCH   1   2
ATOM      2  C   UNL A   1      33.235  28.098  27.020  1.00  0.00     0.023 C 
BRANCH   2   3
ATOM      3  C   UNL A   1      31.705  28.002  27.081  1.00  0.00     0.023 C 
BRANCH   3   4
ATOM      4  C   UNL A   1      31.074  26.783  26.408  1.00  0.00     0.116 C 
BRANCH   4   5
ATOM      5  N   UNL A   1      31.952  26.138  25.454  1.00  0.00    -0.351 N 
ATOM      6  O   UNL A   1      33.008  25.811  23.500  1.00  0.00    -0.268 OA
ATOM      7  C   UNL A   1      32.098  26.362  24.119  1.00  0.00     0.269 C 
ATOM      8  H   UNL A   1      32.528  25.432  25.826  1.00  0.00     0.163 HD
BRANCH   7   9
ATOM      9  C   UNL A   1      31.108  27.199  23.391  1.00  0.00     0.125 C 
ATOM     10  C   UNL A   1      31.451  28.460  23.101  1.00  0.00     0.023 C 
ATOM     11  N   UNL A   1      29.754  26.940  23.316  1.00  0.00    -0.247 NA
ATOM     12  C   UNL A   1      30.229  29.206  22.731  1.00  0.00     0.106 C 
ATOM     13  C   UNL A   1      29.236  28.097  23.038  1.00  0.00     0.054 C 
ATOM     14  C   UNL A   1      29.799  30.422  23.491  1.00  0.00     0.050 C 
ATOM     15  C   UNL A   1      27.793  28.435  23.024  1.00  0.00     0.026 C 
ATOM     16  C   UNL A   1      28.495  30.751  23.435  1.00  0.00     0.056 C 
ATOM     17  Cl  UNL A   1      30.613  30.772  24.996  1.00  0.00    -0.086 Cl
ATOM     18  C   UNL A   1      27.486  29.736  23.162  1.00  0.00     0.023 C 
ATOM     19  Cl  UNL A   1      28.101  32.375  22.956  1.00  0.00    -0.083 Cl
ENDBRANCH   7   9
ENDBRANCH   4   5
ENDBRANCH   3   4
ENDBRANCH   2   3
ENDBRANCH   1   2
BRANCH   1  20
ATOM     20  N   UNL A   1      33.793  30.516  26.753  1.00  0.00    -0.352 N 
ATOM     21  C   UNL A   1      34.642  31.073  27.680  1.00  0.00     0.251 C 
ATOM     22  H   UNL A   1      33.055  31.098  26.463  1.00  0.00     0.163 HD
ATOM     23  O   UNL A   1      34.371  32.183  28.150  1.00  0.00    -0.269 OA
BRANCH  21  24
ATOM     24  C   UNL A   1      35.851  30.357  28.148  1.00  0.00     0.039 A 
ATOM     25  C   UNL A   1      36.990  30.352  27.334  1.00  0.00     0.014 A 
ATOM     26  C   UNL A   1      35.875  29.679  29.370  1.00  0.00     0.014 A 
ATOM     27  C   UNL A   1      38.169  29.742  27.778  1.00  0.00     0.010 A 
ATOM     28  C   UNL A   1      37.071  29.134  29.841  1.00  0.00     0.010 A 
ATOM     29  C   UNL A   1      38.234  29.165  29.056  1.00  0.00    -0.014 A 
BRANCH  29  30
ATOM     30  C   UNL A   1      39.510  28.621  29.603  1.00  0.00     0.031 A 
ATOM     31  C   UNL A   1      40.231  29.336  30.715  1.00  0.00     0.074 A 
ATOM     32  C   UNL A   1      40.077  27.541  29.026  1.00  0.00     0.049 A 
ATOM     33  N   UNL A   1      41.395  29.067  31.251  1.00  0.00    -0.248 NA
ATOM     34  C   UNL A   1      39.572  30.522  31.288  1.00  0.00     0.031 C 
ATOM     35  C   UNL A   1      39.518  26.793  27.896  1.00  0.00     0.029 A 
ATOM     36  N   UNL A   1      41.268  26.906  29.282  1.00  0.00    -0.354 N 
ATOM     37  C   UNL A   1      41.631  30.072  32.180  1.00  0.00     0.074 A 
ATOM     38  C   UNL A   1      40.494  30.965  32.133  1.00  0.00     0.031 C 
ATOM     39  C   UNL A   1      40.366  25.810  27.554  1.00  0.00     0.029 A 
ATOM     40  C   UNL A   1      41.548  25.879  28.408  1.00  0.00     0.049 A 
ATOM     41  H   UNL A   1      41.866  27.160  30.021  1.00  0.00     0.167 HD
ATOM     42  C   UNL A   1      42.692  30.232  33.007  1.00  0.00     0.034 A 
ATOM     43  C   UNL A   1      42.639  25.095  28.288  1.00  0.00     0.034 A 
ATOM     44  C   UNL A   1      43.798  29.316  33.091  1.00  0.00     0.049 A 
ATOM     45  C   UNL A   1      43.788  25.281  29.245  1.00  0.00     0.074 A 
ATOM     46  C   UNL A   1      44.859  29.335  33.981  1.00  0.00     0.029 A 
ATOM     47  N   UNL A   1      44.003  28.238  32.247  1.00  0.00    -0.354 N 
ATOM     48  N   UNL A   1      43.907  26.132  30.236  1.00  0.00    -0.248 NA
ATOM     49  C   UNL A   1      44.939  24.379  29.089  1.00  0.00     0.031 C 
ATOM     50  C   UNL A   1      45.727  28.293  33.647  1.00  0.00     0.029 A 
ATOM     51  C   UNL A   1      45.184  27.598  32.580  1.00  0.00     0.049 A 
ATOM     52  H   UNL A   1      43.398  27.967  31.521  1.00  0.00     0.167 HD
ATOM     53  C   UNL A   1      45.121  25.836  30.846  1.00  0.00     0.074 A 
ATOM     54  C   UNL A   1      45.692  24.717  30.127  1.00  0.00     0.031 C 
ATOM     55  C   UNL A   1      45.715  26.445  31.901  1.00  0.00     0.034 A 
BRANCH  42  56
ATOM     56  C   UNL A   1      42.709  31.426  33.925  1.00  0.00     0.023 A 
ATOM     57  C   UNL A   1      43.208  32.660  33.465  1.00  0.00     0.012 A 
ATOM     58  C   UNL A   1      42.127  31.349  35.207  1.00  0.00     0.148 A 
ATOM     59  C   UNL A   1      43.150  33.794  34.274  1.00  0.00     0.002 A 
ATOM     60  C   UNL A   1      42.030  32.493  35.989  1.00  0.00     0.091 A 
ATOM     61  F   UNL A   1      41.672  30.161  35.631  1.00  0.00    -0.205 F 
ATOM     62  C   UNL A   1      42.550  33.714  35.529  1.00  0.00     0.022 A 
BRANCH  60  63
ATOM     63  S   UNL A   1      41.195  32.513  37.580  1.00  0.00     0.127 S 
ATOM     64  O   UNL A   1      39.881  31.974  37.228  1.00  0.00    -0.237 OA
ATOM     65  O   UNL A   1      42.030  31.611  38.374  1.00  0.00    -0.237 OA
ATOM     66  O   UNL A   1      41.199  33.898  38.022  1.00  0.00    -0.744 OA
ENDBRANCH  60  63
ENDBRANCH  42  56
BRANCH  43  67
ATOM     67  C   UNL A   1      42.698  24.033  27.241  1.00  0.00     0.023 A 
ATOM     68  C   UNL A   1      43.349  24.299  26.020  1.00  0.00     0.012 A 
ATOM     69  C   UNL A   1      42.100  22.774  27.438  1.00  0.00     0.148 A 
ATOM     70  C   UNL A   1      43.358  23.351  24.996  1.00  0.00     0.002 A 
ATOM     71  C   UNL A   1      42.165  21.812  26.437  1.00  0.00     0.091 A 
ATOM     72  F   UNL A   1      41.474  22.540  28.600  1.00  0.00    -0.205 F 
ATOM     73  C   UNL A   1      42.774  22.106  25.207  1.00  0.00     0.022 A 
BRANCH  71  74
ATOM     74  S   UNL A   1      41.555  20.139  26.672  1.00  0.00     0.127 S 
ATOM     75  O   UNL A   1      40.118  20.363  26.824  1.00  0.00    -0.237 OA
ATOM     76  O   UNL A   1      41.947  19.494  25.417  1.00  0.00    -0.237 OA
ATOM     77  O   UNL A   1      42.247  19.632  27.847  1.00  0.00    -0.744 OA
ENDBRANCH  71  74
ENDBRANCH  43  67
BRANCH  55  78
ATOM     78  C   UNL A   1      47.024  25.886  32.396  1.00  0.00     0.023 A 
ATOM     79  C   UNL A   1      48.243  26.389  31.899  1.00  0.00     0.012 A 
ATOM     80  C   UNL A   1      47.042  24.919  33.421  1.00  0.00     0.148 A 
ATOM     81  C   UNL A   1      49.457  25.915  32.392  1.00  0.00     0.002 A 
ATOM     82  C   UNL A   1      48.255  24.492  33.945  1.00  0.00     0.091 A 
ATOM     83  F   UNL A   1      45.872  24.440  33.869  1.00  0.00    -0.205 F 
ATOM     84  C   UNL A   1      49.465  24.978  33.423  1.00  0.00     0.022 A 
BRANCH  82  85
ATOM     85  S   UNL A   1      48.360  23.366  35.342  1.00  0.00     0.127 S 
ATOM     86  O   UNL A   1      49.806  23.255  35.528  1.00  0.00    -0.237 OA
ATOM     87  O   UNL A   1      47.666  24.111  36.392  1.00  0.00    -0.237 OA
ATOM     88  O   UNL A   1      47.691  22.142  34.924  1.00  0.00    -0.744 OA
ENDBRANCH  82  85
ENDBRANCH  55  78
ENDBRANCH  29  30
ENDBRANCH  21  24
ENDBRANCH   1  20
TORSDOF 14
ENDMDL
MODEL 3
REMARK VINA RESULT:     -12.3      5.469      8.382
REMARK SMILES O=C(NCCCCNC(=O)c1ccc(-c2c3nc(c(-c4cccc(S(=O)(=O)[O-])c4F)c4ccc([nH]4)c(-c4cccc(S(=O)(=O)[O-])c4F)c4nc(c(-c5cccc(S(=O)(=O)[O-])c5F)c5ccc2[nH]5)C=C4)C=C3)cc1)C1=C[C@H]2C(=N1)C=CC(Cl)=C2Cl
REMARK SMILES IDX 7 1 6 2 5 3 4 4 3 5 1 6 2 7 74 9 75 10 78 11 76 12 77 13
REMARK SMILES IDX 83 14 79 15 81 16 84 17 80 18 82 19 8 20 9 21 10 23 11 24
REMARK SMILES IDX 12 25 73 26 13 27 72 28 14 29 15 30 16 31 66 32 17 33 71 34
REMARK SMILES IDX 65 35 67 36 18 37 70 38 64 39 63 40 19 42 51 43 31 44 50 45
REMARK SMILES IDX 32 46 35 47 49 48 68 49 33 50 34 51 48 53 69 54 36 55 20 56
REMARK SMILES IDX 21 57 29 58 22 59 24 60 30 61 23 62 25 63 26 64 27 65 28 66
REMARK SMILES IDX 52 67 53 68 61 69 54 70 56 71 62 72 55 73 57 74 58 75 59 76
REMARK SMILES IDX 60 77 37 78 38 79 46 80 39 81 41 82 47 83 40 84 42 85 43 86
REMARK SMILES IDX 44 87 45 88
REMARK H PARENT 3 8 8 22 67 41 35 52
REMARK Flexibility Score: inf
ROOT
ATOM      1  C   UNL A   1      33.337  28.870  27.249  1.00  0.00     0.116 C 
ENDROOT
BRANCH   1   2
ATOM      2  C   UNL A   1      33.594  28.414  25.813  1.00  0.00     0.023 C 
BRANCH   2   3
ATOM      3  C   UNL A   1      32.990  29.275  24.698  1.00  0.00     0.023 C 
BRANCH   3   4
ATOM      4  C   UNL A   1      31.476  29.480  24.743  1.00  0.00     0.116 C 
BRANCH   4   5
ATOM      5  N   UNL A   1      30.912  29.870  23.467  1.00  0.00    -0.351 N 
ATOM      6  O   UNL A   1      29.735  29.655  21.568  1.00  0.00    -0.268 OA
ATOM      7  C   UNL A   1      30.279  29.113  22.529  1.00  0.00     0.269 C 
ATOM      8  H   UNL A   1      31.001  30.825  23.244  1.00  0.00     0.163 HD
BRANCH   7   9
ATOM      9  C   UNL A   1      30.322  27.630  22.617  1.00  0.00     0.125 C 
ATOM     10  C   UNL A   1      29.520  27.034  23.509  1.00  0.00     0.023 C 
ATOM     11  N   UNL A   1      31.353  26.836  22.152  1.00  0.00    -0.247 NA
ATOM     12  C   UNL A   1      29.978  25.640  23.695  1.00  0.00     0.106 C 
ATOM     13  C   UNL A   1      31.224  25.739  22.832  1.00  0.00     0.054 C 
ATOM     14  C   UNL A   1      30.396  25.132  25.039  1.00  0.00     0.050 C 
ATOM     15  C   UNL A   1      32.182  24.607  22.865  1.00  0.00     0.026 C 
ATOM     16  C   UNL A   1      31.228  24.074  25.063  1.00  0.00     0.056 C 
ATOM     17  Cl  UNL A   1      30.604  26.298  26.323  1.00  0.00    -0.086 Cl
ATOM     18  C   UNL A   1      32.107  23.797  23.935  1.00  0.00     0.023 C 
ATOM     19  Cl  UNL A   1      30.749  22.702  26.018  1.00  0.00    -0.083 Cl
ENDBRANCH   7   9
ENDBRANCH   4   5
ENDBRANCH   3   4
ENDBRANCH   2   3
ENDBRANCH   1   2
BRANCH   1  20
ATOM     20  N   UNL A   1      33.517  30.302  27.443  1.00  0.00    -0.352 N 
ATOM     21  C   UNL A   1      34.574  30.995  27.983  1.00  0.00     0.251 C 
ATOM     22  H   UNL A   1      32.766  30.861  27.139  1.00  0.00     0.163 HD
ATOM     23  O   UNL A   1      34.471  32.215  28.145  1.00  0.00    -0.269 OA
BRANCH  21  24
ATOM     24  C   UNL A   1      35.816  30.304  28.403  1.00  0.00     0.039 A 
ATOM     25  C   UNL A   1      36.902  30.276  27.520  1.00  0.00     0.014 A 
ATOM     26  C   UNL A   1      35.921  29.674  29.645  1.00  0.00     0.014 A 
ATOM     27  C   UNL A   1      38.112  29.691  27.913  1.00  0.00     0.010 A 
ATOM     28  C   UNL A   1      37.148  29.155  30.062  1.00  0.00     0.010 A 
ATOM     29  C   UNL A   1      38.260  29.163  29.206  1.00  0.00    -0.014 A 
BRANCH  29  30
ATOM     30  C   UNL A   1      39.572  28.649  29.693  1.00  0.00     0.031 A 
ATOM     31  C   UNL A   1      40.314  29.363  30.792  1.00  0.00     0.074 A 
ATOM     32  C   UNL A   1      40.148  27.598  29.073  1.00  0.00     0.049 A 
ATOM     33  N   UNL A   1      41.504  29.120  31.277  1.00  0.00    -0.248 NA
ATOM     34  C   UNL A   1      39.641  30.517  31.413  1.00  0.00     0.031 C 
ATOM     35  C   UNL A   1      39.570  26.855  27.949  1.00  0.00     0.029 A 
ATOM     36  N   UNL A   1      41.368  26.995  29.271  1.00  0.00    -0.354 N 
ATOM     37  C   UNL A   1      41.746  30.114  32.218  1.00  0.00     0.074 A 
ATOM     38  C   UNL A   1      40.581  30.972  32.231  1.00  0.00     0.031 C 
ATOM     39  C   UNL A   1      40.433  25.905  27.556  1.00  0.00     0.029 A 
ATOM     40  C   UNL A   1      41.644  25.994  28.366  1.00  0.00     0.049 A 
ATOM     41  H   UNL A   1      41.986  27.253  29.992  1.00  0.00     0.167 HD
ATOM     42  C   UNL A   1      42.832  30.290  33.007  1.00  0.00     0.034 A 
ATOM     43  C   UNL A   1      42.753  25.246  28.189  1.00  0.00     0.034 A 
ATOM     44  C   UNL A   1      43.968  29.408  33.031  1.00  0.00     0.049 A 
ATOM     45  C   UNL A   1      43.931  25.450  29.105  1.00  0.00     0.074 A 
ATOM     46  C   UNL A   1      45.061  29.442  33.880  1.00  0.00     0.029 A 
ATOM     47  N   UNL A   1      44.172  28.353  32.158  1.00  0.00    -0.354 N 
ATOM     48  N   UNL A   1      44.063  26.284  30.108  1.00  0.00    -0.248 NA
ATOM     49  C   UNL A   1      45.103  24.587  28.888  1.00  0.00     0.031 C 
ATOM     50  C   UNL A   1      45.947  28.434  33.493  1.00  0.00     0.029 A 
ATOM     51  C   UNL A   1      45.384  27.743  32.432  1.00  0.00     0.049 A 
ATOM     52  H   UNL A   1      43.548  28.077  31.449  1.00  0.00     0.167 HD
ATOM     53  C   UNL A   1      45.308  26.014  30.667  1.00  0.00     0.074 A 
ATOM     54  C   UNL A   1      45.884  24.928  29.903  1.00  0.00     0.031 C 
ATOM     55  C   UNL A   1      45.923  26.620  31.710  1.00  0.00     0.034 A 
BRANCH  42  56
ATOM     56  C   UNL A   1      42.848  31.466  33.948  1.00  0.00     0.023 A 
ATOM     57  C   UNL A   1      43.356  32.707  33.515  1.00  0.00     0.012 A 
ATOM     58  C   UNL A   1      42.256  31.367  35.224  1.00  0.00     0.148 A 
ATOM     59  C   UNL A   1      43.298  33.825  34.346  1.00  0.00     0.002 A 
ATOM     60  C   UNL A   1      42.160  32.497  36.027  1.00  0.00     0.091 A 
ATOM     61  F   UNL A   1      41.793  30.174  35.622  1.00  0.00    -0.205 F 
ATOM     62  C   UNL A   1      42.688  33.723  35.595  1.00  0.00     0.022 A 
BRANCH  60  63
ATOM     63  S   UNL A   1      41.314  32.491  37.613  1.00  0.00     0.127 S 
ATOM     64  O   UNL A   1      42.143  31.562  38.383  1.00  0.00    -0.237 OA
ATOM     65  O   UNL A   1      41.426  33.891  38.024  1.00  0.00    -0.237 OA
ATOM     66  O   UNL A   1      39.958  32.037  37.347  1.00  0.00    -0.744 OA
ENDBRANCH  60  63
ENDBRANCH  42  56
BRANCH  43  67
ATOM     67  C   UNL A   1      42.804  24.207  27.119  1.00  0.00     0.023 A 
ATOM     68  C   UNL A   1      43.464  24.492  25.907  1.00  0.00     0.012 A 
ATOM     69  C   UNL A   1      42.190  22.952  27.285  1.00  0.00     0.148 A 
ATOM     70  C   UNL A   1      43.466  23.567  24.862  1.00  0.00     0.002 A 
ATOM     71  C   UNL A   1      42.247  22.012  26.263  1.00  0.00     0.091 A 
ATOM     72  F   UNL A   1      41.556  22.700  28.439  1.00  0.00    -0.205 F 
ATOM     73  C   UNL A   1      42.865  22.325  25.043  1.00  0.00     0.022 A 
BRANCH  71  74
ATOM     74  S   UNL A   1      41.615  20.341  26.459  1.00  0.00     0.127 S 
ATOM     75  O   UNL A   1      42.098  19.993  27.794  1.00  0.00    -0.237 OA
ATOM     76  O   UNL A   1      40.169  20.552  26.363  1.00  0.00    -0.237 OA
ATOM     77  O   UNL A   1      42.182  19.577  25.358  1.00  0.00    -0.744 OA
ENDBRANCH  71  74
ENDBRANCH  43  67
BRANCH  55  78
ATOM     78  C   UNL A   1      47.267  26.093  32.144  1.00  0.00     0.023 A 
ATOM     79  C   UNL A   1      48.446  26.584  31.550  1.00  0.00     0.012 A 
ATOM     80  C   UNL A   1      47.359  25.170  33.205  1.00  0.00     0.148 A 
ATOM     81  C   UNL A   1      49.694  26.140  31.984  1.00  0.00     0.002 A 
ATOM     82  C   UNL A   1      48.607  24.774  33.669  1.00  0.00     0.091 A 
ATOM     83  F   UNL A   1      46.224  24.702  33.746  1.00  0.00    -0.205 F 
ATOM     84  C   UNL A   1      49.776  25.247  33.051  1.00  0.00     0.022 A 
BRANCH  82  85
ATOM     85  S   UNL A   1      48.811  23.709  35.101  1.00  0.00     0.127 S 
ATOM     86  O   UNL A   1      48.080  22.511  34.688  1.00  0.00    -0.237 OA
ATOM     87  O   UNL A   1      50.264  23.545  35.160  1.00  0.00    -0.237 OA
ATOM     88  O   UNL A   1      48.236  24.431  36.227  1.00  0.00    -0.744 OA
ENDBRANCH  82  85
ENDBRANCH  55  78
ENDBRANCH  29  30
ENDBRANCH  21  24
ENDBRANCH   1  20
TORSDOF 14
ENDMDL
