MODEL 1
REMARK VINA RESULT:     -12.6      0.000      0.000
REMARK SMILES CS(=O)(=O)c1ccc(/C=C(/C(=O)NCCCCNC(=O)c2ccc(-c3c4nc(c(-c5cccc(S(=O)(=O)[O-])c5F)c5ccc([nH]5)c(-c5cccc(S(=O)(=O)[O-])c5F)c5nc(c(-c6cccc(S(=O)(=O)[O-])c6F)c6ccc3[nH]6)C=C5)C=C4)cc2)c2ccc(-c3ccc(S(C)(=O)=O)cc3)cc2)cc1
REMARK SMILES IDX 15 1 14 2 13 3 11 4 12 5 10 7 9 8 8 9 5 10 6 11 101 12 7 13
REMARK SMILES IDX 100 14 2 15 1 16 3 17 4 18 84 19 85 20 99 21 86 22 98 23
REMARK SMILES IDX 87 24 88 25 89 26 97 27 90 28 96 29 91 30 92 31 93 32 94 33
REMARK SMILES IDX 95 34 16 35 17 36 18 37 19 38 20 40 21 41 22 42 83 43 23 44
REMARK SMILES IDX 82 45 24 46 25 47 26 48 76 49 27 50 81 51 75 52 77 53 28 54
REMARK SMILES IDX 80 55 74 56 73 57 29 59 61 60 41 61 60 62 42 63 45 64 59 65
REMARK SMILES IDX 78 66 43 67 44 68 58 70 79 71 46 72 30 73 31 74 39 75 32 76
REMARK SMILES IDX 34 77 40 78 33 79 35 80 36 81 37 82 38 83 62 84 63 85 71 86
REMARK SMILES IDX 64 87 66 88 72 89 65 90 67 91 68 92 69 93 70 94 47 95 48 96
REMARK SMILES IDX 56 97 49 98 51 99 57 100 50 101 52 102 53 103 54 104 55 105
REMARK H PARENT 13 6 18 39 77 58 45 69
REMARK Flexibility Score: inf
ROOT
ATOM      1  C   UNL A   1      35.322  22.554  23.868  1.00  0.00     0.023 C 
ENDROOT
BRANCH   1   2
ATOM      2  C   UNL A   1      33.837  22.846  23.628  1.00  0.00     0.116 C 
BRANCH   2   3
ATOM      3  N   UNL A   1      33.079  22.598  24.836  1.00  0.00    -0.352 N 
ATOM      4  C   UNL A   1      32.222  23.346  25.579  1.00  0.00     0.251 C 
ATOM      5  O   UNL A   1      31.792  22.814  26.605  1.00  0.00    -0.269 OA
ATOM      6  H   UNL A   1      33.212  21.692  25.196  1.00  0.00     0.163 HD
BRANCH   4   7
ATOM      7  C   UNL A   1      31.727  24.719  25.170  1.00  0.00     0.047 C 
ATOM      8  C   UNL A   1      30.977  24.925  24.062  1.00  0.00     0.022 C 
BRANCH   8   9
ATOM      9  C   UNL A   1      30.300  26.148  23.573  1.00  0.00    -0.025 A 
ATOM     10  C   UNL A   1      28.912  28.487  22.886  1.00  0.00     0.067 A 
ATOM     11  C   UNL A   1      30.232  28.314  22.467  1.00  0.00     0.021 A 
ATOM     12  C   UNL A   1      28.262  27.495  23.616  1.00  0.00     0.021 A 
ATOM     13  C   UNL A   1      30.904  27.129  22.779  1.00  0.00     0.009 A 
ATOM     14  C   UNL A   1      28.959  26.333  23.957  1.00  0.00     0.009 A 
BRANCH  10  15
ATOM     15  S   UNL A   1      28.077  30.004  22.493  1.00  0.00     0.175 S 
ATOM     16  C   UNL A   1      29.208  31.252  23.045  1.00  0.00     0.163 C 
ATOM     17  O   UNL A   1      26.888  30.066  23.313  1.00  0.00    -0.224 OA
ATOM     18  O   UNL A   1      27.991  30.104  21.043  1.00  0.00    -0.224 OA
ENDBRANCH  10  15
ENDBRANCH   8   9
BRANCH   7  19
ATOM     19  C   UNL A   1      32.281  25.872  25.924  1.00  0.00    -0.013 A 
ATOM     20  C   UNL A   1      33.571  26.308  25.591  1.00  0.00     0.009 A 
ATOM     21  C   UNL A   1      31.542  26.607  26.855  1.00  0.00     0.009 A 
ATOM     22  C   UNL A   1      34.085  27.490  26.119  1.00  0.00     0.009 A 
ATOM     23  C   UNL A   1      32.052  27.813  27.362  1.00  0.00     0.009 A 
ATOM     24  C   UNL A   1      33.317  28.292  26.975  1.00  0.00    -0.018 A 
BRANCH  24  25
ATOM     25  C   UNL A   1      33.816  29.616  27.393  1.00  0.00    -0.018 A 
ATOM     26  C   UNL A   1      35.116  29.747  27.923  1.00  0.00     0.010 A 
ATOM     27  C   UNL A   1      33.036  30.777  27.269  1.00  0.00     0.010 A 
ATOM     28  C   UNL A   1      35.617  30.985  28.329  1.00  0.00     0.021 A 
ATOM     29  C   UNL A   1      33.527  32.023  27.673  1.00  0.00     0.021 A 
ATOM     30  C   UNL A   1      34.810  32.116  28.212  1.00  0.00     0.067 A 
BRANCH  30  31
ATOM     31  S   UNL A   1      35.453  33.682  28.742  1.00  0.00     0.175 S 
ATOM     32  C   UNL A   1      34.611  34.851  27.708  1.00  0.00     0.163 C 
ATOM     33  O   UNL A   1      35.013  33.884  30.110  1.00  0.00    -0.224 OA
ATOM     34  O   UNL A   1      36.862  33.727  28.401  1.00  0.00    -0.224 OA
ENDBRANCH  30  31
ENDBRANCH  24  25
ENDBRANCH   7  19
ENDBRANCH   4   7
ENDBRANCH   2   3
ENDBRANCH   1   2
BRANCH   1  35
ATOM     35  C   UNL A   1      36.025  23.586  24.758  1.00  0.00     0.023 C 
BRANCH  35  36
ATOM     36  C   UNL A   1      36.485  23.056  26.111  1.00  0.00     0.116 C 
BRANCH  36  37
ATOM     37  N   UNL A   1      37.417  21.943  25.999  1.00  0.00    -0.352 N 
ATOM     38  C   UNL A   1      38.778  21.959  26.194  1.00  0.00     0.251 C 
ATOM     39  H   UNL A   1      37.026  21.073  25.755  1.00  0.00     0.163 HD
ATOM     40  O   UNL A   1      39.455  20.966  25.950  1.00  0.00    -0.269 OA
BRANCH  38  41
ATOM     41  C   UNL A   1      39.409  23.206  26.667  1.00  0.00     0.039 A 
ATOM     42  C   UNL A   1      40.331  23.147  27.715  1.00  0.00     0.014 A 
ATOM     43  C   UNL A   1      39.129  24.417  26.030  1.00  0.00     0.014 A 
ATOM     44  C   UNL A   1      41.023  24.301  28.086  1.00  0.00     0.010 A 
ATOM     45  C   UNL A   1      39.869  25.547  26.355  1.00  0.00     0.010 A 
ATOM     46  C   UNL A   1      40.819  25.502  27.388  1.00  0.00    -0.014 A 
BRANCH  46  47
ATOM     47  C   UNL A   1      41.564  26.742  27.720  1.00  0.00     0.031 A 
ATOM     48  C   UNL A   1      42.999  26.875  27.289  1.00  0.00     0.074 A 
ATOM     49  C   UNL A   1      40.996  27.681  28.502  1.00  0.00     0.049 A 
ATOM     50  N   UNL A   1      43.873  27.793  27.606  1.00  0.00    -0.248 NA
ATOM     51  C   UNL A   1      43.531  25.813  26.418  1.00  0.00     0.031 C 
ATOM     52  C   UNL A   1      39.633  27.631  29.034  1.00  0.00     0.029 A 
ATOM     53  N   UNL A   1      41.512  28.842  29.021  1.00  0.00    -0.354 N 
ATOM     54  C   UNL A   1      45.068  27.393  27.019  1.00  0.00     0.074 A 
ATOM     55  C   UNL A   1      44.814  26.138  26.349  1.00  0.00     0.031 C 
ATOM     56  C   UNL A   1      39.424  28.707  29.811  1.00  0.00     0.029 A 
ATOM     57  C   UNL A   1      40.647  29.503  29.862  1.00  0.00     0.049 A 
ATOM     58  H   UNL A   1      42.417  29.170  28.813  1.00  0.00     0.167 HD
ATOM     59  C   UNL A   1      46.263  28.029  27.014  1.00  0.00     0.034 A 
ATOM     60  C   UNL A   1      40.824  30.616  30.601  1.00  0.00     0.034 A 
ATOM     61  C   UNL A   1      46.492  29.306  27.632  1.00  0.00     0.049 A 
ATOM     62  C   UNL A   1      42.149  31.331  30.537  1.00  0.00     0.074 A 
ATOM     63  C   UNL A   1      47.640  30.076  27.612  1.00  0.00     0.029 A 
ATOM     64  N   UNL A   1      45.553  30.002  28.376  1.00  0.00    -0.354 N 
ATOM     65  N   UNL A   1      43.226  31.010  29.864  1.00  0.00    -0.248 NA
ATOM     66  C   UNL A   1      42.272  32.579  31.305  1.00  0.00     0.031 C 
ATOM     67  C   UNL A   1      47.400  31.232  28.360  1.00  0.00     0.029 A 
ATOM     68  C   UNL A   1      46.095  31.194  28.821  1.00  0.00     0.049 A 
ATOM     69  H   UNL A   1      44.637  29.693  28.563  1.00  0.00     0.167 HD
ATOM     70  C   UNL A   1      44.135  32.039  30.083  1.00  0.00     0.074 A 
ATOM     71  C   UNL A   1      43.481  32.996  30.950  1.00  0.00     0.031 C 
ATOM     72  C   UNL A   1      45.400  32.173  29.617  1.00  0.00     0.034 A 
BRANCH  59  73
ATOM     73  C   UNL A   1      47.402  27.378  26.274  1.00  0.00     0.023 A 
ATOM     74  C   UNL A   1      47.500  27.531  24.877  1.00  0.00     0.012 A 
ATOM     75  C   UNL A   1      48.401  26.666  26.964  1.00  0.00     0.148 A 
ATOM     76  C   UNL A   1      48.554  26.953  24.171  1.00  0.00     0.002 A 
ATOM     77  C   UNL A   1      49.475  26.133  26.260  1.00  0.00     0.091 A 
ATOM     78  F   UNL A   1      48.279  26.512  28.291  1.00  0.00    -0.205 F 
ATOM     79  C   UNL A   1      49.546  26.264  24.863  1.00  0.00     0.022 A 
BRANCH  77  80
ATOM     80  S   UNL A   1      50.845  25.300  27.070  1.00  0.00     0.127 S 
ATOM     81  O   UNL A   1      51.381  26.366  27.914  1.00  0.00    -0.237 OA
ATOM     82  O   UNL A   1      50.166  24.228  27.798  1.00  0.00    -0.237 OA
ATOM     83  O   UNL A   1      51.725  24.845  26.003  1.00  0.00    -0.744 OA
ENDBRANCH  77  80
ENDBRANCH  59  73
BRANCH  60  84
ATOM     84  C   UNL A   1      39.698  31.162  31.412  1.00  0.00     0.023 A 
ATOM     85  C   UNL A   1      38.579  31.710  30.754  1.00  0.00     0.012 A 
ATOM     86  C   UNL A   1      39.714  31.122  32.819  1.00  0.00     0.148 A 
ATOM     87  C   UNL A   1      37.512  32.238  31.481  1.00  0.00     0.002 A 
ATOM     88  C   UNL A   1      38.625  31.602  33.539  1.00  0.00     0.091 A 
ATOM     89  F   UNL A   1      40.792  30.606  33.428  1.00  0.00    -0.205 F 
ATOM     90  C   UNL A   1      37.531  32.177  32.873  1.00  0.00     0.022 A 
BRANCH  88  91
ATOM     91  S   UNL A   1      38.504  31.447  35.324  1.00  0.00     0.127 S 
ATOM     92  O   UNL A   1      37.236  32.118  35.597  1.00  0.00    -0.237 OA
ATOM     93  O   UNL A   1      38.484  29.995  35.501  1.00  0.00    -0.237 OA
ATOM     94  O   UNL A   1      39.694  32.098  35.855  1.00  0.00    -0.744 OA
ENDBRANCH  88  91
ENDBRANCH  60  84
BRANCH  72  95
ATOM     95  C   UNL A   1      46.154  33.429  29.962  1.00  0.00     0.023 A 
ATOM     96  C   UNL A   1      46.987  33.463  31.096  1.00  0.00     0.012 A 
ATOM     97  C   UNL A   1      46.125  34.534  29.086  1.00  0.00     0.148 A 
ATOM     98  C   UNL A   1      47.769  34.586  31.363  1.00  0.00     0.002 A 
ATOM     99  C   UNL A   1      46.943  35.628  29.333  1.00  0.00     0.091 A 
ATOM    100  F   UNL A   1      45.310  34.483  28.023  1.00  0.00    -0.205 F 
ATOM    101  C   UNL A   1      47.759  35.660  30.476  1.00  0.00     0.022 A 
BRANCH  99 102
ATOM    102  S   UNL A   1      47.073  37.010  28.192  1.00  0.00     0.127 S 
ATOM    103  O   UNL A   1      47.876  36.431  27.115  1.00  0.00    -0.237 OA
ATOM    104  O   UNL A   1      45.673  37.256  27.845  1.00  0.00    -0.237 OA
ATOM    105  O   UNL A   1      47.711  38.088  28.934  1.00  0.00    -0.744 OA
ENDBRANCH  99 102
ENDBRANCH  72  95
ENDBRANCH  46  47
ENDBRANCH  38  41
ENDBRANCH  36  37
ENDBRANCH  35  36
ENDBRANCH   1  35
TORSDOF 19
ENDMDL
MODEL 2
REMARK VINA RESULT:     -12.4      1.748      2.058
REMARK SMILES CS(=O)(=O)c1ccc(/C=C(/C(=O)NCCCCNC(=O)c2ccc(-c3c4nc(c(-c5cccc(S(=O)(=O)[O-])c5F)c5ccc([nH]5)c(-c5cccc(S(=O)(=O)[O-])c5F)c5nc(c(-c6cccc(S(=O)(=O)[O-])c6F)c6ccc3[nH]6)C=C5)C=C4)cc2)c2ccc(-c3ccc(S(C)(=O)=O)cc3)cc2)cc1
REMARK SMILES IDX 15 1 14 2 13 3 11 4 12 5 10 7 9 8 8 9 5 10 6 11 101 12 7 13
REMARK SMILES IDX 100 14 2 15 1 16 3 17 4 18 84 19 85 20 99 21 86 22 98 23
REMARK SMILES IDX 87 24 88 25 89 26 97 27 90 28 96 29 91 30 92 31 93 32 94 33
REMARK SMILES IDX 95 34 16 35 17 36 18 37 19 38 20 40 21 41 22 42 83 43 23 44
REMARK SMILES IDX 82 45 24 46 25 47 26 48 76 49 27 50 81 51 75 52 77 53 28 54
REMARK SMILES IDX 80 55 74 56 73 57 29 59 61 60 41 61 60 62 42 63 45 64 59 65
REMARK SMILES IDX 78 66 43 67 44 68 58 70 79 71 46 72 30 73 31 74 39 75 32 76
REMARK SMILES IDX 34 77 40 78 33 79 35 80 36 81 37 82 38 83 62 84 63 85 71 86
REMARK SMILES IDX 64 87 66 88 72 89 65 90 67 91 68 92 69 93 70 94 47 95 48 96
REMARK SMILES IDX 56 97 49 98 51 99 57 100 50 101 52 102 53 103 54 104 55 105
REMARK H PARENT 13 6 18 39 77 58 45 69
REMARK Flexibility Score: inf
ROOT
ATOM      1  C   UNL A   1      34.836  21.988  24.434  1.00  0.00     0.023 C 
ENDROOT
BRANCH   1   2
ATOM      2  C   UNL A   1      33.701  23.009  24.309  1.00  0.00     0.116 C 
BRANCH   2   3
ATOM      3  N   UNL A   1      32.684  22.749  25.305  1.00  0.00    -0.352 N 
ATOM      4  C   UNL A   1      31.672  23.485  25.832  1.00  0.00     0.251 C 
ATOM      5  O   UNL A   1      31.018  22.944  26.726  1.00  0.00    -0.269 OA
ATOM      6  H   UNL A   1      32.736  21.841  25.681  1.00  0.00     0.163 HD
BRANCH   4   7
ATOM      7  C   UNL A   1      31.276  24.859  25.327  1.00  0.00     0.047 C 
ATOM      8  C   UNL A   1      30.555  25.040  24.195  1.00  0.00     0.022 C 
BRANCH   8   9
ATOM      9  C   UNL A   1      29.969  26.270  23.616  1.00  0.00    -0.025 A 
ATOM     10  C   UNL A   1      28.743  28.642  22.752  1.00  0.00     0.067 A 
ATOM     11  C   UNL A   1      30.066  28.374  22.398  1.00  0.00     0.021 A 
ATOM     12  C   UNL A   1      28.010  27.727  23.506  1.00  0.00     0.021 A 
ATOM     13  C   UNL A   1      30.657  27.173  22.798  1.00  0.00     0.009 A 
ATOM     14  C   UNL A   1      28.626  26.549  23.934  1.00  0.00     0.009 A 
BRANCH  10  15
ATOM     15  S   UNL A   1      28.011  30.179  22.247  1.00  0.00     0.175 S 
ATOM     16  C   UNL A   1      29.277  31.371  22.592  1.00  0.00     0.163 C 
ATOM     17  O   UNL A   1      26.891  30.431  23.126  1.00  0.00    -0.224 OA
ATOM     18  O   UNL A   1      27.835  30.137  20.803  1.00  0.00    -0.224 OA
ENDBRANCH  10  15
ENDBRANCH   8   9
BRANCH   7  19
ATOM     19  C   UNL A   1      31.896  26.019  26.014  1.00  0.00    -0.013 A 
ATOM     20  C   UNL A   1      33.174  26.417  25.596  1.00  0.00     0.009 A 
ATOM     21  C   UNL A   1      31.226  26.797  26.963  1.00  0.00     0.009 A 
ATOM     22  C   UNL A   1      33.741  27.601  26.059  1.00  0.00     0.009 A 
ATOM     23  C   UNL A   1      31.789  28.005  27.405  1.00  0.00     0.009 A 
ATOM     24  C   UNL A   1      33.040  28.444  26.934  1.00  0.00    -0.018 A 
BRANCH  24  25
ATOM     25  C   UNL A   1      33.590  29.767  27.283  1.00  0.00    -0.018 A 
ATOM     26  C   UNL A   1      34.947  29.898  27.641  1.00  0.00     0.010 A 
ATOM     27  C   UNL A   1      32.802  30.929  27.260  1.00  0.00     0.010 A 
ATOM     28  C   UNL A   1      35.497  31.135  27.980  1.00  0.00     0.021 A 
ATOM     29  C   UNL A   1      33.342  32.175  27.597  1.00  0.00     0.021 A 
ATOM     30  C   UNL A   1      34.683  32.267  27.967  1.00  0.00     0.067 A 
BRANCH  30  31
ATOM     31  S   UNL A   1      35.390  33.832  28.410  1.00  0.00     0.175 S 
ATOM     32  C   UNL A   1      34.566  34.250  29.924  1.00  0.00     0.163 C 
ATOM     33  O   UNL A   1      36.792  33.601  28.704  1.00  0.00    -0.224 OA
ATOM     34  O   UNL A   1      34.991  34.804  27.409  1.00  0.00    -0.224 OA
ENDBRANCH  30  31
ENDBRANCH  24  25
ENDBRANCH   7  19
ENDBRANCH   4   7
ENDBRANCH   2   3
ENDBRANCH   1   2
BRANCH   1  35
ATOM     35  C   UNL A   1      36.238  22.589  24.278  1.00  0.00     0.023 C 
BRANCH  35  36
ATOM     36  C   UNL A   1      37.068  22.620  25.556  1.00  0.00     0.116 C 
BRANCH  36  37
ATOM     37  N   UNL A   1      37.932  21.457  25.701  1.00  0.00    -0.352 N 
ATOM     38  C   UNL A   1      39.223  21.420  26.172  1.00  0.00     0.251 C 
ATOM     39  H   UNL A   1      37.545  20.594  25.431  1.00  0.00     0.163 HD
ATOM     40  O   UNL A   1      39.873  20.380  26.129  1.00  0.00    -0.269 OA
BRANCH  38  41
ATOM     41  C   UNL A   1      39.822  22.663  26.695  1.00  0.00     0.039 A 
ATOM     42  C   UNL A   1      40.827  22.581  27.661  1.00  0.00     0.014 A 
ATOM     43  C   UNL A   1      39.425  23.899  26.181  1.00  0.00     0.014 A 
ATOM     44  C   UNL A   1      41.482  23.743  28.070  1.00  0.00     0.010 A 
ATOM     45  C   UNL A   1      40.126  25.045  26.538  1.00  0.00     0.010 A 
ATOM     46  C   UNL A   1      41.156  24.979  27.490  1.00  0.00    -0.014 A 
BRANCH  46  47
ATOM     47  C   UNL A   1      41.857  26.233  27.862  1.00  0.00     0.031 A 
ATOM     48  C   UNL A   1      43.219  26.514  27.288  1.00  0.00     0.074 A 
ATOM     49  C   UNL A   1      41.330  27.047  28.797  1.00  0.00     0.049 A 
ATOM     50  N   UNL A   1      44.065  27.460  27.598  1.00  0.00    -0.248 NA
ATOM     51  C   UNL A   1      43.708  25.584  26.255  1.00  0.00     0.031 C 
ATOM     52  C   UNL A   1      40.047  26.845  29.473  1.00  0.00     0.029 A 
ATOM     53  N   UNL A   1      41.831  28.188  29.374  1.00  0.00    -0.354 N 
ATOM     54  C   UNL A   1      45.203  27.209  26.840  1.00  0.00     0.074 A 
ATOM     55  C   UNL A   1      44.950  26.008  26.076  1.00  0.00     0.031 C 
ATOM     56  C   UNL A   1      39.865  27.822  30.377  1.00  0.00     0.029 A 
ATOM     57  C   UNL A   1      41.033  28.699  30.372  1.00  0.00     0.049 A 
ATOM     58  H   UNL A   1      42.682  28.602  29.099  1.00  0.00     0.167 HD
ATOM     59  C   UNL A   1      46.347  27.930  26.767  1.00  0.00     0.034 A 
ATOM     60  C   UNL A   1      41.228  29.745  31.199  1.00  0.00     0.034 A 
ATOM     61  C   UNL A   1      46.568  29.154  27.485  1.00  0.00     0.049 A 
ATOM     62  C   UNL A   1      42.488  30.560  31.060  1.00  0.00     0.074 A 
ATOM     63  C   UNL A   1      47.655  30.006  27.415  1.00  0.00     0.029 A 
ATOM     64  N   UNL A   1      45.684  29.703  28.400  1.00  0.00    -0.354 N 
ATOM     65  N   UNL A   1      43.494  30.386  30.239  1.00  0.00    -0.248 NA
ATOM     66  C   UNL A   1      42.624  31.734  31.935  1.00  0.00     0.031 C 
ATOM     67  C   UNL A   1      47.435  31.064  28.303  1.00  0.00     0.029 A 
ATOM     68  C   UNL A   1      46.199  30.884  28.902  1.00  0.00     0.049 A 
ATOM     69  H   UNL A   1      44.818  29.310  28.655  1.00  0.00     0.167 HD
ATOM     70  C   UNL A   1      44.357  31.454  30.460  1.00  0.00     0.074 A 
ATOM     71  C   UNL A   1      43.753  32.272  31.491  1.00  0.00     0.031 C 
ATOM     72  C   UNL A   1      45.546  31.726  29.870  1.00  0.00     0.034 A 
BRANCH  59  73
ATOM     73  C   UNL A   1      47.427  27.440  25.838  1.00  0.00     0.023 A 
ATOM     74  C   UNL A   1      48.393  26.531  26.314  1.00  0.00     0.012 A 
ATOM     75  C   UNL A   1      47.454  27.833  24.486  1.00  0.00     0.148 A 
ATOM     76  C   UNL A   1      49.392  26.049  25.470  1.00  0.00     0.002 A 
ATOM     77  C   UNL A   1      48.424  27.312  23.638  1.00  0.00     0.091 A 
ATOM     78  F   UNL A   1      46.540  28.716  24.058  1.00  0.00    -0.205 F 
ATOM     79  C   UNL A   1      49.401  26.431  24.131  1.00  0.00     0.022 A 
BRANCH  77  80
ATOM     80  S   UNL A   1      48.471  27.678  21.881  1.00  0.00     0.127 S 
ATOM     81  O   UNL A   1      49.543  28.669  21.813  1.00  0.00    -0.237 OA
ATOM     82  O   UNL A   1      48.807  26.376  21.304  1.00  0.00    -0.237 OA
ATOM     83  O   UNL A   1      47.143  28.168  21.538  1.00  0.00    -0.744 OA
ENDBRANCH  77  80
ENDBRANCH  59  73
BRANCH  60  84
ATOM     84  C   UNL A   1      40.176  30.125  32.185  1.00  0.00     0.023 A 
ATOM     85  C   UNL A   1      40.327  29.741  33.532  1.00  0.00     0.012 A 
ATOM     86  C   UNL A   1      39.048  30.877  31.809  1.00  0.00     0.148 A 
ATOM     87  C   UNL A   1      39.358  30.071  34.480  1.00  0.00     0.002 A 
ATOM     88  C   UNL A   1      38.111  31.248  32.767  1.00  0.00     0.091 A 
ATOM     89  F   UNL A   1      38.916  31.224  30.520  1.00  0.00    -0.205 F 
ATOM     90  C   UNL A   1      38.255  30.831  34.100  1.00  0.00     0.022 A 
BRANCH  88  91
ATOM     91  S   UNL A   1      36.729  32.334  32.396  1.00  0.00     0.127 S 
ATOM     92  O   UNL A   1      37.408  33.505  31.848  1.00  0.00    -0.237 OA
ATOM     93  O   UNL A   1      35.977  31.545  31.420  1.00  0.00    -0.237 OA
ATOM     94  O   UNL A   1      36.039  32.535  33.663  1.00  0.00    -0.744 OA
ENDBRANCH  88  91
ENDBRANCH  60  84
BRANCH  72  95
ATOM     95  C   UNL A   1      46.256  32.996  30.257  1.00  0.00     0.023 A 
ATOM     96  C   UNL A   1      47.210  32.983  31.291  1.00  0.00     0.012 A 
ATOM     97  C   UNL A   1      46.057  34.173  29.506  1.00  0.00     0.148 A 
ATOM     98  C   UNL A   1      47.947  34.131  31.584  1.00  0.00     0.002 A 
ATOM     99  C   UNL A   1      46.830  35.296  29.772  1.00  0.00     0.091 A 
ATOM    100  F   UNL A   1      45.130  34.164  28.539  1.00  0.00    -0.205 F 
ATOM    101  C   UNL A   1      47.768  35.280  30.817  1.00  0.00     0.022 A 
BRANCH  99 102
ATOM    102  S   UNL A   1      46.741  36.785  28.770  1.00  0.00     0.127 S 
ATOM    103  O   UNL A   1      45.445  37.334  29.167  1.00  0.00    -0.237 OA
ATOM    104  O   UNL A   1      47.898  37.546  29.244  1.00  0.00    -0.237 OA
ATOM    105  O   UNL A   1      46.833  36.345  27.385  1.00  0.00    -0.744 OA
ENDBRANCH  99 102
ENDBRANCH  72  95
ENDBRANCH  46  47
ENDBRANCH  38  41
ENDBRANCH  36  37
ENDBRANCH  35  36
ENDBRANCH   1  35
TORSDOF 19
ENDMDL
MODEL 3
REMARK VINA RESULT:     -12.3      4.509     10.057
REMARK SMILES CS(=O)(=O)c1ccc(/C=C(/C(=O)NCCCCNC(=O)c2ccc(-c3c4nc(c(-c5cccc(S(=O)(=O)[O-])c5F)c5ccc([nH]5)c(-c5cccc(S(=O)(=O)[O-])c5F)c5nc(c(-c6cccc(S(=O)(=O)[O-])c6F)c6ccc3[nH]6)C=C5)C=C4)cc2)c2ccc(-c3ccc(S(C)(=O)=O)cc3)cc2)cc1
REMARK SMILES IDX 15 1 14 2 13 3 11 4 12 5 10 7 9 8 8 9 5 10 6 11 101 12 7 13
REMARK SMILES IDX 100 14 2 15 1 16 3 17 4 18 84 19 85 20 99 21 86 22 98 23
REMARK SMILES IDX 87 24 88 25 89 26 97 27 90 28 96 29 91 30 92 31 93 32 94 33
REMARK SMILES IDX 95 34 16 35 17 36 18 37 19 38 20 40 21 41 22 42 83 43 23 44
REMARK SMILES IDX 82 45 24 46 25 47 26 48 76 49 27 50 81 51 75 52 77 53 28 54
REMARK SMILES IDX 80 55 74 56 73 57 29 59 61 60 41 61 60 62 42 63 45 64 59 65
REMARK SMILES IDX 78 66 43 67 44 68 58 70 79 71 46 72 30 73 31 74 39 75 32 76
REMARK SMILES IDX 34 77 40 78 33 79 35 80 36 81 37 82 38 83 62 84 63 85 71 86
REMARK SMILES IDX 64 87 66 88 72 89 65 90 67 91 68 92 69 93 70 94 47 95 48 96
REMARK SMILES IDX 56 97 49 98 51 99 57 100 50 101 52 102 53 103 54 104 55 105
REMARK H PARENT 13 6 18 39 77 58 45 69
REMARK Flexibility Score: inf
ROOT
ATOM      1  C   UNL A   1      32.164  27.682  26.249  1.00  0.00     0.023 C 
ENDROOT
BRANCH   1   2
ATOM      2  C   UNL A   1      31.378  26.632  25.457  1.00  0.00     0.116 C 
BRANCH   2   3
ATOM      3  N   UNL A   1      31.703  26.723  24.049  1.00  0.00    -0.352 N 
ATOM      4  C   UNL A   1      32.307  25.887  23.167  1.00  0.00     0.251 C 
ATOM      5  O   UNL A   1      32.469  26.329  22.027  1.00  0.00    -0.269 OA
ATOM      6  H   UNL A   1      31.423  27.575  23.644  1.00  0.00     0.163 HD
BRANCH   4   7
ATOM      7  C   UNL A   1      32.699  24.458  23.490  1.00  0.00     0.047 C 
ATOM      8  C   UNL A   1      31.796  23.453  23.563  1.00  0.00     0.022 C 
BRANCH   8   9
ATOM      9  C   UNL A   1      31.993  21.995  23.733  1.00  0.00    -0.025 A 
ATOM     10  C   UNL A   1      32.527  19.243  23.850  1.00  0.00     0.067 A 
ATOM     11  C   UNL A   1      32.477  19.991  25.026  1.00  0.00     0.021 A 
ATOM     12  C   UNL A   1      32.282  19.842  22.616  1.00  0.00     0.021 A 
ATOM     13  C   UNL A   1      32.171  21.354  24.964  1.00  0.00     0.009 A 
ATOM     14  C   UNL A   1      32.019  21.213  22.564  1.00  0.00     0.009 A 
BRANCH  10  15
ATOM     15  S   UNL A   1      32.931  17.516  23.945  1.00  0.00     0.175 S 
ATOM     16  C   UNL A   1      34.640  17.518  24.415  1.00  0.00     0.163 C 
ATOM     17  O   UNL A   1      32.822  16.975  22.608  1.00  0.00    -0.224 OA
ATOM     18  O   UNL A   1      32.176  16.941  25.048  1.00  0.00    -0.224 OA
ENDBRANCH  10  15
ENDBRANCH   8   9
BRANCH   7  19
ATOM     19  C   UNL A   1      34.099  24.242  23.936  1.00  0.00    -0.013 A 
ATOM     20  C   UNL A   1      34.382  24.416  25.297  1.00  0.00     0.009 A 
ATOM     21  C   UNL A   1      35.108  23.766  23.094  1.00  0.00     0.009 A 
ATOM     22  C   UNL A   1      35.620  24.054  25.822  1.00  0.00     0.009 A 
ATOM     23  C   UNL A   1      36.344  23.375  23.631  1.00  0.00     0.009 A 
ATOM     24  C   UNL A   1      36.608  23.479  25.009  1.00  0.00    -0.018 A 
BRANCH  24  25
ATOM     25  C   UNL A   1      37.848  22.955  25.613  1.00  0.00    -0.018 A 
ATOM     26  C   UNL A   1      38.660  23.793  26.404  1.00  0.00     0.010 A 
ATOM     27  C   UNL A   1      38.253  21.622  25.438  1.00  0.00     0.010 A 
ATOM     28  C   UNL A   1      39.840  23.329  26.987  1.00  0.00     0.021 A 
ATOM     29  C   UNL A   1      39.434  21.144  26.018  1.00  0.00     0.021 A 
ATOM     30  C   UNL A   1      40.225  22.005  26.777  1.00  0.00     0.067 A 
BRANCH  30  31
ATOM     31  S   UNL A   1      41.733  21.429  27.514  1.00  0.00     0.175 S 
ATOM     32  C   UNL A   1      42.820  21.216  26.128  1.00  0.00     0.163 C 
ATOM     33  O   UNL A   1      42.249  22.508  28.335  1.00  0.00    -0.224 OA
ATOM     34  O   UNL A   1      41.481  20.118  28.081  1.00  0.00    -0.224 OA
ENDBRANCH  30  31
ENDBRANCH  24  25
ENDBRANCH   7  19
ENDBRANCH   4   7
ENDBRANCH   2   3
ENDBRANCH   1   2
BRANCH   1  35
ATOM     35  C   UNL A   1      33.686  27.522  26.161  1.00  0.00     0.023 C 
BRANCH  35  36
ATOM     36  C   UNL A   1      34.452  28.815  25.908  1.00  0.00     0.116 C 
BRANCH  36  37
ATOM     37  N   UNL A   1      33.666  30.007  26.194  1.00  0.00    -0.352 N 
ATOM     38  C   UNL A   1      33.877  30.940  27.182  1.00  0.00     0.251 C 
ATOM     39  H   UNL A   1      32.890  30.164  25.609  1.00  0.00     0.163 HD
ATOM     40  O   UNL A   1      33.062  31.835  27.378  1.00  0.00    -0.269 OA
BRANCH  38  41
ATOM     41  C   UNL A   1      35.084  30.820  28.021  1.00  0.00     0.039 A 
ATOM     42  C   UNL A   1      35.295  29.646  28.748  1.00  0.00     0.014 A 
ATOM     43  C   UNL A   1      36.030  31.848  28.035  1.00  0.00     0.014 A 
ATOM     44  C   UNL A   1      36.492  29.476  29.445  1.00  0.00     0.010 A 
ATOM     45  C   UNL A   1      37.248  31.647  28.672  1.00  0.00     0.010 A 
ATOM     46  C   UNL A   1      37.489  30.463  29.388  1.00  0.00    -0.014 A 
BRANCH  46  47
ATOM     47  C   UNL A   1      38.794  30.305  30.077  1.00  0.00     0.031 A 
ATOM     48  C   UNL A   1      38.966  30.861  31.464  1.00  0.00     0.074 A 
ATOM     49  C   UNL A   1      39.844  29.778  29.418  1.00  0.00     0.049 A 
ATOM     50  N   UNL A   1      40.054  30.972  32.179  1.00  0.00    -0.248 NA
ATOM     51  C   UNL A   1      37.759  31.397  32.118  1.00  0.00     0.031 C 
ATOM     52  C   UNL A   1      39.816  29.265  28.047  1.00  0.00     0.029 A 
ATOM     53  N   UNL A   1      41.154  29.628  29.800  1.00  0.00    -0.354 N 
ATOM     54  C   UNL A   1      39.675  31.636  33.340  1.00  0.00     0.074 A 
ATOM     55  C   UNL A   1      38.263  31.926  33.223  1.00  0.00     0.031 C 
ATOM     56  C   UNL A   1      41.051  28.865  27.700  1.00  0.00     0.029 A 
ATOM     57  C   UNL A   1      41.965  29.125  28.808  1.00  0.00     0.049 A 
ATOM     58  H   UNL A   1      41.483  29.858  30.700  1.00  0.00     0.167 HD
ATOM     59  C   UNL A   1      40.429  31.952  34.418  1.00  0.00     0.034 A 
ATOM     60  C   UNL A   1      43.296  28.913  28.789  1.00  0.00     0.034 A 
ATOM     61  C   UNL A   1      41.817  31.608  34.552  1.00  0.00     0.049 A 
ATOM     62  C   UNL A   1      44.102  29.227  30.023  1.00  0.00     0.074 A 
ATOM     63  C   UNL A   1      42.650  31.804  35.639  1.00  0.00     0.029 A 
ATOM     64  N   UNL A   1      42.575  30.992  33.569  1.00  0.00    -0.354 N 
ATOM     65  N   UNL A   1      43.699  29.729  31.164  1.00  0.00    -0.248 NA
ATOM     66  C   UNL A   1      45.538  28.913  29.980  1.00  0.00     0.031 C 
ATOM     67  C   UNL A   1      43.919  31.321  35.306  1.00  0.00     0.029 A 
ATOM     68  C   UNL A   1      43.867  30.799  34.024  1.00  0.00     0.049 A 
ATOM     69  H   UNL A   1      42.244  30.731  32.680  1.00  0.00     0.167 HD
ATOM     70  C   UNL A   1      44.817  29.743  31.991  1.00  0.00     0.074 A 
ATOM     71  C   UNL A   1      45.913  29.196  31.221  1.00  0.00     0.031 C 
ATOM     72  C   UNL A   1      44.926  30.179  33.270  1.00  0.00     0.034 A 
BRANCH  59  73
ATOM     73  C   UNL A   1      39.755  32.662  35.563  1.00  0.00     0.023 A 
ATOM     74  C   UNL A   1      39.820  34.067  35.645  1.00  0.00     0.012 A 
ATOM     75  C   UNL A   1      39.012  31.947  36.522  1.00  0.00     0.148 A 
ATOM     76  C   UNL A   1      39.190  34.749  36.684  1.00  0.00     0.002 A 
ATOM     77  C   UNL A   1      38.346  32.637  37.529  1.00  0.00     0.091 A 
ATOM     78  F   UNL A   1      38.980  30.609  36.441  1.00  0.00    -0.205 F 
ATOM     79  C   UNL A   1      38.445  34.036  37.619  1.00  0.00     0.022 A 
BRANCH  77  80
ATOM     80  S   UNL A   1      37.294  31.817  38.732  1.00  0.00     0.127 S 
ATOM     81  O   UNL A   1      38.107  31.905  39.944  1.00  0.00    -0.237 OA
ATOM     82  O   UNL A   1      36.105  32.669  38.732  1.00  0.00    -0.237 OA
ATOM     83  O   UNL A   1      37.076  30.470  38.221  1.00  0.00    -0.744 OA
ENDBRANCH  77  80
ENDBRANCH  59  73
BRANCH  60  84
ATOM     84  C   UNL A   1      43.940  28.313  27.586  1.00  0.00     0.023 A 
ATOM     85  C   UNL A   1      44.778  29.113  26.784  1.00  0.00     0.012 A 
ATOM     86  C   UNL A   1      43.751  26.961  27.245  1.00  0.00     0.148 A 
ATOM     87  C   UNL A   1      45.389  28.586  25.646  1.00  0.00     0.002 A 
ATOM     88  C   UNL A   1      44.405  26.427  26.139  1.00  0.00     0.091 A 
ATOM     89  F   UNL A   1      42.942  26.218  28.015  1.00  0.00    -0.205 F 
ATOM     90  C   UNL A   1      45.210  27.242  25.328  1.00  0.00     0.022 A 
BRANCH  88  91
ATOM     91  S   UNL A   1      44.337  24.680  25.729  1.00  0.00     0.127 S 
ATOM     92  O   UNL A   1      44.810  24.064  26.965  1.00  0.00    -0.237 OA
ATOM     93  O   UNL A   1      42.913  24.489  25.450  1.00  0.00    -0.237 OA
ATOM     94  O   UNL A   1      45.201  24.517  24.567  1.00  0.00    -0.744 OA
ENDBRANCH  88  91
ENDBRANCH  60  84
BRANCH  72  95
ATOM     95  C   UNL A   1      46.254  30.023  33.961  1.00  0.00     0.023 A 
ATOM     96  C   UNL A   1      47.203  31.060  33.908  1.00  0.00     0.012 A 
ATOM     97  C   UNL A   1      46.503  28.891  34.765  1.00  0.00     0.148 A 
ATOM     98  C   UNL A   1      48.391  30.966  34.633  1.00  0.00     0.002 A 
ATOM     99  C   UNL A   1      47.666  28.828  35.522  1.00  0.00     0.091 A 
ATOM    100  F   UNL A   1      45.591  27.909  34.784  1.00  0.00    -0.205 F 
ATOM    101  C   UNL A   1      48.615  29.860  35.449  1.00  0.00     0.022 A 
BRANCH  99 102
ATOM    102  S   UNL A   1      47.990  27.492  36.679  1.00  0.00     0.127 S 
ATOM    103  O   UNL A   1      49.340  27.817  37.136  1.00  0.00    -0.237 OA
ATOM    104  O   UNL A   1      46.942  27.690  37.680  1.00  0.00    -0.237 OA
ATOM    105  O   UNL A   1      47.872  26.258  35.915  1.00  0.00    -0.744 OA
ENDBRANCH  99 102
ENDBRANCH  72  95
ENDBRANCH  46  47
ENDBRANCH  38  41
ENDBRANCH  36  37
ENDBRANCH  35  36
ENDBRANCH   1  35
TORSDOF 19
ENDMDL
