MODEL 1
REMARK VINA RESULT:     -13.0      0.000      0.000
REMARK SMILES O=C(NCCCCNC(=O)[C@H]1CC=CC[C@@H]1C(=O)Nc1nn(Cc2ccccc2F)cc1Br)c1ccc(-c2c3nc(c(-c4cccc(S(=O)(=O)[O-])c4F)c4ccc([nH]4)c(-c4cccc(S(=O)(=O)[O-])c4F)c4nc(c(-c5cccc(S(=O)(=O)[O-])c5F)c5ccc2[nH]5)C=C4)C=C3)cc1
REMARK SMILES IDX 6 1 5 2 4 3 3 4 1 5 2 6 34 8 35 9 96 10 36 11 95 12 37 13
REMARK SMILES IDX 38 14 39 15 89 16 40 17 94 18 88 19 90 20 41 21 93 22 87 23
REMARK SMILES IDX 86 24 42 26 74 27 54 28 73 29 55 30 58 31 72 32 91 33 56 34
REMARK SMILES IDX 57 35 71 37 92 38 59 39 43 40 44 41 52 42 45 43 47 44 53 45
REMARK SMILES IDX 46 46 48 47 49 48 50 49 51 50 75 51 76 52 84 53 77 54 79 55
REMARK SMILES IDX 85 56 78 57 80 58 81 59 82 60 83 61 60 62 61 63 69 64 62 65
REMARK SMILES IDX 64 66 70 67 63 68 65 69 66 70 67 71 68 72 7 73 8 74 9 75
REMARK SMILES IDX 10 77 11 78 12 79 16 80 13 81 15 82 14 83 17 84 18 85 19 86
REMARK SMILES IDX 20 88 21 89 32 90 22 91 31 92 33 93 23 94 24 95 25 96 29 97
REMARK SMILES IDX 26 98 28 99 30 100 27 101
REMARK H PARENT 3 7 90 25 58 36 8 76 19 87
REMARK Flexibility Score: inf
ROOT
ATOM      1  C   UNL A   1      36.026  23.720  24.450  1.00  0.00     0.023 C 
ENDROOT
BRANCH   1   2
ATOM      2  C   UNL A   1      37.099  22.628  24.571  1.00  0.00     0.023 C 
BRANCH   2   3
ATOM      3  C   UNL A   1      37.780  22.517  25.936  1.00  0.00     0.116 C 
BRANCH   3   4
ATOM      4  N   UNL A   1      39.213  22.334  25.853  1.00  0.00    -0.352 N 
ATOM      5  O   UNL A   1      41.392  22.423  26.068  1.00  0.00    -0.269 OA
ATOM      6  C   UNL A   1      40.318  22.963  26.352  1.00  0.00     0.251 C 
ATOM      7  H   UNL A   1      39.453  21.559  25.295  1.00  0.00     0.163 HD
BRANCH   6   8
ATOM      8  C   UNL A   1      40.340  24.225  27.141  1.00  0.00     0.039 A 
ATOM      9  C   UNL A   1      39.401  25.259  27.076  1.00  0.00     0.014 A 
ATOM     10  C   UNL A   1      41.467  24.393  27.967  1.00  0.00     0.014 A 
ATOM     11  C   UNL A   1      39.624  26.462  27.753  1.00  0.00     0.010 A 
ATOM     12  C   UNL A   1      41.688  25.582  28.649  1.00  0.00     0.010 A 
ATOM     13  C   UNL A   1      40.785  26.634  28.509  1.00  0.00    -0.014 A 
BRANCH  13  14
ATOM     14  C   UNL A   1      40.989  27.870  29.269  1.00  0.00     0.031 A 
ATOM     15  C   UNL A   1      42.014  28.810  28.705  1.00  0.00     0.074 A 
ATOM     16  C   UNL A   1      40.127  28.236  30.246  1.00  0.00     0.049 A 
ATOM     17  N   UNL A   1      42.967  29.444  29.315  1.00  0.00    -0.248 NA
ATOM     18  C   UNL A   1      42.016  29.008  27.243  1.00  0.00     0.031 C 
ATOM     19  C   UNL A   1      38.901  27.534  30.648  1.00  0.00     0.029 A 
ATOM     20  N   UNL A   1      40.052  29.404  30.951  1.00  0.00    -0.354 N 
ATOM     21  C   UNL A   1      43.569  30.254  28.347  1.00  0.00     0.074 A 
ATOM     22  C   UNL A   1      43.035  29.849  27.075  1.00  0.00     0.031 C 
ATOM     23  C   UNL A   1      38.083  28.401  31.281  1.00  0.00     0.029 A 
ATOM     24  C   UNL A   1      38.769  29.670  31.432  1.00  0.00     0.049 A 
ATOM     25  H   UNL A   1      40.824  29.997  31.103  1.00  0.00     0.167 HD
ATOM     26  C   UNL A   1      44.340  31.336  28.649  1.00  0.00     0.034 A 
ATOM     27  C   UNL A   1      38.269  30.879  31.798  1.00  0.00     0.034 A 
ATOM     28  C   UNL A   1      44.779  31.333  30.012  1.00  0.00     0.049 A 
ATOM     29  C   UNL A   1      39.414  31.790  32.017  1.00  0.00     0.074 A 
ATOM     30  C   UNL A   1      45.580  30.508  30.775  1.00  0.00     0.029 A 
ATOM     31  N   UNL A   1      44.092  32.121  30.898  1.00  0.00    -0.354 N 
ATOM     32  N   UNL A   1      40.284  31.645  32.975  1.00  0.00    -0.248 NA
ATOM     33  C   UNL A   1      39.829  32.630  30.907  1.00  0.00     0.031 C 
ATOM     34  C   UNL A   1      44.966  30.498  32.059  1.00  0.00     0.029 A 
ATOM     35  C   UNL A   1      43.866  31.357  32.012  1.00  0.00     0.049 A 
ATOM     36  H   UNL A   1      43.815  33.056  30.762  1.00  0.00     0.167 HD
ATOM     37  C   UNL A   1      41.495  31.994  32.392  1.00  0.00     0.074 A 
ATOM     38  C   UNL A   1      41.139  32.684  31.155  1.00  0.00     0.031 C 
ATOM     39  C   UNL A   1      42.667  31.437  32.814  1.00  0.00     0.034 A 
BRANCH  26  40
ATOM     40  C   UNL A   1      44.484  32.553  27.774  1.00  0.00     0.023 A 
ATOM     41  C   UNL A   1      45.562  32.609  26.863  1.00  0.00     0.012 A 
ATOM     42  C   UNL A   1      43.752  33.745  27.981  1.00  0.00     0.148 A 
ATOM     43  C   UNL A   1      45.897  33.795  26.198  1.00  0.00     0.002 A 
ATOM     44  C   UNL A   1      44.040  34.899  27.261  1.00  0.00     0.091 A 
ATOM     45  F   UNL A   1      42.851  33.800  28.968  1.00  0.00    -0.205 F 
ATOM     46  C   UNL A   1      45.126  34.937  26.385  1.00  0.00     0.022 A 
BRANCH  44  47
ATOM     47  S   UNL A   1      43.038  36.382  27.421  1.00  0.00     0.127 S 
ATOM     48  O   UNL A   1      43.662  37.264  26.432  1.00  0.00    -0.237 OA
ATOM     49  O   UNL A   1      41.710  35.884  27.048  1.00  0.00    -0.237 OA
ATOM     50  O   UNL A   1      43.157  36.784  28.808  1.00  0.00    -0.744 OA
ENDBRANCH  44  47
ENDBRANCH  26  40
BRANCH  27  51
ATOM     51  C   UNL A   1      36.892  31.410  31.628  1.00  0.00     0.023 A 
ATOM     52  C   UNL A   1      36.212  31.959  32.734  1.00  0.00     0.012 A 
ATOM     53  C   UNL A   1      36.364  31.651  30.339  1.00  0.00     0.148 A 
ATOM     54  C   UNL A   1      35.064  32.744  32.561  1.00  0.00     0.002 A 
ATOM     55  C   UNL A   1      35.220  32.424  30.173  1.00  0.00     0.091 A 
ATOM     56  F   UNL A   1      37.038  31.205  29.271  1.00  0.00    -0.205 F 
ATOM     57  C   UNL A   1      34.573  32.985  31.281  1.00  0.00     0.022 A 
BRANCH  55  58
ATOM     58  S   UNL A   1      34.555  32.803  28.545  1.00  0.00     0.127 S 
ATOM     59  O   UNL A   1      34.019  31.505  28.129  1.00  0.00    -0.237 OA
ATOM     60  O   UNL A   1      33.546  33.810  28.860  1.00  0.00    -0.237 OA
ATOM     61  O   UNL A   1      35.686  33.265  27.752  1.00  0.00    -0.744 OA
ENDBRANCH  55  58
ENDBRANCH  27  51
BRANCH  39  62
ATOM     62  C   UNL A   1      42.651  30.598  34.068  1.00  0.00     0.023 A 
ATOM     63  C   UNL A   1      42.712  31.170  35.357  1.00  0.00     0.012 A 
ATOM     64  C   UNL A   1      42.361  29.230  33.946  1.00  0.00     0.148 A 
ATOM     65  C   UNL A   1      42.501  30.391  36.498  1.00  0.00     0.002 A 
ATOM     66  C   UNL A   1      42.098  28.471  35.080  1.00  0.00     0.091 A 
ATOM     67  F   UNL A   1      42.308  28.700  32.715  1.00  0.00    -0.205 F 
ATOM     68  C   UNL A   1      42.177  29.045  36.359  1.00  0.00     0.022 A 
BRANCH  66  69
ATOM     69  S   UNL A   1      41.530  26.774  34.955  1.00  0.00     0.127 S 
ATOM     70  O   UNL A   1      41.133  26.482  36.329  1.00  0.00    -0.237 OA
ATOM     71  O   UNL A   1      40.419  26.884  34.006  1.00  0.00    -0.237 OA
ATOM     72  O   UNL A   1      42.664  26.010  34.451  1.00  0.00    -0.744 OA
ENDBRANCH  66  69
ENDBRANCH  39  62
ENDBRANCH  13  14
ENDBRANCH   6   8
ENDBRANCH   3   4
ENDBRANCH   2   3
ENDBRANCH   1   2
BRANCH   1  73
ATOM     73  C   UNL A   1      35.085  23.684  23.246  1.00  0.00     0.116 C 
BRANCH  73  74
ATOM     74  N   UNL A   1      34.359  24.938  23.123  1.00  0.00    -0.356 N 
ATOM     75  C   UNL A   1      33.216  25.395  23.720  1.00  0.00     0.224 C 
ATOM     76  H   UNL A   1      34.765  25.578  22.494  1.00  0.00     0.163 HD
ATOM     77  O   UNL A   1      32.694  26.369  23.169  1.00  0.00    -0.275 OA
BRANCH  75  78
ATOM     78  C   UNL A   1      32.693  24.816  25.052  1.00  0.00     0.095 C 
ATOM     79  C   UNL A   1      33.073  25.777  26.197  1.00  0.00     0.041 C 
ATOM     80  C   UNL A   1      31.159  24.585  25.046  1.00  0.00     0.095 C 
ATOM     81  C   UNL A   1      32.162  26.967  26.332  1.00  0.00    -0.030 C 
ATOM     82  C   UNL A   1      30.368  25.915  24.948  1.00  0.00     0.041 C 
ATOM     83  C   UNL A   1      30.958  27.040  25.748  1.00  0.00    -0.030 C 
BRANCH  80  84
ATOM     84  C   UNL A   1      30.650  23.780  26.255  1.00  0.00     0.229 C 
ATOM     85  O   UNL A   1      29.884  24.286  27.088  1.00  0.00    -0.274 OA
ATOM     86  N   UNL A   1      30.900  22.452  26.424  1.00  0.00    -0.308 N 
ATOM     87  H   UNL A   1      30.359  22.028  27.129  1.00  0.00     0.171 HD
BRANCH  86  88
ATOM     88  C   UNL A   1      31.769  21.596  25.791  1.00  0.00     0.168 A 
ATOM     89  N   UNL A   1      31.498  20.891  24.692  1.00  0.00    -0.153 NA
ATOM     90  C   UNL A   1      33.117  21.387  26.173  1.00  0.00     0.080 A 
ATOM     91  N   UNL A   1      32.550  20.043  24.570  1.00  0.00    -0.265 N 
ATOM     92  C   UNL A   1      33.610  20.409  25.352  1.00  0.00     0.127 A 
ATOM     93  Br  UNL A   1      34.008  22.209  27.598  1.00  0.00    -0.045 Br
BRANCH  91  94
ATOM     94  C   UNL A   1      32.539  18.965  23.583  1.00  0.00     0.182 C 
BRANCH  94  95
ATOM     95  C   UNL A   1      32.880  17.575  24.090  1.00  0.00     0.009 A 
ATOM     96  C   UNL A   1      32.253  17.104  25.254  1.00  0.00     0.008 A 
ATOM     97  C   UNL A   1      33.945  16.804  23.606  1.00  0.00     0.128 A 
ATOM     98  C   UNL A   1      32.716  15.951  25.908  1.00  0.00     0.001 A 
ATOM     99  C   UNL A   1      34.445  15.691  24.272  1.00  0.00     0.039 A 
ATOM    100  F   UNL A   1      34.580  17.136  22.491  1.00  0.00    -0.207 F 
ATOM    101  C   UNL A   1      33.832  15.263  25.434  1.00  0.00     0.003 A 
ENDBRANCH  94  95
ENDBRANCH  91  94
ENDBRANCH  86  88
ENDBRANCH  80  84
ENDBRANCH  75  78
ENDBRANCH  73  74
ENDBRANCH   1  73
TORSDOF 18
ENDMDL
MODEL 2
REMARK VINA RESULT:     -12.5      4.185      9.025
REMARK SMILES O=C(NCCCCNC(=O)[C@H]1CC=CC[C@@H]1C(=O)Nc1nn(Cc2ccccc2F)cc1Br)c1ccc(-c2c3nc(c(-c4cccc(S(=O)(=O)[O-])c4F)c4ccc([nH]4)c(-c4cccc(S(=O)(=O)[O-])c4F)c4nc(c(-c5cccc(S(=O)(=O)[O-])c5F)c5ccc2[nH]5)C=C4)C=C3)cc1
REMARK SMILES IDX 6 1 5 2 4 3 3 4 1 5 2 6 34 8 35 9 96 10 36 11 95 12 37 13
REMARK SMILES IDX 38 14 39 15 89 16 40 17 94 18 88 19 90 20 41 21 93 22 87 23
REMARK SMILES IDX 86 24 42 26 74 27 54 28 73 29 55 30 58 31 72 32 91 33 56 34
REMARK SMILES IDX 57 35 71 37 92 38 59 39 43 40 44 41 52 42 45 43 47 44 53 45
REMARK SMILES IDX 46 46 48 47 49 48 50 49 51 50 75 51 76 52 84 53 77 54 79 55
REMARK SMILES IDX 85 56 78 57 80 58 81 59 82 60 83 61 60 62 61 63 69 64 62 65
REMARK SMILES IDX 64 66 70 67 63 68 65 69 66 70 67 71 68 72 7 73 8 74 9 75
REMARK SMILES IDX 10 77 11 78 12 79 16 80 13 81 15 82 14 83 17 84 18 85 19 86
REMARK SMILES IDX 20 88 21 89 32 90 22 91 31 92 33 93 23 94 24 95 25 96 29 97
REMARK SMILES IDX 26 98 28 99 30 100 27 101
REMARK H PARENT 3 7 90 25 58 36 8 76 19 87
REMARK Flexibility Score: inf
ROOT
ATOM      1  C   UNL A   1      36.882  23.359  24.753  1.00  0.00     0.023 C 
ENDROOT
BRANCH   1   2
ATOM      2  C   UNL A   1      37.237  21.940  24.285  1.00  0.00     0.023 C 
BRANCH   2   3
ATOM      3  C   UNL A   1      37.244  20.866  25.374  1.00  0.00     0.116 C 
BRANCH   3   4
ATOM      4  N   UNL A   1      38.354  19.944  25.268  1.00  0.00    -0.352 N 
ATOM      5  O   UNL A   1      40.249  18.858  25.436  1.00  0.00    -0.269 OA
ATOM      6  C   UNL A   1      39.640  19.893  25.724  1.00  0.00     0.251 C 
ATOM      7  H   UNL A   1      38.124  19.152  24.731  1.00  0.00     0.163 HD
BRANCH   6   8
ATOM      8  C   UNL A   1      40.360  20.960  26.471  1.00  0.00     0.039 A 
ATOM      9  C   UNL A   1      40.773  20.903  27.806  1.00  0.00     0.014 A 
ATOM     10  C   UNL A   1      40.562  22.157  25.758  1.00  0.00     0.014 A 
ATOM     11  C   UNL A   1      41.297  22.036  28.435  1.00  0.00     0.010 A 
ATOM     12  C   UNL A   1      41.090  23.282  26.375  1.00  0.00     0.010 A 
ATOM     13  C   UNL A   1      41.421  23.233  27.728  1.00  0.00    -0.014 A 
BRANCH  13  14
ATOM     14  C   UNL A   1      42.029  24.404  28.367  1.00  0.00     0.031 A 
ATOM     15  C   UNL A   1      41.216  25.664  28.306  1.00  0.00     0.074 A 
ATOM     16  C   UNL A   1      43.110  24.274  29.171  1.00  0.00     0.049 A 
ATOM     17  N   UNL A   1      41.593  26.867  28.002  1.00  0.00    -0.248 NA
ATOM     18  C   UNL A   1      39.765  25.545  28.549  1.00  0.00     0.031 C 
ATOM     19  C   UNL A   1      43.779  23.024  29.553  1.00  0.00     0.029 A 
ATOM     20  N   UNL A   1      43.717  25.200  29.971  1.00  0.00    -0.354 N 
ATOM     21  C   UNL A   1      40.470  27.680  28.189  1.00  0.00     0.074 A 
ATOM     22  C   UNL A   1      39.351  26.800  28.395  1.00  0.00     0.031 C 
ATOM     23  C   UNL A   1      44.474  23.225  30.693  1.00  0.00     0.029 A 
ATOM     24  C   UNL A   1      44.395  24.628  31.051  1.00  0.00     0.049 A 
ATOM     25  H   UNL A   1      43.681  26.170  29.805  1.00  0.00     0.167 HD
ATOM     26  C   UNL A   1      40.540  29.031  28.345  1.00  0.00     0.034 A 
ATOM     27  C   UNL A   1      44.743  25.241  32.211  1.00  0.00     0.034 A 
ATOM     28  C   UNL A   1      41.799  29.567  27.923  1.00  0.00     0.049 A 
ATOM     29  C   UNL A   1      44.679  26.701  31.985  1.00  0.00     0.074 A 
ATOM     30  C   UNL A   1      42.473  29.638  26.722  1.00  0.00     0.029 A 
ATOM     31  N   UNL A   1      42.725  29.844  28.896  1.00  0.00    -0.354 N 
ATOM     32  N   UNL A   1      45.476  27.347  31.183  1.00  0.00    -0.248 NA
ATOM     33  C   UNL A   1      43.448  27.385  32.340  1.00  0.00     0.031 C 
ATOM     34  C   UNL A   1      43.842  29.456  27.066  1.00  0.00     0.029 A 
ATOM     35  C   UNL A   1      43.920  29.340  28.455  1.00  0.00     0.049 A 
ATOM     36  H   UNL A   1      42.563  30.314  29.745  1.00  0.00     0.167 HD
ATOM     37  C   UNL A   1      44.661  28.298  30.585  1.00  0.00     0.074 A 
ATOM     38  C   UNL A   1      43.454  28.339  31.407  1.00  0.00     0.031 C 
ATOM     39  C   UNL A   1      44.913  28.748  29.322  1.00  0.00     0.034 A 
BRANCH  26  40
ATOM     40  C   UNL A   1      39.555  29.852  29.137  1.00  0.00     0.023 A 
ATOM     41  C   UNL A   1      39.762  30.003  30.525  1.00  0.00     0.012 A 
ATOM     42  C   UNL A   1      38.309  30.274  28.619  1.00  0.00     0.148 A 
ATOM     43  C   UNL A   1      38.772  30.540  31.358  1.00  0.00     0.002 A 
ATOM     44  C   UNL A   1      37.360  30.878  29.437  1.00  0.00     0.091 A 
ATOM     45  F   UNL A   1      37.988  29.980  27.354  1.00  0.00    -0.205 F 
ATOM     46  C   UNL A   1      37.577  30.992  30.811  1.00  0.00     0.022 A 
BRANCH  44  47
ATOM     47  S   UNL A   1      35.826  31.534  28.770  1.00  0.00     0.127 S 
ATOM     48  O   UNL A   1      35.233  30.335  28.173  1.00  0.00    -0.237 OA
ATOM     49  O   UNL A   1      35.155  32.012  29.983  1.00  0.00    -0.237 OA
ATOM     50  O   UNL A   1      36.218  32.584  27.851  1.00  0.00    -0.744 OA
ENDBRANCH  44  47
ENDBRANCH  26  40
BRANCH  27  51
ATOM     51  C   UNL A   1      44.777  24.681  33.587  1.00  0.00     0.023 A 
ATOM     52  C   UNL A   1      43.577  24.275  34.207  1.00  0.00     0.012 A 
ATOM     53  C   UNL A   1      45.997  24.271  34.172  1.00  0.00     0.148 A 
ATOM     54  C   UNL A   1      43.593  23.465  35.351  1.00  0.00     0.002 A 
ATOM     55  C   UNL A   1      46.007  23.473  35.312  1.00  0.00     0.091 A 
ATOM     56  F   UNL A   1      47.145  24.580  33.555  1.00  0.00    -0.205 F 
ATOM     57  C   UNL A   1      44.806  23.056  35.898  1.00  0.00     0.022 A 
BRANCH  55  58
ATOM     58  S   UNL A   1      47.538  22.882  36.047  1.00  0.00     0.127 S 
ATOM     59  O   UNL A   1      48.204  24.135  36.405  1.00  0.00    -0.237 OA
ATOM     60  O   UNL A   1      47.046  22.103  37.180  1.00  0.00    -0.237 OA
ATOM     61  O   UNL A   1      48.213  22.123  35.001  1.00  0.00    -0.744 OA
ENDBRANCH  55  58
ENDBRANCH  27  51
BRANCH  39  62
ATOM     62  C   UNL A   1      46.215  28.356  28.667  1.00  0.00     0.023 A 
ATOM     63  C   UNL A   1      47.411  29.072  28.885  1.00  0.00     0.012 A 
ATOM     64  C   UNL A   1      46.273  27.127  27.992  1.00  0.00     0.148 A 
ATOM     65  C   UNL A   1      48.636  28.578  28.425  1.00  0.00     0.002 A 
ATOM     66  C   UNL A   1      47.498  26.614  27.585  1.00  0.00     0.091 A 
ATOM     67  F   UNL A   1      45.127  26.459  27.791  1.00  0.00    -0.205 F 
ATOM     68  C   UNL A   1      48.681  27.340  27.790  1.00  0.00     0.022 A 
BRANCH  66  69
ATOM     69  S   UNL A   1      47.635  24.962  26.899  1.00  0.00     0.127 S 
ATOM     70  O   UNL A   1      47.043  25.130  25.575  1.00  0.00    -0.237 OA
ATOM     71  O   UNL A   1      49.083  24.741  26.900  1.00  0.00    -0.237 OA
ATOM     72  O   UNL A   1      46.904  24.090  27.811  1.00  0.00    -0.744 OA
ENDBRANCH  66  69
ENDBRANCH  39  62
ENDBRANCH  13  14
ENDBRANCH   6   8
ENDBRANCH   3   4
ENDBRANCH   2   3
ENDBRANCH   1   2
BRANCH   1  73
ATOM     73  C   UNL A   1      36.343  23.543  26.171  1.00  0.00     0.116 C 
BRANCH  73  74
ATOM     74  N   UNL A   1      34.943  23.154  26.244  1.00  0.00    -0.356 N 
ATOM     75  C   UNL A   1      33.855  23.511  25.496  1.00  0.00     0.224 C 
ATOM     76  H   UNL A   1      34.740  22.515  26.966  1.00  0.00     0.163 HD
ATOM     77  O   UNL A   1      32.762  23.250  26.008  1.00  0.00    -0.275 OA
BRANCH  75  78
ATOM     78  C   UNL A   1      33.988  24.079  24.066  1.00  0.00     0.095 C 
ATOM     79  C   UNL A   1      33.906  22.916  23.058  1.00  0.00     0.041 C 
ATOM     80  C   UNL A   1      32.904  25.138  23.737  1.00  0.00     0.095 C 
ATOM     81  C   UNL A   1      32.506  22.449  22.765  1.00  0.00    -0.030 C 
ATOM     82  C   UNL A   1      31.480  24.526  23.701  1.00  0.00     0.041 C 
ATOM     83  C   UNL A   1      31.415  23.161  23.079  1.00  0.00    -0.030 C 
BRANCH  80  84
ATOM     84  C   UNL A   1      33.160  25.900  22.424  1.00  0.00     0.229 C 
ATOM     85  O   UNL A   1      34.035  25.532  21.628  1.00  0.00    -0.274 OA
ATOM     86  N   UNL A   1      32.383  26.934  21.999  1.00  0.00    -0.308 N 
ATOM     87  H   UNL A   1      32.541  27.198  21.064  1.00  0.00     0.171 HD
BRANCH  86  88
ATOM     88  C   UNL A   1      31.417  27.676  22.637  1.00  0.00     0.168 A 
ATOM     89  N   UNL A   1      30.107  27.615  22.393  1.00  0.00    -0.153 NA
ATOM     90  C   UNL A   1      31.663  28.572  23.706  1.00  0.00     0.080 A 
ATOM     91  N   UNL A   1      29.589  28.660  23.085  1.00  0.00    -0.265 N 
ATOM     92  C   UNL A   1      30.467  29.169  24.001  1.00  0.00     0.127 A 
ATOM     93  Br  UNL A   1      33.324  28.947  24.482  1.00  0.00    -0.045 Br
BRANCH  91  94
ATOM     94  C   UNL A   1      28.189  29.051  22.923  1.00  0.00     0.182 C 
BRANCH  94  95
ATOM     95  C   UNL A   1      27.930  30.416  22.310  1.00  0.00     0.009 A 
ATOM     96  C   UNL A   1      27.918  30.540  20.911  1.00  0.00     0.008 A 
ATOM     97  C   UNL A   1      27.922  31.613  23.037  1.00  0.00     0.128 A 
ATOM     98  C   UNL A   1      27.947  31.803  20.298  1.00  0.00     0.001 A 
ATOM     99  C   UNL A   1      28.002  32.867  22.443  1.00  0.00     0.039 A 
ATOM    100  F   UNL A   1      27.890  31.609  24.362  1.00  0.00    -0.207 F 
ATOM    101  C   UNL A   1      28.020  32.965  21.064  1.00  0.00     0.003 A 
ENDBRANCH  94  95
ENDBRANCH  91  94
ENDBRANCH  86  88
ENDBRANCH  80  84
ENDBRANCH  75  78
ENDBRANCH  73  74
ENDBRANCH   1  73
TORSDOF 18
ENDMDL
MODEL 3
REMARK VINA RESULT:     -12.3      4.111      8.441
REMARK SMILES O=C(NCCCCNC(=O)[C@H]1CC=CC[C@@H]1C(=O)Nc1nn(Cc2ccccc2F)cc1Br)c1ccc(-c2c3nc(c(-c4cccc(S(=O)(=O)[O-])c4F)c4ccc([nH]4)c(-c4cccc(S(=O)(=O)[O-])c4F)c4nc(c(-c5cccc(S(=O)(=O)[O-])c5F)c5ccc2[nH]5)C=C4)C=C3)cc1
REMARK SMILES IDX 6 1 5 2 4 3 3 4 1 5 2 6 34 8 35 9 96 10 36 11 95 12 37 13
REMARK SMILES IDX 38 14 39 15 89 16 40 17 94 18 88 19 90 20 41 21 93 22 87 23
REMARK SMILES IDX 86 24 42 26 74 27 54 28 73 29 55 30 58 31 72 32 91 33 56 34
REMARK SMILES IDX 57 35 71 37 92 38 59 39 43 40 44 41 52 42 45 43 47 44 53 45
REMARK SMILES IDX 46 46 48 47 49 48 50 49 51 50 75 51 76 52 84 53 77 54 79 55
REMARK SMILES IDX 85 56 78 57 80 58 81 59 82 60 83 61 60 62 61 63 69 64 62 65
REMARK SMILES IDX 64 66 70 67 63 68 65 69 66 70 67 71 68 72 7 73 8 74 9 75
REMARK SMILES IDX 10 77 11 78 12 79 16 80 13 81 15 82 14 83 17 84 18 85 19 86
REMARK SMILES IDX 20 88 21 89 32 90 22 91 31 92 33 93 23 94 24 95 25 96 29 97
REMARK SMILES IDX 26 98 28 99 30 100 27 101
REMARK H PARENT 3 7 90 25 58 36 8 76 19 87
REMARK Flexibility Score: inf
ROOT
ATOM      1  C   UNL A   1      38.099  21.848  25.774  1.00  0.00     0.023 C 
ENDROOT
BRANCH   1   2
ATOM      2  C   UNL A   1      38.327  20.574  24.948  1.00  0.00     0.023 C 
BRANCH   2   3
ATOM      3  C   UNL A   1      38.631  19.309  25.751  1.00  0.00     0.116 C 
BRANCH   3   4
ATOM      4  N   UNL A   1      39.995  18.847  25.606  1.00  0.00    -0.352 N 
ATOM      5  O   UNL A   1      42.157  18.513  25.713  1.00  0.00    -0.269 OA
ATOM      6  C   UNL A   1      41.226  19.260  26.028  1.00  0.00     0.251 C 
ATOM      7  H   UNL A   1      40.049  18.025  25.067  1.00  0.00     0.163 HD
BRANCH   6   8
ATOM      8  C   UNL A   1      41.536  20.515  26.767  1.00  0.00     0.039 A 
ATOM      9  C   UNL A   1      41.086  20.855  28.047  1.00  0.00     0.014 A 
ATOM     10  C   UNL A   1      42.295  21.459  26.051  1.00  0.00     0.014 A 
ATOM     11  C   UNL A   1      41.318  22.133  28.563  1.00  0.00     0.010 A 
ATOM     12  C   UNL A   1      42.535  22.727  26.562  1.00  0.00     0.010 A 
ATOM     13  C   UNL A   1      42.011  23.078  27.804  1.00  0.00    -0.014 A 
BRANCH  13  14
ATOM     14  C   UNL A   1      42.309  24.398  28.369  1.00  0.00     0.031 A 
ATOM     15  C   UNL A   1      41.264  25.448  28.134  1.00  0.00     0.074 A 
ATOM     16  C   UNL A   1      43.320  24.563  29.253  1.00  0.00     0.049 A 
ATOM     17  N   UNL A   1      41.411  26.676  27.743  1.00  0.00    -0.248 NA
ATOM     18  C   UNL A   1      39.853  25.044  28.288  1.00  0.00     0.031 C 
ATOM     19  C   UNL A   1      44.196  23.517  29.796  1.00  0.00     0.029 A 
ATOM     20  N   UNL A   1      43.655  25.656  30.001  1.00  0.00    -0.354 N 
ATOM     21  C   UNL A   1      40.135  27.245  27.776  1.00  0.00     0.074 A 
ATOM     22  C   UNL A   1      39.205  26.168  27.988  1.00  0.00     0.031 C 
ATOM     23  C   UNL A   1      44.734  23.949  30.957  1.00  0.00     0.029 A 
ATOM     24  C   UNL A   1      44.339  25.328  31.173  1.00  0.00     0.049 A 
ATOM     25  H   UNL A   1      43.435  26.580  29.741  1.00  0.00     0.167 HD
ATOM     26  C   UNL A   1      39.912  28.589  27.807  1.00  0.00     0.034 A 
ATOM     27  C   UNL A   1      44.454  26.089  32.291  1.00  0.00     0.034 A 
ATOM     28  C   UNL A   1      41.067  29.343  27.422  1.00  0.00     0.049 A 
ATOM     29  C   UNL A   1      44.112  27.481  31.924  1.00  0.00     0.074 A 
ATOM     30  C   UNL A   1      41.813  29.461  26.268  1.00  0.00     0.029 A 
ATOM     31  N   UNL A   1      41.830  29.886  28.424  1.00  0.00    -0.354 N 
ATOM     32  N   UNL A   1      44.826  28.215  31.120  1.00  0.00    -0.248 NA
ATOM     33  C   UNL A   1      42.741  27.915  32.128  1.00  0.00     0.031 C 
ATOM     34  C   UNL A   1      43.155  29.599  26.719  1.00  0.00     0.029 A 
ATOM     35  C   UNL A   1      43.136  29.613  28.116  1.00  0.00     0.049 A 
ATOM     36  H   UNL A   1      41.503  30.377  29.212  1.00  0.00     0.167 HD
ATOM     37  C   UNL A   1      43.889  28.922  30.380  1.00  0.00     0.074 A 
ATOM     38  C   UNL A   1      42.632  28.771  31.110  1.00  0.00     0.031 C 
ATOM     39  C   UNL A   1      44.151  29.314  29.099  1.00  0.00     0.034 A 
BRANCH  26  40
ATOM     40  C   UNL A   1      38.717  29.243  28.449  1.00  0.00     0.023 A 
ATOM     41  C   UNL A   1      37.821  29.965  27.631  1.00  0.00     0.012 A 
ATOM     42  C   UNL A   1      38.571  29.382  29.848  1.00  0.00     0.148 A 
ATOM     43  C   UNL A   1      36.833  30.793  28.182  1.00  0.00     0.002 A 
ATOM     44  C   UNL A   1      37.540  30.143  30.390  1.00  0.00     0.091 A 
ATOM     45  F   UNL A   1      39.506  28.877  30.660  1.00  0.00    -0.205 F 
ATOM     46  C   UNL A   1      36.684  30.869  29.562  1.00  0.00     0.022 A 
BRANCH  44  47
ATOM     47  S   UNL A   1      37.267  30.226  32.164  1.00  0.00     0.127 S 
ATOM     48  O   UNL A   1      38.479  30.914  32.613  1.00  0.00    -0.237 OA
ATOM     49  O   UNL A   1      36.042  31.029  32.238  1.00  0.00    -0.237 OA
ATOM     50  O   UNL A   1      37.108  28.853  32.598  1.00  0.00    -0.744 OA
ENDBRANCH  44  47
ENDBRANCH  26  40
BRANCH  27  51
ATOM     51  C   UNL A   1      44.483  25.660  33.713  1.00  0.00     0.023 A 
ATOM     52  C   UNL A   1      45.717  25.373  34.333  1.00  0.00     0.012 A 
ATOM     53  C   UNL A   1      43.347  25.818  34.540  1.00  0.00     0.148 A 
ATOM     54  C   UNL A   1      45.821  25.276  35.727  1.00  0.00     0.002 A 
ATOM     55  C   UNL A   1      43.454  25.713  35.923  1.00  0.00     0.091 A 
ATOM     56  F   UNL A   1      42.183  26.168  33.978  1.00  0.00    -0.205 F 
ATOM     57  C   UNL A   1      44.693  25.455  36.523  1.00  0.00     0.022 A 
BRANCH  55  58
ATOM     58  S   UNL A   1      42.044  25.970  37.009  1.00  0.00     0.127 S 
ATOM     59  O   UNL A   1      41.293  24.726  36.826  1.00  0.00    -0.237 OA
ATOM     60  O   UNL A   1      42.689  26.109  38.311  1.00  0.00    -0.237 OA
ATOM     61  O   UNL A   1      41.367  27.158  36.507  1.00  0.00    -0.744 OA
ENDBRANCH  55  58
ENDBRANCH  27  51
BRANCH  39  62
ATOM     62  C   UNL A   1      45.556  29.156  28.575  1.00  0.00     0.023 A 
ATOM     63  C   UNL A   1      46.555  30.129  28.793  1.00  0.00     0.012 A 
ATOM     64  C   UNL A   1      45.926  27.913  28.036  1.00  0.00     0.148 A 
ATOM     65  C   UNL A   1      47.889  29.873  28.468  1.00  0.00     0.002 A 
ATOM     66  C   UNL A   1      47.262  27.643  27.765  1.00  0.00     0.091 A 
ATOM     67  F   UNL A   1      44.966  26.999  27.833  1.00  0.00    -0.205 F 
ATOM     68  C   UNL A   1      48.246  28.622  27.970  1.00  0.00     0.022 A 
BRANCH  66  69
ATOM     69  S   UNL A   1      47.798  26.005  27.266  1.00  0.00     0.127 S 
ATOM     70  O   UNL A   1      49.225  26.042  27.577  1.00  0.00    -0.237 OA
ATOM     71  O   UNL A   1      47.004  25.136  28.137  1.00  0.00    -0.237 OA
ATOM     72  O   UNL A   1      47.464  25.890  25.852  1.00  0.00    -0.744 OA
ENDBRANCH  66  69
ENDBRANCH  39  62
ENDBRANCH  13  14
ENDBRANCH   6   8
ENDBRANCH   3   4
ENDBRANCH   2   3
ENDBRANCH   1   2
BRANCH   1  73
ATOM     73  C   UNL A   1      37.435  23.045  25.094  1.00  0.00     0.116 C 
BRANCH  73  74
ATOM     74  N   UNL A   1      36.204  23.408  25.780  1.00  0.00    -0.356 N 
ATOM     75  C   UNL A   1      35.028  23.939  25.328  1.00  0.00     0.224 C 
ATOM     76  H   UNL A   1      36.220  23.240  26.751  1.00  0.00     0.163 HD
ATOM     77  O   UNL A   1      34.301  24.418  26.204  1.00  0.00    -0.275 OA
BRANCH  75  78
ATOM     78  C   UNL A   1      34.588  23.832  23.852  1.00  0.00     0.095 C 
ATOM     79  C   UNL A   1      34.465  22.342  23.475  1.00  0.00     0.041 C 
ATOM     80  C   UNL A   1      33.247  24.559  23.570  1.00  0.00     0.095 C 
ATOM     81  C   UNL A   1      33.184  21.695  23.926  1.00  0.00    -0.030 C 
ATOM     82  C   UNL A   1      32.055  23.891  24.303  1.00  0.00     0.041 C 
ATOM     83  C   UNL A   1      32.110  22.391  24.324  1.00  0.00    -0.030 C 
BRANCH  80  84
ATOM     84  C   UNL A   1      32.915  24.685  22.072  1.00  0.00     0.229 C 
ATOM     85  O   UNL A   1      33.312  23.845  21.252  1.00  0.00    -0.274 OA
ATOM     86  N   UNL A   1      32.079  25.638  21.573  1.00  0.00    -0.308 N 
ATOM     87  H   UNL A   1      31.807  25.484  20.639  1.00  0.00     0.171 HD
BRANCH  86  88
ATOM     88  C   UNL A   1      31.546  26.774  22.134  1.00  0.00     0.168 A 
ATOM     89  N   UNL A   1      30.256  26.968  22.410  1.00  0.00    -0.153 NA
ATOM     90  C   UNL A   1      32.303  27.889  22.571  1.00  0.00     0.080 A 
ATOM     91  N   UNL A   1      30.178  28.283  22.735  1.00  0.00    -0.265 N 
ATOM     92  C   UNL A   1      31.404  28.834  22.985  1.00  0.00     0.127 A 
ATOM     93  Br  UNL A   1      34.163  28.070  22.489  1.00  0.00    -0.045 Br
BRANCH  91  94
ATOM     94  C   UNL A   1      28.884  28.938  22.923  1.00  0.00     0.182 C 
BRANCH  94  95
ATOM     95  C   UNL A   1      28.817  30.419  22.594  1.00  0.00     0.009 A 
ATOM     96  C   UNL A   1      29.147  31.351  23.591  1.00  0.00     0.008 A 
ATOM     97  C   UNL A   1      28.233  30.937  21.431  1.00  0.00     0.128 A 
ATOM     98  C   UNL A   1      28.854  32.714  23.430  1.00  0.00     0.001 A 
ATOM     99  C   UNL A   1      27.892  32.276  21.281  1.00  0.00     0.039 A 
ATOM    100  F   UNL A   1      27.921  30.150  20.412  1.00  0.00    -0.207 F 
ATOM    101  C   UNL A   1      28.198  33.172  22.288  1.00  0.00     0.003 A 
ENDBRANCH  94  95
ENDBRANCH  91  94
ENDBRANCH  86  88
ENDBRANCH  80  84
ENDBRANCH  75  78
ENDBRANCH  73  74
ENDBRANCH   1  73
TORSDOF 18
ENDMDL
