MODEL 1
REMARK VINA RESULT:     -13.0      0.000      0.000
REMARK SMILES CCc1ccc(S(=O)(=O)N2CCC3(CC2)NC(=O)C[C@H]3C(=O)NCCCCNC(=O)c2ccc(-c3c4nc(c(-c5cccc(S(=O)(=O)[O-])c5F)c5ccc([nH]5)c(-c5cccc(S(=O)(=O)[O-])c5F)c5nc(c(-c6cccc(S(=O)(=O)[O-])c6F)c6ccc3[nH]6)C=C5)C=C4)cc2)s1
REMARK SMILES IDX 25 1 24 2 23 3 21 4 22 5 20 7 10 8 11 9 15 10 12 11 14 12
REMARK SMILES IDX 13 13 16 14 17 15 19 17 18 18 7 19 8 20 9 21 6 22 3 23 4 24
REMARK SMILES IDX 94 25 5 26 2 27 1 28 26 29 27 30 28 31 29 32 30 34 31 35
REMARK SMILES IDX 32 36 93 37 33 38 92 39 34 40 35 41 36 42 86 43 37 44 91 45
REMARK SMILES IDX 85 46 87 47 38 48 90 49 84 50 83 51 39 53 71 54 51 55 70 56
REMARK SMILES IDX 52 57 55 58 69 59 88 60 53 61 54 62 68 64 89 65 56 66 40 67
REMARK SMILES IDX 41 68 49 69 42 70 44 71 50 72 43 73 45 74 46 75 47 76 48 77
REMARK SMILES IDX 72 78 73 79 81 80 74 81 76 82 82 83 75 84 77 85 78 86 79 87
REMARK SMILES IDX 80 88 57 89 58 90 66 91 59 92 61 93 67 94 60 95 62 96 63 97
REMARK SMILES IDX 64 98 65 99
REMARK H PARENT 23 6 16 16 28 33 87 52 55 63
REMARK Flexibility Score: inf
ROOT
ATOM      1  C   UNL A   1      36.307  21.119  25.500  1.00  0.00     0.023 C 
ENDROOT
BRANCH   1   2
ATOM      2  C   UNL A   1      35.281  21.480  24.419  1.00  0.00     0.116 C 
BRANCH   2   3
ATOM      3  N   UNL A   1      33.939  20.973  24.677  1.00  0.00    -0.356 N 
ATOM      4  C   UNL A   1      32.844  21.442  25.329  1.00  0.00     0.226 C 
ATOM      5  O   UNL A   1      31.834  20.727  25.280  1.00  0.00    -0.275 OA
ATOM      6  H   UNL A   1      33.792  20.082  24.285  1.00  0.00     0.163 HD
BRANCH   4   7
ATOM      7  C   UNL A   1      32.750  22.753  26.118  1.00  0.00     0.113 C 
ATOM      8  N   UNL A   1      33.740  26.110  23.911  1.00  0.00    -0.197 NA
ATOM      9  C   UNL A   1      33.924  26.124  25.359  1.00  0.00     0.105 C 
ATOM     10  C   UNL A   1      33.754  24.764  23.352  1.00  0.00     0.105 C 
ATOM     11  C   UNL A   1      32.838  25.328  26.079  1.00  0.00     0.046 C 
ATOM     12  C   UNL A   1      32.535  24.012  23.848  1.00  0.00     0.046 C 
ATOM     13  C   UNL A   1      32.288  24.030  25.377  1.00  0.00     0.055 C 
ATOM     14  N   UNL A   1      30.859  23.973  25.698  1.00  0.00    -0.350 N 
ATOM     15  C   UNL A   1      30.577  23.329  26.884  1.00  0.00     0.221 C 
ATOM     16  H   UNL A   1      30.163  24.359  25.119  1.00  0.00     0.164 HD
ATOM     17  C   UNL A   1      31.815  22.614  27.332  1.00  0.00     0.116 C 
ATOM     18  O   UNL A   1      29.491  23.333  27.431  1.00  0.00    -0.275 OA
BRANCH   8  19
ATOM     19  S   UNL A   1      33.170  27.437  23.021  1.00  0.00     0.252 S 
ATOM     20  O   UNL A   1      33.393  27.166  21.624  1.00  0.00    -0.206 OA
ATOM     21  O   UNL A   1      33.665  28.642  23.664  1.00  0.00    -0.206 OA
BRANCH  19  22
ATOM     22  C   UNL A   1      31.392  27.551  23.194  1.00  0.00     0.135 A 
ATOM     23  C   UNL A   1      29.045  28.344  23.047  1.00  0.00     0.006 A 
ATOM     24  C   UNL A   1      29.140  27.132  23.689  1.00  0.00     0.017 A 
ATOM     25  S   UNL A   1      30.585  28.912  22.529  1.00  0.00    -0.127 S 
ATOM     26  C   UNL A   1      30.484  26.736  23.824  1.00  0.00     0.034 A 
BRANCH  23  27
ATOM     27  C   UNL A   1      27.780  29.114  22.824  1.00  0.00     0.043 C 
ATOM     28  C   UNL A   1      27.960  30.593  23.121  1.00  0.00     0.010 C 
ENDBRANCH  23  27
ENDBRANCH  19  22
ENDBRANCH   8  19
ENDBRANCH   4   7
ENDBRANCH   2   3
ENDBRANCH   1   2
BRANCH   1  29
ATOM     29  C   UNL A   1      37.529  20.356  25.000  1.00  0.00     0.023 C 
BRANCH  29  30
ATOM     30  C   UNL A   1      38.807  20.665  25.761  1.00  0.00     0.116 C 
BRANCH  30  31
ATOM     31  N   UNL A   1      39.689  19.511  25.887  1.00  0.00    -0.352 N 
ATOM     32  C   UNL A   1      41.040  19.502  26.144  1.00  0.00     0.251 C 
ATOM     33  H   UNL A   1      39.266  18.630  25.776  1.00  0.00     0.163 HD
ATOM     34  O   UNL A   1      41.675  18.453  26.106  1.00  0.00    -0.269 OA
BRANCH  32  35
ATOM     35  C   UNL A   1      41.709  20.785  26.426  1.00  0.00     0.039 A 
ATOM     36  C   UNL A   1      42.168  21.558  25.360  1.00  0.00     0.014 A 
ATOM     37  C   UNL A   1      41.793  21.255  27.739  1.00  0.00     0.014 A 
ATOM     38  C   UNL A   1      42.655  22.841  25.608  1.00  0.00     0.010 A 
ATOM     39  C   UNL A   1      42.188  22.564  27.972  1.00  0.00     0.010 A 
ATOM     40  C   UNL A   1      42.630  23.368  26.911  1.00  0.00    -0.014 A 
BRANCH  40  41
ATOM     41  C   UNL A   1      43.056  24.762  27.188  1.00  0.00     0.031 A 
ATOM     42  C   UNL A   1      42.098  25.725  27.833  1.00  0.00     0.074 A 
ATOM     43  C   UNL A   1      44.266  25.185  26.766  1.00  0.00     0.049 A 
ATOM     44  N   UNL A   1      42.263  26.994  28.098  1.00  0.00    -0.248 NA
ATOM     45  C   UNL A   1      40.767  25.208  28.196  1.00  0.00     0.031 C 
ATOM     46  C   UNL A   1      45.242  24.372  26.033  1.00  0.00     0.029 A 
ATOM     47  N   UNL A   1      44.869  26.414  26.864  1.00  0.00    -0.354 N 
ATOM     48  C   UNL A   1      41.049  27.435  28.612  1.00  0.00     0.074 A 
ATOM     49  C   UNL A   1      40.145  26.309  28.593  1.00  0.00     0.031 C 
ATOM     50  C   UNL A   1      46.318  25.124  25.750  1.00  0.00     0.029 A 
ATOM     51  C   UNL A   1      46.100  26.475  26.254  1.00  0.00     0.049 A 
ATOM     52  H   UNL A   1      44.458  27.179  27.326  1.00  0.00     0.167 HD
ATOM     53  C   UNL A   1      40.727  28.661  29.085  1.00  0.00     0.034 A 
ATOM     54  C   UNL A   1      46.955  27.507  26.112  1.00  0.00     0.034 A 
ATOM     55  C   UNL A   1      41.651  29.758  29.165  1.00  0.00     0.049 A 
ATOM     56  C   UNL A   1      46.599  28.836  26.725  1.00  0.00     0.074 A 
ATOM     57  C   UNL A   1      41.460  30.999  29.744  1.00  0.00     0.029 A 
ATOM     58  N   UNL A   1      42.936  29.749  28.648  1.00  0.00    -0.354 N 
ATOM     59  N   UNL A   1      45.517  29.177  27.381  1.00  0.00    -0.248 NA
ATOM     60  C   UNL A   1      47.597  29.910  26.612  1.00  0.00     0.031 C 
ATOM     61  C   UNL A   1      42.624  31.751  29.554  1.00  0.00     0.029 A 
ATOM     62  C   UNL A   1      43.547  30.967  28.881  1.00  0.00     0.049 A 
ATOM     63  H   UNL A   1      43.352  28.987  28.182  1.00  0.00     0.167 HD
ATOM     64  C   UNL A   1      45.719  30.491  27.790  1.00  0.00     0.074 A 
ATOM     65  C   UNL A   1      47.037  30.874  27.330  1.00  0.00     0.031 C 
ATOM     66  C   UNL A   1      44.882  31.312  28.470  1.00  0.00     0.034 A 
BRANCH  53  67
ATOM     67  C   UNL A   1      39.334  28.872  29.613  1.00  0.00     0.023 A 
ATOM     68  C   UNL A   1      39.024  28.492  30.934  1.00  0.00     0.012 A 
ATOM     69  C   UNL A   1      38.362  29.531  28.836  1.00  0.00     0.148 A 
ATOM     70  C   UNL A   1      37.760  28.740  31.467  1.00  0.00     0.002 A 
ATOM     71  C   UNL A   1      37.120  29.817  29.388  1.00  0.00     0.091 A 
ATOM     72  F   UNL A   1      38.672  29.866  27.575  1.00  0.00    -0.205 F 
ATOM     73  C   UNL A   1      36.814  29.414  30.700  1.00  0.00     0.022 A 
BRANCH  71  74
ATOM     74  S   UNL A   1      35.859  30.752  28.515  1.00  0.00     0.127 S 
ATOM     75  O   UNL A   1      35.001  31.189  29.615  1.00  0.00    -0.237 OA
ATOM     76  O   UNL A   1      36.645  31.818  27.894  1.00  0.00    -0.237 OA
ATOM     77  O   UNL A   1      35.243  29.822  27.579  1.00  0.00    -0.744 OA
ENDBRANCH  71  74
ENDBRANCH  53  67
BRANCH  54  78
ATOM     78  C   UNL A   1      48.255  27.316  25.409  1.00  0.00     0.023 A 
ATOM     79  C   UNL A   1      49.398  26.949  26.147  1.00  0.00     0.012 A 
ATOM     80  C   UNL A   1      48.367  27.491  24.017  1.00  0.00     0.148 A 
ATOM     81  C   UNL A   1      50.635  26.803  25.518  1.00  0.00     0.002 A 
ATOM     82  C   UNL A   1      49.590  27.285  23.388  1.00  0.00     0.091 A 
ATOM     83  F   UNL A   1      47.273  27.853  23.331  1.00  0.00    -0.205 F 
ATOM     84  C   UNL A   1      50.730  26.962  24.139  1.00  0.00     0.022 A 
BRANCH  82  85
ATOM     85  S   UNL A   1      49.764  27.336  21.601  1.00  0.00     0.127 S 
ATOM     86  O   UNL A   1      51.151  26.916  21.422  1.00  0.00    -0.237 OA
ATOM     87  O   UNL A   1      48.763  26.361  21.169  1.00  0.00    -0.237 OA
ATOM     88  O   UNL A   1      49.458  28.711  21.223  1.00  0.00    -0.744 OA
ENDBRANCH  82  85
ENDBRANCH  54  78
BRANCH  66  89
ATOM     89  C   UNL A   1      45.373  32.697  28.795  1.00  0.00     0.023 A 
ATOM     90  C   UNL A   1      46.104  32.921  29.979  1.00  0.00     0.012 A 
ATOM     91  C   UNL A   1      45.180  33.757  27.889  1.00  0.00     0.148 A 
ATOM     92  C   UNL A   1      46.604  34.189  30.271  1.00  0.00     0.002 A 
ATOM     93  C   UNL A   1      45.725  35.006  28.163  1.00  0.00     0.091 A 
ATOM     94  F   UNL A   1      44.466  33.527  26.776  1.00  0.00    -0.205 F 
ATOM     95  C   UNL A   1      46.426  35.226  29.359  1.00  0.00     0.022 A 
BRANCH  93  96
ATOM     96  S   UNL A   1      45.632  36.370  26.999  1.00  0.00     0.127 S 
ATOM     97  O   UNL A   1      46.260  35.793  25.812  1.00  0.00    -0.237 OA
ATOM     98  O   UNL A   1      44.187  36.582  26.883  1.00  0.00    -0.237 OA
ATOM     99  O   UNL A   1      46.354  37.474  27.617  1.00  0.00    -0.744 OA
ENDBRANCH  93  96
ENDBRANCH  66  89
ENDBRANCH  40  41
ENDBRANCH  32  35
ENDBRANCH  30  31
ENDBRANCH  29  30
ENDBRANCH   1  29
TORSDOF 17
ENDMDL
MODEL 2
REMARK VINA RESULT:     -12.2      2.386      7.557
REMARK SMILES CCc1ccc(S(=O)(=O)N2CCC3(CC2)NC(=O)C[C@H]3C(=O)NCCCCNC(=O)c2ccc(-c3c4nc(c(-c5cccc(S(=O)(=O)[O-])c5F)c5ccc([nH]5)c(-c5cccc(S(=O)(=O)[O-])c5F)c5nc(c(-c6cccc(S(=O)(=O)[O-])c6F)c6ccc3[nH]6)C=C5)C=C4)cc2)s1
REMARK SMILES IDX 25 1 24 2 23 3 21 4 22 5 20 7 10 8 11 9 15 10 12 11 14 12
REMARK SMILES IDX 13 13 16 14 17 15 19 17 18 18 7 19 8 20 9 21 6 22 3 23 4 24
REMARK SMILES IDX 94 25 5 26 2 27 1 28 26 29 27 30 28 31 29 32 30 34 31 35
REMARK SMILES IDX 32 36 93 37 33 38 92 39 34 40 35 41 36 42 86 43 37 44 91 45
REMARK SMILES IDX 85 46 87 47 38 48 90 49 84 50 83 51 39 53 71 54 51 55 70 56
REMARK SMILES IDX 52 57 55 58 69 59 88 60 53 61 54 62 68 64 89 65 56 66 40 67
REMARK SMILES IDX 41 68 49 69 42 70 44 71 50 72 43 73 45 74 46 75 47 76 48 77
REMARK SMILES IDX 72 78 73 79 81 80 74 81 76 82 82 83 75 84 77 85 78 86 79 87
REMARK SMILES IDX 80 88 57 89 58 90 66 91 59 92 61 93 67 94 60 95 62 96 63 97
REMARK SMILES IDX 64 98 65 99
REMARK H PARENT 23 6 16 16 28 33 87 52 55 63
REMARK Flexibility Score: inf
ROOT
ATOM      1  C   UNL A   1      36.648  21.294  25.603  1.00  0.00     0.023 C 
ENDROOT
BRANCH   1   2
ATOM      2  C   UNL A   1      35.644  21.706  24.521  1.00  0.00     0.116 C 
BRANCH   2   3
ATOM      3  N   UNL A   1      34.303  21.168  24.714  1.00  0.00    -0.356 N 
ATOM      4  C   UNL A   1      33.162  21.617  25.297  1.00  0.00     0.226 C 
ATOM      5  O   UNL A   1      32.176  20.875  25.205  1.00  0.00    -0.275 OA
ATOM      6  H   UNL A   1      34.201  20.267  24.329  1.00  0.00     0.163 HD
BRANCH   4   7
ATOM      7  C   UNL A   1      32.992  22.936  26.059  1.00  0.00     0.113 C 
ATOM      8  N   UNL A   1      33.825  26.297  23.793  1.00  0.00    -0.197 NA
ATOM      9  C   UNL A   1      33.994  26.349  25.242  1.00  0.00     0.105 C 
ATOM     10  C   UNL A   1      33.915  24.943  23.262  1.00  0.00     0.105 C 
ATOM     11  C   UNL A   1      32.944  25.510  25.969  1.00  0.00     0.046 C 
ATOM     12  C   UNL A   1      32.733  24.137  23.762  1.00  0.00     0.046 C 
ATOM     13  C   UNL A   1      32.471  24.172  25.289  1.00  0.00     0.055 C 
ATOM     14  N   UNL A   1      31.043  24.045  25.598  1.00  0.00    -0.350 N 
ATOM     15  C   UNL A   1      30.784  23.411  26.794  1.00  0.00     0.221 C 
ATOM     16  H   UNL A   1      30.334  24.383  25.006  1.00  0.00     0.164 HD
ATOM     17  C   UNL A   1      32.054  22.771  27.267  1.00  0.00     0.116 C 
ATOM     18  O   UNL A   1      29.694  23.369  27.332  1.00  0.00    -0.275 OA
BRANCH   8  19
ATOM     19  S   UNL A   1      33.194  27.573  22.872  1.00  0.00     0.252 S 
ATOM     20  O   UNL A   1      33.393  27.261  21.480  1.00  0.00    -0.206 OA
ATOM     21  O   UNL A   1      33.667  28.815  23.461  1.00  0.00    -0.206 OA
BRANCH  19  22
ATOM     22  C   UNL A   1      31.418  27.641  23.084  1.00  0.00     0.135 A 
ATOM     23  C   UNL A   1      29.053  28.392  23.024  1.00  0.00     0.006 A 
ATOM     24  C   UNL A   1      29.185  27.148  23.595  1.00  0.00     0.017 A 
ATOM     25  S   UNL A   1      30.572  29.020  22.511  1.00  0.00    -0.127 S 
ATOM     26  C   UNL A   1      30.539  26.774  23.683  1.00  0.00     0.034 A 
BRANCH  23  27
ATOM     27  C   UNL A   1      27.770  29.147  22.868  1.00  0.00     0.043 C 
ATOM     28  C   UNL A   1      27.894  30.581  23.356  1.00  0.00     0.010 C 
ENDBRANCH  23  27
ENDBRANCH  19  22
ENDBRANCH   8  19
ENDBRANCH   4   7
ENDBRANCH   2   3
ENDBRANCH   1   2
BRANCH   1  29
ATOM     29  C   UNL A   1      37.934  20.660  25.082  1.00  0.00     0.023 C 
BRANCH  29  30
ATOM     30  C   UNL A   1      39.133  20.849  25.995  1.00  0.00     0.116 C 
BRANCH  30  31
ATOM     31  N   UNL A   1      40.036  19.705  25.998  1.00  0.00    -0.352 N 
ATOM     32  C   UNL A   1      41.400  19.702  26.165  1.00  0.00     0.251 C 
ATOM     33  H   UNL A   1      39.617  18.824  25.863  1.00  0.00     0.163 HD
ATOM     34  O   UNL A   1      42.045  18.668  26.026  1.00  0.00    -0.269 OA
BRANCH  32  35
ATOM     35  C   UNL A   1      42.071  20.979  26.476  1.00  0.00     0.039 A 
ATOM     36  C   UNL A   1      42.465  21.809  25.427  1.00  0.00     0.014 A 
ATOM     37  C   UNL A   1      42.220  21.383  27.805  1.00  0.00     0.014 A 
ATOM     38  C   UNL A   1      42.951  23.085  25.714  1.00  0.00     0.010 A 
ATOM     39  C   UNL A   1      42.614  22.685  28.082  1.00  0.00     0.010 A 
ATOM     40  C   UNL A   1      42.991  23.545  27.041  1.00  0.00    -0.014 A 
BRANCH  40  41
ATOM     41  C   UNL A   1      43.417  24.929  27.365  1.00  0.00     0.031 A 
ATOM     42  C   UNL A   1      44.880  25.282  27.368  1.00  0.00     0.074 A 
ATOM     43  C   UNL A   1      42.498  25.835  27.755  1.00  0.00     0.049 A 
ATOM     44  N   UNL A   1      45.451  26.415  27.682  1.00  0.00    -0.248 NA
ATOM     45  C   UNL A   1      45.829  24.216  27.004  1.00  0.00     0.031 C 
ATOM     46  C   UNL A   1      41.060  25.581  27.895  1.00  0.00     0.029 A 
ATOM     47  N   UNL A   1      42.638  27.146  28.137  1.00  0.00    -0.354 N 
ATOM     48  C   UNL A   1      46.819  26.185  27.601  1.00  0.00     0.074 A 
ATOM     49  C   UNL A   1      46.997  24.798  27.239  1.00  0.00     0.031 C 
ATOM     50  C   UNL A   1      40.455  26.697  28.330  1.00  0.00     0.029 A 
ATOM     51  C   UNL A   1      41.459  27.738  28.526  1.00  0.00     0.049 A 
ATOM     52  H   UNL A   1      43.502  27.618  28.133  1.00  0.00     0.167 HD
ATOM     53  C   UNL A   1      47.835  27.059  27.782  1.00  0.00     0.034 A 
ATOM     54  C   UNL A   1      41.216  28.978  28.995  1.00  0.00     0.034 A 
ATOM     55  C   UNL A   1      47.650  28.454  28.076  1.00  0.00     0.049 A 
ATOM     56  C   UNL A   1      42.360  29.950  29.105  1.00  0.00     0.074 A 
ATOM     57  C   UNL A   1      48.609  29.448  28.152  1.00  0.00     0.029 A 
ATOM     58  N   UNL A   1      46.429  29.050  28.344  1.00  0.00    -0.354 N 
ATOM     59  N   UNL A   1      43.629  29.764  28.834  1.00  0.00    -0.248 NA
ATOM     60  C   UNL A   1      42.034  31.315  29.546  1.00  0.00     0.031 C 
ATOM     61  C   UNL A   1      47.968  30.643  28.493  1.00  0.00     0.029 A 
ATOM     62  C   UNL A   1      46.608  30.397  28.600  1.00  0.00     0.049 A 
ATOM     63  H   UNL A   1      45.562  28.584  28.351  1.00  0.00     0.167 HD
ATOM     64  C   UNL A   1      44.245  30.995  29.037  1.00  0.00     0.074 A 
ATOM     65  C   UNL A   1      43.206  31.924  29.428  1.00  0.00     0.031 C 
ATOM     66  C   UNL A   1      45.556  31.322  28.929  1.00  0.00     0.034 A 
BRANCH  53  67
ATOM     67  C   UNL A   1      49.243  26.555  27.611  1.00  0.00     0.023 A 
ATOM     68  C   UNL A   1      49.665  26.082  26.353  1.00  0.00     0.012 A 
ATOM     69  C   UNL A   1      50.170  26.637  28.668  1.00  0.00     0.148 A 
ATOM     70  C   UNL A   1      50.983  25.675  26.153  1.00  0.00     0.002 A 
ATOM     71  C   UNL A   1      51.493  26.273  28.449  1.00  0.00     0.091 A 
ATOM     72  F   UNL A   1      49.741  27.071  29.861  1.00  0.00    -0.205 F 
ATOM     73  C   UNL A   1      51.899  25.783  27.196  1.00  0.00     0.022 A 
BRANCH  71  74
ATOM     74  S   UNL A   1      52.769  26.451  29.700  1.00  0.00     0.127 S 
ATOM     75  O   UNL A   1      53.919  25.838  29.037  1.00  0.00    -0.237 OA
ATOM     76  O   UNL A   1      52.852  27.904  29.847  1.00  0.00    -0.237 OA
ATOM     77  O   UNL A   1      52.282  25.743  30.877  1.00  0.00    -0.744 OA
ENDBRANCH  71  74
ENDBRANCH  53  67
BRANCH  54  78
ATOM     78  C   UNL A   1      39.827  29.391  29.343  1.00  0.00     0.023 A 
ATOM     79  C   UNL A   1      38.930  29.750  28.317  1.00  0.00     0.012 A 
ATOM     80  C   UNL A   1      39.388  29.428  30.680  1.00  0.00     0.148 A 
ATOM     81  C   UNL A   1      37.637  30.179  28.620  1.00  0.00     0.002 A 
ATOM     82  C   UNL A   1      38.080  29.800  30.970  1.00  0.00     0.091 A 
ATOM     83  F   UNL A   1      40.258  29.097  31.645  1.00  0.00    -0.205 F 
ATOM     84  C   UNL A   1      37.209  30.195  29.943  1.00  0.00     0.022 A 
BRANCH  82  85
ATOM     85  S   UNL A   1      37.411  29.715  32.635  1.00  0.00     0.127 S 
ATOM     86  O   UNL A   1      37.457  28.280  32.904  1.00  0.00    -0.237 OA
ATOM     87  O   UNL A   1      38.374  30.516  33.392  1.00  0.00    -0.237 OA
ATOM     88  O   UNL A   1      36.082  30.307  32.548  1.00  0.00    -0.744 OA
ENDBRANCH  82  85
ENDBRANCH  54  78
BRANCH  66  89
ATOM     89  C   UNL A   1      45.944  32.751  29.196  1.00  0.00     0.023 A 
ATOM     90  C   UNL A   1      46.332  33.140  30.493  1.00  0.00     0.012 A 
ATOM     91  C   UNL A   1      46.002  33.686  28.145  1.00  0.00     0.148 A 
ATOM     92  C   UNL A   1      46.737  34.450  30.746  1.00  0.00     0.002 A 
ATOM     93  C   UNL A   1      46.456  34.976  28.394  1.00  0.00     0.091 A 
ATOM     94  F   UNL A   1      45.612  33.299  26.921  1.00  0.00    -0.205 F 
ATOM     95  C   UNL A   1      46.812  35.363  29.696  1.00  0.00     0.022 A 
BRANCH  93  96
ATOM     96  S   UNL A   1      46.680  36.185  27.085  1.00  0.00     0.127 S 
ATOM     97  O   UNL A   1      47.878  35.681  26.416  1.00  0.00    -0.237 OA
ATOM     98  O   UNL A   1      45.443  36.040  26.315  1.00  0.00    -0.237 OA
ATOM     99  O   UNL A   1      46.827  37.472  27.750  1.00  0.00    -0.744 OA
ENDBRANCH  93  96
ENDBRANCH  66  89
ENDBRANCH  40  41
ENDBRANCH  32  35
ENDBRANCH  30  31
ENDBRANCH  29  30
ENDBRANCH   1  29
TORSDOF 17
ENDMDL
MODEL 3
REMARK VINA RESULT:     -11.7      2.107      7.676
REMARK SMILES CCc1ccc(S(=O)(=O)N2CCC3(CC2)NC(=O)C[C@H]3C(=O)NCCCCNC(=O)c2ccc(-c3c4nc(c(-c5cccc(S(=O)(=O)[O-])c5F)c5ccc([nH]5)c(-c5cccc(S(=O)(=O)[O-])c5F)c5nc(c(-c6cccc(S(=O)(=O)[O-])c6F)c6ccc3[nH]6)C=C5)C=C4)cc2)s1
REMARK SMILES IDX 25 1 24 2 23 3 21 4 22 5 20 7 10 8 11 9 15 10 12 11 14 12
REMARK SMILES IDX 13 13 16 14 17 15 19 17 18 18 7 19 8 20 9 21 6 22 3 23 4 24
REMARK SMILES IDX 94 25 5 26 2 27 1 28 26 29 27 30 28 31 29 32 30 34 31 35
REMARK SMILES IDX 32 36 93 37 33 38 92 39 34 40 35 41 36 42 86 43 37 44 91 45
REMARK SMILES IDX 85 46 87 47 38 48 90 49 84 50 83 51 39 53 71 54 51 55 70 56
REMARK SMILES IDX 52 57 55 58 69 59 88 60 53 61 54 62 68 64 89 65 56 66 40 67
REMARK SMILES IDX 41 68 49 69 42 70 44 71 50 72 43 73 45 74 46 75 47 76 48 77
REMARK SMILES IDX 72 78 73 79 81 80 74 81 76 82 82 83 75 84 77 85 78 86 79 87
REMARK SMILES IDX 80 88 57 89 58 90 66 91 59 92 61 93 67 94 60 95 62 96 63 97
REMARK SMILES IDX 64 98 65 99
REMARK H PARENT 23 6 16 16 28 33 87 52 55 63
REMARK Flexibility Score: inf
ROOT
ATOM      1  C   UNL A   1      34.918  23.187  23.859  1.00  0.00     0.023 C 
ENDROOT
BRANCH   1   2
ATOM      2  C   UNL A   1      34.101  23.019  22.573  1.00  0.00     0.116 C 
BRANCH   2   3
ATOM      3  N   UNL A   1      32.696  22.701  22.797  1.00  0.00    -0.356 N 
ATOM      4  C   UNL A   1      31.815  22.902  23.810  1.00  0.00     0.226 C 
ATOM      5  O   UNL A   1      30.652  22.532  23.601  1.00  0.00    -0.275 OA
ATOM      6  H   UNL A   1      32.291  22.231  22.032  1.00  0.00     0.163 HD
BRANCH   4   7
ATOM      7  C   UNL A   1      32.129  23.528  25.173  1.00  0.00     0.113 C 
ATOM      8  N   UNL A   1      32.797  27.609  25.030  1.00  0.00    -0.197 NA
ATOM      9  C   UNL A   1      33.416  26.817  26.088  1.00  0.00     0.105 C 
ATOM     10  C   UNL A   1      32.474  26.818  23.849  1.00  0.00     0.105 C 
ATOM     11  C   UNL A   1      32.514  25.673  26.547  1.00  0.00     0.046 C 
ATOM     12  C   UNL A   1      31.384  25.827  24.202  1.00  0.00     0.046 C 
ATOM     13  C   UNL A   1      31.622  24.960  25.464  1.00  0.00     0.055 C 
ATOM     14  N   UNL A   1      30.364  24.622  26.137  1.00  0.00    -0.350 N 
ATOM     15  C   UNL A   1      30.382  23.403  26.778  1.00  0.00     0.221 C 
ATOM     16  H   UNL A   1      29.577  25.213  26.131  1.00  0.00     0.164 HD
ATOM     17  C   UNL A   1      31.601  22.657  26.327  1.00  0.00     0.116 C 
ATOM     18  O   UNL A   1      29.525  23.014  27.549  1.00  0.00    -0.275 OA
BRANCH   8  19
ATOM     19  S   UNL A   1      32.148  29.157  25.269  1.00  0.00     0.252 S 
ATOM     20  O   UNL A   1      33.210  30.116  25.100  1.00  0.00    -0.206 OA
ATOM     21  O   UNL A   1      31.331  29.111  26.470  1.00  0.00    -0.206 OA
BRANCH  19  22
ATOM     22  C   UNL A   1      30.980  29.523  23.963  1.00  0.00     0.135 A 
ATOM     23  C   UNL A   1      29.124  30.532  22.660  1.00  0.00     0.006 A 
ATOM     24  C   UNL A   1      29.799  29.576  21.939  1.00  0.00     0.017 A 
ATOM     25  S   UNL A   1      29.799  30.739  24.230  1.00  0.00    -0.127 S 
ATOM     26  C   UNL A   1      30.800  28.968  22.720  1.00  0.00     0.034 A 
BRANCH  23  27
ATOM     27  C   UNL A   1      27.932  31.302  22.183  1.00  0.00     0.043 C 
ATOM     28  C   UNL A   1      28.278  32.213  21.017  1.00  0.00     0.010 C 
ENDBRANCH  23  27
ENDBRANCH  19  22
ENDBRANCH   8  19
ENDBRANCH   4   7
ENDBRANCH   2   3
ENDBRANCH   1   2
BRANCH   1  29
ATOM     29  C   UNL A   1      35.478  21.893  24.442  1.00  0.00     0.023 C 
BRANCH  29  30
ATOM     30  C   UNL A   1      36.528  22.101  25.520  1.00  0.00     0.116 C 
BRANCH  30  31
ATOM     31  N   UNL A   1      37.524  21.038  25.559  1.00  0.00    -0.352 N 
ATOM     32  C   UNL A   1      38.840  21.125  25.947  1.00  0.00     0.251 C 
ATOM     33  H   UNL A   1      37.218  20.148  25.274  1.00  0.00     0.163 HD
ATOM     34  O   UNL A   1      39.594  20.166  25.816  1.00  0.00    -0.269 OA
BRANCH  32  35
ATOM     35  C   UNL A   1      39.329  22.408  26.485  1.00  0.00     0.039 A 
ATOM     36  C   UNL A   1      40.418  22.405  27.356  1.00  0.00     0.014 A 
ATOM     37  C   UNL A   1      38.763  23.608  26.050  1.00  0.00     0.014 A 
ATOM     38  C   UNL A   1      40.986  23.620  27.740  1.00  0.00     0.010 A 
ATOM     39  C   UNL A   1      39.387  24.809  26.358  1.00  0.00     0.010 A 
ATOM     40  C   UNL A   1      40.499  24.828  27.212  1.00  0.00    -0.014 A 
BRANCH  40  41
ATOM     41  C   UNL A   1      41.143  26.125  27.533  1.00  0.00     0.031 A 
ATOM     42  C   UNL A   1      42.561  26.386  27.106  1.00  0.00     0.074 A 
ATOM     43  C   UNL A   1      40.486  27.024  28.296  1.00  0.00     0.049 A 
ATOM     44  N   UNL A   1      43.313  27.428  27.344  1.00  0.00    -0.248 NA
ATOM     45  C   UNL A   1      43.238  25.324  26.341  1.00  0.00     0.031 C 
ATOM     46  C   UNL A   1      39.145  26.840  28.860  1.00  0.00     0.029 A 
ATOM     47  N   UNL A   1      40.870  28.259  28.755  1.00  0.00    -0.354 N 
ATOM     48  C   UNL A   1      44.557  27.128  26.803  1.00  0.00     0.074 A 
ATOM     49  C   UNL A   1      44.473  25.796  26.251  1.00  0.00     0.031 C 
ATOM     50  C   UNL A   1      38.822  27.921  29.588  1.00  0.00     0.029 A 
ATOM     51  C   UNL A   1      39.936  28.862  29.565  1.00  0.00     0.049 A 
ATOM     52  H   UNL A   1      41.733  28.673  28.527  1.00  0.00     0.167 HD
ATOM     53  C   UNL A   1      45.663  27.907  26.744  1.00  0.00     0.034 A 
ATOM     54  C   UNL A   1      39.978  30.038  30.222  1.00  0.00     0.034 A 
ATOM     55  C   UNL A   1      45.720  29.256  27.234  1.00  0.00     0.049 A 
ATOM     56  C   UNL A   1      41.191  30.915  30.066  1.00  0.00     0.074 A 
ATOM     57  C   UNL A   1      46.750  30.171  27.108  1.00  0.00     0.029 A 
ATOM     58  N   UNL A   1      44.710  29.883  27.944  1.00  0.00    -0.354 N 
ATOM     59  N   UNL A   1      42.287  30.692  29.383  1.00  0.00    -0.248 NA
ATOM     60  C   UNL A   1      41.158  32.224  30.737  1.00  0.00     0.031 C 
ATOM     61  C   UNL A   1      46.371  31.344  27.767  1.00  0.00     0.029 A 
ATOM     62  C   UNL A   1      45.095  31.169  28.277  1.00  0.00     0.049 A 
ATOM     63  H   UNL A   1      43.846  29.474  28.178  1.00  0.00     0.167 HD
ATOM     64  C   UNL A   1      43.057  31.843  29.513  1.00  0.00     0.074 A 
ATOM     65  C   UNL A   1      42.290  32.771  30.317  1.00  0.00     0.031 C 
ATOM     66  C   UNL A   1      44.296  32.102  29.026  1.00  0.00     0.034 A 
BRANCH  53  67
ATOM     67  C   UNL A   1      46.889  27.347  26.076  1.00  0.00     0.023 A 
ATOM     68  C   UNL A   1      47.103  27.583  24.703  1.00  0.00     0.012 A 
ATOM     69  C   UNL A   1      47.871  26.669  26.824  1.00  0.00     0.148 A 
ATOM     70  C   UNL A   1      48.265  27.132  24.078  1.00  0.00     0.002 A 
ATOM     71  C   UNL A   1      49.047  26.264  26.205  1.00  0.00     0.091 A 
ATOM     72  F   UNL A   1      47.637  26.438  28.123  1.00  0.00    -0.205 F 
ATOM     73  C   UNL A   1      49.241  26.486  24.831  1.00  0.00     0.022 A 
BRANCH  71  74
ATOM     74  S   UNL A   1      50.402  25.497  27.100  1.00  0.00     0.127 S 
ATOM     75  O   UNL A   1      51.359  25.243  26.024  1.00  0.00    -0.237 OA
ATOM     76  O   UNL A   1      50.794  26.558  28.028  1.00  0.00    -0.237 OA
ATOM     77  O   UNL A   1      49.847  24.307  27.730  1.00  0.00    -0.744 OA
ENDBRANCH  71  74
ENDBRANCH  53  67
BRANCH  54  78
ATOM     78  C   UNL A   1      38.815  30.484  31.041  1.00  0.00     0.023 A 
ATOM     79  C   UNL A   1      38.802  30.231  32.427  1.00  0.00     0.012 A 
ATOM     80  C   UNL A   1      37.725  31.158  30.459  1.00  0.00     0.148 A 
ATOM     81  C   UNL A   1      37.708  30.602  33.209  1.00  0.00     0.002 A 
ATOM     82  C   UNL A   1      36.664  31.577  31.254  1.00  0.00     0.091 A 
ATOM     83  F   UNL A   1      37.745  31.378  29.136  1.00  0.00    -0.205 F 
ATOM     84  C   UNL A   1      36.644  31.283  32.625  1.00  0.00     0.022 A 
BRANCH  82  85
ATOM     85  S   UNL A   1      35.322  32.579  30.602  1.00  0.00     0.127 S 
ATOM     86  O   UNL A   1      35.996  33.845  30.332  1.00  0.00    -0.237 OA
ATOM     87  O   UNL A   1      34.927  31.823  29.413  1.00  0.00    -0.237 OA
ATOM     88  O   UNL A   1      34.313  32.603  31.654  1.00  0.00    -0.744 OA
ENDBRANCH  82  85
ENDBRANCH  54  78
BRANCH  66  89
ATOM     89  C   UNL A   1      44.890  33.454  29.312  1.00  0.00     0.023 A 
ATOM     90  C   UNL A   1      45.642  33.656  30.486  1.00  0.00     0.012 A 
ATOM     91  C   UNL A   1      44.771  34.501  28.377  1.00  0.00     0.148 A 
ATOM     92  C   UNL A   1      46.237  34.890  30.742  1.00  0.00     0.002 A 
ATOM     93  C   UNL A   1      45.409  35.712  28.614  1.00  0.00     0.091 A 
ATOM     94  F   UNL A   1      44.036  34.294  27.273  1.00  0.00    -0.205 F 
ATOM     95  C   UNL A   1      46.131  35.913  29.801  1.00  0.00     0.022 A 
BRANCH  93  96
ATOM     96  S   UNL A   1      45.410  37.048  27.413  1.00  0.00     0.127 S 
ATOM     97  O   UNL A   1      43.984  37.194  27.129  1.00  0.00    -0.237 OA
ATOM     98  O   UNL A   1      45.998  38.151  28.175  1.00  0.00    -0.237 OA
ATOM     99  O   UNL A   1      46.227  36.584  26.299  1.00  0.00    -0.744 OA
ENDBRANCH  93  96
ENDBRANCH  66  89
ENDBRANCH  40  41
ENDBRANCH  32  35
ENDBRANCH  30  31
ENDBRANCH  29  30
ENDBRANCH   1  29
TORSDOF 17
ENDMDL
