MODEL 1
REMARK VINA RESULT:     -12.6      0.000      0.000
REMARK SMILES Cc1ccc(Cl)c(Nc2ccccc2C(=O)NCCCCNC(=O)c2ccc(-c3c4nc(c(-c5cccc(S(=O)(=O)[O-])c5F)c5ccc([nH]5)c(-c5cccc(S(=O)(=O)[O-])c5F)c5nc(c(-c6cccc(S(=O)(=O)[O-])c6F)c6ccc3[nH]6)C=C5)C=C4)cc2)c1Cl
REMARK SMILES IDX 20 1 19 2 18 3 17 4 15 5 16 6 14 8 9 9 10 10 11 11 13 12
REMARK SMILES IDX 12 13 8 14 7 16 1 17 2 18 3 19 88 20 4 21 89 22 5 23 6 24
REMARK SMILES IDX 21 25 22 26 23 27 24 29 25 30 26 31 87 32 27 33 86 34 28 35
REMARK SMILES IDX 29 36 30 37 80 38 31 39 85 40 79 41 81 42 32 43 84 44 78 45
REMARK SMILES IDX 77 46 33 48 65 49 45 50 64 51 46 52 49 53 63 54 82 55 47 56
REMARK SMILES IDX 48 57 62 59 83 60 50 61 34 62 35 63 43 64 36 65 38 66 44 67
REMARK SMILES IDX 37 68 39 69 40 70 41 71 42 72 66 73 67 74 75 75 68 76 70 77
REMARK SMILES IDX 76 78 69 79 71 80 72 81 73 82 74 83 51 84 52 85 60 86 53 87
REMARK SMILES IDX 55 88 61 89 54 90 56 91 57 92 58 93 59 94
REMARK H PARENT 17 7 8 15 22 28 81 47 49 58
REMARK Flexibility Score: inf
ROOT
ATOM      1  C   UNL A   1      31.675  28.805  26.131  1.00  0.00     0.023 C 
ENDROOT
BRANCH   1   2
ATOM      2  C   UNL A   1      32.201  27.627  26.957  1.00  0.00     0.023 C 
BRANCH   2   3
ATOM      3  C   UNL A   1      32.059  26.239  26.349  1.00  0.00     0.116 C 
BRANCH   3   4
ATOM      4  N   UNL A   1      30.926  25.469  26.799  1.00  0.00    -0.352 N 
ATOM      5  C   UNL A   1      30.605  24.151  26.557  1.00  0.00     0.253 C 
ATOM      6  O   UNL A   1      29.638  23.683  27.164  1.00  0.00    -0.269 OA
ATOM      7  H   UNL A   1      30.286  25.958  27.364  1.00  0.00     0.163 HD
BRANCH   5   8
ATOM      8  C   UNL A   1      31.266  23.309  25.512  1.00  0.00     0.063 A 
ATOM      9  C   UNL A   1      31.120  23.383  24.111  1.00  0.00     0.051 A 
ATOM     10  C   UNL A   1      31.790  22.413  23.324  1.00  0.00     0.027 A 
ATOM     11  C   UNL A   1      32.636  21.454  23.881  1.00  0.00     0.002 A 
ATOM     12  C   UNL A   1      32.152  22.347  26.056  1.00  0.00     0.016 A 
ATOM     13  C   UNL A   1      32.838  21.438  25.252  1.00  0.00     0.001 A 
BRANCH   9  14
ATOM     14  N   UNL A   1      30.466  24.386  23.367  1.00  0.00    -0.352 N 
ATOM     15  H   UNL A   1      29.728  24.036  22.818  1.00  0.00     0.167 HD
BRANCH  14  16
ATOM     16  C   UNL A   1      30.638  25.785  23.237  1.00  0.00     0.077 A 
ATOM     17  C   UNL A   1      28.712  29.106  23.091  1.00  0.00     0.046 C 
ATOM     18  C   UNL A   1      29.819  28.088  23.011  1.00  0.00    -0.030 A 
ATOM     19  C   UNL A   1      31.079  28.493  22.546  1.00  0.00     0.006 A 
ATOM     20  C   UNL A   1      29.615  26.743  23.392  1.00  0.00     0.069 A 
ATOM     21  C   UNL A   1      32.130  27.585  22.481  1.00  0.00     0.023 A 
ATOM     22  Cl  UNL A   1      28.135  26.335  24.212  1.00  0.00    -0.082 Cl
ATOM     23  C   UNL A   1      31.911  26.254  22.828  1.00  0.00     0.066 A 
ATOM     24  Cl  UNL A   1      33.246  25.152  22.673  1.00  0.00    -0.082 Cl
ENDBRANCH  14  16
ENDBRANCH   9  14
ENDBRANCH   5   8
ENDBRANCH   3   4
ENDBRANCH   2   3
ENDBRANCH   1   2
BRANCH   1  25
ATOM     25  C   UNL A   1      32.651  29.924  25.764  1.00  0.00     0.116 C 
BRANCH  25  26
ATOM     26  N   UNL A   1      32.375  31.218  26.371  1.00  0.00    -0.352 N 
ATOM     27  C   UNL A   1      33.162  31.966  27.224  1.00  0.00     0.251 C 
ATOM     28  H   UNL A   1      31.503  31.615  26.142  1.00  0.00     0.163 HD
ATOM     29  O   UNL A   1      32.780  33.057  27.617  1.00  0.00    -0.269 OA
BRANCH  27  30
ATOM     30  C   UNL A   1      34.459  31.425  27.699  1.00  0.00     0.039 A 
ATOM     31  C   UNL A   1      35.500  32.320  27.964  1.00  0.00     0.014 A 
ATOM     32  C   UNL A   1      34.638  30.058  27.925  1.00  0.00     0.014 A 
ATOM     33  C   UNL A   1      36.681  31.859  28.555  1.00  0.00     0.010 A 
ATOM     34  C   UNL A   1      35.790  29.610  28.570  1.00  0.00     0.010 A 
ATOM     35  C   UNL A   1      36.814  30.508  28.913  1.00  0.00    -0.014 A 
BRANCH  35  36
ATOM     36  C   UNL A   1      37.981  30.032  29.707  1.00  0.00     0.031 A 
ATOM     37  C   UNL A   1      38.212  30.529  31.109  1.00  0.00     0.074 A 
ATOM     38  C   UNL A   1      38.899  29.239  29.117  1.00  0.00     0.049 A 
ATOM     39  N   UNL A   1      39.203  30.264  31.921  1.00  0.00    -0.248 NA
ATOM     40  C   UNL A   1      37.219  31.464  31.662  1.00  0.00     0.031 C 
ATOM     41  C   UNL A   1      38.850  28.774  27.728  1.00  0.00     0.029 A 
ATOM     42  N   UNL A   1      40.074  28.712  29.597  1.00  0.00    -0.354 N 
ATOM     43  C   UNL A   1      38.980  31.032  33.059  1.00  0.00     0.074 A 
ATOM     44  C   UNL A   1      37.766  31.785  32.826  1.00  0.00     0.031 C 
ATOM     45  C   UNL A   1      39.945  28.042  27.467  1.00  0.00     0.029 A 
ATOM     46  C   UNL A   1      40.785  27.998  28.659  1.00  0.00     0.049 A 
ATOM     47  H   UNL A   1      40.379  28.834  30.525  1.00  0.00     0.167 HD
ATOM     48  C   UNL A   1      39.705  31.085  34.201  1.00  0.00     0.034 A 
ATOM     49  C   UNL A   1      41.981  27.382  28.744  1.00  0.00     0.034 A 
ATOM     50  C   UNL A   1      40.876  30.289  34.453  1.00  0.00     0.049 A 
ATOM     51  C   UNL A   1      42.712  27.380  30.060  1.00  0.00     0.074 A 
ATOM     52  C   UNL A   1      41.610  30.188  35.624  1.00  0.00     0.029 A 
ATOM     53  N   UNL A   1      41.490  29.464  33.526  1.00  0.00    -0.354 N 
ATOM     54  N   UNL A   1      42.375  27.953  31.190  1.00  0.00    -0.248 NA
ATOM     55  C   UNL A   1      43.962  26.609  30.130  1.00  0.00     0.031 C 
ATOM     56  C   UNL A   1      42.675  29.312  35.398  1.00  0.00     0.029 A 
ATOM     57  C   UNL A   1      42.593  28.852  34.094  1.00  0.00     0.049 A 
ATOM     58  H   UNL A   1      41.186  29.331  32.599  1.00  0.00     0.167 HD
ATOM     59  C   UNL A   1      43.345  27.577  32.112  1.00  0.00     0.074 A 
ATOM     60  C   UNL A   1      44.272  26.710  31.416  1.00  0.00     0.031 C 
ATOM     61  C   UNL A   1      43.466  27.932  33.415  1.00  0.00     0.034 A 
BRANCH  48  62
ATOM     62  C   UNL A   1      39.225  31.990  35.304  1.00  0.00     0.023 A 
ATOM     63  C   UNL A   1      38.318  31.496  36.261  1.00  0.00     0.012 A 
ATOM     64  C   UNL A   1      39.748  33.292  35.452  1.00  0.00     0.148 A 
ATOM     65  C   UNL A   1      37.918  32.287  37.337  1.00  0.00     0.002 A 
ATOM     66  C   UNL A   1      39.376  34.060  36.549  1.00  0.00     0.091 A 
ATOM     67  F   UNL A   1      40.596  33.748  34.521  1.00  0.00    -0.205 F 
ATOM     68  C   UNL A   1      38.456  33.562  37.487  1.00  0.00     0.022 A 
BRANCH  66  69
ATOM     69  S   UNL A   1      40.070  35.683  36.879  1.00  0.00     0.127 S 
ATOM     70  O   UNL A   1      39.459  36.007  38.168  1.00  0.00    -0.237 OA
ATOM     71  O   UNL A   1      41.504  35.399  36.937  1.00  0.00    -0.237 OA
ATOM     72  O   UNL A   1      39.661  36.531  35.767  1.00  0.00    -0.744 OA
ENDBRANCH  66  69
ENDBRANCH  48  62
BRANCH  49  73
ATOM     73  C   UNL A   1      42.532  26.647  27.570  1.00  0.00     0.023 A 
ATOM     74  C   UNL A   1      43.367  27.322  26.657  1.00  0.00     0.012 A 
ATOM     75  C   UNL A   1      42.243  25.285  27.354  1.00  0.00     0.148 A 
ATOM     76  C   UNL A   1      43.868  26.669  25.530  1.00  0.00     0.002 A 
ATOM     77  C   UNL A   1      42.792  24.626  26.259  1.00  0.00     0.091 A 
ATOM     78  F   UNL A   1      41.434  24.659  28.220  1.00  0.00    -0.205 F 
ATOM     79  C   UNL A   1      43.589  25.320  25.335  1.00  0.00     0.022 A 
BRANCH  77  80
ATOM     80  S   UNL A   1      42.591  22.857  26.017  1.00  0.00     0.127 S 
ATOM     81  O   UNL A   1      43.386  22.311  27.113  1.00  0.00    -0.237 OA
ATOM     82  O   UNL A   1      41.145  22.687  26.160  1.00  0.00    -0.237 OA
ATOM     83  O   UNL A   1      43.088  22.597  24.672  1.00  0.00    -0.744 OA
ENDBRANCH  77  80
ENDBRANCH  49  73
BRANCH  61  84
ATOM     84  C   UNL A   1      44.609  27.345  34.200  1.00  0.00     0.023 A 
ATOM     85  C   UNL A   1      45.841  28.024  34.260  1.00  0.00     0.012 A 
ATOM     86  C   UNL A   1      44.434  26.161  34.943  1.00  0.00     0.148 A 
ATOM     87  C   UNL A   1      46.893  27.516  35.023  1.00  0.00     0.002 A 
ATOM     88  C   UNL A   1      45.471  25.687  35.738  1.00  0.00     0.091 A 
ATOM     89  F   UNL A   1      43.261  25.516  34.855  1.00  0.00    -0.205 F 
ATOM     90  C   UNL A   1      46.704  26.356  35.771  1.00  0.00     0.022 A 
BRANCH  88  91
ATOM     91  S   UNL A   1      45.275  24.255  36.806  1.00  0.00     0.127 S 
ATOM     92  O   UNL A   1      44.257  24.721  37.746  1.00  0.00    -0.237 OA
ATOM     93  O   UNL A   1      44.816  23.227  35.871  1.00  0.00    -0.237 OA
ATOM     94  O   UNL A   1      46.591  24.003  37.377  1.00  0.00    -0.744 OA
ENDBRANCH  88  91
ENDBRANCH  61  84
ENDBRANCH  35  36
ENDBRANCH  27  30
ENDBRANCH  25  26
ENDBRANCH   1  25
TORSDOF 16
ENDMDL
MODEL 2
REMARK VINA RESULT:     -12.6      2.656      3.483
REMARK SMILES Cc1ccc(Cl)c(Nc2ccccc2C(=O)NCCCCNC(=O)c2ccc(-c3c4nc(c(-c5cccc(S(=O)(=O)[O-])c5F)c5ccc([nH]5)c(-c5cccc(S(=O)(=O)[O-])c5F)c5nc(c(-c6cccc(S(=O)(=O)[O-])c6F)c6ccc3[nH]6)C=C5)C=C4)cc2)c1Cl
REMARK SMILES IDX 20 1 19 2 18 3 17 4 15 5 16 6 14 8 9 9 10 10 11 11 13 12
REMARK SMILES IDX 12 13 8 14 7 16 1 17 2 18 3 19 88 20 4 21 89 22 5 23 6 24
REMARK SMILES IDX 21 25 22 26 23 27 24 29 25 30 26 31 87 32 27 33 86 34 28 35
REMARK SMILES IDX 29 36 30 37 80 38 31 39 85 40 79 41 81 42 32 43 84 44 78 45
REMARK SMILES IDX 77 46 33 48 65 49 45 50 64 51 46 52 49 53 63 54 82 55 47 56
REMARK SMILES IDX 48 57 62 59 83 60 50 61 34 62 35 63 43 64 36 65 38 66 44 67
REMARK SMILES IDX 37 68 39 69 40 70 41 71 42 72 66 73 67 74 75 75 68 76 70 77
REMARK SMILES IDX 76 78 69 79 71 80 72 81 73 82 74 83 51 84 52 85 60 86 53 87
REMARK SMILES IDX 55 88 61 89 54 90 56 91 57 92 58 93 59 94
REMARK H PARENT 17 7 8 15 22 28 81 47 49 58
REMARK Flexibility Score: inf
ROOT
ATOM      1  C   UNL A   1      33.383  28.233  27.054  1.00  0.00     0.023 C 
ENDROOT
BRANCH   1   2
ATOM      2  C   UNL A   1      32.142  27.473  26.577  1.00  0.00     0.023 C 
BRANCH   2   3
ATOM      3  C   UNL A   1      32.265  25.962  26.447  1.00  0.00     0.116 C 
BRANCH   3   4
ATOM      4  N   UNL A   1      31.133  25.197  26.909  1.00  0.00    -0.352 N 
ATOM      5  C   UNL A   1      30.723  23.930  26.557  1.00  0.00     0.253 C 
ATOM      6  O   UNL A   1      29.785  23.441  27.192  1.00  0.00    -0.269 OA
ATOM      7  H   UNL A   1      30.567  25.649  27.576  1.00  0.00     0.163 HD
BRANCH   5   8
ATOM      8  C   UNL A   1      31.252  23.179  25.375  1.00  0.00     0.063 A 
ATOM      9  C   UNL A   1      31.007  23.421  24.007  1.00  0.00     0.051 A 
ATOM     10  C   UNL A   1      31.556  22.514  23.067  1.00  0.00     0.027 A 
ATOM     11  C   UNL A   1      32.381  21.454  23.445  1.00  0.00     0.002 A 
ATOM     12  C   UNL A   1      32.115  22.116  25.737  1.00  0.00     0.016 A 
ATOM     13  C   UNL A   1      32.682  21.270  24.784  1.00  0.00     0.001 A 
BRANCH   9  14
ATOM     14  N   UNL A   1      30.362  24.536  23.434  1.00  0.00    -0.352 N 
ATOM     15  H   UNL A   1      29.455  24.330  23.112  1.00  0.00     0.167 HD
BRANCH  14  16
ATOM     16  C   UNL A   1      30.732  25.886  23.221  1.00  0.00     0.077 A 
ATOM     17  C   UNL A   1      33.735  28.152  22.445  1.00  0.00     0.046 C 
ATOM     18  C   UNL A   1      32.356  27.684  22.829  1.00  0.00    -0.030 A 
ATOM     19  C   UNL A   1      31.408  28.633  23.239  1.00  0.00     0.006 A 
ATOM     20  C   UNL A   1      32.001  26.317  22.784  1.00  0.00     0.069 A 
ATOM     21  C   UNL A   1      30.119  28.239  23.579  1.00  0.00     0.023 A 
ATOM     22  Cl  UNL A   1      33.101  25.205  22.021  1.00  0.00    -0.082 Cl
ATOM     23  C   UNL A   1      29.787  26.886  23.563  1.00  0.00     0.066 A 
ATOM     24  Cl  UNL A   1      28.179  26.446  24.051  1.00  0.00    -0.082 Cl
ENDBRANCH  14  16
ENDBRANCH   9  14
ENDBRANCH   5   8
ENDBRANCH   3   4
ENDBRANCH   2   3
ENDBRANCH   1   2
BRANCH   1  25
ATOM     25  C   UNL A   1      33.826  29.464  26.262  1.00  0.00     0.116 C 
BRANCH  25  26
ATOM     26  N   UNL A   1      33.805  30.720  26.997  1.00  0.00    -0.352 N 
ATOM     27  C   UNL A   1      34.734  31.225  27.887  1.00  0.00     0.251 C 
ATOM     28  H   UNL A   1      33.018  31.290  26.840  1.00  0.00     0.163 HD
ATOM     29  O   UNL A   1      34.568  32.323  28.394  1.00  0.00    -0.269 OA
BRANCH  27  30
ATOM     30  C   UNL A   1      35.918  30.413  28.260  1.00  0.00     0.039 A 
ATOM     31  C   UNL A   1      37.038  30.442  27.423  1.00  0.00     0.014 A 
ATOM     32  C   UNL A   1      35.946  29.667  29.440  1.00  0.00     0.014 A 
ATOM     33  C   UNL A   1      38.221  29.810  27.822  1.00  0.00     0.010 A 
ATOM     34  C   UNL A   1      37.143  29.091  29.865  1.00  0.00     0.010 A 
ATOM     35  C   UNL A   1      38.299  29.175  29.073  1.00  0.00    -0.014 A 
BRANCH  35  36
ATOM     36  C   UNL A   1      39.595  28.661  29.597  1.00  0.00     0.031 A 
ATOM     37  C   UNL A   1      40.316  29.377  30.706  1.00  0.00     0.074 A 
ATOM     38  C   UNL A   1      40.180  27.609  28.986  1.00  0.00     0.049 A 
ATOM     39  N   UNL A   1      41.477  29.101  31.244  1.00  0.00    -0.248 NA
ATOM     40  C   UNL A   1      39.665  30.572  31.268  1.00  0.00     0.031 C 
ATOM     41  C   UNL A   1      39.637  26.892  27.829  1.00  0.00     0.029 A 
ATOM     42  N   UNL A   1      41.378  26.980  29.229  1.00  0.00    -0.354 N 
ATOM     43  C   UNL A   1      41.717  30.109  32.171  1.00  0.00     0.074 A 
ATOM     44  C   UNL A   1      40.588  31.013  32.112  1.00  0.00     0.031 C 
ATOM     45  C   UNL A   1      40.500  25.932  27.459  1.00  0.00     0.029 A 
ATOM     46  C   UNL A   1      41.665  25.973  28.336  1.00  0.00     0.049 A 
ATOM     47  H   UNL A   1      41.974  27.227  29.973  1.00  0.00     0.167 HD
ATOM     48  C   UNL A   1      42.770  30.255  33.010  1.00  0.00     0.034 A 
ATOM     49  C   UNL A   1      42.747  25.174  28.229  1.00  0.00     0.034 A 
ATOM     50  C   UNL A   1      43.860  29.322  33.110  1.00  0.00     0.049 A 
ATOM     51  C   UNL A   1      43.853  25.302  29.242  1.00  0.00     0.074 A 
ATOM     52  C   UNL A   1      44.911  29.324  34.012  1.00  0.00     0.029 A 
ATOM     53  N   UNL A   1      44.047  28.228  32.282  1.00  0.00    -0.354 N 
ATOM     54  N   UNL A   1      43.962  26.142  30.242  1.00  0.00    -0.248 NA
ATOM     55  C   UNL A   1      44.962  24.341  29.144  1.00  0.00     0.031 C 
ATOM     56  C   UNL A   1      45.741  28.238  33.718  1.00  0.00     0.029 A 
ATOM     57  C   UNL A   1      45.195  27.548  32.648  1.00  0.00     0.049 A 
ATOM     58  H   UNL A   1      43.450  27.971  31.542  1.00  0.00     0.167 HD
ATOM     59  C   UNL A   1      45.125  25.785  30.915  1.00  0.00     0.074 A 
ATOM     60  C   UNL A   1      45.675  24.639  30.222  1.00  0.00     0.031 C 
ATOM     61  C   UNL A   1      45.694  26.365  32.000  1.00  0.00     0.034 A 
BRANCH  48  62
ATOM     62  C   UNL A   1      42.774  31.436  33.944  1.00  0.00     0.023 A 
ATOM     63  C   UNL A   1      43.302  32.666  33.504  1.00  0.00     0.012 A 
ATOM     64  C   UNL A   1      42.167  31.357  35.214  1.00  0.00     0.148 A 
ATOM     65  C   UNL A   1      43.247  33.795  34.319  1.00  0.00     0.002 A 
ATOM     66  C   UNL A   1      42.080  32.497  36.005  1.00  0.00     0.091 A 
ATOM     67  F   UNL A   1      41.687  30.173  35.619  1.00  0.00    -0.205 F 
ATOM     68  C   UNL A   1      42.626  33.713  35.563  1.00  0.00     0.022 A 
BRANCH  66  69
ATOM     69  S   UNL A   1      41.231  32.519  37.588  1.00  0.00     0.127 S 
ATOM     70  O   UNL A   1      39.908  32.016  37.218  1.00  0.00    -0.237 OA
ATOM     71  O   UNL A   1      42.036  31.591  38.382  1.00  0.00    -0.237 OA
ATOM     72  O   UNL A   1      41.265  33.902  38.045  1.00  0.00    -0.744 OA
ENDBRANCH  66  69
ENDBRANCH  48  62
BRANCH  49  73
ATOM     73  C   UNL A   1      42.806  24.129  27.167  1.00  0.00     0.023 A 
ATOM     74  C   UNL A   1      43.532  24.381  25.986  1.00  0.00     0.012 A 
ATOM     75  C   UNL A   1      42.158  22.889  27.321  1.00  0.00     0.148 A 
ATOM     76  C   UNL A   1      43.575  23.435  24.961  1.00  0.00     0.002 A 
ATOM     77  C   UNL A   1      42.253  21.929  26.319  1.00  0.00     0.091 A 
ATOM     78  F   UNL A   1      41.457  22.669  28.443  1.00  0.00    -0.205 F 
ATOM     79  C   UNL A   1      42.944  22.206  25.130  1.00  0.00     0.022 A 
BRANCH  77  80
ATOM     80  S   UNL A   1      41.584  20.273  26.523  1.00  0.00     0.127 S 
ATOM     81  O   UNL A   1      40.147  20.522  26.479  1.00  0.00    -0.237 OA
ATOM     82  O   UNL A   1      42.125  19.574  25.357  1.00  0.00    -0.237 OA
ATOM     83  O   UNL A   1      42.116  19.802  27.796  1.00  0.00    -0.744 OA
ENDBRANCH  77  80
ENDBRANCH  49  73
BRANCH  61  84
ATOM     84  C   UNL A   1      46.952  25.746  32.549  1.00  0.00     0.023 A 
ATOM     85  C   UNL A   1      46.881  24.861  33.641  1.00  0.00     0.012 A 
ATOM     86  C   UNL A   1      48.195  25.982  31.928  1.00  0.00     0.148 A 
ATOM     87  C   UNL A   1      48.033  24.244  34.129  1.00  0.00     0.002 A 
ATOM     88  C   UNL A   1      49.331  25.327  32.389  1.00  0.00     0.091 A 
ATOM     89  F   UNL A   1      48.247  26.846  30.904  1.00  0.00    -0.205 F 
ATOM     90  C   UNL A   1      49.254  24.467  33.496  1.00  0.00     0.022 A 
BRANCH  88  91
ATOM     91  S   UNL A   1      50.922  25.484  31.569  1.00  0.00     0.127 S 
ATOM     92  O   UNL A   1      51.248  26.887  31.816  1.00  0.00    -0.237 OA
ATOM     93  O   UNL A   1      51.750  24.528  32.304  1.00  0.00    -0.237 OA
ATOM     94  O   UNL A   1      50.687  25.128  30.176  1.00  0.00    -0.744 OA
ENDBRANCH  88  91
ENDBRANCH  61  84
ENDBRANCH  35  36
ENDBRANCH  27  30
ENDBRANCH  25  26
ENDBRANCH   1  25
TORSDOF 16
ENDMDL
MODEL 3
REMARK VINA RESULT:     -12.3      1.402      2.945
REMARK SMILES Cc1ccc(Cl)c(Nc2ccccc2C(=O)NCCCCNC(=O)c2ccc(-c3c4nc(c(-c5cccc(S(=O)(=O)[O-])c5F)c5ccc([nH]5)c(-c5cccc(S(=O)(=O)[O-])c5F)c5nc(c(-c6cccc(S(=O)(=O)[O-])c6F)c6ccc3[nH]6)C=C5)C=C4)cc2)c1Cl
REMARK SMILES IDX 20 1 19 2 18 3 17 4 15 5 16 6 14 8 9 9 10 10 11 11 13 12
REMARK SMILES IDX 12 13 8 14 7 16 1 17 2 18 3 19 88 20 4 21 89 22 5 23 6 24
REMARK SMILES IDX 21 25 22 26 23 27 24 29 25 30 26 31 87 32 27 33 86 34 28 35
REMARK SMILES IDX 29 36 30 37 80 38 31 39 85 40 79 41 81 42 32 43 84 44 78 45
REMARK SMILES IDX 77 46 33 48 65 49 45 50 64 51 46 52 49 53 63 54 82 55 47 56
REMARK SMILES IDX 48 57 62 59 83 60 50 61 34 62 35 63 43 64 36 65 38 66 44 67
REMARK SMILES IDX 37 68 39 69 40 70 41 71 42 72 66 73 67 74 75 75 68 76 70 77
REMARK SMILES IDX 76 78 69 79 71 80 72 81 73 82 74 83 51 84 52 85 60 86 53 87
REMARK SMILES IDX 55 88 61 89 54 90 56 91 57 92 58 93 59 94
REMARK H PARENT 17 7 8 15 22 28 81 47 49 58
REMARK Flexibility Score: inf
ROOT
ATOM      1  C   UNL A   1      32.310  29.393  24.578  1.00  0.00     0.023 C 
ENDROOT
BRANCH   1   2
ATOM      2  C   UNL A   1      33.597  29.135  23.787  1.00  0.00     0.023 C 
BRANCH   2   3
ATOM      3  C   UNL A   1      33.844  27.708  23.317  1.00  0.00     0.116 C 
BRANCH   3   4
ATOM      4  N   UNL A   1      32.984  27.238  22.258  1.00  0.00    -0.352 N 
ATOM      5  C   UNL A   1      31.828  26.493  22.328  1.00  0.00     0.253 C 
ATOM      6  O   UNL A   1      31.199  26.323  21.280  1.00  0.00    -0.269 OA
ATOM      7  H   UNL A   1      33.268  27.486  21.348  1.00  0.00     0.163 HD
BRANCH   5   8
ATOM      8  C   UNL A   1      31.372  25.772  23.558  1.00  0.00     0.063 A 
ATOM      9  C   UNL A   1      31.782  24.509  24.031  1.00  0.00     0.051 A 
ATOM     10  C   UNL A   1      31.139  23.994  25.184  1.00  0.00     0.027 A 
ATOM     11  C   UNL A   1      30.185  24.722  25.896  1.00  0.00     0.002 A 
ATOM     12  C   UNL A   1      30.424  26.508  24.309  1.00  0.00     0.016 A 
ATOM     13  C   UNL A   1      29.845  25.996  25.470  1.00  0.00     0.001 A 
BRANCH   9  14
ATOM     14  N   UNL A   1      32.851  23.720  23.559  1.00  0.00    -0.352 N 
ATOM     15  H   UNL A   1      33.348  24.149  22.826  1.00  0.00     0.167 HD
BRANCH  14  16
ATOM     16  C   UNL A   1      33.366  22.448  23.907  1.00  0.00     0.077 A 
ATOM     17  C   UNL A   1      32.633  18.684  23.689  1.00  0.00     0.046 C 
ATOM     18  C   UNL A   1      33.255  20.001  24.068  1.00  0.00    -0.030 A 
ATOM     19  C   UNL A   1      34.281  20.016  25.025  1.00  0.00     0.006 A 
ATOM     20  C   UNL A   1      32.829  21.215  23.484  1.00  0.00     0.069 A 
ATOM     21  C   UNL A   1      34.894  21.212  25.382  1.00  0.00     0.023 A 
ATOM     22  Cl  UNL A   1      31.753  21.138  22.117  1.00  0.00    -0.082 Cl
ATOM     23  C   UNL A   1      34.445  22.407  24.825  1.00  0.00     0.066 A 
ATOM     24  Cl  UNL A   1      35.208  23.877  25.351  1.00  0.00    -0.082 Cl
ENDBRANCH  14  16
ENDBRANCH   9  14
ENDBRANCH   5   8
ENDBRANCH   3   4
ENDBRANCH   2   3
ENDBRANCH   1   2
BRANCH   1  25
ATOM     25  C   UNL A   1      32.422  29.618  26.086  1.00  0.00     0.116 C 
BRANCH  25  26
ATOM     26  N   UNL A   1      32.229  30.990  26.529  1.00  0.00    -0.352 N 
ATOM     27  C   UNL A   1      33.093  31.809  27.230  1.00  0.00     0.251 C 
ATOM     28  H   UNL A   1      31.360  31.391  26.299  1.00  0.00     0.163 HD
ATOM     29  O   UNL A   1      32.774  32.958  27.495  1.00  0.00    -0.269 OA
BRANCH  27  30
ATOM     30  C   UNL A   1      34.397  31.280  27.700  1.00  0.00     0.039 A 
ATOM     31  C   UNL A   1      35.432  32.184  27.955  1.00  0.00     0.014 A 
ATOM     32  C   UNL A   1      34.587  29.916  27.930  1.00  0.00     0.014 A 
ATOM     33  C   UNL A   1      36.620  31.734  28.541  1.00  0.00     0.010 A 
ATOM     34  C   UNL A   1      35.747  29.479  28.570  1.00  0.00     0.010 A 
ATOM     35  C   UNL A   1      36.766  30.385  28.904  1.00  0.00    -0.014 A 
BRANCH  35  36
ATOM     36  C   UNL A   1      37.940  29.922  29.693  1.00  0.00     0.031 A 
ATOM     37  C   UNL A   1      38.172  30.422  31.093  1.00  0.00     0.074 A 
ATOM     38  C   UNL A   1      38.864  29.137  29.100  1.00  0.00     0.049 A 
ATOM     39  N   UNL A   1      39.170  30.167  31.902  1.00  0.00    -0.248 NA
ATOM     40  C   UNL A   1      37.173  31.348  31.650  1.00  0.00     0.031 C 
ATOM     41  C   UNL A   1      38.813  28.670  27.712  1.00  0.00     0.029 A 
ATOM     42  N   UNL A   1      40.046  28.622  29.576  1.00  0.00    -0.354 N 
ATOM     43  C   UNL A   1      38.944  30.933  33.040  1.00  0.00     0.074 A 
ATOM     44  C   UNL A   1      37.722  31.675  32.812  1.00  0.00     0.031 C 
ATOM     45  C   UNL A   1      39.914  27.949  27.447  1.00  0.00     0.029 A 
ATOM     46  C   UNL A   1      40.760  27.914  28.635  1.00  0.00     0.049 A 
ATOM     47  H   UNL A   1      40.354  28.748  30.502  1.00  0.00     0.167 HD
ATOM     48  C   UNL A   1      39.674  30.995  34.178  1.00  0.00     0.034 A 
ATOM     49  C   UNL A   1      41.962  27.309  28.715  1.00  0.00     0.034 A 
ATOM     50  C   UNL A   1      40.854  30.211  34.427  1.00  0.00     0.049 A 
ATOM     51  C   UNL A   1      42.698  27.316  30.028  1.00  0.00     0.074 A 
ATOM     52  C   UNL A   1      41.593  30.118  35.594  1.00  0.00     0.029 A 
ATOM     53  N   UNL A   1      41.471  29.391  33.498  1.00  0.00    -0.354 N 
ATOM     54  N   UNL A   1      42.361  27.886  31.159  1.00  0.00    -0.248 NA
ATOM     55  C   UNL A   1      43.956  26.557  30.092  1.00  0.00     0.031 C 
ATOM     56  C   UNL A   1      42.666  29.252  35.364  1.00  0.00     0.029 A 
ATOM     57  C   UNL A   1      42.582  28.789  34.061  1.00  0.00     0.049 A 
ATOM     58  H   UNL A   1      41.164  29.254  32.572  1.00  0.00     0.167 HD
ATOM     59  C   UNL A   1      43.339  27.521  32.077  1.00  0.00     0.074 A 
ATOM     60  C   UNL A   1      44.270  26.662  31.377  1.00  0.00     0.031 C 
ATOM     61  C   UNL A   1      43.461  27.877  33.379  1.00  0.00     0.034 A 
BRANCH  48  62
ATOM     62  C   UNL A   1      39.190  31.896  35.283  1.00  0.00     0.023 A 
ATOM     63  C   UNL A   1      38.302  31.390  36.252  1.00  0.00     0.012 A 
ATOM     64  C   UNL A   1      39.691  33.207  35.420  1.00  0.00     0.148 A 
ATOM     65  C   UNL A   1      37.900  32.179  37.329  1.00  0.00     0.002 A 
ATOM     66  C   UNL A   1      39.317  33.973  36.518  1.00  0.00     0.091 A 
ATOM     67  F   UNL A   1      40.521  33.675  34.478  1.00  0.00    -0.205 F 
ATOM     68  C   UNL A   1      38.417  33.464  37.468  1.00  0.00     0.022 A 
BRANCH  66  69
ATOM     69  S   UNL A   1      39.986  35.610  36.834  1.00  0.00     0.127 S 
ATOM     70  O   UNL A   1      41.423  35.339  36.869  1.00  0.00    -0.237 OA
ATOM     71  O   UNL A   1      39.535  36.359  35.660  1.00  0.00    -0.237 OA
ATOM     72  O   UNL A   1      39.405  36.048  38.096  1.00  0.00    -0.744 OA
ENDBRANCH  66  69
ENDBRANCH  48  62
BRANCH  49  73
ATOM     73  C   UNL A   1      42.514  26.579  27.538  1.00  0.00     0.023 A 
ATOM     74  C   UNL A   1      43.355  27.257  26.632  1.00  0.00     0.012 A 
ATOM     75  C   UNL A   1      42.222  25.219  27.314  1.00  0.00     0.148 A 
ATOM     76  C   UNL A   1      43.858  26.608  25.504  1.00  0.00     0.002 A 
ATOM     77  C   UNL A   1      42.774  24.564  26.218  1.00  0.00     0.091 A 
ATOM     78  F   UNL A   1      41.409  24.591  28.175  1.00  0.00    -0.205 F 
ATOM     79  C   UNL A   1      43.575  25.260  25.301  1.00  0.00     0.022 A 
BRANCH  77  80
ATOM     80  S   UNL A   1      42.568  22.797  25.967  1.00  0.00     0.127 S 
ATOM     81  O   UNL A   1      43.104  22.619  24.621  1.00  0.00    -0.237 OA
ATOM     82  O   UNL A   1      43.390  22.234  27.038  1.00  0.00    -0.237 OA
ATOM     83  O   UNL A   1      41.139  22.553  26.126  1.00  0.00    -0.744 OA
ENDBRANCH  77  80
ENDBRANCH  49  73
BRANCH  61  84
ATOM     84  C   UNL A   1      44.614  27.303  34.159  1.00  0.00     0.023 A 
ATOM     85  C   UNL A   1      45.853  27.970  34.176  1.00  0.00     0.012 A 
ATOM     86  C   UNL A   1      44.441  26.142  34.940  1.00  0.00     0.148 A 
ATOM     87  C   UNL A   1      46.914  27.475  34.934  1.00  0.00     0.002 A 
ATOM     88  C   UNL A   1      45.488  25.681  35.730  1.00  0.00     0.091 A 
ATOM     89  F   UNL A   1      43.261  25.507  34.893  1.00  0.00    -0.205 F 
ATOM     90  C   UNL A   1      46.728  26.339  35.719  1.00  0.00     0.022 A 
BRANCH  88  91
ATOM     91  S   UNL A   1      45.299  24.284  36.843  1.00  0.00     0.127 S 
ATOM     92  O   UNL A   1      46.627  24.201  37.447  1.00  0.00    -0.237 OA
ATOM     93  O   UNL A   1      44.245  24.745  37.748  1.00  0.00    -0.237 OA
ATOM     94  O   UNL A   1      44.918  23.156  36.003  1.00  0.00    -0.744 OA
ENDBRANCH  88  91
ENDBRANCH  61  84
ENDBRANCH  35  36
ENDBRANCH  27  30
ENDBRANCH  25  26
ENDBRANCH   1  25
TORSDOF 16
ENDMDL
