MODEL 1
REMARK VINA RESULT:     -11.2      0.000      0.000
REMARK SMILES O=C(NCCCCNC(=O)c1ccc(O)c(Br)n1)c1ccc(-c2c3nc(c(-c4cccc(S(=O)(=O)[O-])c4F)c4ccc([nH]4)c(-c4cccc(S(=O)(=O)[O-])c4F)c4nc(c(-c5cccc(S(=O)(=O)[O-])c5F)c5ccc2[nH]5)C=C4)C=C3)cc1
REMARK SMILES IDX 4 1 3 2 1 3 2 4 19 6 20 7 81 8 21 9 80 10 22 11 23 12 24 13
REMARK SMILES IDX 74 14 25 15 79 16 73 17 75 18 26 19 78 20 72 21 71 22 27 24
REMARK SMILES IDX 59 25 39 26 58 27 40 28 43 29 57 30 76 31 41 32 42 33 56 35
REMARK SMILES IDX 77 36 44 37 28 38 29 39 37 40 30 41 32 42 38 43 31 44 33 45
REMARK SMILES IDX 34 46 35 47 36 48 60 49 61 50 69 51 62 52 64 53 70 54 63 55
REMARK SMILES IDX 65 56 66 57 67 58 68 59 45 60 46 61 54 62 47 63 49 64 55 65
REMARK SMILES IDX 48 66 50 67 51 68 52 69 53 70 5 71 6 72 7 73 8 74 9 75 10 77
REMARK SMILES IDX 11 78 12 79 18 80 13 81 16 82 14 83 17 84 15 85
REMARK H PARENT 3 5 75 23 43 34 8 76 15 86
REMARK Flexibility Score: inf
ROOT
ATOM      1  C   UNL A   1      34.017  33.581  28.709  1.00  0.00     0.116 C 
ENDROOT
BRANCH   1   2
ATOM      2  N   UNL A   1      33.391  32.600  27.836  1.00  0.00    -0.352 N 
ATOM      3  O   UNL A   1      33.300  30.789  26.497  1.00  0.00    -0.269 OA
ATOM      4  C   UNL A   1      33.900  31.413  27.367  1.00  0.00     0.251 C 
ATOM      5  H   UNL A   1      32.477  32.817  27.541  1.00  0.00     0.163 HD
BRANCH   4   6
ATOM      6  C   UNL A   1      35.182  30.911  27.903  1.00  0.00     0.039 A 
ATOM      7  C   UNL A   1      35.278  29.609  28.404  1.00  0.00     0.014 A 
ATOM      8  C   UNL A   1      36.294  31.756  27.912  1.00  0.00     0.014 A 
ATOM      9  C   UNL A   1      36.453  29.194  29.025  1.00  0.00     0.010 A 
ATOM     10  C   UNL A   1      37.489  31.319  28.489  1.00  0.00     0.010 A 
ATOM     11  C   UNL A   1      37.565  30.049  29.081  1.00  0.00    -0.014 A 
BRANCH  11  12
ATOM     12  C   UNL A   1      38.812  29.587  29.736  1.00  0.00     0.031 A 
ATOM     13  C   UNL A   1      39.226  30.128  31.076  1.00  0.00     0.074 A 
ATOM     14  C   UNL A   1      39.571  28.663  29.117  1.00  0.00     0.049 A 
ATOM     15  N   UNL A   1      40.262  29.804  31.805  1.00  0.00    -0.248 NA
ATOM     16  C   UNL A   1      38.369  31.163  31.679  1.00  0.00     0.031 C 
ATOM     17  C   UNL A   1      39.285  28.083  27.804  1.00  0.00     0.029 A 
ATOM     18  N   UNL A   1      40.738  28.055  29.505  1.00  0.00    -0.354 N 
ATOM     19  C   UNL A   1      40.198  30.603  32.938  1.00  0.00     0.074 A 
ATOM     20  C   UNL A   1      39.024  31.438  32.801  1.00  0.00     0.031 C 
ATOM     21  C   UNL A   1      40.245  27.198  27.498  1.00  0.00     0.029 A 
ATOM     22  C   UNL A   1      41.229  27.169  28.577  1.00  0.00     0.049 A 
ATOM     23  H   UNL A   1      41.180  28.236  30.366  1.00  0.00     0.167 HD
ATOM     24  C   UNL A   1      41.032  30.624  34.004  1.00  0.00     0.034 A 
ATOM     25  C   UNL A   1      42.349  26.421  28.585  1.00  0.00     0.034 A 
ATOM     26  C   UNL A   1      42.183  29.776  34.151  1.00  0.00     0.049 A 
ATOM     27  C   UNL A   1      43.262  26.471  29.777  1.00  0.00     0.074 A 
ATOM     28  C   UNL A   1      43.049  29.689  35.227  1.00  0.00     0.029 A 
ATOM     29  N   UNL A   1      42.637  28.881  33.197  1.00  0.00    -0.354 N 
ATOM     30  N   UNL A   1      43.122  27.151  30.887  1.00  0.00    -0.248 NA
ATOM     31  C   UNL A   1      44.470  25.634  29.730  1.00  0.00     0.031 C 
ATOM     32  C   UNL A   1      44.042  28.757  34.915  1.00  0.00     0.029 A 
ATOM     33  C   UNL A   1      43.779  28.246  33.653  1.00  0.00     0.049 A 
ATOM     34  H   UNL A   1      42.212  28.719  32.324  1.00  0.00     0.167 HD
ATOM     35  C   UNL A   1      44.211  26.813  31.681  1.00  0.00     0.074 A 
ATOM     36  C   UNL A   1      44.997  25.855  30.928  1.00  0.00     0.031 C 
ATOM     37  C   UNL A   1      44.532  27.265  32.916  1.00  0.00     0.034 A 
BRANCH  24  38
ATOM     38  C   UNL A   1      40.717  31.562  35.136  1.00  0.00     0.023 A 
ATOM     39  C   UNL A   1      41.531  32.695  35.338  1.00  0.00     0.012 A 
ATOM     40  C   UNL A   1      39.554  31.394  35.912  1.00  0.00     0.148 A 
ATOM     41  C   UNL A   1      41.194  33.645  36.299  1.00  0.00     0.002 A 
ATOM     42  C   UNL A   1      39.209  32.360  36.849  1.00  0.00     0.091 A 
ATOM     43  F   UNL A   1      38.803  30.303  35.705  1.00  0.00    -0.205 F 
ATOM     44  C   UNL A   1      40.028  33.484  37.046  1.00  0.00     0.022 A 
BRANCH  42  45
ATOM     45  S   UNL A   1      37.704  32.277  37.826  1.00  0.00     0.127 S 
ATOM     46  O   UNL A   1      36.748  32.956  36.952  1.00  0.00    -0.237 OA
ATOM     47  O   UNL A   1      37.499  30.833  37.949  1.00  0.00    -0.237 OA
ATOM     48  O   UNL A   1      37.993  32.964  39.077  1.00  0.00    -0.744 OA
ENDBRANCH  42  45
ENDBRANCH  24  38
BRANCH  25  49
ATOM     49  C   UNL A   1      42.627  25.524  27.433  1.00  0.00     0.023 A 
ATOM     50  C   UNL A   1      43.459  25.976  26.392  1.00  0.00     0.012 A 
ATOM     51  C   UNL A   1      42.141  24.202  27.410  1.00  0.00     0.148 A 
ATOM     52  C   UNL A   1      43.801  25.125  25.342  1.00  0.00     0.002 A 
ATOM     53  C   UNL A   1      42.518  23.349  26.380  1.00  0.00     0.091 A 
ATOM     54  F   UNL A   1      41.354  23.800  28.417  1.00  0.00    -0.205 F 
ATOM     55  C   UNL A   1      43.340  23.811  25.341  1.00  0.00     0.022 A 
BRANCH  53  56
ATOM     56  S   UNL A   1      42.055  21.614  26.340  1.00  0.00     0.127 S 
ATOM     57  O   UNL A   1      40.641  21.691  25.981  1.00  0.00    -0.237 OA
ATOM     58  O   UNL A   1      42.931  21.098  25.287  1.00  0.00    -0.237 OA
ATOM     59  O   UNL A   1      42.334  21.096  27.671  1.00  0.00    -0.744 OA
ENDBRANCH  53  56
ENDBRANCH  25  49
BRANCH  37  60
ATOM     60  C   UNL A   1      45.782  26.737  33.566  1.00  0.00     0.023 A 
ATOM     61  C   UNL A   1      46.981  27.464  33.450  1.00  0.00     0.012 A 
ATOM     62  C   UNL A   1      45.729  25.605  34.402  1.00  0.00     0.148 A 
ATOM     63  C   UNL A   1      48.117  27.069  34.155  1.00  0.00     0.002 A 
ATOM     64  C   UNL A   1      46.855  25.236  35.129  1.00  0.00     0.091 A 
ATOM     65  F   UNL A   1      44.575  24.929  34.490  1.00  0.00    -0.205 F 
ATOM     66  C   UNL A   1      48.050  25.965  35.004  1.00  0.00     0.022 A 
BRANCH  64  67
ATOM     67  S   UNL A   1      46.849  23.876  36.303  1.00  0.00     0.127 S 
ATOM     68  O   UNL A   1      48.240  23.868  36.753  1.00  0.00    -0.237 OA
ATOM     69  O   UNL A   1      45.886  24.338  37.303  1.00  0.00    -0.237 OA
ATOM     70  O   UNL A   1      46.435  22.696  35.555  1.00  0.00    -0.744 OA
ENDBRANCH  64  67
ENDBRANCH  37  60
ENDBRANCH  11  12
ENDBRANCH   4   6
ENDBRANCH   1   2
BRANCH   1  71
ATOM     71  C   UNL A   1      34.382  34.867  27.974  1.00  0.00     0.023 C 
BRANCH  71  72
ATOM     72  C   UNL A   1      34.062  36.157  28.730  1.00  0.00     0.023 C 
BRANCH  72  73
ATOM     73  C   UNL A   1      33.178  35.976  29.962  1.00  0.00     0.116 C 
BRANCH  73  74
ATOM     74  N   UNL A   1      33.311  37.086  30.893  1.00  0.00    -0.351 N 
ATOM     75  C   UNL A   1      33.735  37.051  32.202  1.00  0.00     0.269 C 
ATOM     76  H   UNL A   1      33.067  37.973  30.542  1.00  0.00     0.163 HD
ATOM     77  O   UNL A   1      33.621  38.040  32.922  1.00  0.00    -0.268 OA
BRANCH  75  78
ATOM     78  C   UNL A   1      34.288  35.788  32.761  1.00  0.00     0.129 A 
ATOM     79  C   UNL A   1      33.446  34.690  32.888  1.00  0.00     0.038 A 
ATOM     80  N   UNL A   1      35.610  35.779  33.076  1.00  0.00    -0.232 NA
ATOM     81  C   UNL A   1      34.000  33.488  33.317  1.00  0.00     0.051 A 
ATOM     82  C   UNL A   1      36.114  34.602  33.498  1.00  0.00     0.148 A 
ATOM     83  C   UNL A   1      35.356  33.438  33.616  1.00  0.00     0.148 A 
ATOM     84  Br  UNL A   1      37.969  34.563  33.906  1.00  0.00    -0.025 Br
BRANCH  83  85
ATOM     85  O   UNL A   1      35.872  32.234  34.002  1.00  0.00    -0.505 OA
ATOM     86  H   UNL A   1      36.246  32.135  34.855  1.00  0.00     0.293 HD
ENDBRANCH  83  85
ENDBRANCH  75  78
ENDBRANCH  73  74
ENDBRANCH  72  73
ENDBRANCH  71  72
ENDBRANCH   1  71
TORSDOF 15
ENDMDL
MODEL 2
REMARK VINA RESULT:     -11.0      3.758      9.893
REMARK SMILES O=C(NCCCCNC(=O)c1ccc(O)c(Br)n1)c1ccc(-c2c3nc(c(-c4cccc(S(=O)(=O)[O-])c4F)c4ccc([nH]4)c(-c4cccc(S(=O)(=O)[O-])c4F)c4nc(c(-c5cccc(S(=O)(=O)[O-])c5F)c5ccc2[nH]5)C=C4)C=C3)cc1
REMARK SMILES IDX 4 1 3 2 1 3 2 4 19 6 20 7 81 8 21 9 80 10 22 11 23 12 24 13
REMARK SMILES IDX 74 14 25 15 79 16 73 17 75 18 26 19 78 20 72 21 71 22 27 24
REMARK SMILES IDX 59 25 39 26 58 27 40 28 43 29 57 30 76 31 41 32 42 33 56 35
REMARK SMILES IDX 77 36 44 37 28 38 29 39 37 40 30 41 32 42 38 43 31 44 33 45
REMARK SMILES IDX 34 46 35 47 36 48 60 49 61 50 69 51 62 52 64 53 70 54 63 55
REMARK SMILES IDX 65 56 66 57 67 58 68 59 45 60 46 61 54 62 47 63 49 64 55 65
REMARK SMILES IDX 48 66 50 67 51 68 52 69 53 70 5 71 6 72 7 73 8 74 9 75 10 77
REMARK SMILES IDX 11 78 12 79 18 80 13 81 16 82 14 83 17 84 15 85
REMARK H PARENT 3 5 75 23 43 34 8 76 15 86
REMARK Flexibility Score: inf
ROOT
ATOM      1  C   UNL A   1      32.973  32.819  27.198  1.00  0.00     0.116 C 
ENDROOT
BRANCH   1   2
ATOM      2  N   UNL A   1      32.653  34.166  27.645  1.00  0.00    -0.352 N 
ATOM      3  O   UNL A   1      32.637  35.924  29.057  1.00  0.00    -0.269 OA
ATOM      4  C   UNL A   1      33.146  34.858  28.725  1.00  0.00     0.251 C 
ATOM      5  H   UNL A   1      31.991  34.648  27.098  1.00  0.00     0.163 HD
BRANCH   4   6
ATOM      6  C   UNL A   1      34.277  34.295  29.491  1.00  0.00     0.039 A 
ATOM      7  C   UNL A   1      35.594  34.511  29.071  1.00  0.00     0.014 A 
ATOM      8  C   UNL A   1      34.015  33.537  30.634  1.00  0.00     0.014 A 
ATOM      9  C   UNL A   1      36.641  33.866  29.725  1.00  0.00     0.010 A 
ATOM     10  C   UNL A   1      35.072  32.934  31.320  1.00  0.00     0.010 A 
ATOM     11  C   UNL A   1      36.387  33.065  30.850  1.00  0.00    -0.014 A 
BRANCH  11  12
ATOM     12  C   UNL A   1      37.515  32.396  31.541  1.00  0.00     0.031 A 
ATOM     13  C   UNL A   1      38.243  31.249  30.897  1.00  0.00     0.074 A 
ATOM     14  C   UNL A   1      37.889  32.835  32.757  1.00  0.00     0.049 A 
ATOM     15  N   UNL A   1      39.274  30.580  31.345  1.00  0.00    -0.248 NA
ATOM     16  C   UNL A   1      37.760  30.796  29.582  1.00  0.00     0.031 C 
ATOM     17  C   UNL A   1      37.242  33.923  33.494  1.00  0.00     0.029 A 
ATOM     18  N   UNL A   1      38.897  32.420  33.590  1.00  0.00    -0.354 N 
ATOM     19  C   UNL A   1      39.550  29.616  30.385  1.00  0.00     0.074 A 
ATOM     20  C   UNL A   1      38.573  29.778  29.329  1.00  0.00     0.031 C 
ATOM     21  C   UNL A   1      37.872  34.095  34.664  1.00  0.00     0.029 A 
ATOM     22  C   UNL A   1      38.947  33.113  34.776  1.00  0.00     0.049 A 
ATOM     23  H   UNL A   1      39.523  31.696  33.360  1.00  0.00     0.167 HD
ATOM     24  C   UNL A   1      40.539  28.692  30.377  1.00  0.00     0.034 A 
ATOM     25  C   UNL A   1      39.760  32.971  35.840  1.00  0.00     0.034 A 
ATOM     26  C   UNL A   1      41.525  28.549  31.414  1.00  0.00     0.049 A 
ATOM     27  C   UNL A   1      40.844  31.932  35.809  1.00  0.00     0.074 A 
ATOM     28  C   UNL A   1      42.600  27.679  31.457  1.00  0.00     0.029 A 
ATOM     29  N   UNL A   1      41.552  29.279  32.590  1.00  0.00    -0.354 N 
ATOM     30  N   UNL A   1      41.157  31.105  34.842  1.00  0.00    -0.248 NA
ATOM     31  C   UNL A   1      41.701  31.821  36.999  1.00  0.00     0.031 C 
ATOM     32  C   UNL A   1      43.265  27.866  32.671  1.00  0.00     0.029 A 
ATOM     33  C   UNL A   1      42.618  28.871  33.372  1.00  0.00     0.049 A 
ATOM     34  H   UNL A   1      40.910  29.984  32.833  1.00  0.00     0.167 HD
ATOM     35  C   UNL A   1      42.259  30.389  35.296  1.00  0.00     0.074 A 
ATOM     36  C   UNL A   1      42.567  30.888  36.621  1.00  0.00     0.031 C 
ATOM     37  C   UNL A   1      42.942  29.401  34.672  1.00  0.00     0.034 A 
BRANCH  24  38
ATOM     38  C   UNL A   1      40.652  27.779  29.187  1.00  0.00     0.023 A 
ATOM     39  C   UNL A   1      39.776  26.682  29.076  1.00  0.00     0.012 A 
ATOM     40  C   UNL A   1      41.531  28.079  28.128  1.00  0.00     0.148 A 
ATOM     41  C   UNL A   1      39.774  25.893  27.928  1.00  0.00     0.002 A 
ATOM     42  C   UNL A   1      41.504  27.303  26.975  1.00  0.00     0.091 A 
ATOM     43  F   UNL A   1      42.361  29.122  28.264  1.00  0.00    -0.205 F 
ATOM     44  C   UNL A   1      40.629  26.210  26.874  1.00  0.00     0.022 A 
BRANCH  42  45
ATOM     45  S   UNL A   1      42.526  27.655  25.540  1.00  0.00     0.127 S 
ATOM     46  O   UNL A   1      43.864  27.676  26.130  1.00  0.00    -0.237 OA
ATOM     47  O   UNL A   1      42.257  26.500  24.682  1.00  0.00    -0.237 OA
ATOM     48  O   UNL A   1      42.063  28.931  25.014  1.00  0.00    -0.744 OA
ENDBRANCH  42  45
ENDBRANCH  24  38
BRANCH  25  49
ATOM     49  C   UNL A   1      39.596  33.884  37.001  1.00  0.00     0.023 A 
ATOM     50  C   UNL A   1      39.967  35.236  36.873  1.00  0.00     0.012 A 
ATOM     51  C   UNL A   1      38.996  33.438  38.195  1.00  0.00     0.148 A 
ATOM     52  C   UNL A   1      39.747  36.130  37.920  1.00  0.00     0.002 A 
ATOM     53  C   UNL A   1      38.745  34.344  39.218  1.00  0.00     0.091 A 
ATOM     54  F   UNL A   1      38.651  32.147  38.285  1.00  0.00    -0.205 F 
ATOM     55  C   UNL A   1      39.127  35.688  39.085  1.00  0.00     0.022 A 
BRANCH  53  56
ATOM     56  S   UNL A   1      37.866  33.894  40.718  1.00  0.00     0.127 S 
ATOM     57  O   UNL A   1      37.676  35.195  41.355  1.00  0.00    -0.237 OA
ATOM     58  O   UNL A   1      36.649  33.287  40.179  1.00  0.00    -0.237 OA
ATOM     59  O   UNL A   1      38.741  32.974  41.431  1.00  0.00    -0.744 OA
ENDBRANCH  53  56
ENDBRANCH  25  49
BRANCH  37  60
ATOM     60  C   UNL A   1      44.109  28.779  35.388  1.00  0.00     0.023 A 
ATOM     61  C   UNL A   1      45.397  29.319  35.209  1.00  0.00     0.012 A 
ATOM     62  C   UNL A   1      43.905  27.761  36.339  1.00  0.00     0.148 A 
ATOM     63  C   UNL A   1      46.469  28.849  35.966  1.00  0.00     0.002 A 
ATOM     64  C   UNL A   1      44.972  27.321  37.114  1.00  0.00     0.091 A 
ATOM     65  F   UNL A   1      42.669  27.263  36.485  1.00  0.00    -0.205 F 
ATOM     66  C   UNL A   1      46.255  27.862  36.926  1.00  0.00     0.022 A 
BRANCH  64  67
ATOM     67  S   UNL A   1      44.783  26.108  38.425  1.00  0.00     0.127 S 
ATOM     68  O   UNL A   1      44.259  24.957  37.691  1.00  0.00    -0.237 OA
ATOM     69  O   UNL A   1      46.158  25.954  38.901  1.00  0.00    -0.237 OA
ATOM     70  O   UNL A   1      43.865  26.694  39.392  1.00  0.00    -0.744 OA
ENDBRANCH  64  67
ENDBRANCH  37  60
ENDBRANCH  11  12
ENDBRANCH   4   6
ENDBRANCH   1   2
BRANCH   1  71
ATOM     71  C   UNL A   1      31.770  31.883  27.261  1.00  0.00     0.023 C 
BRANCH  71  72
ATOM     72  C   UNL A   1      31.573  31.001  26.026  1.00  0.00     0.023 C 
BRANCH  72  73
ATOM     73  C   UNL A   1      32.500  29.790  25.949  1.00  0.00     0.116 C 
BRANCH  73  74
ATOM     74  N   UNL A   1      33.177  29.707  24.664  1.00  0.00    -0.351 N 
ATOM     75  C   UNL A   1      32.831  28.948  23.569  1.00  0.00     0.269 C 
ATOM     76  H   UNL A   1      33.983  30.263  24.566  1.00  0.00     0.163 HD
ATOM     77  O   UNL A   1      33.600  28.839  22.616  1.00  0.00    -0.268 OA
BRANCH  75  78
ATOM     78  C   UNL A   1      31.536  28.215  23.563  1.00  0.00     0.129 A 
ATOM     79  C   UNL A   1      31.516  26.895  23.995  1.00  0.00     0.038 A 
ATOM     80  N   UNL A   1      30.435  28.909  23.170  1.00  0.00    -0.232 NA
ATOM     81  C   UNL A   1      30.284  26.254  24.080  1.00  0.00     0.051 A 
ATOM     82  C   UNL A   1      29.259  28.257  23.255  1.00  0.00     0.148 A 
ATOM     83  C   UNL A   1      29.136  26.947  23.715  1.00  0.00     0.148 A 
ATOM     84  Br  UNL A   1      27.705  29.225  22.746  1.00  0.00    -0.025 Br
BRANCH  83  85
ATOM     85  O   UNL A   1      27.941  26.297  23.844  1.00  0.00    -0.505 OA
ATOM     86  H   UNL A   1      27.341  26.549  24.517  1.00  0.00     0.293 HD
ENDBRANCH  83  85
ENDBRANCH  75  78
ENDBRANCH  73  74
ENDBRANCH  72  73
ENDBRANCH  71  72
ENDBRANCH   1  71
TORSDOF 15
ENDMDL
MODEL 3
REMARK VINA RESULT:     -10.9      7.168     11.151
REMARK SMILES O=C(NCCCCNC(=O)c1ccc(O)c(Br)n1)c1ccc(-c2c3nc(c(-c4cccc(S(=O)(=O)[O-])c4F)c4ccc([nH]4)c(-c4cccc(S(=O)(=O)[O-])c4F)c4nc(c(-c5cccc(S(=O)(=O)[O-])c5F)c5ccc2[nH]5)C=C4)C=C3)cc1
REMARK SMILES IDX 4 1 3 2 1 3 2 4 19 6 20 7 81 8 21 9 80 10 22 11 23 12 24 13
REMARK SMILES IDX 74 14 25 15 79 16 73 17 75 18 26 19 78 20 72 21 71 22 27 24
REMARK SMILES IDX 59 25 39 26 58 27 40 28 43 29 57 30 76 31 41 32 42 33 56 35
REMARK SMILES IDX 77 36 44 37 28 38 29 39 37 40 30 41 32 42 38 43 31 44 33 45
REMARK SMILES IDX 34 46 35 47 36 48 60 49 61 50 69 51 62 52 64 53 70 54 63 55
REMARK SMILES IDX 65 56 66 57 67 58 68 59 45 60 46 61 54 62 47 63 49 64 55 65
REMARK SMILES IDX 48 66 50 67 51 68 52 69 53 70 5 71 6 72 7 73 8 74 9 75 10 77
REMARK SMILES IDX 11 78 12 79 18 80 13 81 16 82 14 83 17 84 15 85
REMARK H PARENT 3 5 75 23 43 34 8 76 15 86
REMARK Flexibility Score: inf
ROOT
ATOM      1  C   UNL A   1      38.976  20.206  25.740  1.00  0.00     0.116 C 
ENDROOT
BRANCH   1   2
ATOM      2  N   UNL A   1      40.021  19.216  25.953  1.00  0.00    -0.352 N 
ATOM      3  O   UNL A   1      42.132  18.458  26.180  1.00  0.00    -0.269 OA
ATOM      4  C   UNL A   1      41.358  19.411  26.198  1.00  0.00     0.251 C 
ATOM      5  H   UNL A   1      39.728  18.277  25.917  1.00  0.00     0.163 HD
BRANCH   4   6
ATOM      6  C   UNL A   1      41.857  20.778  26.457  1.00  0.00     0.039 A 
ATOM      7  C   UNL A   1      41.981  21.249  27.768  1.00  0.00     0.014 A 
ATOM      8  C   UNL A   1      42.192  21.597  25.377  1.00  0.00     0.014 A 
ATOM      9  C   UNL A   1      42.324  22.579  27.994  1.00  0.00     0.010 A 
ATOM     10  C   UNL A   1      42.587  22.917  25.608  1.00  0.00     0.010 A 
ATOM     11  C   UNL A   1      42.621  23.427  26.915  1.00  0.00    -0.014 A 
BRANCH  11  12
ATOM     12  C   UNL A   1      42.997  24.837  27.173  1.00  0.00     0.031 A 
ATOM     13  C   UNL A   1      42.036  25.781  27.842  1.00  0.00     0.074 A 
ATOM     14  C   UNL A   1      44.220  25.265  26.809  1.00  0.00     0.049 A 
ATOM     15  N   UNL A   1      42.218  27.032  28.178  1.00  0.00    -0.248 NA
ATOM     16  C   UNL A   1      40.702  25.258  28.182  1.00  0.00     0.031 C 
ATOM     17  C   UNL A   1      45.228  24.449  26.130  1.00  0.00     0.029 A 
ATOM     18  N   UNL A   1      44.820  26.490  26.951  1.00  0.00    -0.354 N 
ATOM     19  C   UNL A   1      41.024  27.453  28.746  1.00  0.00     0.074 A 
ATOM     20  C   UNL A   1      40.115  26.327  28.704  1.00  0.00     0.031 C 
ATOM     21  C   UNL A   1      46.325  25.192  25.922  1.00  0.00     0.029 A 
ATOM     22  C   UNL A   1      46.088  26.543  26.423  1.00  0.00     0.049 A 
ATOM     23  H   UNL A   1      44.385  27.257  27.389  1.00  0.00     0.167 HD
ATOM     24  C   UNL A   1      40.720  28.663  29.272  1.00  0.00     0.034 A 
ATOM     25  C   UNL A   1      46.963  27.564  26.343  1.00  0.00     0.034 A 
ATOM     26  C   UNL A   1      41.632  29.772  29.337  1.00  0.00     0.049 A 
ATOM     27  C   UNL A   1      46.596  28.898  26.926  1.00  0.00     0.074 A 
ATOM     28  C   UNL A   1      41.426  31.015  29.908  1.00  0.00     0.029 A 
ATOM     29  N   UNL A   1      42.911  29.781  28.807  1.00  0.00    -0.354 N 
ATOM     30  N   UNL A   1      45.503  29.242  27.559  1.00  0.00    -0.248 NA
ATOM     31  C   UNL A   1      47.589  29.976  26.808  1.00  0.00     0.031 C 
ATOM     32  C   UNL A   1      42.573  31.786  29.703  1.00  0.00     0.029 A 
ATOM     33  C   UNL A   1      43.502  31.012  29.025  1.00  0.00     0.049 A 
ATOM     34  H   UNL A   1      43.337  29.023  28.344  1.00  0.00     0.167 HD
ATOM     35  C   UNL A   1      45.680  30.569  27.933  1.00  0.00     0.074 A 
ATOM     36  C   UNL A   1      46.994  30.964  27.466  1.00  0.00     0.031 C 
ATOM     37  C   UNL A   1      44.825  31.384  28.594  1.00  0.00     0.034 A 
BRANCH  24  38
ATOM     38  C   UNL A   1      39.354  28.856  29.872  1.00  0.00     0.023 A 
ATOM     39  C   UNL A   1      39.098  28.369  31.169  1.00  0.00     0.012 A 
ATOM     40  C   UNL A   1      38.377  29.623  29.210  1.00  0.00     0.148 A 
ATOM     41  C   UNL A   1      37.885  28.640  31.798  1.00  0.00     0.002 A 
ATOM     42  C   UNL A   1      37.180  29.913  29.855  1.00  0.00     0.091 A 
ATOM     43  F   UNL A   1      38.643  30.066  27.973  1.00  0.00    -0.205 F 
ATOM     44  C   UNL A   1      36.932  29.420  31.146  1.00  0.00     0.022 A 
BRANCH  42  45
ATOM     45  S   UNL A   1      35.907  30.951  29.128  1.00  0.00     0.127 S 
ATOM     46  O   UNL A   1      35.169  29.985  28.314  1.00  0.00    -0.237 OA
ATOM     47  O   UNL A   1      35.188  31.426  30.310  1.00  0.00    -0.237 OA
ATOM     48  O   UNL A   1      36.605  31.984  28.377  1.00  0.00    -0.744 OA
ENDBRANCH  42  45
ENDBRANCH  24  38
BRANCH  25  49
ATOM     49  C   UNL A   1      48.292  27.328  25.723  1.00  0.00     0.023 A 
ATOM     50  C   UNL A   1      49.354  26.863  26.522  1.00  0.00     0.012 A 
ATOM     51  C   UNL A   1      48.482  27.480  24.335  1.00  0.00     0.148 A 
ATOM     52  C   UNL A   1      50.587  26.556  25.948  1.00  0.00     0.002 A 
ATOM     53  C   UNL A   1      49.702  27.135  23.766  1.00  0.00     0.091 A 
ATOM     54  F   UNL A   1      47.453  27.921  23.601  1.00  0.00    -0.205 F 
ATOM     55  C   UNL A   1      50.758  26.681  24.572  1.00  0.00     0.022 A 
BRANCH  53  56
ATOM     56  S   UNL A   1      49.990  27.171  21.994  1.00  0.00     0.127 S 
ATOM     57  O   UNL A   1      48.948  26.271  21.504  1.00  0.00    -0.237 OA
ATOM     58  O   UNL A   1      49.778  28.585  21.687  1.00  0.00    -0.237 OA
ATOM     59  O   UNL A   1      51.356  26.705  21.802  1.00  0.00    -0.744 OA
ENDBRANCH  53  56
ENDBRANCH  25  49
BRANCH  37  60
ATOM     60  C   UNL A   1      45.262  32.795  28.878  1.00  0.00     0.023 A 
ATOM     61  C   UNL A   1      46.015  33.065  30.036  1.00  0.00     0.012 A 
ATOM     62  C   UNL A   1      45.048  33.815  27.931  1.00  0.00     0.148 A 
ATOM     63  C   UNL A   1      46.548  34.336  30.251  1.00  0.00     0.002 A 
ATOM     64  C   UNL A   1      45.610  35.069  28.134  1.00  0.00     0.091 A 
ATOM     65  F   UNL A   1      44.324  33.530  26.839  1.00  0.00    -0.205 F 
ATOM     66  C   UNL A   1      46.357  35.332  29.295  1.00  0.00     0.022 A 
BRANCH  64  67
ATOM     67  S   UNL A   1      45.484  36.396  26.929  1.00  0.00     0.127 S 
ATOM     68  O   UNL A   1      46.095  35.784  25.750  1.00  0.00    -0.237 OA
ATOM     69  O   UNL A   1      44.037  36.590  26.836  1.00  0.00    -0.237 OA
ATOM     70  O   UNL A   1      46.216  37.524  27.489  1.00  0.00    -0.744 OA
ENDBRANCH  64  67
ENDBRANCH  37  60
ENDBRANCH  11  12
ENDBRANCH   4   6
ENDBRANCH   1   2
BRANCH   1  71
ATOM     71  C   UNL A   1      38.001  19.797  24.641  1.00  0.00     0.023 C 
BRANCH  71  72
ATOM     72  C   UNL A   1      36.522  19.947  25.001  1.00  0.00     0.023 C 
BRANCH  72  73
ATOM     73  C   UNL A   1      35.962  21.358  24.837  1.00  0.00     0.116 C 
BRANCH  73  74
ATOM     74  N   UNL A   1      34.985  21.677  25.867  1.00  0.00    -0.351 N 
ATOM     75  C   UNL A   1      33.659  21.312  25.922  1.00  0.00     0.269 C 
ATOM     76  H   UNL A   1      35.314  22.221  26.618  1.00  0.00     0.163 HD
ATOM     77  O   UNL A   1      32.909  21.808  26.760  1.00  0.00    -0.268 OA
BRANCH  75  78
ATOM     78  C   UNL A   1      33.121  20.347  24.926  1.00  0.00     0.129 A 
ATOM     79  C   UNL A   1      32.560  20.843  23.754  1.00  0.00     0.038 A 
ATOM     80  N   UNL A   1      33.253  19.025  25.211  1.00  0.00    -0.232 NA
ATOM     81  C   UNL A   1      32.153  19.928  22.788  1.00  0.00     0.051 A 
ATOM     82  C   UNL A   1      32.841  18.166  24.259  1.00  0.00     0.148 A 
ATOM     83  C   UNL A   1      32.305  18.569  23.037  1.00  0.00     0.148 A 
ATOM     84  Br  UNL A   1      33.054  16.314  24.627  1.00  0.00    -0.025 Br
BRANCH  83  85
ATOM     85  O   UNL A   1      31.925  17.703  22.052  1.00  0.00    -0.505 OA
ATOM     86  H   UNL A   1      32.278  16.836  22.029  1.00  0.00     0.293 HD
ENDBRANCH  83  85
ENDBRANCH  75  78
ENDBRANCH  73  74
ENDBRANCH  72  73
ENDBRANCH  71  72
ENDBRANCH   1  71
TORSDOF 15
ENDMDL
