MODEL 1
REMARK VINA RESULT:     -12.2      0.000      0.000
REMARK SMILES COc1cc(C(=O)N[C@H]2CCCC[C@H]2C(=O)NCCCCNC(=O)c2ccc(-c3c4nc(c(-c5cccc(S(=O)(=O)[O-])c5F)c5ccc([nH]5)c(-c5cccc(S(=O)(=O)[O-])c5F)c5nc(c(-c6cccc(S(=O)(=O)[O-])c6F)c6ccc3[nH]6)C=C5)C=C4)cc2)cc(Cl)c1OC
REMARK SMILES IDX 19 1 18 2 17 3 15 4 16 5 14 7 9 8 10 9 11 10 13 11 12 12
REMARK SMILES IDX 8 13 6 14 7 15 5 17 3 18 4 19 91 20 89 21 88 22 90 23 2 24
REMARK SMILES IDX 1 25 92 26 93 27 20 28 21 29 22 30 23 31 24 33 25 34 26 35
REMARK SMILES IDX 87 36 27 37 86 38 28 39 29 40 30 41 80 42 31 43 85 44 79 45
REMARK SMILES IDX 81 46 32 47 84 48 78 49 77 50 33 52 65 53 45 54 64 55 46 56
REMARK SMILES IDX 49 57 63 58 82 59 47 60 48 61 62 63 83 64 50 65 34 66 35 67
REMARK SMILES IDX 43 68 36 69 38 70 44 71 37 72 39 73 40 74 41 75 42 76 66 77
REMARK SMILES IDX 67 78 75 79 68 80 70 81 76 82 69 83 71 84 72 85 73 86 74 87
REMARK SMILES IDX 51 88 52 89 60 90 53 91 55 92 61 93 54 94 56 95 57 96 58 97
REMARK SMILES IDX 59 98
REMARK H PARENT 17 6 8 16 22 32 81 51 49 62
REMARK Flexibility Score: inf
ROOT
ATOM      1  C   UNL A   1      31.763  30.741  26.066  1.00  0.00     0.023 C 
ENDROOT
BRANCH   1   2
ATOM      2  C   UNL A   1      33.011  29.972  26.480  1.00  0.00     0.116 C 
BRANCH   2   3
ATOM      3  N   UNL A   1      33.675  29.275  25.393  1.00  0.00    -0.356 N 
ATOM      4  C   UNL A   1      33.293  28.194  24.662  1.00  0.00     0.225 C 
ATOM      5  O   UNL A   1      34.011  27.849  23.721  1.00  0.00    -0.275 OA
ATOM      6  H   UNL A   1      34.552  29.649  25.143  1.00  0.00     0.163 HD
BRANCH   4   7
ATOM      7  C   UNL A   1      32.016  27.422  24.960  1.00  0.00     0.101 C 
ATOM      8  C   UNL A   1      31.237  26.917  23.711  1.00  0.00     0.094 C 
ATOM      9  C   UNL A   1      30.355  25.680  23.981  1.00  0.00     0.026 C 
ATOM     10  C   UNL A   1      30.965  24.684  24.951  1.00  0.00     0.002 C 
ATOM     11  C   UNL A   1      32.215  26.480  26.167  1.00  0.00     0.015 C 
ATOM     12  C   UNL A   1      31.198  25.360  26.288  1.00  0.00     0.001 C 
BRANCH   8  13
ATOM     13  N   UNL A   1      31.974  26.707  22.460  1.00  0.00    -0.349 N 
ATOM     14  C   UNL A   1      32.833  25.746  21.970  1.00  0.00     0.251 C 
ATOM     15  O   UNL A   1      33.392  26.003  20.900  1.00  0.00    -0.269 OA
ATOM     16  H   UNL A   1      31.818  27.431  21.811  1.00  0.00     0.164 HD
BRANCH  14  17
ATOM     17  C   UNL A   1      33.119  24.426  22.594  1.00  0.00     0.045 A 
ATOM     18  C   UNL A   1      34.328  23.193  24.324  1.00  0.00     0.163 A 
ATOM     19  C   UNL A   1      34.058  24.388  23.642  1.00  0.00     0.064 A 
ATOM     20  C   UNL A   1      33.676  21.997  23.945  1.00  0.00     0.179 A 
ATOM     21  C   UNL A   1      32.766  22.038  22.881  1.00  0.00     0.087 A 
ATOM     22  C   UNL A   1      32.468  23.251  22.247  1.00  0.00     0.038 A 
ATOM     23  Cl  UNL A   1      31.968  20.657  22.204  1.00  0.00    -0.080 Cl
BRANCH  18  24
ATOM     24  O   UNL A   1      35.223  23.082  25.359  1.00  0.00    -0.493 OA
ATOM     25  C   UNL A   1      36.423  23.845  25.305  1.00  0.00     0.278 C 
ENDBRANCH  18  24
BRANCH  20  26
ATOM     26  O   UNL A   1      34.052  20.883  24.653  1.00  0.00    -0.491 OA
ATOM     27  C   UNL A   1      33.116  20.313  25.554  1.00  0.00     0.278 C 
ENDBRANCH  20  26
ENDBRANCH  14  17
ENDBRANCH   8  13
ENDBRANCH   4   7
ENDBRANCH   2   3
ENDBRANCH   1   2
BRANCH   1  28
ATOM     28  C   UNL A   1      31.518  32.037  26.821  1.00  0.00     0.023 C 
BRANCH  28  29
ATOM     29  C   UNL A   1      32.795  32.643  27.378  1.00  0.00     0.116 C 
BRANCH  29  30
ATOM     30  N   UNL A   1      32.622  34.064  27.670  1.00  0.00    -0.352 N 
ATOM     31  C   UNL A   1      33.137  34.792  28.707  1.00  0.00     0.251 C 
ATOM     32  H   UNL A   1      32.058  34.563  27.036  1.00  0.00     0.163 HD
ATOM     33  O   UNL A   1      32.671  35.898  28.982  1.00  0.00    -0.269 OA
BRANCH  31  34
ATOM     34  C   UNL A   1      34.264  34.238  29.474  1.00  0.00     0.039 A 
ATOM     35  C   UNL A   1      34.015  33.423  30.579  1.00  0.00     0.014 A 
ATOM     36  C   UNL A   1      35.573  34.528  29.078  1.00  0.00     0.014 A 
ATOM     37  C   UNL A   1      35.091  32.864  31.267  1.00  0.00     0.010 A 
ATOM     38  C   UNL A   1      36.633  33.890  29.697  1.00  0.00     0.010 A 
ATOM     39  C   UNL A   1      36.404  33.077  30.815  1.00  0.00    -0.014 A 
BRANCH  39  40
ATOM     40  C   UNL A   1      37.567  32.481  31.507  1.00  0.00     0.031 A 
ATOM     41  C   UNL A   1      38.309  31.341  30.863  1.00  0.00     0.074 A 
ATOM     42  C   UNL A   1      37.884  32.900  32.747  1.00  0.00     0.049 A 
ATOM     43  N   UNL A   1      39.302  30.635  31.333  1.00  0.00    -0.248 NA
ATOM     44  C   UNL A   1      37.853  30.915  29.528  1.00  0.00     0.031 C 
ATOM     45  C   UNL A   1      37.170  33.936  33.498  1.00  0.00     0.029 A 
ATOM     46  N   UNL A   1      38.868  32.485  33.605  1.00  0.00    -0.354 N 
ATOM     47  C   UNL A   1      39.559  29.661  30.377  1.00  0.00     0.074 A 
ATOM     48  C   UNL A   1      38.592  29.837  29.318  1.00  0.00     0.031 C 
ATOM     49  C   UNL A   1      37.748  34.083  34.701  1.00  0.00     0.029 A 
ATOM     50  C   UNL A   1      38.847  33.131  34.819  1.00  0.00     0.049 A 
ATOM     51  H   UNL A   1      39.529  31.793  33.374  1.00  0.00     0.167 HD
ATOM     52  C   UNL A   1      40.536  28.725  30.366  1.00  0.00     0.034 A 
ATOM     53  C   UNL A   1      39.624  32.963  35.906  1.00  0.00     0.034 A 
ATOM     54  C   UNL A   1      41.520  28.593  31.405  1.00  0.00     0.049 A 
ATOM     55  C   UNL A   1      40.732  31.949  35.847  1.00  0.00     0.074 A 
ATOM     56  C   UNL A   1      42.611  27.746  31.455  1.00  0.00     0.029 A 
ATOM     57  N   UNL A   1      41.525  29.326  32.582  1.00  0.00    -0.354 N 
ATOM     58  N   UNL A   1      41.064  31.144  34.866  1.00  0.00    -0.248 NA
ATOM     59  C   UNL A   1      41.597  31.843  37.031  1.00  0.00     0.031 C 
ATOM     60  C   UNL A   1      43.260  27.947  32.678  1.00  0.00     0.029 A 
ATOM     61  C   UNL A   1      42.592  28.944  33.373  1.00  0.00     0.049 A 
ATOM     62  H   UNL A   1      40.865  30.018  32.820  1.00  0.00     0.167 HD
ATOM     63  C   UNL A   1      42.194  30.461  35.299  1.00  0.00     0.074 A 
ATOM     64  C   UNL A   1      42.503  30.966  36.621  1.00  0.00     0.031 C 
ATOM     65  C   UNL A   1      42.906  29.495  34.666  1.00  0.00     0.034 A 
BRANCH  52  66
ATOM     66  C   UNL A   1      40.616  27.808  29.173  1.00  0.00     0.023 A 
ATOM     67  C   UNL A   1      39.763  26.688  29.094  1.00  0.00     0.012 A 
ATOM     68  C   UNL A   1      41.500  28.077  28.110  1.00  0.00     0.148 A 
ATOM     69  C   UNL A   1      39.814  25.829  27.996  1.00  0.00     0.002 A 
ATOM     70  C   UNL A   1      41.511  27.245  26.997  1.00  0.00     0.091 A 
ATOM     71  F   UNL A   1      42.321  29.132  28.213  1.00  0.00    -0.205 F 
ATOM     72  C   UNL A   1      40.678  26.114  26.944  1.00  0.00     0.022 A 
BRANCH  70  73
ATOM     73  S   UNL A   1      42.528  27.568  25.553  1.00  0.00     0.127 S 
ATOM     74  O   UNL A   1      43.874  27.534  26.127  1.00  0.00    -0.237 OA
ATOM     75  O   UNL A   1      42.205  26.431  24.690  1.00  0.00    -0.237 OA
ATOM     76  O   UNL A   1      42.102  28.862  25.041  1.00  0.00    -0.744 OA
ENDBRANCH  70  73
ENDBRANCH  52  66
BRANCH  53  77
ATOM     77  C   UNL A   1      39.419  33.820  37.107  1.00  0.00     0.023 A 
ATOM     78  C   UNL A   1      39.831  35.166  37.076  1.00  0.00     0.012 A 
ATOM     79  C   UNL A   1      38.790  33.322  38.264  1.00  0.00     0.148 A 
ATOM     80  C   UNL A   1      39.654  35.991  38.187  1.00  0.00     0.002 A 
ATOM     81  C   UNL A   1      38.565  34.164  39.347  1.00  0.00     0.091 A 
ATOM     82  F   UNL A   1      38.411  32.036  38.278  1.00  0.00    -0.205 F 
ATOM     83  C   UNL A   1      39.013  35.493  39.318  1.00  0.00     0.022 A 
BRANCH  81  84
ATOM     84  S   UNL A   1      37.624  33.649  40.788  1.00  0.00     0.127 S 
ATOM     85  O   UNL A   1      38.526  32.676  41.399  1.00  0.00    -0.237 OA
ATOM     86  O   UNL A   1      37.485  34.907  41.523  1.00  0.00    -0.237 OA
ATOM     87  O   UNL A   1      36.372  33.117  40.269  1.00  0.00    -0.744 OA
ENDBRANCH  81  84
ENDBRANCH  53  77
BRANCH  65  88
ATOM     88  C   UNL A   1      44.111  28.944  35.380  1.00  0.00     0.023 A 
ATOM     89  C   UNL A   1      45.366  29.565  35.223  1.00  0.00     0.012 A 
ATOM     90  C   UNL A   1      43.981  27.856  36.266  1.00  0.00     0.148 A 
ATOM     91  C   UNL A   1      46.482  29.087  35.908  1.00  0.00     0.002 A 
ATOM     92  C   UNL A   1      45.085  27.420  36.986  1.00  0.00     0.091 A 
ATOM     93  F   UNL A   1      42.781  27.271  36.387  1.00  0.00    -0.205 F 
ATOM     94  C   UNL A   1      46.339  28.025  36.798  1.00  0.00     0.022 A 
BRANCH  92  95
ATOM     95  S   UNL A   1      44.974  26.128  38.228  1.00  0.00     0.127 S 
ATOM     96  O   UNL A   1      46.369  25.993  38.643  1.00  0.00    -0.237 OA
ATOM     97  O   UNL A   1      44.097  26.737  39.229  1.00  0.00    -0.237 OA
ATOM     98  O   UNL A   1      44.408  24.968  37.554  1.00  0.00    -0.744 OA
ENDBRANCH  92  95
ENDBRANCH  65  88
ENDBRANCH  39  40
ENDBRANCH  31  34
ENDBRANCH  29  30
ENDBRANCH  28  29
ENDBRANCH   1  28
TORSDOF 18
ENDMDL
MODEL 2
REMARK VINA RESULT:     -12.0      1.520      2.108
REMARK SMILES COc1cc(C(=O)N[C@H]2CCCC[C@H]2C(=O)NCCCCNC(=O)c2ccc(-c3c4nc(c(-c5cccc(S(=O)(=O)[O-])c5F)c5ccc([nH]5)c(-c5cccc(S(=O)(=O)[O-])c5F)c5nc(c(-c6cccc(S(=O)(=O)[O-])c6F)c6ccc3[nH]6)C=C5)C=C4)cc2)cc(Cl)c1OC
REMARK SMILES IDX 19 1 18 2 17 3 15 4 16 5 14 7 9 8 10 9 11 10 13 11 12 12
REMARK SMILES IDX 8 13 6 14 7 15 5 17 3 18 4 19 91 20 89 21 88 22 90 23 2 24
REMARK SMILES IDX 1 25 92 26 93 27 20 28 21 29 22 30 23 31 24 33 25 34 26 35
REMARK SMILES IDX 87 36 27 37 86 38 28 39 29 40 30 41 80 42 31 43 85 44 79 45
REMARK SMILES IDX 81 46 32 47 84 48 78 49 77 50 33 52 65 53 45 54 64 55 46 56
REMARK SMILES IDX 49 57 63 58 82 59 47 60 48 61 62 63 83 64 50 65 34 66 35 67
REMARK SMILES IDX 43 68 36 69 38 70 44 71 37 72 39 73 40 74 41 75 42 76 66 77
REMARK SMILES IDX 67 78 75 79 68 80 70 81 76 82 69 83 71 84 72 85 73 86 74 87
REMARK SMILES IDX 51 88 52 89 60 90 53 91 55 92 61 93 54 94 56 95 57 96 58 97
REMARK SMILES IDX 59 98
REMARK H PARENT 17 6 8 16 22 32 81 51 49 62
REMARK Flexibility Score: inf
ROOT
ATOM      1  C   UNL A   1      34.608  31.260  27.736  1.00  0.00     0.023 C 
ENDROOT
BRANCH   1   2
ATOM      2  C   UNL A   1      34.225  29.901  27.166  1.00  0.00     0.116 C 
BRANCH   2   3
ATOM      3  N   UNL A   1      33.011  29.335  27.725  1.00  0.00    -0.356 N 
ATOM      4  C   UNL A   1      32.008  28.623  27.143  1.00  0.00     0.225 C 
ATOM      5  O   UNL A   1      31.120  28.176  27.872  1.00  0.00    -0.275 OA
ATOM      6  H   UNL A   1      32.893  29.495  28.690  1.00  0.00     0.163 HD
BRANCH   4   7
ATOM      7  C   UNL A   1      31.965  28.355  25.646  1.00  0.00     0.101 C 
ATOM      8  C   UNL A   1      31.963  26.854  25.239  1.00  0.00     0.094 C 
ATOM      9  C   UNL A   1      31.321  26.579  23.863  1.00  0.00     0.026 C 
ATOM     10  C   UNL A   1      30.117  27.452  23.555  1.00  0.00     0.002 C 
ATOM     11  C   UNL A   1      31.004  29.338  24.943  1.00  0.00     0.015 C 
ATOM     12  C   UNL A   1      30.536  28.909  23.564  1.00  0.00     0.001 C 
BRANCH   8  13
ATOM     13  N   UNL A   1      31.461  25.865  26.199  1.00  0.00    -0.349 N 
ATOM     14  C   UNL A   1      31.742  24.548  26.498  1.00  0.00     0.251 C 
ATOM     15  O   UNL A   1      30.978  23.990  27.290  1.00  0.00    -0.269 OA
ATOM     16  H   UNL A   1      30.749  26.232  26.772  1.00  0.00     0.164 HD
BRANCH  14  17
ATOM     17  C   UNL A   1      32.890  23.758  25.979  1.00  0.00     0.045 A 
ATOM     18  C   UNL A   1      33.630  21.816  24.691  1.00  0.00     0.163 A 
ATOM     19  C   UNL A   1      32.603  22.577  25.269  1.00  0.00     0.064 A 
ATOM     20  C   UNL A   1      34.978  22.215  24.841  1.00  0.00     0.179 A 
ATOM     21  C   UNL A   1      35.256  23.375  25.575  1.00  0.00     0.087 A 
ATOM     22  C   UNL A   1      34.215  24.152  26.099  1.00  0.00     0.038 A 
ATOM     23  Cl  UNL A   1      36.845  23.947  25.963  1.00  0.00    -0.080 Cl
BRANCH  18  24
ATOM     24  O   UNL A   1      33.425  20.660  23.979  1.00  0.00    -0.493 OA
ATOM     25  C   UNL A   1      32.749  19.581  24.614  1.00  0.00     0.278 C 
ENDBRANCH  18  24
BRANCH  20  26
ATOM     26  O   UNL A   1      35.899  21.371  24.272  1.00  0.00    -0.491 OA
ATOM     27  C   UNL A   1      36.615  20.488  25.121  1.00  0.00     0.278 C 
ENDBRANCH  20  26
ENDBRANCH  14  17
ENDBRANCH   8  13
ENDBRANCH   4   7
ENDBRANCH   2   3
ENDBRANCH   1   2
BRANCH   1  28
ATOM     28  C   UNL A   1      33.451  32.223  27.951  1.00  0.00     0.023 C 
BRANCH  28  29
ATOM     29  C   UNL A   1      33.623  33.527  27.191  1.00  0.00     0.116 C 
BRANCH  29  30
ATOM     30  N   UNL A   1      33.038  34.646  27.925  1.00  0.00    -0.352 N 
ATOM     31  C   UNL A   1      33.210  34.991  29.238  1.00  0.00     0.251 C 
ATOM     32  H   UNL A   1      32.440  35.230  27.406  1.00  0.00     0.163 HD
ATOM     33  O   UNL A   1      32.432  35.776  29.782  1.00  0.00    -0.269 OA
BRANCH  31  34
ATOM     34  C   UNL A   1      34.346  34.421  29.980  1.00  0.00     0.039 A 
ATOM     35  C   UNL A   1      34.111  33.643  31.114  1.00  0.00     0.014 A 
ATOM     36  C   UNL A   1      35.648  34.658  29.531  1.00  0.00     0.014 A 
ATOM     37  C   UNL A   1      35.193  33.068  31.779  1.00  0.00     0.010 A 
ATOM     38  C   UNL A   1      36.709  34.002  30.130  1.00  0.00     0.010 A 
ATOM     39  C   UNL A   1      36.495  33.226  31.276  1.00  0.00    -0.014 A 
BRANCH  39  40
ATOM     40  C   UNL A   1      37.662  32.611  31.943  1.00  0.00     0.031 A 
ATOM     41  C   UNL A   1      38.371  31.458  31.284  1.00  0.00     0.074 A 
ATOM     42  C   UNL A   1      38.014  33.025  33.175  1.00  0.00     0.049 A 
ATOM     43  N   UNL A   1      39.362  30.736  31.733  1.00  0.00    -0.248 NA
ATOM     44  C   UNL A   1      37.877  31.038  29.960  1.00  0.00     0.031 C 
ATOM     45  C   UNL A   1      37.335  34.074  33.940  1.00  0.00     0.029 A 
ATOM     46  N   UNL A   1      39.010  32.595  34.011  1.00  0.00    -0.354 N 
ATOM     47  C   UNL A   1      39.580  29.756  30.772  1.00  0.00     0.074 A 
ATOM     48  C   UNL A   1      38.593  29.947  29.735  1.00  0.00     0.031 C 
ATOM     49  C   UNL A   1      37.942  34.213  35.130  1.00  0.00     0.029 A 
ATOM     50  C   UNL A   1      39.027  33.242  35.225  1.00  0.00     0.049 A 
ATOM     51  H   UNL A   1      39.654  31.891  33.766  1.00  0.00     0.167 HD
ATOM     52  C   UNL A   1      40.541  28.803  30.741  1.00  0.00     0.034 A 
ATOM     53  C   UNL A   1      39.825  33.062  36.294  1.00  0.00     0.034 A 
ATOM     54  C   UNL A   1      41.545  28.655  31.758  1.00  0.00     0.049 A 
ATOM     55  C   UNL A   1      40.914  32.029  36.212  1.00  0.00     0.074 A 
ATOM     56  C   UNL A   1      42.622  27.790  31.785  1.00  0.00     0.029 A 
ATOM     57  N   UNL A   1      41.588  29.390  32.934  1.00  0.00    -0.354 N 
ATOM     58  N   UNL A   1      41.210  31.217  35.225  1.00  0.00    -0.248 NA
ATOM     59  C   UNL A   1      41.803  31.910  37.376  1.00  0.00     0.031 C 
ATOM     60  C   UNL A   1      43.301  27.981  32.993  1.00  0.00     0.029 A 
ATOM     61  C   UNL A   1      42.667  28.990  33.702  1.00  0.00     0.049 A 
ATOM     62  H   UNL A   1      40.946  30.093  33.186  1.00  0.00     0.167 HD
ATOM     63  C   UNL A   1      42.338  30.516  35.634  1.00  0.00     0.074 A 
ATOM     64  C   UNL A   1      42.685  31.017  36.948  1.00  0.00     0.031 C 
ATOM     65  C   UNL A   1      43.018  29.537  34.987  1.00  0.00     0.034 A 
BRANCH  52  66
ATOM     66  C   UNL A   1      40.578  27.884  29.548  1.00  0.00     0.023 A 
ATOM     67  C   UNL A   1      39.706  26.777  29.491  1.00  0.00     0.012 A 
ATOM     68  C   UNL A   1      41.440  28.139  28.464  1.00  0.00     0.148 A 
ATOM     69  C   UNL A   1      39.718  25.916  28.394  1.00  0.00     0.002 A 
ATOM     70  C   UNL A   1      41.412  27.305  27.352  1.00  0.00     0.091 A 
ATOM     71  F   UNL A   1      42.279  29.181  28.545  1.00  0.00    -0.205 F 
ATOM     72  C   UNL A   1      40.561  26.186  27.321  1.00  0.00     0.022 A 
BRANCH  70  73
ATOM     73  S   UNL A   1      42.399  27.611  25.884  1.00  0.00     0.127 S 
ATOM     74  O   UNL A   1      41.989  28.970  25.530  1.00  0.00    -0.237 OA
ATOM     75  O   UNL A   1      43.763  27.502  26.404  1.00  0.00    -0.237 OA
ATOM     76  O   UNL A   1      42.029  26.580  24.926  1.00  0.00    -0.744 OA
ENDBRANCH  70  73
ENDBRANCH  52  66
BRANCH  53  77
ATOM     77  C   UNL A   1      39.662  33.923  37.498  1.00  0.00     0.023 A 
ATOM     78  C   UNL A   1      40.202  35.223  37.498  1.00  0.00     0.012 A 
ATOM     79  C   UNL A   1      38.948  33.478  38.627  1.00  0.00     0.148 A 
ATOM     80  C   UNL A   1      40.066  36.051  38.612  1.00  0.00     0.002 A 
ATOM     81  C   UNL A   1      38.767  34.328  39.712  1.00  0.00     0.091 A 
ATOM     82  F   UNL A   1      38.446  32.235  38.612  1.00  0.00    -0.205 F 
ATOM     83  C   UNL A   1      39.341  35.608  39.715  1.00  0.00     0.022 A 
BRANCH  81  84
ATOM     84  S   UNL A   1      37.732  33.892  41.114  1.00  0.00     0.127 S 
ATOM     85  O   UNL A   1      38.637  33.066  41.907  1.00  0.00    -0.237 OA
ATOM     86  O   UNL A   1      37.433  35.206  41.688  1.00  0.00    -0.237 OA
ATOM     87  O   UNL A   1      36.576  33.209  40.550  1.00  0.00    -0.744 OA
ENDBRANCH  81  84
ENDBRANCH  53  77
BRANCH  65  88
ATOM     88  C   UNL A   1      44.230  28.966  35.674  1.00  0.00     0.023 A 
ATOM     89  C   UNL A   1      45.500  29.529  35.443  1.00  0.00     0.012 A 
ATOM     90  C   UNL A   1      44.094  27.920  36.608  1.00  0.00     0.148 A 
ATOM     91  C   UNL A   1      46.624  29.034  36.102  1.00  0.00     0.002 A 
ATOM     92  C   UNL A   1      45.209  27.468  37.301  1.00  0.00     0.091 A 
ATOM     93  F   UNL A   1      42.878  27.388  36.800  1.00  0.00    -0.205 F 
ATOM     94  C   UNL A   1      46.477  28.014  37.039  1.00  0.00     0.022 A 
BRANCH  92  95
ATOM     95  S   UNL A   1      45.099  26.231  38.598  1.00  0.00     0.127 S 
ATOM     96  O   UNL A   1      44.301  25.191  37.950  1.00  0.00    -0.237 OA
ATOM     97  O   UNL A   1      46.504  25.878  38.808  1.00  0.00    -0.237 OA
ATOM     98  O   UNL A   1      44.465  26.890  39.731  1.00  0.00    -0.744 OA
ENDBRANCH  92  95
ENDBRANCH  65  88
ENDBRANCH  39  40
ENDBRANCH  31  34
ENDBRANCH  29  30
ENDBRANCH  28  29
ENDBRANCH   1  28
TORSDOF 18
ENDMDL
MODEL 3
REMARK VINA RESULT:     -11.9      1.673      7.901
REMARK SMILES COc1cc(C(=O)N[C@H]2CCCC[C@H]2C(=O)NCCCCNC(=O)c2ccc(-c3c4nc(c(-c5cccc(S(=O)(=O)[O-])c5F)c5ccc([nH]5)c(-c5cccc(S(=O)(=O)[O-])c5F)c5nc(c(-c6cccc(S(=O)(=O)[O-])c6F)c6ccc3[nH]6)C=C5)C=C4)cc2)cc(Cl)c1OC
REMARK SMILES IDX 19 1 18 2 17 3 15 4 16 5 14 7 9 8 10 9 11 10 13 11 12 12
REMARK SMILES IDX 8 13 6 14 7 15 5 17 3 18 4 19 91 20 89 21 88 22 90 23 2 24
REMARK SMILES IDX 1 25 92 26 93 27 20 28 21 29 22 30 23 31 24 33 25 34 26 35
REMARK SMILES IDX 87 36 27 37 86 38 28 39 29 40 30 41 80 42 31 43 85 44 79 45
REMARK SMILES IDX 81 46 32 47 84 48 78 49 77 50 33 52 65 53 45 54 64 55 46 56
REMARK SMILES IDX 49 57 63 58 82 59 47 60 48 61 62 63 83 64 50 65 34 66 35 67
REMARK SMILES IDX 43 68 36 69 38 70 44 71 37 72 39 73 40 74 41 75 42 76 66 77
REMARK SMILES IDX 67 78 75 79 68 80 70 81 76 82 69 83 71 84 72 85 73 86 74 87
REMARK SMILES IDX 51 88 52 89 60 90 53 91 55 92 61 93 54 94 56 95 57 96 58 97
REMARK SMILES IDX 59 98
REMARK H PARENT 17 6 8 16 22 32 81 51 49 62
REMARK Flexibility Score: inf
ROOT
ATOM      1  C   UNL A   1      34.313  31.185  27.830  1.00  0.00     0.023 C 
ENDROOT
BRANCH   1   2
ATOM      2  C   UNL A   1      34.056  29.830  27.184  1.00  0.00     0.116 C 
BRANCH   2   3
ATOM      3  N   UNL A   1      32.924  29.108  27.735  1.00  0.00    -0.356 N 
ATOM      4  C   UNL A   1      32.042  28.252  27.151  1.00  0.00     0.225 C 
ATOM      5  O   UNL A   1      31.213  27.695  27.873  1.00  0.00    -0.275 OA
ATOM      6  H   UNL A   1      32.767  29.265  28.694  1.00  0.00     0.163 HD
BRANCH   4   7
ATOM      7  C   UNL A   1      32.065  27.956  25.658  1.00  0.00     0.101 C 
ATOM      8  C   UNL A   1      31.940  26.453  25.276  1.00  0.00     0.094 C 
ATOM      9  C   UNL A   1      31.360  26.211  23.867  1.00  0.00     0.026 C 
ATOM     10  C   UNL A   1      30.268  27.189  23.470  1.00  0.00     0.002 C 
ATOM     11  C   UNL A   1      31.249  29.012  24.880  1.00  0.00     0.015 C 
ATOM     12  C   UNL A   1      30.826  28.599  23.482  1.00  0.00     0.001 C 
BRANCH   8  13
ATOM     13  N   UNL A   1      31.287  25.540  26.219  1.00  0.00    -0.349 N 
ATOM     14  C   UNL A   1      31.512  24.254  26.664  1.00  0.00     0.251 C 
ATOM     15  O   UNL A   1      30.629  23.752  27.365  1.00  0.00    -0.269 OA
ATOM     16  H   UNL A   1      30.491  25.943  26.636  1.00  0.00     0.164 HD
BRANCH  14  17
ATOM     17  C   UNL A   1      32.728  23.438  26.405  1.00  0.00     0.045 A 
ATOM     18  C   UNL A   1      33.646  21.239  25.857  1.00  0.00     0.163 A 
ATOM     19  C   UNL A   1      32.554  22.059  26.176  1.00  0.00     0.064 A 
ATOM     20  C   UNL A   1      34.948  21.785  25.789  1.00  0.00     0.179 A 
ATOM     21  C   UNL A   1      35.116  23.151  26.048  1.00  0.00     0.087 A 
ATOM     22  C   UNL A   1      34.008  23.966  26.312  1.00  0.00     0.038 A 
ATOM     23  Cl  UNL A   1      36.643  23.965  26.128  1.00  0.00    -0.080 Cl
BRANCH  18  24
ATOM     24  O   UNL A   1      33.550  19.891  25.614  1.00  0.00    -0.493 OA
ATOM     25  C   UNL A   1      32.812  19.455  24.478  1.00  0.00     0.278 C 
ENDBRANCH  18  24
BRANCH  20  26
ATOM     26  O   UNL A   1      35.942  20.880  25.513  1.00  0.00    -0.491 OA
ATOM     27  C   UNL A   1      36.847  21.176  24.461  1.00  0.00     0.278 C 
ENDBRANCH  20  26
ENDBRANCH  14  17
ENDBRANCH   8  13
ENDBRANCH   4   7
ENDBRANCH   2   3
ENDBRANCH   1   2
BRANCH   1  28
ATOM     28  C   UNL A   1      33.154  32.167  27.763  1.00  0.00     0.023 C 
BRANCH  28  29
ATOM     29  C   UNL A   1      33.586  33.556  27.328  1.00  0.00     0.116 C 
BRANCH  29  30
ATOM     30  N   UNL A   1      32.994  34.585  28.180  1.00  0.00    -0.352 N 
ATOM     31  C   UNL A   1      33.165  34.784  29.523  1.00  0.00     0.251 C 
ATOM     32  H   UNL A   1      32.391  35.217  27.728  1.00  0.00     0.163 HD
ATOM     33  O   UNL A   1      32.382  35.499  30.150  1.00  0.00    -0.269 OA
BRANCH  31  34
ATOM     34  C   UNL A   1      34.305  34.143  30.198  1.00  0.00     0.039 A 
ATOM     35  C   UNL A   1      34.075  33.197  31.197  1.00  0.00     0.014 A 
ATOM     36  C   UNL A   1      35.607  34.484  29.819  1.00  0.00     0.014 A 
ATOM     37  C   UNL A   1      35.162  32.562  31.793  1.00  0.00     0.010 A 
ATOM     38  C   UNL A   1      36.677  33.778  30.338  1.00  0.00     0.010 A 
ATOM     39  C   UNL A   1      36.468  32.833  31.350  1.00  0.00    -0.014 A 
BRANCH  39  40
ATOM     40  C   UNL A   1      37.642  32.160  31.945  1.00  0.00     0.031 A 
ATOM     41  C   UNL A   1      38.201  32.658  33.250  1.00  0.00     0.074 A 
ATOM     42  C   UNL A   1      38.255  31.174  31.263  1.00  0.00     0.049 A 
ATOM     43  N   UNL A   1      39.260  32.258  33.899  1.00  0.00    -0.248 NA
ATOM     44  C   UNL A   1      37.494  33.780  33.895  1.00  0.00     0.031 C 
ATOM     45  C   UNL A   1      37.848  30.677  29.946  1.00  0.00     0.029 A 
ATOM     46  N   UNL A   1      39.367  30.434  31.568  1.00  0.00    -0.354 N 
ATOM     47  C   UNL A   1      39.372  33.101  34.998  1.00  0.00     0.074 A 
ATOM     48  C   UNL A   1      38.297  34.063  34.908  1.00  0.00     0.031 C 
ATOM     49  C   UNL A   1      38.693  29.706  29.562  1.00  0.00     0.029 A 
ATOM     50  C   UNL A   1      39.718  29.538  30.586  1.00  0.00     0.049 A 
ATOM     51  H   UNL A   1      39.866  30.533  32.411  1.00  0.00     0.167 HD
ATOM     52  C   UNL A   1      40.269  33.055  36.010  1.00  0.00     0.034 A 
ATOM     53  C   UNL A   1      40.757  28.683  30.521  1.00  0.00     0.034 A 
ATOM     54  C   UNL A   1      41.303  32.063  36.109  1.00  0.00     0.049 A 
ATOM     55  C   UNL A   1      41.710  28.621  31.681  1.00  0.00     0.074 A 
ATOM     56  C   UNL A   1      42.207  31.861  37.135  1.00  0.00     0.029 A 
ATOM     57  N   UNL A   1      41.575  31.109  35.139  1.00  0.00    -0.354 N 
ATOM     58  N   UNL A   1      41.705  29.318  32.793  1.00  0.00    -0.248 NA
ATOM     59  C   UNL A   1      42.792  27.630  31.598  1.00  0.00     0.031 C 
ATOM     60  C   UNL A   1      43.046  30.802  36.771  1.00  0.00     0.029 A 
ATOM     61  C   UNL A   1      42.641  30.322  35.535  1.00  0.00     0.049 A 
ATOM     62  H   UNL A   1      41.081  31.007  34.293  1.00  0.00     0.167 HD
ATOM     63  C   UNL A   1      42.759  28.828  33.555  1.00  0.00     0.074 A 
ATOM     64  C   UNL A   1      43.364  27.758  32.787  1.00  0.00     0.031 C 
ATOM     65  C   UNL A   1      43.195  29.233  34.774  1.00  0.00     0.034 A 
BRANCH  52  66
ATOM     66  C   UNL A   1      40.137  34.076  37.111  1.00  0.00     0.023 A 
ATOM     67  C   UNL A   1      40.616  35.387  36.909  1.00  0.00     0.012 A 
ATOM     68  C   UNL A   1      39.501  33.754  38.325  1.00  0.00     0.148 A 
ATOM     69  C   UNL A   1      40.499  36.350  37.911  1.00  0.00     0.002 A 
ATOM     70  C   UNL A   1      39.343  34.732  39.300  1.00  0.00     0.091 A 
ATOM     71  F   UNL A   1      39.074  32.496  38.509  1.00  0.00    -0.205 F 
ATOM     72  C   UNL A   1      39.853  36.026  39.100  1.00  0.00     0.022 A 
BRANCH  70  73
ATOM     73  S   UNL A   1      38.456  34.441  40.834  1.00  0.00     0.127 S 
ATOM     74  O   UNL A   1      37.284  33.703  40.361  1.00  0.00    -0.237 OA
ATOM     75  O   UNL A   1      39.415  33.639  41.594  1.00  0.00    -0.237 OA
ATOM     76  O   UNL A   1      38.179  35.754  41.395  1.00  0.00    -0.744 OA
ENDBRANCH  70  73
ENDBRANCH  52  66
BRANCH  53  77
ATOM     77  C   UNL A   1      40.904  27.779  29.346  1.00  0.00     0.023 A 
ATOM     78  C   UNL A   1      40.199  26.561  29.318  1.00  0.00     0.012 A 
ATOM     79  C   UNL A   1      41.709  28.132  28.246  1.00  0.00     0.148 A 
ATOM     80  C   UNL A   1      40.320  25.694  28.231  1.00  0.00     0.002 A 
ATOM     81  C   UNL A   1      41.781  27.290  27.142  1.00  0.00     0.091 A 
ATOM     82  F   UNL A   1      42.378  29.293  28.294  1.00  0.00    -0.205 F 
ATOM     83  C   UNL A   1      41.102  26.062  27.141  1.00  0.00     0.022 A 
BRANCH  81  84
ATOM     84  S   UNL A   1      42.650  27.747  25.638  1.00  0.00     0.127 S 
ATOM     85  O   UNL A   1      44.011  27.945  26.129  1.00  0.00    -0.237 OA
ATOM     86  O   UNL A   1      42.461  26.556  24.807  1.00  0.00    -0.237 OA
ATOM     87  O   UNL A   1      41.974  28.937  25.140  1.00  0.00    -0.744 OA
ENDBRANCH  81  84
ENDBRANCH  53  77
BRANCH  65  88
ATOM     88  C   UNL A   1      44.363  28.494  35.371  1.00  0.00     0.023 A 
ATOM     89  C   UNL A   1      45.677  28.847  35.009  1.00  0.00     0.012 A 
ATOM     90  C   UNL A   1      44.155  27.503  36.350  1.00  0.00     0.148 A 
ATOM     91  C   UNL A   1      46.768  28.196  35.584  1.00  0.00     0.002 A 
ATOM     92  C   UNL A   1      45.247  26.897  36.958  1.00  0.00     0.091 A 
ATOM     93  F   UNL A   1      42.895  27.172  36.668  1.00  0.00    -0.205 F 
ATOM     94  C   UNL A   1      46.553  27.232  36.566  1.00  0.00     0.022 A 
BRANCH  92  95
ATOM     95  S   UNL A   1      45.068  25.721  38.303  1.00  0.00     0.127 S 
ATOM     96  O   UNL A   1      44.106  26.401  39.168  1.00  0.00    -0.237 OA
ATOM     97  O   UNL A   1      44.542  24.542  37.614  1.00  0.00    -0.237 OA
ATOM     98  O   UNL A   1      46.400  25.547  38.866  1.00  0.00    -0.744 OA
ENDBRANCH  92  95
ENDBRANCH  65  88
ENDBRANCH  39  40
ENDBRANCH  31  34
ENDBRANCH  29  30
ENDBRANCH  28  29
ENDBRANCH   1  28
TORSDOF 18
ENDMDL
