MODEL 1
REMARK VINA RESULT:     -15.0      0.000      0.000
REMARK SMILES Cc1ccc(C2=NN(C(=O)CCC(=O)NCCCCNC(=O)c3ccc(-c4c5nc(c(-c6cccc(S(=O)(=O)[O-])c6F)c6ccc([nH]6)c(-c6cccc(S(=O)(=O)[O-])c6F)c6nc(c(-c7cccc(S(=O)(=O)[O-])c7F)c7ccc4[nH]7)C=C6)C=C5)cc3)[C@H](C[C@@H]3C=c4cccc(C)c4=NC3=O)C2)cc1
REMARK SMILES IDX 16 1 15 2 13 3 14 4 12 6 11 7 9 8 10 9 8 10 6 11 7 12 100 13
REMARK SMILES IDX 86 14 5 15 1 16 2 17 3 18 102 19 4 20 101 21 87 22 88 23
REMARK SMILES IDX 89 24 98 25 90 26 97 27 99 28 91 29 96 30 92 31 94 32 93 33
REMARK SMILES IDX 95 34 17 35 18 36 19 37 20 38 21 39 22 41 23 42 24 43 85 44
REMARK SMILES IDX 25 45 84 46 26 47 27 48 28 49 78 50 29 51 83 52 77 53 79 54
REMARK SMILES IDX 30 55 82 56 76 57 75 58 31 60 63 61 43 62 62 63 44 64 47 65
REMARK SMILES IDX 61 66 80 67 45 68 46 69 60 71 81 72 48 73 32 74 33 75 41 76
REMARK SMILES IDX 34 77 36 78 42 79 35 80 37 81 38 82 39 83 40 84 64 85 65 86
REMARK SMILES IDX 73 87 66 88 68 89 74 90 67 91 69 92 70 93 71 94 72 95 49 96
REMARK SMILES IDX 50 97 58 98 51 99 53 100 59 101 52 102 54 103 55 104 56 105
REMARK SMILES IDX 57 106
REMARK H PARENT 15 5 20 40 79 59 47 70
REMARK Flexibility Score: inf
ROOT
ATOM      1  C   UNL A   1      34.414  21.180  25.294  1.00  0.00     0.116 C 
ENDROOT
BRANCH   1   2
ATOM      2  N   UNL A   1      33.604  21.433  26.659  1.00  0.00    -0.356 N 
ATOM      3  C   UNL A   1      32.999  22.485  27.268  1.00  0.00     0.220 C 
ATOM      4  O   UNL A   1      32.576  22.291  28.412  1.00  0.00    -0.275 OA
ATOM      5  H   UNL A   1      33.526  20.611  27.194  1.00  0.00     0.163 HD
BRANCH   3   6
ATOM      6  C   UNL A   1      32.837  23.847  26.631  1.00  0.00     0.110 C 
BRANCH   6   7
ATOM      7  C   UNL A   1      31.448  24.360  26.301  1.00  0.00     0.112 C 
BRANCH   7   8
ATOM      8  C   UNL A   1      31.343  24.972  24.918  1.00  0.00     0.243 C 
ATOM      9  O   UNL A   1      31.195  24.268  23.923  1.00  0.00    -0.273 OA
BRANCH   8  10
ATOM     10  N   UNL A   1      31.558  26.373  24.896  1.00  0.00    -0.230 N 
ATOM     11  C   UNL A   1      30.939  28.509  23.092  1.00  0.00     0.070 C 
ATOM     12  N   UNL A   1      30.314  27.314  23.910  1.00  0.00    -0.174 NA
ATOM     13  C   UNL A   1      33.046  28.487  23.330  1.00  0.00     0.086 C 
ATOM     14  C   UNL A   1      33.285  27.127  24.825  1.00  0.00     0.118 C 
BRANCH  11  15
ATOM     15  C   UNL A   1      29.754  29.710  22.812  1.00  0.00    -0.002 A 
ATOM     16  C   UNL A   1      27.660  33.053  20.952  1.00  0.00     0.044 C 
ATOM     17  C   UNL A   1      28.148  31.851  21.707  1.00  0.00    -0.051 A 
ATOM     18  C   UNL A   1      28.004  30.524  21.281  1.00  0.00     0.004 A 
ATOM     19  C   UNL A   1      28.904  32.067  22.833  1.00  0.00     0.004 A 
ATOM     20  C   UNL A   1      28.788  29.463  21.832  1.00  0.00     0.010 A 
ATOM     21  C   UNL A   1      29.620  31.004  23.393  1.00  0.00     0.010 A 
ENDBRANCH  11  15
BRANCH  14  22
ATOM     22  C   UNL A   1      33.768  27.492  26.416  1.00  0.00     0.045 C 
BRANCH  22  23
ATOM     23  C   UNL A   1      33.974  29.029  26.762  1.00  0.00     0.106 C 
ATOM     24  C   UNL A   1      34.936  29.392  27.869  1.00  0.00    -0.003 C 
ATOM     25  C   UNL A   1      32.766  29.947  27.035  1.00  0.00     0.253 C 
ATOM     26  C   UNL A   1      35.338  30.658  27.956  1.00  0.00    -0.003 A 
ATOM     27  N   UNL A   1      33.046  31.297  27.294  1.00  0.00    -0.212 NA
ATOM     28  O   UNL A   1      31.618  29.519  26.960  1.00  0.00    -0.272 OA
ATOM     29  C   UNL A   1      36.675  31.081  28.285  1.00  0.00     0.010 A 
ATOM     30  C   UNL A   1      34.235  31.628  27.711  1.00  0.00     0.077 A 
ATOM     31  C   UNL A   1      36.966  32.384  28.341  1.00  0.00     0.001 A 
ATOM     32  C   UNL A   1      34.609  33.031  28.140  1.00  0.00    -0.025 A 
ATOM     33  C   UNL A   1      35.899  33.354  28.364  1.00  0.00     0.005 A 
ATOM     34  C   UNL A   1      33.498  33.951  28.523  1.00  0.00     0.047 C 
ENDBRANCH  22  23
ENDBRANCH  14  22
ENDBRANCH   8  10
ENDBRANCH   7   8
ENDBRANCH   6   7
ENDBRANCH   3   6
ENDBRANCH   1   2
BRANCH   1  35
ATOM     35  C   UNL A   1      36.401  20.266  24.975  1.00  0.00     0.023 C 
BRANCH  35  36
ATOM     36  C   UNL A   1      37.974  21.256  25.404  1.00  0.00     0.023 C 
BRANCH  36  37
ATOM     37  C   UNL A   1      38.157  23.008  25.011  1.00  0.00     0.116 C 
BRANCH  37  38
ATOM     38  N   UNL A   1      38.634  23.953  26.080  1.00  0.00    -0.352 N 
ATOM     39  C   UNL A   1      39.485  23.883  27.168  1.00  0.00     0.251 C 
ATOM     40  H   UNL A   1      38.238  24.849  25.980  1.00  0.00     0.163 HD
ATOM     41  O   UNL A   1      39.144  24.485  28.188  1.00  0.00    -0.269 OA
BRANCH  39  42
ATOM     42  C   UNL A   1      40.917  23.503  26.972  1.00  0.00     0.039 A 
ATOM     43  C   UNL A   1      41.616  23.512  28.205  1.00  0.00     0.014 A 
ATOM     44  C   UNL A   1      41.382  24.297  25.930  1.00  0.00     0.014 A 
ATOM     45  C   UNL A   1      42.299  24.664  28.567  1.00  0.00     0.010 A 
ATOM     46  C   UNL A   1      41.881  25.512  26.323  1.00  0.00     0.010 A 
ATOM     47  C   UNL A   1      42.266  25.707  27.665  1.00  0.00    -0.014 A 
BRANCH  47  48
ATOM     48  C   UNL A   1      42.661  27.062  27.972  1.00  0.00     0.031 A 
ATOM     49  C   UNL A   1      41.559  28.026  28.090  1.00  0.00     0.074 A 
ATOM     50  C   UNL A   1      43.814  27.152  28.674  1.00  0.00     0.049 A 
ATOM     51  N   UNL A   1      41.709  29.272  28.364  1.00  0.00    -0.248 NA
ATOM     52  C   UNL A   1      40.154  27.644  27.871  1.00  0.00     0.031 C 
ATOM     53  C   UNL A   1      44.057  27.948  29.866  1.00  0.00     0.029 A 
ATOM     54  N   UNL A   1      45.047  26.547  28.409  1.00  0.00    -0.354 N 
ATOM     55  C   UNL A   1      40.476  29.657  28.839  1.00  0.00     0.074 A 
ATOM     56  C   UNL A   1      39.527  28.765  28.235  1.00  0.00     0.031 C 
ATOM     57  C   UNL A   1      45.375  27.962  30.118  1.00  0.00     0.029 A 
ATOM     58  C   UNL A   1      46.044  27.358  28.978  1.00  0.00     0.049 A 
ATOM     59  H   UNL A   1      45.191  25.708  27.913  1.00  0.00     0.167 HD
ATOM     60  C   UNL A   1      40.425  30.452  29.942  1.00  0.00     0.034 A 
ATOM     61  C   UNL A   1      47.048  27.946  28.262  1.00  0.00     0.034 A 
ATOM     62  C   UNL A   1      41.755  30.989  30.278  1.00  0.00     0.049 A 
ATOM     63  C   UNL A   1      46.884  29.463  28.202  1.00  0.00     0.074 A 
ATOM     64  C   UNL A   1      42.599  30.883  31.367  1.00  0.00     0.029 A 
ATOM     65  N   UNL A   1      42.517  31.572  29.267  1.00  0.00    -0.354 N 
ATOM     66  N   UNL A   1      46.046  30.158  28.928  1.00  0.00    -0.248 NA
ATOM     67  C   UNL A   1      47.616  30.313  27.264  1.00  0.00     0.031 C 
ATOM     68  C   UNL A   1      43.908  31.289  30.952  1.00  0.00     0.029 A 
ATOM     69  C   UNL A   1      43.848  31.697  29.629  1.00  0.00     0.049 A 
ATOM     70  H   UNL A   1      42.153  31.860  28.399  1.00  0.00     0.167 HD
ATOM     71  C   UNL A   1      45.895  31.407  28.376  1.00  0.00     0.074 A 
ATOM     72  C   UNL A   1      47.011  31.500  27.448  1.00  0.00     0.031 C 
ATOM     73  C   UNL A   1      44.805  32.203  28.635  1.00  0.00     0.034 A 
BRANCH  60  74
ATOM     74  C   UNL A   1      39.205  30.594  30.836  1.00  0.00     0.023 A 
ATOM     75  C   UNL A   1      38.466  29.420  31.084  1.00  0.00     0.012 A 
ATOM     76  C   UNL A   1      38.688  31.787  31.411  1.00  0.00     0.148 A 
ATOM     77  C   UNL A   1      37.314  29.417  31.878  1.00  0.00     0.002 A 
ATOM     78  C   UNL A   1      37.604  31.766  32.291  1.00  0.00     0.091 A 
ATOM     79  F   UNL A   1      39.156  32.981  31.028  1.00  0.00    -0.205 F 
ATOM     80  C   UNL A   1      36.902  30.581  32.513  1.00  0.00     0.022 A 
BRANCH  78  81
ATOM     81  S   UNL A   1      37.079  33.221  33.222  1.00  0.00     0.127 S 
ATOM     82  O   UNL A   1      38.342  33.708  33.775  1.00  0.00    -0.237 OA
ATOM     83  O   UNL A   1      36.503  34.069  32.179  1.00  0.00    -0.237 OA
ATOM     84  O   UNL A   1      36.113  32.746  34.208  1.00  0.00    -0.744 OA
ENDBRANCH  78  81
ENDBRANCH  60  74
BRANCH  61  85
ATOM     85  C   UNL A   1      47.564  27.078  27.163  1.00  0.00     0.023 A 
ATOM     86  C   UNL A   1      46.913  27.180  25.909  1.00  0.00     0.012 A 
ATOM     87  C   UNL A   1      48.866  26.559  27.208  1.00  0.00     0.148 A 
ATOM     88  C   UNL A   1      47.602  26.915  24.721  1.00  0.00     0.002 A 
ATOM     89  C   UNL A   1      49.555  26.330  26.017  1.00  0.00     0.091 A 
ATOM     90  F   UNL A   1      49.478  26.448  28.394  1.00  0.00    -0.205 F 
ATOM     91  C   UNL A   1      48.938  26.532  24.775  1.00  0.00     0.022 A 
BRANCH  89  92
ATOM     92  S   UNL A   1      51.308  25.958  26.084  1.00  0.00     0.127 S 
ATOM     93  O   UNL A   1      51.867  27.087  26.830  1.00  0.00    -0.237 OA
ATOM     94  O   UNL A   1      51.327  24.691  26.803  1.00  0.00    -0.237 OA
ATOM     95  O   UNL A   1      51.693  25.919  24.678  1.00  0.00    -0.744 OA
ENDBRANCH  89  92
ENDBRANCH  61  85
BRANCH  73  96
ATOM     96  C   UNL A   1      44.463  33.506  27.903  1.00  0.00     0.023 A 
ATOM     97  C   UNL A   1      43.916  33.546  26.607  1.00  0.00     0.012 A 
ATOM     98  C   UNL A   1      44.562  34.757  28.573  1.00  0.00     0.148 A 
ATOM     99  C   UNL A   1      43.556  34.750  25.983  1.00  0.00     0.002 A 
ATOM    100  C   UNL A   1      44.073  35.931  28.003  1.00  0.00     0.091 A 
ATOM    101  F   UNL A   1      45.158  34.832  29.773  1.00  0.00    -0.205 F 
ATOM    102  C   UNL A   1      43.608  35.940  26.690  1.00  0.00     0.022 A 
BRANCH 100 103
ATOM    103  S   UNL A   1      43.869  37.417  28.997  1.00  0.00     0.127 S 
ATOM    104  O   UNL A   1      45.232  37.938  29.054  1.00  0.00    -0.237 OA
ATOM    105  O   UNL A   1      42.945  38.217  28.190  1.00  0.00    -0.237 OA
ATOM    106  O   UNL A   1      43.301  36.947  30.254  1.00  0.00    -0.744 OA
ENDBRANCH 100 103
ENDBRANCH  73  96
ENDBRANCH  47  48
ENDBRANCH  39  42
ENDBRANCH  37  38
ENDBRANCH  36  37
ENDBRANCH  35  36
ENDBRANCH   1  35
TORSDOF 20
ENDMDL
MODEL 2
REMARK VINA RESULT:     -14.6      1.843      3.977
REMARK SMILES Cc1ccc(C2=NN(C(=O)CCC(=O)NCCCCNC(=O)c3ccc(-c4c5nc(c(-c6cccc(S(=O)(=O)[O-])c6F)c6ccc([nH]6)c(-c6cccc(S(=O)(=O)[O-])c6F)c6nc(c(-c7cccc(S(=O)(=O)[O-])c7F)c7ccc4[nH]7)C=C6)C=C5)cc3)[C@H](C[C@@H]3C=c4cccc(C)c4=NC3=O)C2)cc1
REMARK SMILES IDX 16 1 15 2 13 3 14 4 12 6 11 7 9 8 10 9 8 10 6 11 7 12 100 13
REMARK SMILES IDX 86 14 5 15 1 16 2 17 3 18 102 19 4 20 101 21 87 22 88 23
REMARK SMILES IDX 89 24 98 25 90 26 97 27 99 28 91 29 96 30 92 31 94 32 93 33
REMARK SMILES IDX 95 34 17 35 18 36 19 37 20 38 21 39 22 41 23 42 24 43 85 44
REMARK SMILES IDX 25 45 84 46 26 47 27 48 28 49 78 50 29 51 83 52 77 53 79 54
REMARK SMILES IDX 30 55 82 56 76 57 75 58 31 60 63 61 43 62 62 63 44 64 47 65
REMARK SMILES IDX 61 66 80 67 45 68 46 69 60 71 81 72 48 73 32 74 33 75 41 76
REMARK SMILES IDX 34 77 36 78 42 79 35 80 37 81 38 82 39 83 40 84 64 85 65 86
REMARK SMILES IDX 73 87 66 88 68 89 74 90 67 91 69 92 70 93 71 94 72 95 49 96
REMARK SMILES IDX 50 97 58 98 51 99 53 100 59 101 52 102 54 103 55 104 56 105
REMARK SMILES IDX 57 106
REMARK H PARENT 15 5 20 40 79 59 47 70
REMARK Flexibility Score: inf
ROOT
ATOM      1  C   UNL A   1      34.263  23.451  22.740  1.00  0.00     0.116 C 
ENDROOT
BRANCH   1   2
ATOM      2  N   UNL A   1      33.588  24.045  21.408  1.00  0.00    -0.356 N 
ATOM      3  C   UNL A   1      32.909  25.168  21.061  1.00  0.00     0.220 C 
ATOM      4  O   UNL A   1      32.432  25.195  19.923  1.00  0.00    -0.275 OA
ATOM      5  H   UNL A   1      33.694  23.434  20.644  1.00  0.00     0.163 HD
BRANCH   3   6
ATOM      6  C   UNL A   1      32.706  26.348  21.986  1.00  0.00     0.110 C 
BRANCH   6   7
ATOM      7  C   UNL A   1      31.298  26.800  22.325  1.00  0.00     0.112 C 
BRANCH   7   8
ATOM      8  C   UNL A   1      30.743  26.159  23.581  1.00  0.00     0.243 C 
ATOM      9  O   UNL A   1      29.616  26.430  23.986  1.00  0.00    -0.273 OA
BRANCH   8  10
ATOM     10  N   UNL A   1      31.682  25.351  24.272  1.00  0.00    -0.230 N 
ATOM     11  C   UNL A   1      31.678  22.715  25.391  1.00  0.00     0.070 C 
ATOM     12  N   UNL A   1      31.409  23.537  24.072  1.00  0.00    -0.174 NA
ATOM     13  C   UNL A   1      32.119  24.061  26.970  1.00  0.00     0.086 C 
ATOM     14  C   UNL A   1      32.356  25.817  25.969  1.00  0.00     0.118 C 
BRANCH  11  15
ATOM     15  C   UNL A   1      32.107  21.106  25.002  1.00  0.00    -0.002 A 
ATOM     16  C   UNL A   1      34.562  17.630  24.048  1.00  0.00     0.044 C 
ATOM     17  C   UNL A   1      33.531  18.649  24.439  1.00  0.00    -0.051 A 
ATOM     18  C   UNL A   1      33.285  19.076  25.751  1.00  0.00     0.004 A 
ATOM     19  C   UNL A   1      32.869  19.307  23.433  1.00  0.00     0.004 A 
ATOM     20  C   UNL A   1      32.573  20.283  26.032  1.00  0.00     0.010 A 
ATOM     21  C   UNL A   1      32.129  20.455  23.734  1.00  0.00     0.010 A 
ENDBRANCH  11  15
BRANCH  14  22
ATOM     22  C   UNL A   1      33.837  26.627  25.744  1.00  0.00     0.045 C 
BRANCH  22  23
ATOM     23  C   UNL A   1      33.870  28.170  26.121  1.00  0.00     0.106 C 
ATOM     24  C   UNL A   1      34.610  28.587  27.370  1.00  0.00    -0.003 C 
ATOM     25  C   UNL A   1      32.570  28.994  26.193  1.00  0.00     0.253 C 
ATOM     26  C   UNL A   1      34.898  29.878  27.523  1.00  0.00    -0.003 A 
ATOM     27  N   UNL A   1      32.703  30.358  26.495  1.00  0.00    -0.212 NA
ATOM     28  O   UNL A   1      31.484  28.486  25.931  1.00  0.00    -0.272 OA
ATOM     29  C   UNL A   1      36.128  30.392  28.066  1.00  0.00     0.010 A 
ATOM     30  C   UNL A   1      33.781  30.769  27.101  1.00  0.00     0.077 A 
ATOM     31  C   UNL A   1      36.310  31.712  28.170  1.00  0.00     0.001 A 
ATOM     32  C   UNL A   1      33.976  32.189  27.587  1.00  0.00    -0.025 A 
ATOM     33  C   UNL A   1      35.184  32.602  28.020  1.00  0.00     0.005 A 
ATOM     34  C   UNL A   1      32.753  33.021  27.784  1.00  0.00     0.047 C 
ENDBRANCH  22  23
ENDBRANCH  14  22
ENDBRANCH   8  10
ENDBRANCH   7   8
ENDBRANCH   6   7
ENDBRANCH   3   6
ENDBRANCH   1   2
BRANCH   1  35
ATOM     35  C   UNL A   1      36.382  22.995  23.173  1.00  0.00     0.023 C 
BRANCH  35  36
ATOM     36  C   UNL A   1      36.814  21.692  24.497  1.00  0.00     0.023 C 
BRANCH  36  37
ATOM     37  C   UNL A   1      38.376  21.705  25.400  1.00  0.00     0.116 C 
BRANCH  37  38
ATOM     38  N   UNL A   1      38.804  22.962  26.109  1.00  0.00    -0.352 N 
ATOM     39  C   UNL A   1      39.649  23.278  27.157  1.00  0.00     0.251 C 
ATOM     40  H   UNL A   1      38.371  23.761  25.731  1.00  0.00     0.163 HD
ATOM     41  O   UNL A   1      39.273  24.159  27.934  1.00  0.00    -0.269 OA
BRANCH  39  42
ATOM     42  C   UNL A   1      41.097  22.918  27.085  1.00  0.00     0.039 A 
ATOM     43  C   UNL A   1      41.718  23.060  28.350  1.00  0.00     0.014 A 
ATOM     44  C   UNL A   1      41.610  23.622  26.002  1.00  0.00     0.014 A 
ATOM     45  C   UNL A   1      42.354  24.257  28.642  1.00  0.00     0.010 A 
ATOM     46  C   UNL A   1      42.060  24.880  26.307  1.00  0.00     0.010 A 
ATOM     47  C   UNL A   1      42.358  25.210  27.645  1.00  0.00    -0.014 A 
BRANCH  47  48
ATOM     48  C   UNL A   1      42.707  26.597  27.845  1.00  0.00     0.031 A 
ATOM     49  C   UNL A   1      41.574  27.532  27.868  1.00  0.00     0.074 A 
ATOM     50  C   UNL A   1      43.844  26.779  28.553  1.00  0.00     0.049 A 
ATOM     51  N   UNL A   1      41.683  28.801  28.041  1.00  0.00    -0.248 NA
ATOM     52  C   UNL A   1      40.186  27.091  27.662  1.00  0.00     0.031 C 
ATOM     53  C   UNL A   1      44.044  27.677  29.679  1.00  0.00     0.029 A 
ATOM     54  N   UNL A   1      45.100  26.194  28.356  1.00  0.00    -0.354 N 
ATOM     55  C   UNL A   1      40.430  29.185  28.466  1.00  0.00     0.074 A 
ATOM     56  C   UNL A   1      39.519  28.217  27.924  1.00  0.00     0.031 C 
ATOM     57  C   UNL A   1      45.357  27.753  29.947  1.00  0.00     0.029 A 
ATOM     58  C   UNL A   1      46.062  27.080  28.871  1.00  0.00     0.049 A 
ATOM     59  H   UNL A   1      45.277  25.323  27.933  1.00  0.00     0.167 HD
ATOM     60  C   UNL A   1      40.338  30.065  29.499  1.00  0.00     0.034 A 
ATOM     61  C   UNL A   1      47.060  27.639  28.123  1.00  0.00     0.034 A 
ATOM     62  C   UNL A   1      41.645  30.669  29.808  1.00  0.00     0.049 A 
ATOM     63  C   UNL A   1      46.851  29.139  27.937  1.00  0.00     0.074 A 
ATOM     64  C   UNL A   1      42.475  30.679  30.914  1.00  0.00     0.029 A 
ATOM     65  N   UNL A   1      42.406  31.190  28.764  1.00  0.00    -0.354 N 
ATOM     66  N   UNL A   1      45.981  29.865  28.591  1.00  0.00    -0.248 NA
ATOM     67  C   UNL A   1      47.573  29.933  26.942  1.00  0.00     0.031 C 
ATOM     68  C   UNL A   1      43.777  31.090  30.485  1.00  0.00     0.029 A 
ATOM     69  C   UNL A   1      43.727  31.386  29.132  1.00  0.00     0.049 A 
ATOM     70  H   UNL A   1      42.048  31.395  27.870  1.00  0.00     0.167 HD
ATOM     71  C   UNL A   1      45.802  31.059  27.937  1.00  0.00     0.074 A 
ATOM     72  C   UNL A   1      46.930  31.111  27.020  1.00  0.00     0.031 C 
ATOM     73  C   UNL A   1      44.684  31.839  28.114  1.00  0.00     0.034 A 
BRANCH  60  74
ATOM     74  C   UNL A   1      39.099  30.241  30.361  1.00  0.00     0.023 A 
ATOM     75  C   UNL A   1      38.409  29.066  30.719  1.00  0.00     0.012 A 
ATOM     76  C   UNL A   1      38.523  31.462  30.807  1.00  0.00     0.148 A 
ATOM     77  C   UNL A   1      37.247  29.091  31.497  1.00  0.00     0.002 A 
ATOM     78  C   UNL A   1      37.427  31.481  31.673  1.00  0.00     0.091 A 
ATOM     79  F   UNL A   1      38.943  32.630  30.310  1.00  0.00    -0.205 F 
ATOM     80  C   UNL A   1      36.775  30.293  32.007  1.00  0.00     0.022 A 
BRANCH  78  81
ATOM     81  S   UNL A   1      36.825  32.996  32.446  1.00  0.00     0.127 S 
ATOM     82  O   UNL A   1      35.721  32.507  33.271  1.00  0.00    -0.237 OA
ATOM     83  O   UNL A   1      37.995  33.448  33.200  1.00  0.00    -0.237 OA
ATOM     84  O   UNL A   1      36.437  33.884  31.355  1.00  0.00    -0.744 OA
ENDBRANCH  78  81
ENDBRANCH  60  74
BRANCH  61  85
ATOM     85  C   UNL A   1      47.619  26.700  27.106  1.00  0.00     0.023 A 
ATOM     86  C   UNL A   1      46.864  26.515  25.923  1.00  0.00     0.012 A 
ATOM     87  C   UNL A   1      48.988  26.392  27.089  1.00  0.00     0.148 A 
ATOM     88  C   UNL A   1      47.490  26.179  24.718  1.00  0.00     0.002 A 
ATOM     89  C   UNL A   1      49.607  26.089  25.877  1.00  0.00     0.091 A 
ATOM     90  F   UNL A   1      49.701  26.551  28.212  1.00  0.00    -0.205 F 
ATOM     91  C   UNL A   1      48.870  26.009  24.688  1.00  0.00     0.022 A 
BRANCH  89  92
ATOM     92  S   UNL A   1      51.397  25.994  25.816  1.00  0.00     0.127 S 
ATOM     93  O   UNL A   1      51.698  24.767  26.556  1.00  0.00    -0.237 OA
ATOM     94  O   UNL A   1      51.654  25.913  24.383  1.00  0.00    -0.237 OA
ATOM     95  O   UNL A   1      51.818  27.218  26.488  1.00  0.00    -0.744 OA
ENDBRANCH  89  92
ENDBRANCH  61  85
BRANCH  73  96
ATOM     96  C   UNL A   1      44.316  33.067  27.273  1.00  0.00     0.023 A 
ATOM     97  C   UNL A   1      44.083  33.014  25.886  1.00  0.00     0.012 A 
ATOM     98  C   UNL A   1      44.055  34.318  27.898  1.00  0.00     0.148 A 
ATOM     99  C   UNL A   1      43.688  34.141  25.150  1.00  0.00     0.002 A 
ATOM    100  C   UNL A   1      43.529  35.394  27.187  1.00  0.00     0.091 A 
ATOM    101  F   UNL A   1      44.338  34.491  29.198  1.00  0.00    -0.205 F 
ATOM    102  C   UNL A   1      43.383  35.325  25.803  1.00  0.00     0.022 A 
BRANCH 100 103
ATOM    103  S   UNL A   1      42.864  36.827  28.049  1.00  0.00     0.127 S 
ATOM    104  O   UNL A   1      44.077  37.510  28.490  1.00  0.00    -0.237 OA
ATOM    105  O   UNL A   1      42.124  37.521  26.993  1.00  0.00    -0.237 OA
ATOM    106  O   UNL A   1      42.017  36.270  29.095  1.00  0.00    -0.744 OA
ENDBRANCH 100 103
ENDBRANCH  73  96
ENDBRANCH  47  48
ENDBRANCH  39  42
ENDBRANCH  37  38
ENDBRANCH  36  37
ENDBRANCH  35  36
ENDBRANCH   1  35
TORSDOF 20
ENDMDL
MODEL 3
REMARK VINA RESULT:     -14.4      4.367      9.089
REMARK SMILES Cc1ccc(C2=NN(C(=O)CCC(=O)NCCCCNC(=O)c3ccc(-c4c5nc(c(-c6cccc(S(=O)(=O)[O-])c6F)c6ccc([nH]6)c(-c6cccc(S(=O)(=O)[O-])c6F)c6nc(c(-c7cccc(S(=O)(=O)[O-])c7F)c7ccc4[nH]7)C=C6)C=C5)cc3)[C@H](C[C@@H]3C=c4cccc(C)c4=NC3=O)C2)cc1
REMARK SMILES IDX 16 1 15 2 13 3 14 4 12 6 11 7 9 8 10 9 8 10 6 11 7 12 100 13
REMARK SMILES IDX 86 14 5 15 1 16 2 17 3 18 102 19 4 20 101 21 87 22 88 23
REMARK SMILES IDX 89 24 98 25 90 26 97 27 99 28 91 29 96 30 92 31 94 32 93 33
REMARK SMILES IDX 95 34 17 35 18 36 19 37 20 38 21 39 22 41 23 42 24 43 85 44
REMARK SMILES IDX 25 45 84 46 26 47 27 48 28 49 78 50 29 51 83 52 77 53 79 54
REMARK SMILES IDX 30 55 82 56 76 57 75 58 31 60 63 61 43 62 62 63 44 64 47 65
REMARK SMILES IDX 61 66 80 67 45 68 46 69 60 71 81 72 48 73 32 74 33 75 41 76
REMARK SMILES IDX 34 77 36 78 42 79 35 80 37 81 38 82 39 83 40 84 64 85 65 86
REMARK SMILES IDX 73 87 66 88 68 89 74 90 67 91 69 92 70 93 71 94 72 95 49 96
REMARK SMILES IDX 50 97 58 98 51 99 53 100 59 101 52 102 54 103 55 104 56 105
REMARK SMILES IDX 57 106
REMARK H PARENT 15 5 20 40 79 59 47 70
REMARK Flexibility Score: inf
ROOT
ATOM      1  C   UNL A   1      36.391  21.362  25.202  1.00  0.00     0.116 C 
ENDROOT
BRANCH   1   2
ATOM      2  N   UNL A   1      35.133  21.332  26.201  1.00  0.00    -0.356 N 
ATOM      3  C   UNL A   1      34.031  22.092  26.426  1.00  0.00     0.220 C 
ATOM      4  O   UNL A   1      33.342  21.789  27.405  1.00  0.00    -0.275 OA
ATOM      5  H   UNL A   1      35.172  20.560  26.810  1.00  0.00     0.163 HD
BRANCH   3   6
ATOM      6  C   UNL A   1      33.629  23.268  25.564  1.00  0.00     0.110 C 
BRANCH   6   7
ATOM      7  C   UNL A   1      32.701  24.328  26.126  1.00  0.00     0.112 C 
BRANCH   7   8
ATOM      8  C   UNL A   1      31.843  25.000  25.074  1.00  0.00     0.243 C 
ATOM      9  O   UNL A   1      31.215  24.339  24.251  1.00  0.00    -0.273 OA
BRANCH   8  10
ATOM     10  N   UNL A   1      31.951  26.414  25.068  1.00  0.00    -0.230 N 
ATOM     11  C   UNL A   1      31.207  28.513  23.268  1.00  0.00     0.070 C 
ATOM     12  N   UNL A   1      30.659  27.266  24.062  1.00  0.00    -0.174 NA
ATOM     13  C   UNL A   1      33.304  28.650  23.549  1.00  0.00     0.086 C 
ATOM     14  C   UNL A   1      33.616  27.298  25.038  1.00  0.00     0.118 C 
BRANCH  11  15
ATOM     15  C   UNL A   1      29.939  29.623  22.972  1.00  0.00    -0.002 A 
ATOM     16  C   UNL A   1      27.668  32.866  21.144  1.00  0.00     0.044 C 
ATOM     17  C   UNL A   1      28.217  31.673  21.872  1.00  0.00    -0.051 A 
ATOM     18  C   UNL A   1      28.212  30.362  21.378  1.00  0.00     0.004 A 
ATOM     19  C   UNL A   1      28.887  31.896  23.049  1.00  0.00     0.004 A 
ATOM     20  C   UNL A   1      29.054  29.345  21.926  1.00  0.00     0.010 A 
ATOM     21  C   UNL A   1      29.661  30.870  23.603  1.00  0.00     0.010 A 
ENDBRANCH  11  15
BRANCH  14  22
ATOM     22  C   UNL A   1      34.037  27.684  26.642  1.00  0.00     0.045 C 
BRANCH  22  23
ATOM     23  C   UNL A   1      34.253  29.223  26.970  1.00  0.00     0.106 C 
ATOM     24  C   UNL A   1      35.165  29.590  28.118  1.00  0.00    -0.003 C 
ATOM     25  C   UNL A   1      33.051  30.167  27.164  1.00  0.00     0.253 C 
ATOM     26  C   UNL A   1      35.586  30.851  28.202  1.00  0.00    -0.003 A 
ATOM     27  N   UNL A   1      33.343  31.518  27.412  1.00  0.00    -0.212 NA
ATOM     28  O   UNL A   1      31.900  29.760  27.038  1.00  0.00    -0.272 OA
ATOM     29  C   UNL A   1      36.912  31.256  28.591  1.00  0.00     0.010 A 
ATOM     30  C   UNL A   1      34.515  31.835  27.883  1.00  0.00     0.077 A 
ATOM     31  C   UNL A   1      37.225  32.554  28.638  1.00  0.00     0.001 A 
ATOM     32  C   UNL A   1      34.893  33.239  28.305  1.00  0.00    -0.025 A 
ATOM     33  C   UNL A   1      36.176  33.543  28.589  1.00  0.00     0.005 A 
ATOM     34  C   UNL A   1      33.781  34.186  28.614  1.00  0.00     0.047 C 
ENDBRANCH  22  23
ENDBRANCH  14  22
ENDBRANCH   8  10
ENDBRANCH   7   8
ENDBRANCH   6   7
ENDBRANCH   3   6
ENDBRANCH   1   2
BRANCH   1  35
ATOM     35  C   UNL A   1      38.301  20.254  25.293  1.00  0.00     0.023 C 
BRANCH  35  36
ATOM     36  C   UNL A   1      39.759  20.969  26.292  1.00  0.00     0.023 C 
BRANCH  36  37
ATOM     37  C   UNL A   1      41.450  20.365  26.113  1.00  0.00     0.116 C 
BRANCH  37  38
ATOM     38  N   UNL A   1      42.585  21.352  26.103  1.00  0.00    -0.352 N 
ATOM     39  C   UNL A   1      42.720  22.716  25.920  1.00  0.00     0.251 C 
ATOM     40  H   UNL A   1      43.452  20.916  26.267  1.00  0.00     0.163 HD
ATOM     41  O   UNL A   1      43.697  23.102  25.275  1.00  0.00    -0.269 OA
BRANCH  39  42
ATOM     42  C   UNL A   1      42.002  23.666  26.824  1.00  0.00     0.039 A 
ATOM     43  C   UNL A   1      42.340  25.008  26.518  1.00  0.00     0.014 A 
ATOM     44  C   UNL A   1      42.216  23.197  28.115  1.00  0.00     0.014 A 
ATOM     45  C   UNL A   1      43.371  25.606  27.227  1.00  0.00     0.010 A 
ATOM     46  C   UNL A   1      43.354  23.675  28.710  1.00  0.00     0.010 A 
ATOM     47  C   UNL A   1      43.966  24.841  28.208  1.00  0.00    -0.014 A 
BRANCH  47  48
ATOM     48  C   UNL A   1      45.220  25.169  28.849  1.00  0.00     0.031 A 
ATOM     49  C   UNL A   1      46.423  24.879  28.057  1.00  0.00     0.074 A 
ATOM     50  C   UNL A   1      45.132  26.186  29.736  1.00  0.00     0.049 A 
ATOM     51  N   UNL A   1      47.624  25.108  28.452  1.00  0.00    -0.248 NA
ATOM     52  C   UNL A   1      46.357  24.262  26.723  1.00  0.00     0.031 C 
ATOM     53  C   UNL A   1      46.008  27.342  29.837  1.00  0.00     0.029 A 
ATOM     54  N   UNL A   1      44.222  26.354  30.785  1.00  0.00    -0.354 N 
ATOM     55  C   UNL A   1      48.353  25.153  27.285  1.00  0.00     0.074 A 
ATOM     56  C   UNL A   1      47.633  24.343  26.343  1.00  0.00     0.031 C 
ATOM     57  C   UNL A   1      45.745  27.988  30.983  1.00  0.00     0.029 A 
ATOM     58  C   UNL A   1      44.846  27.151  31.760  1.00  0.00     0.049 A 
ATOM     59  H   UNL A   1      43.312  25.981  30.833  1.00  0.00     0.167 HD
ATOM     60  C   UNL A   1      49.284  26.133  27.140  1.00  0.00     0.034 A 
ATOM     61  C   UNL A   1      45.074  26.745  33.044  1.00  0.00     0.034 A 
ATOM     62  C   UNL A   1      49.534  26.830  28.414  1.00  0.00     0.049 A 
ATOM     63  C   UNL A   1      46.562  26.542  33.316  1.00  0.00     0.074 A 
ATOM     64  C   UNL A   1      49.386  28.131  28.856  1.00  0.00     0.029 A 
ATOM     65  N   UNL A   1      49.771  26.069  29.557  1.00  0.00    -0.354 N 
ATOM     66  N   UNL A   1      47.531  26.928  32.525  1.00  0.00    -0.248 NA
ATOM     67  C   UNL A   1      47.075  25.825  34.483  1.00  0.00     0.031 C 
ATOM     68  C   UNL A   1      49.408  28.116  30.287  1.00  0.00     0.029 A 
ATOM     69  C   UNL A   1      49.628  26.816  30.715  1.00  0.00     0.049 A 
ATOM     70  H   UNL A   1      50.012  25.115  29.544  1.00  0.00     0.167 HD
ATOM     71  C   UNL A   1      48.690  26.279  32.877  1.00  0.00     0.074 A 
ATOM     72  C   UNL A   1      48.384  25.737  34.192  1.00  0.00     0.031 C 
ATOM     73  C   UNL A   1      49.749  26.137  32.013  1.00  0.00     0.034 A 
BRANCH  60  74
ATOM     74  C   UNL A   1      49.834  26.596  25.801  1.00  0.00     0.023 A 
ATOM     75  C   UNL A   1      51.237  26.670  25.688  1.00  0.00     0.012 A 
ATOM     76  C   UNL A   1      49.095  27.015  24.661  1.00  0.00     0.148 A 
ATOM     77  C   UNL A   1      51.869  27.095  24.514  1.00  0.00     0.002 A 
ATOM     78  C   UNL A   1      49.725  27.333  23.456  1.00  0.00     0.091 A 
ATOM     79  F   UNL A   1      47.778  27.230  24.751  1.00  0.00    -0.205 F 
ATOM     80  C   UNL A   1      51.118  27.391  23.385  1.00  0.00     0.022 A 
BRANCH  78  81
ATOM     81  S   UNL A   1      48.810  27.632  21.929  1.00  0.00     0.127 S 
ATOM     82  O   UNL A   1      49.821  28.255  21.077  1.00  0.00    -0.237 OA
ATOM     83  O   UNL A   1      48.424  26.279  21.526  1.00  0.00    -0.237 OA
ATOM     84  O   UNL A   1      47.687  28.492  22.290  1.00  0.00    -0.744 OA
ENDBRANCH  78  81
ENDBRANCH  60  74
BRANCH  61  85
ATOM     85  C   UNL A   1      43.963  25.916  33.597  1.00  0.00     0.023 A 
ATOM     86  C   UNL A   1      44.081  24.512  33.456  1.00  0.00     0.012 A 
ATOM     87  C   UNL A   1      43.110  26.426  34.588  1.00  0.00     0.148 A 
ATOM     88  C   UNL A   1      43.484  23.647  34.378  1.00  0.00     0.002 A 
ATOM     89  C   UNL A   1      42.547  25.556  35.522  1.00  0.00     0.091 A 
ATOM     90  F   UNL A   1      42.985  27.754  34.714  1.00  0.00    -0.205 F 
ATOM     91  C   UNL A   1      42.752  24.173  35.437  1.00  0.00     0.022 A 
BRANCH  89  92
ATOM     92  S   UNL A   1      41.711  26.241  36.953  1.00  0.00     0.127 S 
ATOM     93  O   UNL A   1      40.959  27.369  36.402  1.00  0.00    -0.237 OA
ATOM     94  O   UNL A   1      40.886  25.123  37.393  1.00  0.00    -0.237 OA
ATOM     95  O   UNL A   1      42.812  26.625  37.829  1.00  0.00    -0.744 OA
ENDBRANCH  89  92
ENDBRANCH  61  85
BRANCH  73  96
ATOM     96  C   UNL A   1      50.979  25.255  32.253  1.00  0.00     0.023 A 
ATOM     97  C   UNL A   1      52.300  25.738  32.207  1.00  0.00     0.012 A 
ATOM     98  C   UNL A   1      50.827  23.904  32.676  1.00  0.00     0.148 A 
ATOM     99  C   UNL A   1      53.406  24.922  32.490  1.00  0.00     0.002 A 
ATOM    100  C   UNL A   1      51.918  23.143  33.091  1.00  0.00     0.091 A 
ATOM    101  F   UNL A   1      49.616  23.327  32.660  1.00  0.00    -0.205 F 
ATOM    102  C   UNL A   1      53.215  23.633  32.959  1.00  0.00     0.022 A 
BRANCH 100 103
ATOM    103  S   UNL A   1      51.671  21.587  33.963  1.00  0.00     0.127 S 
ATOM    104  O   UNL A   1      50.804  21.989  35.067  1.00  0.00    -0.237 OA
ATOM    105  O   UNL A   1      51.020  20.753  32.950  1.00  0.00    -0.237 OA
ATOM    106  O   UNL A   1      53.013  21.146  34.319  1.00  0.00    -0.744 OA
ENDBRANCH 100 103
ENDBRANCH  73  96
ENDBRANCH  47  48
ENDBRANCH  39  42
ENDBRANCH  37  38
ENDBRANCH  36  37
ENDBRANCH  35  36
ENDBRANCH   1  35
TORSDOF 20
ENDMDL
