MODEL 1
REMARK VINA RESULT:     -11.6      0.000      0.000
REMARK SMILES NC(=O)C1CC[NH+](Cc2ccc(C(=O)NCCCCNC(=O)c3ccc(-c4c5nc(c(-c6cccc(S(=O)(=O)[O-])c6F)c6ccc([nH]6)c(-c6cccc(S(=O)(=O)[O-])c6F)c6nc(c(-c7cccc(S(=O)(=O)[O-])c7F)c7ccc4[nH]7)C=C6)C=C5)cc3)cc2)CC1
REMARK SMILES IDX 17 1 16 2 15 3 13 4 14 5 12 7 9 8 10 9 87 10 11 11 86 12
REMARK SMILES IDX 8 13 7 14 4 15 5 16 89 17 6 18 88 19 2 21 1 22 3 25 18 26
REMARK SMILES IDX 19 27 20 28 21 29 22 31 23 32 24 33 85 34 25 35 84 36 26 37
REMARK SMILES IDX 27 38 28 39 78 40 29 41 83 42 77 43 79 44 30 45 82 46 76 47
REMARK SMILES IDX 75 48 31 50 63 51 43 52 62 53 44 54 47 55 61 56 80 57 45 58
REMARK SMILES IDX 46 59 60 61 81 62 48 63 32 64 33 65 41 66 34 67 36 68 42 69
REMARK SMILES IDX 35 70 37 71 38 72 39 73 40 74 64 75 65 76 73 77 66 78 68 79
REMARK SMILES IDX 74 80 67 81 69 82 70 83 71 84 72 85 49 86 50 87 58 88 51 89
REMARK SMILES IDX 53 90 59 91 52 92 54 93 55 94 56 95 57 96
REMARK H PARENT 15 6 7 20 1 23 1 24 20 30 79 49 47 60
REMARK Flexibility Score: inf
ROOT
ATOM      1  C   UNL A   1      33.137  29.465  24.775  1.00  0.00     0.023 C 
ENDROOT
BRANCH   1   2
ATOM      2  C   UNL A   1      33.318  29.186  23.282  1.00  0.00     0.116 C 
BRANCH   2   3
ATOM      3  N   UNL A   1      32.037  29.011  22.622  1.00  0.00    -0.352 N 
ATOM      4  C   UNL A   1      31.296  27.876  22.396  1.00  0.00     0.251 C 
ATOM      5  O   UNL A   1      30.176  27.980  21.902  1.00  0.00    -0.269 OA
ATOM      6  H   UNL A   1      31.633  29.841  22.279  1.00  0.00     0.163 HD
BRANCH   4   7
ATOM      7  C   UNL A   1      31.786  26.532  22.792  1.00  0.00     0.039 A 
ATOM      8  C   UNL A   1      32.611  23.906  23.371  1.00  0.00     0.006 A 
ATOM      9  C   UNL A   1      32.832  24.458  22.101  1.00  0.00     0.010 A 
ATOM     10  C   UNL A   1      32.062  24.717  24.373  1.00  0.00     0.010 A 
ATOM     11  C   UNL A   1      32.421  25.760  21.812  1.00  0.00     0.014 A 
ATOM     12  C   UNL A   1      31.667  26.026  24.087  1.00  0.00     0.014 A 
BRANCH   8  13
ATOM     13  C   UNL A   1      32.910  22.445  23.639  1.00  0.00     0.299 C 
BRANCH  13  14
ATOM     14  N   UNL A   1      34.338  22.075  23.713  1.00  0.00    -0.331 N 
ATOM     15  C   UNL A   1      37.148  21.990  24.551  1.00  0.00     0.089 C 
ATOM     16  C   UNL A   1      36.679  22.696  23.275  1.00  0.00     0.075 C 
ATOM     17  C   UNL A   1      36.131  20.922  24.970  1.00  0.00     0.075 C 
ATOM     18  C   UNL A   1      35.236  23.189  23.395  1.00  0.00     0.263 C 
ATOM     19  C   UNL A   1      34.695  21.455  24.996  1.00  0.00     0.263 C 
ATOM     20  H   UNL A   1      34.470  21.370  22.988  1.00  0.00     0.348 HD
BRANCH  15  21
ATOM     21  C   UNL A   1      37.427  22.987  25.671  1.00  0.00     0.220 C 
ATOM     22  N   UNL A   1      38.746  23.221  25.926  1.00  0.00    -0.369 N 
ATOM     23  H   UNL A   1      39.007  23.852  26.635  1.00  0.00     0.159 HD
ATOM     24  H   UNL A   1      39.438  22.758  25.400  1.00  0.00     0.159 HD
ATOM     25  O   UNL A   1      36.564  23.543  26.340  1.00  0.00    -0.275 OA
ENDBRANCH  15  21
ENDBRANCH  13  14
ENDBRANCH   8  13
ENDBRANCH   4   7
ENDBRANCH   2   3
ENDBRANCH   1   2
BRANCH   1  26
ATOM     26  C   UNL A   1      33.881  28.499  25.700  1.00  0.00     0.023 C 
BRANCH  26  27
ATOM     27  C   UNL A   1      33.665  28.734  27.189  1.00  0.00     0.116 C 
BRANCH  27  28
ATOM     28  N   UNL A   1      33.651  30.145  27.550  1.00  0.00    -0.352 N 
ATOM     29  C   UNL A   1      34.622  30.873  28.199  1.00  0.00     0.251 C 
ATOM     30  H   UNL A   1      32.842  30.643  27.296  1.00  0.00     0.163 HD
ATOM     31  O   UNL A   1      34.407  32.034  28.521  1.00  0.00    -0.269 OA
BRANCH  29  32
ATOM     32  C   UNL A   1      35.910  30.227  28.535  1.00  0.00     0.039 A 
ATOM     33  C   UNL A   1      36.972  30.335  27.635  1.00  0.00     0.014 A 
ATOM     34  C   UNL A   1      36.075  29.547  29.744  1.00  0.00     0.014 A 
ATOM     35  C   UNL A   1      38.222  29.813  27.976  1.00  0.00     0.010 A 
ATOM     36  C   UNL A   1      37.336  29.088  30.111  1.00  0.00     0.010 A 
ATOM     37  C   UNL A   1      38.422  29.214  29.231  1.00  0.00    -0.014 A 
BRANCH  37  38
ATOM     38  C   UNL A   1      39.758  28.719  29.648  1.00  0.00     0.031 A 
ATOM     39  C   UNL A   1      40.530  29.443  30.718  1.00  0.00     0.074 A 
ATOM     40  C   UNL A   1      40.316  27.679  28.998  1.00  0.00     0.049 A 
ATOM     41  N   UNL A   1      41.737  29.211  31.162  1.00  0.00    -0.248 NA
ATOM     42  C   UNL A   1      39.869  30.597  31.351  1.00  0.00     0.031 C 
ATOM     43  C   UNL A   1      39.706  26.952  27.883  1.00  0.00     0.029 A 
ATOM     44  N   UNL A   1      41.538  27.075  29.159  1.00  0.00    -0.354 N 
ATOM     45  C   UNL A   1      41.993  30.204  32.101  1.00  0.00     0.074 A 
ATOM     46  C   UNL A   1      40.830  31.064  32.134  1.00  0.00     0.031 C 
ATOM     47  C   UNL A   1      40.557  26.005  27.456  1.00  0.00     0.029 A 
ATOM     48  C   UNL A   1      41.780  26.071  28.250  1.00  0.00     0.049 A 
ATOM     49  H   UNL A   1      42.180  27.335  29.857  1.00  0.00     0.167 HD
ATOM     50  C   UNL A   1      43.080  30.366  32.890  1.00  0.00     0.034 A 
ATOM     51  C   UNL A   1      42.867  25.294  28.075  1.00  0.00     0.034 A 
ATOM     52  C   UNL A   1      44.215  29.482  32.889  1.00  0.00     0.049 A 
ATOM     53  C   UNL A   1      44.037  25.453  29.008  1.00  0.00     0.074 A 
ATOM     54  C   UNL A   1      45.335  29.518  33.700  1.00  0.00     0.029 A 
ATOM     55  N   UNL A   1      44.371  28.399  32.038  1.00  0.00    -0.354 N 
ATOM     56  N   UNL A   1      44.195  26.300  29.995  1.00  0.00    -0.248 NA
ATOM     57  C   UNL A   1      45.161  24.522  28.833  1.00  0.00     0.031 C 
ATOM     58  C   UNL A   1      46.171  28.457  33.336  1.00  0.00     0.029 A 
ATOM     59  C   UNL A   1      45.566  27.754  32.308  1.00  0.00     0.049 A 
ATOM     60  H   UNL A   1      43.727  28.129  31.343  1.00  0.00     0.167 HD
ATOM     61  C   UNL A   1      45.414  25.983  30.580  1.00  0.00     0.074 A 
ATOM     62  C   UNL A   1      45.945  24.851  29.850  1.00  0.00     0.031 C 
ATOM     63  C   UNL A   1      46.049  26.588  31.615  1.00  0.00     0.034 A 
BRANCH  50  64
ATOM     64  C   UNL A   1      43.061  31.501  33.879  1.00  0.00     0.023 A 
ATOM     65  C   UNL A   1      43.611  32.746  33.507  1.00  0.00     0.012 A 
ATOM     66  C   UNL A   1      42.459  31.364  35.145  1.00  0.00     0.148 A 
ATOM     67  C   UNL A   1      43.592  33.825  34.389  1.00  0.00     0.002 A 
ATOM     68  C   UNL A   1      42.406  32.457  36.003  1.00  0.00     0.091 A 
ATOM     69  F   UNL A   1      41.960  30.167  35.490  1.00  0.00    -0.205 F 
ATOM     70  C   UNL A   1      42.982  33.683  35.630  1.00  0.00     0.022 A 
BRANCH  68  71
ATOM     71  S   UNL A   1      41.577  32.401  37.596  1.00  0.00     0.127 S 
ATOM     72  O   UNL A   1      42.366  31.395  38.304  1.00  0.00    -0.237 OA
ATOM     73  O   UNL A   1      41.754  33.769  38.084  1.00  0.00    -0.237 OA
ATOM     74  O   UNL A   1      40.197  32.033  37.315  1.00  0.00    -0.744 OA
ENDBRANCH  68  71
ENDBRANCH  50  64
BRANCH  51  75
ATOM     75  C   UNL A   1      42.866  24.243  27.017  1.00  0.00     0.023 A 
ATOM     76  C   UNL A   1      43.573  24.467  25.820  1.00  0.00     0.012 A 
ATOM     77  C   UNL A   1      42.201  23.015  27.201  1.00  0.00     0.148 A 
ATOM     78  C   UNL A   1      43.589  23.503  24.811  1.00  0.00     0.002 A 
ATOM     79  C   UNL A   1      42.265  22.038  26.214  1.00  0.00     0.091 A 
ATOM     80  F   UNL A   1      41.521  22.825  28.341  1.00  0.00    -0.205 F 
ATOM     81  C   UNL A   1      42.944  22.286  25.012  1.00  0.00     0.022 A 
BRANCH  79  82
ATOM     82  S   UNL A   1      41.578  20.395  26.450  1.00  0.00     0.127 S 
ATOM     83  O   UNL A   1      42.157  19.664  25.327  1.00  0.00    -0.237 OA
ATOM     84  O   UNL A   1      42.108  20.027  27.764  1.00  0.00    -0.237 OA
ATOM     85  O   UNL A   1      40.132  20.573  26.420  1.00  0.00    -0.744 OA
ENDBRANCH  79  82
ENDBRANCH  51  75
BRANCH  63  86
ATOM     86  C   UNL A   1      47.373  26.020  32.052  1.00  0.00     0.023 A 
ATOM     87  C   UNL A   1      48.555  26.426  31.402  1.00  0.00     0.012 A 
ATOM     88  C   UNL A   1      47.453  25.149  33.155  1.00  0.00     0.148 A 
ATOM     89  C   UNL A   1      49.795  25.951  31.827  1.00  0.00     0.002 A 
ATOM     90  C   UNL A   1      48.697  24.715  33.602  1.00  0.00     0.091 A 
ATOM     91  F   UNL A   1      46.315  24.757  33.747  1.00  0.00    -0.205 F 
ATOM     92  C   UNL A   1      49.867  25.108  32.932  1.00  0.00     0.022 A 
BRANCH  90  93
ATOM     93  S   UNL A   1      48.888  23.702  35.072  1.00  0.00     0.127 S 
ATOM     94  O   UNL A   1      48.115  22.513  34.718  1.00  0.00    -0.237 OA
ATOM     95  O   UNL A   1      50.336  23.496  35.124  1.00  0.00    -0.237 OA
ATOM     96  O   UNL A   1      48.353  24.493  36.173  1.00  0.00    -0.744 OA
ENDBRANCH  90  93
ENDBRANCH  63  86
ENDBRANCH  37  38
ENDBRANCH  29  32
ENDBRANCH  27  28
ENDBRANCH  26  27
ENDBRANCH   1  26
TORSDOF 17
ENDMDL
MODEL 2
REMARK VINA RESULT:     -11.6      1.796      2.498
REMARK SMILES NC(=O)C1CC[NH+](Cc2ccc(C(=O)NCCCCNC(=O)c3ccc(-c4c5nc(c(-c6cccc(S(=O)(=O)[O-])c6F)c6ccc([nH]6)c(-c6cccc(S(=O)(=O)[O-])c6F)c6nc(c(-c7cccc(S(=O)(=O)[O-])c7F)c7ccc4[nH]7)C=C6)C=C5)cc3)cc2)CC1
REMARK SMILES IDX 17 1 16 2 15 3 13 4 14 5 12 7 9 8 10 9 87 10 11 11 86 12
REMARK SMILES IDX 8 13 7 14 4 15 5 16 89 17 6 18 88 19 2 21 1 22 3 25 18 26
REMARK SMILES IDX 19 27 20 28 21 29 22 31 23 32 24 33 85 34 25 35 84 36 26 37
REMARK SMILES IDX 27 38 28 39 78 40 29 41 83 42 77 43 79 44 30 45 82 46 76 47
REMARK SMILES IDX 75 48 31 50 63 51 43 52 62 53 44 54 47 55 61 56 80 57 45 58
REMARK SMILES IDX 46 59 60 61 81 62 48 63 32 64 33 65 41 66 34 67 36 68 42 69
REMARK SMILES IDX 35 70 37 71 38 72 39 73 40 74 64 75 65 76 73 77 66 78 68 79
REMARK SMILES IDX 74 80 67 81 69 82 70 83 71 84 72 85 49 86 50 87 58 88 51 89
REMARK SMILES IDX 53 90 59 91 52 92 54 93 55 94 56 95 57 96
REMARK H PARENT 15 6 7 20 1 23 1 24 20 30 79 49 47 60
REMARK Flexibility Score: inf
ROOT
ATOM      1  C   UNL A   1      32.087  27.685  25.323  1.00  0.00     0.023 C 
ENDROOT
BRANCH   1   2
ATOM      2  C   UNL A   1      31.669  26.552  24.382  1.00  0.00     0.116 C 
BRANCH   2   3
ATOM      3  N   UNL A   1      32.384  26.628  23.121  1.00  0.00    -0.352 N 
ATOM      4  C   UNL A   1      33.245  25.738  22.527  1.00  0.00     0.251 C 
ATOM      5  O   UNL A   1      33.659  25.968  21.393  1.00  0.00    -0.269 OA
ATOM      6  H   UNL A   1      32.227  27.453  22.607  1.00  0.00     0.163 HD
BRANCH   4   7
ATOM      7  C   UNL A   1      33.641  24.472  23.193  1.00  0.00     0.039 A 
ATOM      8  C   UNL A   1      34.183  22.017  24.457  1.00  0.00     0.006 A 
ATOM      9  C   UNL A   1      33.438  22.058  23.269  1.00  0.00     0.010 A 
ATOM     10  C   UNL A   1      34.733  23.209  24.948  1.00  0.00     0.010 A 
ATOM     11  C   UNL A   1      33.167  23.275  22.643  1.00  0.00     0.014 A 
ATOM     12  C   UNL A   1      34.475  24.424  24.311  1.00  0.00     0.014 A 
BRANCH   8  13
ATOM     13  C   UNL A   1      34.342  20.720  25.223  1.00  0.00     0.299 C 
BRANCH  13  14
ATOM     14  N   UNL A   1      33.930  19.491  24.516  1.00  0.00    -0.331 N 
ATOM     15  C   UNL A   1      33.233  16.691  23.983  1.00  0.00     0.089 C 
ATOM     16  C   UNL A   1      34.577  17.308  23.579  1.00  0.00     0.075 C 
ATOM     17  C   UNL A   1      32.174  17.787  24.143  1.00  0.00     0.075 C 
ATOM     18  C   UNL A   1      34.973  18.461  24.503  1.00  0.00     0.263 C 
ATOM     19  C   UNL A   1      32.658  18.951  25.014  1.00  0.00     0.263 C 
ATOM     20  H   UNL A   1      33.782  19.775  23.548  1.00  0.00     0.348 HD
BRANCH  15  21
ATOM     21  C   UNL A   1      33.365  15.834  25.238  1.00  0.00     0.220 C 
ATOM     22  N   UNL A   1      32.623  16.247  26.304  1.00  0.00    -0.369 N 
ATOM     23  H   UNL A   1      32.655  15.746  27.151  1.00  0.00     0.159 HD
ATOM     24  H   UNL A   1      32.054  17.047  26.227  1.00  0.00     0.159 HD
ATOM     25  O   UNL A   1      34.092  14.852  25.338  1.00  0.00    -0.275 OA
ENDBRANCH  15  21
ENDBRANCH  13  14
ENDBRANCH   8  13
ENDBRANCH   4   7
ENDBRANCH   2   3
ENDBRANCH   1   2
BRANCH   1  26
ATOM     26  C   UNL A   1      33.598  27.903  25.426  1.00  0.00     0.023 C 
BRANCH  26  27
ATOM     27  C   UNL A   1      34.089  28.391  26.783  1.00  0.00     0.116 C 
BRANCH  27  28
ATOM     28  N   UNL A   1      33.769  29.788  27.039  1.00  0.00    -0.352 N 
ATOM     29  C   UNL A   1      34.489  30.715  27.758  1.00  0.00     0.251 C 
ATOM     30  H   UNL A   1      32.927  30.113  26.647  1.00  0.00     0.163 HD
ATOM     31  O   UNL A   1      34.024  31.827  27.967  1.00  0.00    -0.269 OA
BRANCH  29  32
ATOM     32  C   UNL A   1      35.812  30.340  28.304  1.00  0.00     0.039 A 
ATOM     33  C   UNL A   1      35.871  29.695  29.542  1.00  0.00     0.014 A 
ATOM     34  C   UNL A   1      36.982  30.594  27.585  1.00  0.00     0.014 A 
ATOM     35  C   UNL A   1      37.100  29.248  30.030  1.00  0.00     0.010 A 
ATOM     36  C   UNL A   1      38.196  30.090  28.039  1.00  0.00     0.010 A 
ATOM     37  C   UNL A   1      38.269  29.414  29.267  1.00  0.00    -0.014 A 
BRANCH  37  38
ATOM     38  C   UNL A   1      39.575  28.882  29.729  1.00  0.00     0.031 A 
ATOM     39  C   UNL A   1      40.337  29.592  30.815  1.00  0.00     0.074 A 
ATOM     40  C   UNL A   1      40.120  27.819  29.106  1.00  0.00     0.049 A 
ATOM     41  N   UNL A   1      41.522  29.327  31.298  1.00  0.00    -0.248 NA
ATOM     42  C   UNL A   1      39.694  30.772  31.418  1.00  0.00     0.031 C 
ATOM     43  C   UNL A   1      39.521  27.100  27.979  1.00  0.00     0.029 A 
ATOM     44  N   UNL A   1      41.317  27.179  29.308  1.00  0.00    -0.354 N 
ATOM     45  C   UNL A   1      41.781  30.321  32.236  1.00  0.00     0.074 A 
ATOM     46  C   UNL A   1      40.645  31.216  32.225  1.00  0.00     0.031 C 
ATOM     47  C   UNL A   1      40.354  26.123  27.586  1.00  0.00     0.029 A 
ATOM     48  C   UNL A   1      41.555  26.158  28.416  1.00  0.00     0.049 A 
ATOM     49  H   UNL A   1      41.946  27.425  30.024  1.00  0.00     0.167 HD
ATOM     50  C   UNL A   1      42.849  30.456  33.056  1.00  0.00     0.034 A 
ATOM     51  C   UNL A   1      42.621  25.346  28.281  1.00  0.00     0.034 A 
ATOM     52  C   UNL A   1      43.955  29.537  33.097  1.00  0.00     0.049 A 
ATOM     53  C   UNL A   1      43.767  25.478  29.248  1.00  0.00     0.074 A 
ATOM     54  C   UNL A   1      45.050  29.546  33.942  1.00  0.00     0.029 A 
ATOM     55  N   UNL A   1      44.103  28.442  32.260  1.00  0.00    -0.354 N 
ATOM     56  N   UNL A   1      43.921  26.329  30.232  1.00  0.00    -0.248 NA
ATOM     57  C   UNL A   1      44.866  24.510  29.115  1.00  0.00     0.031 C 
ATOM     58  C   UNL A   1      45.864  28.456  33.612  1.00  0.00     0.029 A 
ATOM     59  C   UNL A   1      45.268  27.762  32.572  1.00  0.00     0.049 A 
ATOM     60  H   UNL A   1      43.472  28.185  31.549  1.00  0.00     0.167 HD
ATOM     61  C   UNL A   1      45.113  25.980  30.856  1.00  0.00     0.074 A 
ATOM     62  C   UNL A   1      45.629  24.825  30.152  1.00  0.00     0.031 C 
ATOM     63  C   UNL A   1      45.734  26.575  31.905  1.00  0.00     0.034 A 
BRANCH  50  64
ATOM     64  C   UNL A   1      42.836  31.601  34.034  1.00  0.00     0.023 A 
ATOM     65  C   UNL A   1      43.354  32.851  33.635  1.00  0.00     0.012 A 
ATOM     66  C   UNL A   1      42.270  31.466  35.316  1.00  0.00     0.148 A 
ATOM     67  C   UNL A   1      43.340  33.938  34.507  1.00  0.00     0.002 A 
ATOM     68  C   UNL A   1      42.220  32.567  36.165  1.00  0.00     0.091 A 
ATOM     69  F   UNL A   1      41.801  30.265  35.687  1.00  0.00    -0.205 F 
ATOM     70  C   UNL A   1      42.764  33.799  35.765  1.00  0.00     0.022 A 
BRANCH  68  71
ATOM     71  S   UNL A   1      41.434  32.513  37.780  1.00  0.00     0.127 S 
ATOM     72  O   UNL A   1      41.547  33.906  38.209  1.00  0.00    -0.237 OA
ATOM     73  O   UNL A   1      40.074  32.087  37.447  1.00  0.00    -0.237 OA
ATOM     74  O   UNL A   1      42.195  31.551  38.563  1.00  0.00    -0.744 OA
ENDBRANCH  68  71
ENDBRANCH  50  64
BRANCH  51  75
ATOM     75  C   UNL A   1      42.619  24.286  27.234  1.00  0.00     0.023 A 
ATOM     76  C   UNL A   1      43.284  24.519  26.013  1.00  0.00     0.012 A 
ATOM     77  C   UNL A   1      41.995  23.041  27.448  1.00  0.00     0.148 A 
ATOM     78  C   UNL A   1      43.297  23.545  25.013  1.00  0.00     0.002 A 
ATOM     79  C   UNL A   1      42.058  22.057  26.468  1.00  0.00     0.091 A 
ATOM     80  F   UNL A   1      41.356  22.843  28.610  1.00  0.00    -0.205 F 
ATOM     81  C   UNL A   1      42.694  22.313  25.244  1.00  0.00     0.022 A 
BRANCH  79  82
ATOM     82  S   UNL A   1      41.426  20.397  26.739  1.00  0.00     0.127 S 
ATOM     83  O   UNL A   1      42.177  19.979  27.919  1.00  0.00    -0.237 OA
ATOM     84  O   UNL A   1      40.002  20.645  26.969  1.00  0.00    -0.237 OA
ATOM     85  O   UNL A   1      41.713  19.670  25.508  1.00  0.00    -0.744 OA
ENDBRANCH  79  82
ENDBRANCH  51  75
BRANCH  63  86
ATOM     86  C   UNL A   1      47.026  25.970  32.386  1.00  0.00     0.023 A 
ATOM     87  C   UNL A   1      48.249  26.420  31.853  1.00  0.00     0.012 A 
ATOM     88  C   UNL A   1      47.032  25.016  33.423  1.00  0.00     0.148 A 
ATOM     89  C   UNL A   1      49.458  25.910  32.324  1.00  0.00     0.002 A 
ATOM     90  C   UNL A   1      48.242  24.546  33.919  1.00  0.00     0.091 A 
ATOM     91  F   UNL A   1      45.856  24.585  33.904  1.00  0.00    -0.205 F 
ATOM     92  C   UNL A   1      49.456  24.984  33.363  1.00  0.00     0.022 A 
BRANCH  90  93
ATOM     93  S   UNL A   1      48.334  23.422  35.317  1.00  0.00     0.127 S 
ATOM     94  O   UNL A   1      47.734  22.209  34.765  1.00  0.00    -0.237 OA
ATOM     95  O   UNL A   1      49.775  23.336  35.557  1.00  0.00    -0.237 OA
ATOM     96  O   UNL A   1      47.583  24.060  36.390  1.00  0.00    -0.744 OA
ENDBRANCH  90  93
ENDBRANCH  63  86
ENDBRANCH  37  38
ENDBRANCH  29  32
ENDBRANCH  27  28
ENDBRANCH  26  27
ENDBRANCH   1  26
TORSDOF 17
ENDMDL
MODEL 3
REMARK VINA RESULT:     -11.4      2.725      8.755
REMARK SMILES NC(=O)C1CC[NH+](Cc2ccc(C(=O)NCCCCNC(=O)c3ccc(-c4c5nc(c(-c6cccc(S(=O)(=O)[O-])c6F)c6ccc([nH]6)c(-c6cccc(S(=O)(=O)[O-])c6F)c6nc(c(-c7cccc(S(=O)(=O)[O-])c7F)c7ccc4[nH]7)C=C6)C=C5)cc3)cc2)CC1
REMARK SMILES IDX 17 1 16 2 15 3 13 4 14 5 12 7 9 8 10 9 87 10 11 11 86 12
REMARK SMILES IDX 8 13 7 14 4 15 5 16 89 17 6 18 88 19 2 21 1 22 3 25 18 26
REMARK SMILES IDX 19 27 20 28 21 29 22 31 23 32 24 33 85 34 25 35 84 36 26 37
REMARK SMILES IDX 27 38 28 39 78 40 29 41 83 42 77 43 79 44 30 45 82 46 76 47
REMARK SMILES IDX 75 48 31 50 63 51 43 52 62 53 44 54 47 55 61 56 80 57 45 58
REMARK SMILES IDX 46 59 60 61 81 62 48 63 32 64 33 65 41 66 34 67 36 68 42 69
REMARK SMILES IDX 35 70 37 71 38 72 39 73 40 74 64 75 65 76 73 77 66 78 68 79
REMARK SMILES IDX 74 80 67 81 69 82 70 83 71 84 72 85 49 86 50 87 58 88 51 89
REMARK SMILES IDX 53 90 59 91 52 92 54 93 55 94 56 95 57 96
REMARK H PARENT 15 6 7 20 1 23 1 24 20 30 79 49 47 60
REMARK Flexibility Score: inf
ROOT
ATOM      1  C   UNL A   1      33.997  26.555  25.766  1.00  0.00     0.023 C 
ENDROOT
BRANCH   1   2
ATOM      2  C   UNL A   1      34.478  25.409  24.875  1.00  0.00     0.116 C 
BRANCH   2   3
ATOM      3  N   UNL A   1      34.086  24.121  25.419  1.00  0.00    -0.352 N 
ATOM      4  C   UNL A   1      32.843  23.556  25.568  1.00  0.00     0.251 C 
ATOM      5  O   UNL A   1      32.755  22.396  25.965  1.00  0.00    -0.269 OA
ATOM      6  H   UNL A   1      34.832  23.563  25.735  1.00  0.00     0.163 HD
BRANCH   4   7
ATOM      7  C   UNL A   1      31.604  24.286  25.202  1.00  0.00     0.039 A 
ATOM      8  C   UNL A   1      29.372  25.782  24.367  1.00  0.00     0.006 A 
ATOM      9  C   UNL A   1      30.169  25.107  23.430  1.00  0.00     0.010 A 
ATOM     10  C   UNL A   1      29.650  25.618  25.730  1.00  0.00     0.010 A 
ATOM     11  C   UNL A   1      31.277  24.367  23.844  1.00  0.00     0.014 A 
ATOM     12  C   UNL A   1      30.749  24.863  26.143  1.00  0.00     0.014 A 
BRANCH   8  13
ATOM     13  C   UNL A   1      28.268  26.713  23.911  1.00  0.00     0.299 C 
BRANCH  13  14
ATOM     14  N   UNL A   1      28.690  27.890  23.125  1.00  0.00    -0.331 N 
ATOM     15  C   UNL A   1      29.232  30.668  22.351  1.00  0.00     0.089 C 
ATOM     16  C   UNL A   1      28.033  29.873  21.823  1.00  0.00     0.075 C 
ATOM     17  C   UNL A   1      30.336  29.713  22.818  1.00  0.00     0.075 C 
ATOM     18  C   UNL A   1      27.583  28.798  22.814  1.00  0.00     0.263 C 
ATOM     19  C   UNL A   1      29.810  28.612  23.744  1.00  0.00     0.263 C 
ATOM     20  H   UNL A   1      29.024  27.514  22.238  1.00  0.00     0.348 HD
BRANCH  15  21
ATOM     21  C   UNL A   1      28.817  31.644  23.447  1.00  0.00     0.220 C 
ATOM     22  N   UNL A   1      29.816  32.028  24.292  1.00  0.00    -0.369 N 
ATOM     23  H   UNL A   1      29.627  32.656  25.026  1.00  0.00     0.159 HD
ATOM     24  H   UNL A   1      30.728  31.676  24.168  1.00  0.00     0.159 HD
ATOM     25  O   UNL A   1      27.677  32.062  23.613  1.00  0.00    -0.275 OA
ENDBRANCH  15  21
ENDBRANCH  13  14
ENDBRANCH   8  13
ENDBRANCH   4   7
ENDBRANCH   2   3
ENDBRANCH   1   2
BRANCH   1  26
ATOM     26  C   UNL A   1      33.114  27.585  25.059  1.00  0.00     0.023 C 
BRANCH  26  27
ATOM     27  C   UNL A   1      33.718  28.979  24.934  1.00  0.00     0.116 C 
BRANCH  27  28
ATOM     28  N   UNL A   1      32.819  30.034  25.379  1.00  0.00    -0.352 N 
ATOM     29  C   UNL A   1      32.918  30.829  26.499  1.00  0.00     0.251 C 
ATOM     30  H   UNL A   1      32.038  30.201  24.805  1.00  0.00     0.163 HD
ATOM     31  O   UNL A   1      32.015  31.603  26.785  1.00  0.00    -0.269 OA
BRANCH  29  32
ATOM     32  C   UNL A   1      34.108  30.709  27.369  1.00  0.00     0.039 A 
ATOM     33  C   UNL A   1      34.378  29.480  27.976  1.00  0.00     0.014 A 
ATOM     34  C   UNL A   1      34.968  31.794  27.559  1.00  0.00     0.014 A 
ATOM     35  C   UNL A   1      35.547  29.321  28.724  1.00  0.00     0.010 A 
ATOM     36  C   UNL A   1      36.164  31.615  28.247  1.00  0.00     0.010 A 
ATOM     37  C   UNL A   1      36.465  30.378  28.839  1.00  0.00    -0.014 A 
BRANCH  37  38
ATOM     38  C   UNL A   1      37.749  30.212  29.565  1.00  0.00     0.031 A 
ATOM     39  C   UNL A   1      38.839  29.354  28.982  1.00  0.00     0.074 A 
ATOM     40  C   UNL A   1      37.896  30.753  30.790  1.00  0.00     0.049 A 
ATOM     41  N   UNL A   1      39.995  29.028  29.497  1.00  0.00    -0.248 NA
ATOM     42  C   UNL A   1      38.585  28.763  27.656  1.00  0.00     0.031 C 
ATOM     43  C   UNL A   1      36.878  31.528  31.501  1.00  0.00     0.029 A 
ATOM     44  N   UNL A   1      38.949  30.702  31.670  1.00  0.00    -0.354 N 
ATOM     45  C   UNL A   1      40.592  28.171  28.579  1.00  0.00     0.074 A 
ATOM     46  C   UNL A   1      39.653  27.998  27.492  1.00  0.00     0.031 C 
ATOM     47  C   UNL A   1      37.352  31.875  32.709  1.00  0.00     0.029 A 
ATOM     48  C   UNL A   1      38.697  31.330  32.868  1.00  0.00     0.049 A 
ATOM     49  H   UNL A   1      39.803  30.259  31.464  1.00  0.00     0.167 HD
ATOM     50  C   UNL A   1      41.822  27.608  28.619  1.00  0.00     0.034 A 
ATOM     51  C   UNL A   1      39.462  31.450  33.970  1.00  0.00     0.034 A 
ATOM     52  C   UNL A   1      42.771  27.821  29.679  1.00  0.00     0.049 A 
ATOM     53  C   UNL A   1      40.851  30.869  33.962  1.00  0.00     0.074 A 
ATOM     54  C   UNL A   1      44.069  27.354  29.778  1.00  0.00     0.029 A 
ATOM     55  N   UNL A   1      42.525  28.566  30.821  1.00  0.00    -0.354 N 
ATOM     56  N   UNL A   1      41.455  30.192  33.017  1.00  0.00    -0.248 NA
ATOM     57  C   UNL A   1      41.678  31.104  35.154  1.00  0.00     0.031 C 
ATOM     58  C   UNL A   1      44.608  27.815  30.984  1.00  0.00     0.029 A 
ATOM     59  C   UNL A   1      43.649  28.579  31.629  1.00  0.00     0.049 A 
ATOM     60  H   UNL A   1      41.675  29.019  31.028  1.00  0.00     0.167 HD
ATOM     61  C   UNL A   1      42.742  29.952  33.483  1.00  0.00     0.074 A 
ATOM     62  C   UNL A   1      42.837  30.574  34.787  1.00  0.00     0.031 C 
ATOM     63  C   UNL A   1      43.749  29.259  32.894  1.00  0.00     0.034 A 
BRANCH  50  64
ATOM     64  C   UNL A   1      42.243  26.769  27.442  1.00  0.00     0.023 A 
ATOM     65  C   UNL A   1      42.957  27.375  26.387  1.00  0.00     0.012 A 
ATOM     66  C   UNL A   1      41.986  25.385  27.396  1.00  0.00     0.148 A 
ATOM     67  C   UNL A   1      43.381  26.625  25.291  1.00  0.00     0.002 A 
ATOM     68  C   UNL A   1      42.449  24.636  26.320  1.00  0.00     0.091 A 
ATOM     69  F   UNL A   1      41.288  24.830  28.397  1.00  0.00    -0.205 F 
ATOM     70  C   UNL A   1      43.136  25.257  25.263  1.00  0.00     0.022 A 
BRANCH  68  71
ATOM     71  S   UNL A   1      42.252  22.853  26.222  1.00  0.00     0.127 S 
ATOM     72  O   UNL A   1      42.992  22.409  27.402  1.00  0.00    -0.237 OA
ATOM     73  O   UNL A   1      40.800  22.697  26.319  1.00  0.00    -0.237 OA
ATOM     74  O   UNL A   1      42.819  22.458  24.941  1.00  0.00    -0.744 OA
ENDBRANCH  68  71
ENDBRANCH  50  64
BRANCH  51  75
ATOM     75  C   UNL A   1      38.958  32.217  35.145  1.00  0.00     0.023 A 
ATOM     76  C   UNL A   1      38.980  33.625  35.111  1.00  0.00     0.012 A 
ATOM     77  C   UNL A   1      38.431  31.566  36.277  1.00  0.00     0.148 A 
ATOM     78  C   UNL A   1      38.516  34.370  36.197  1.00  0.00     0.002 A 
ATOM     79  C   UNL A   1      37.922  32.315  37.332  1.00  0.00     0.091 A 
ATOM     80  F   UNL A   1      38.432  30.225  36.297  1.00  0.00    -0.205 F 
ATOM     81  C   UNL A   1      37.979  33.716  37.301  1.00  0.00     0.022 A 
BRANCH  79  82
ATOM     82  S   UNL A   1      37.089  31.553  38.730  1.00  0.00     0.127 S 
ATOM     83  O   UNL A   1      38.048  31.777  39.808  1.00  0.00    -0.237 OA
ATOM     84  O   UNL A   1      35.860  32.344  38.823  1.00  0.00    -0.237 OA
ATOM     85  O   UNL A   1      36.875  30.165  38.342  1.00  0.00    -0.744 OA
ENDBRANCH  79  82
ENDBRANCH  51  75
BRANCH  63  86
ATOM     86  C   UNL A   1      45.058  29.165  33.632  1.00  0.00     0.023 A 
ATOM     87  C   UNL A   1      46.035  30.163  33.451  1.00  0.00     0.012 A 
ATOM     88  C   UNL A   1      45.286  28.133  34.563  1.00  0.00     0.148 A 
ATOM     89  C   UNL A   1      47.230  30.121  34.165  1.00  0.00     0.002 A 
ATOM     90  C   UNL A   1      46.462  28.122  35.304  1.00  0.00     0.091 A 
ATOM     91  F   UNL A   1      44.353  27.179  34.705  1.00  0.00    -0.205 F 
ATOM     92  C   UNL A   1      47.439  29.110  35.099  1.00  0.00     0.022 A 
BRANCH  90  93
ATOM     93  S   UNL A   1      46.772  26.910  36.593  1.00  0.00     0.127 S 
ATOM     94  O   UNL A   1      45.603  27.083  37.453  1.00  0.00    -0.237 OA
ATOM     95  O   UNL A   1      46.796  25.654  35.843  1.00  0.00    -0.237 OA
ATOM     96  O   UNL A   1      48.049  27.279  37.189  1.00  0.00    -0.744 OA
ENDBRANCH  90  93
ENDBRANCH  63  86
ENDBRANCH  37  38
ENDBRANCH  29  32
ENDBRANCH  27  28
ENDBRANCH  26  27
ENDBRANCH   1  26
TORSDOF 17
ENDMDL
