MODEL 1
REMARK VINA RESULT:     -13.0      0.000      0.000
REMARK SMILES Cc1cc(C(=O)N[C@H]2C=C[C@H](C(=O)NCCCCNC(=O)c3ccc(-c4c5nc(c(-c6cccc(S(=O)(=O)[O-])c6F)c6ccc([nH]6)c(-c6cccc(S(=O)(=O)[O-])c6F)c6nc(c(-c7cccc(S(=O)(=O)[O-])c7F)c7ccc4[nH]7)C=C6)C=C5)cc3)C2)ccc1F
REMARK SMILES IDX 17 1 16 2 15 3 14 4 12 5 13 6 11 8 8 9 9 10 85 11 10 12 7 13
REMARK SMILES IDX 5 14 6 15 4 17 1 18 2 19 3 20 88 21 87 22 89 23 86 24 18 25
REMARK SMILES IDX 19 26 20 27 21 29 22 30 23 31 84 32 24 33 83 34 25 35 26 36
REMARK SMILES IDX 27 37 77 38 28 39 82 40 76 41 78 42 29 43 81 44 75 45 74 46
REMARK SMILES IDX 30 48 62 49 42 50 61 51 43 52 46 53 60 54 79 55 44 56 45 57
REMARK SMILES IDX 59 59 80 60 47 61 31 62 32 63 40 64 33 65 35 66 41 67 34 68
REMARK SMILES IDX 36 69 37 70 38 71 39 72 63 73 64 74 72 75 65 76 67 77 73 78
REMARK SMILES IDX 66 79 68 80 69 81 70 82 71 83 48 84 49 85 57 86 50 87 52 88
REMARK SMILES IDX 58 89 51 90 53 91 54 92 55 93 56 94
REMARK H PARENT 14 7 7 16 19 28 78 47 46 58
REMARK Flexibility Score: inf
ROOT
ATOM      1  C   UNL A   1      32.842  28.417  26.884  1.00  0.00     0.023 C 
ENDROOT
BRANCH   1   2
ATOM      2  C   UNL A   1      32.010  29.610  26.392  1.00  0.00     0.023 C 
BRANCH   2   3
ATOM      3  C   UNL A   1      31.539  29.502  24.945  1.00  0.00     0.116 C 
BRANCH   3   4
ATOM      4  N   UNL A   1      32.430  28.664  24.178  1.00  0.00    -0.356 N 
ATOM      5  C   UNL A   1      32.226  27.492  23.533  1.00  0.00     0.227 C 
ATOM      6  O   UNL A   1      33.248  26.923  23.127  1.00  0.00    -0.274 OA
ATOM      7  H   UNL A   1      33.352  29.006  24.114  1.00  0.00     0.163 HD
BRANCH   5   8
ATOM      8  C   UNL A   1      30.836  26.838  23.342  1.00  0.00     0.103 C 
ATOM      9  C   UNL A   1      30.805  25.125  25.038  1.00  0.00     0.106 C 
ATOM     10  C   UNL A   1      30.661  24.505  23.689  1.00  0.00    -0.006 C 
ATOM     11  C   UNL A   1      30.280  26.536  24.747  1.00  0.00     0.047 C 
ATOM     12  C   UNL A   1      30.706  25.459  22.749  1.00  0.00    -0.016 C 
BRANCH   9  13
ATOM     13  N   UNL A   1      30.063  24.421  26.047  1.00  0.00    -0.346 N 
ATOM     14  C   UNL A   1      30.413  23.313  26.784  1.00  0.00     0.251 C 
ATOM     15  O   UNL A   1      29.634  22.933  27.659  1.00  0.00    -0.269 OA
ATOM     16  H   UNL A   1      29.170  24.788  26.241  1.00  0.00     0.164 HD
BRANCH  14  17
ATOM     17  C   UNL A   1      31.725  22.607  26.629  1.00  0.00     0.040 A 
ATOM     18  C   UNL A   1      33.559  20.183  24.332  1.00  0.00     0.047 C 
ATOM     19  C   UNL A   1      33.275  21.106  25.478  1.00  0.00    -0.015 A 
ATOM     20  C   UNL A   1      31.980  21.600  25.690  1.00  0.00     0.020 A 
ATOM     21  C   UNL A   1      34.293  21.519  26.333  1.00  0.00     0.126 A 
ATOM     22  C   UNL A   1      34.044  22.433  27.351  1.00  0.00     0.040 A 
ATOM     23  F   UNL A   1      35.534  21.038  26.180  1.00  0.00    -0.207 F 
ATOM     24  C   UNL A   1      32.769  22.991  27.485  1.00  0.00     0.017 A 
ENDBRANCH  14  17
ENDBRANCH   9  13
ENDBRANCH   5   8
ENDBRANCH   3   4
ENDBRANCH   2   3
ENDBRANCH   1   2
BRANCH   1  25
ATOM     25  C   UNL A   1      34.340  28.683  26.882  1.00  0.00     0.116 C 
BRANCH  25  26
ATOM     26  N   UNL A   1      34.625  30.113  26.868  1.00  0.00    -0.352 N 
ATOM     27  C   UNL A   1      35.560  30.797  27.613  1.00  0.00     0.251 C 
ATOM     28  H   UNL A   1      34.084  30.656  26.250  1.00  0.00     0.163 HD
ATOM     29  O   UNL A   1      35.414  31.985  27.852  1.00  0.00    -0.269 OA
BRANCH  27  30
ATOM     30  C   UNL A   1      36.723  30.053  28.112  1.00  0.00     0.039 A 
ATOM     31  C   UNL A   1      36.668  29.361  29.330  1.00  0.00     0.014 A 
ATOM     32  C   UNL A   1      37.885  30.089  27.347  1.00  0.00     0.014 A 
ATOM     33  C   UNL A   1      37.786  28.654  29.759  1.00  0.00     0.010 A 
ATOM     34  C   UNL A   1      38.941  29.311  27.708  1.00  0.00     0.010 A 
ATOM     35  C   UNL A   1      38.907  28.642  28.935  1.00  0.00    -0.014 A 
BRANCH  35  36
ATOM     36  C   UNL A   1      40.155  27.975  29.228  1.00  0.00     0.031 A 
ATOM     37  C   UNL A   1      40.366  26.598  28.775  1.00  0.00     0.074 A 
ATOM     38  C   UNL A   1      41.141  28.813  29.618  1.00  0.00     0.049 A 
ATOM     39  N   UNL A   1      41.331  25.858  29.179  1.00  0.00    -0.248 NA
ATOM     40  C   UNL A   1      39.479  25.907  27.839  1.00  0.00     0.031 C 
ATOM     41  C   UNL A   1      42.581  28.672  29.518  1.00  0.00     0.029 A 
ATOM     42  N   UNL A   1      40.965  30.001  30.325  1.00  0.00    -0.354 N 
ATOM     43  C   UNL A   1      41.426  24.802  28.301  1.00  0.00     0.074 A 
ATOM     44  C   UNL A   1      40.167  24.783  27.597  1.00  0.00     0.031 C 
ATOM     45  C   UNL A   1      43.159  29.554  30.356  1.00  0.00     0.029 A 
ATOM     46  C   UNL A   1      42.092  30.158  31.141  1.00  0.00     0.049 A 
ATOM     47  H   UNL A   1      40.197  30.612  30.263  1.00  0.00     0.167 HD
ATOM     48  C   UNL A   1      42.639  24.196  28.151  1.00  0.00     0.034 A 
ATOM     49  C   UNL A   1      41.936  30.013  32.493  1.00  0.00     0.034 A 
ATOM     50  C   UNL A   1      43.622  24.844  29.016  1.00  0.00     0.049 A 
ATOM     51  C   UNL A   1      42.681  28.809  33.010  1.00  0.00     0.074 A 
ATOM     52  C   UNL A   1      44.593  25.800  28.773  1.00  0.00     0.029 A 
ATOM     53  N   UNL A   1      43.442  24.804  30.389  1.00  0.00    -0.354 N 
ATOM     54  N   UNL A   1      42.937  27.736  32.308  1.00  0.00    -0.248 NA
ATOM     55  C   UNL A   1      43.265  28.764  34.340  1.00  0.00     0.031 C 
ATOM     56  C   UNL A   1      44.992  26.344  30.023  1.00  0.00     0.029 A 
ATOM     57  C   UNL A   1      44.267  25.712  31.017  1.00  0.00     0.049 A 
ATOM     58  H   UNL A   1      42.812  24.207  30.853  1.00  0.00     0.167 HD
ATOM     59  C   UNL A   1      43.786  26.916  33.018  1.00  0.00     0.074 A 
ATOM     60  C   UNL A   1      43.935  27.600  34.289  1.00  0.00     0.031 C 
ATOM     61  C   UNL A   1      44.305  25.768  32.476  1.00  0.00     0.034 A 
BRANCH  48  62
ATOM     62  C   UNL A   1      43.022  23.216  27.062  1.00  0.00     0.023 A 
ATOM     63  C   UNL A   1      43.841  23.560  25.967  1.00  0.00     0.012 A 
ATOM     64  C   UNL A   1      42.553  21.881  27.089  1.00  0.00     0.148 A 
ATOM     65  C   UNL A   1      44.230  22.621  24.998  1.00  0.00     0.002 A 
ATOM     66  C   UNL A   1      42.925  20.954  26.116  1.00  0.00     0.091 A 
ATOM     67  F   UNL A   1      41.731  21.471  28.063  1.00  0.00    -0.205 F 
ATOM     68  C   UNL A   1      43.774  21.312  25.071  1.00  0.00     0.022 A 
BRANCH  66  69
ATOM     69  S   UNL A   1      42.283  19.280  26.226  1.00  0.00     0.127 S 
ATOM     70  O   UNL A   1      43.068  18.567  25.223  1.00  0.00    -0.237 OA
ATOM     71  O   UNL A   1      42.518  18.927  27.622  1.00  0.00    -0.237 OA
ATOM     72  O   UNL A   1      40.870  19.442  25.879  1.00  0.00    -0.744 OA
ENDBRANCH  66  69
ENDBRANCH  48  62
BRANCH  49  73
ATOM     73  C   UNL A   1      40.590  30.501  32.954  1.00  0.00     0.023 A 
ATOM     74  C   UNL A   1      39.536  29.586  33.144  1.00  0.00     0.012 A 
ATOM     75  C   UNL A   1      40.269  31.841  32.637  1.00  0.00     0.148 A 
ATOM     76  C   UNL A   1      38.214  29.967  32.866  1.00  0.00     0.002 A 
ATOM     77  C   UNL A   1      38.965  32.190  32.295  1.00  0.00     0.091 A 
ATOM     78  F   UNL A   1      41.271  32.728  32.515  1.00  0.00    -0.205 F 
ATOM     79  C   UNL A   1      37.934  31.250  32.386  1.00  0.00     0.022 A 
BRANCH  77  80
ATOM     80  S   UNL A   1      38.678  33.770  31.482  1.00  0.00     0.127 S 
ATOM     81  O   UNL A   1      39.541  33.690  30.308  1.00  0.00    -0.237 OA
ATOM     82  O   UNL A   1      37.238  33.762  31.234  1.00  0.00    -0.237 OA
ATOM     83  O   UNL A   1      39.098  34.755  32.479  1.00  0.00    -0.744 OA
ENDBRANCH  77  80
ENDBRANCH  49  73
BRANCH  61  84
ATOM     84  C   UNL A   1      44.940  24.571  33.182  1.00  0.00     0.023 A 
ATOM     85  C   UNL A   1      44.121  23.426  33.416  1.00  0.00     0.012 A 
ATOM     86  C   UNL A   1      46.225  24.501  33.727  1.00  0.00     0.148 A 
ATOM     87  C   UNL A   1      44.510  22.343  34.209  1.00  0.00     0.002 A 
ATOM     88  C   UNL A   1      46.644  23.384  34.457  1.00  0.00     0.091 A 
ATOM     89  F   UNL A   1      47.087  25.507  33.585  1.00  0.00    -0.205 F 
ATOM     90  C   UNL A   1      45.785  22.320  34.735  1.00  0.00     0.022 A 
BRANCH  88  91
ATOM     91  S   UNL A   1      48.347  23.328  35.012  1.00  0.00     0.127 S 
ATOM     92  O   UNL A   1      48.435  24.490  35.894  1.00  0.00    -0.237 OA
ATOM     93  O   UNL A   1      48.449  22.021  35.651  1.00  0.00    -0.237 OA
ATOM     94  O   UNL A   1      49.115  23.453  33.773  1.00  0.00    -0.744 OA
ENDBRANCH  88  91
ENDBRANCH  61  84
ENDBRANCH  35  36
ENDBRANCH  27  30
ENDBRANCH  25  26
ENDBRANCH   1  25
TORSDOF 16
ENDMDL
MODEL 2
REMARK VINA RESULT:     -12.9      3.556      9.434
REMARK SMILES Cc1cc(C(=O)N[C@H]2C=C[C@H](C(=O)NCCCCNC(=O)c3ccc(-c4c5nc(c(-c6cccc(S(=O)(=O)[O-])c6F)c6ccc([nH]6)c(-c6cccc(S(=O)(=O)[O-])c6F)c6nc(c(-c7cccc(S(=O)(=O)[O-])c7F)c7ccc4[nH]7)C=C6)C=C5)cc3)C2)ccc1F
REMARK SMILES IDX 17 1 16 2 15 3 14 4 12 5 13 6 11 8 8 9 9 10 85 11 10 12 7 13
REMARK SMILES IDX 5 14 6 15 4 17 1 18 2 19 3 20 88 21 87 22 89 23 86 24 18 25
REMARK SMILES IDX 19 26 20 27 21 29 22 30 23 31 84 32 24 33 83 34 25 35 26 36
REMARK SMILES IDX 27 37 77 38 28 39 82 40 76 41 78 42 29 43 81 44 75 45 74 46
REMARK SMILES IDX 30 48 62 49 42 50 61 51 43 52 46 53 60 54 79 55 44 56 45 57
REMARK SMILES IDX 59 59 80 60 47 61 31 62 32 63 40 64 33 65 35 66 41 67 34 68
REMARK SMILES IDX 36 69 37 70 38 71 39 72 63 73 64 74 72 75 65 76 67 77 73 78
REMARK SMILES IDX 66 79 68 80 69 81 70 82 71 83 48 84 49 85 57 86 50 87 52 88
REMARK SMILES IDX 58 89 51 90 53 91 54 92 55 93 56 94
REMARK H PARENT 14 7 7 16 19 28 78 47 46 58
REMARK Flexibility Score: inf
ROOT
ATOM      1  C   UNL A   1      36.890  23.304  24.078  1.00  0.00     0.023 C 
ENDROOT
BRANCH   1   2
ATOM      2  C   UNL A   1      35.384  23.295  23.780  1.00  0.00     0.023 C 
BRANCH   2   3
ATOM      3  C   UNL A   1      34.668  24.608  24.084  1.00  0.00     0.116 C 
BRANCH   3   4
ATOM      4  N   UNL A   1      33.908  25.053  22.941  1.00  0.00    -0.356 N 
ATOM      5  C   UNL A   1      32.812  25.840  22.844  1.00  0.00     0.227 C 
ATOM      6  O   UNL A   1      32.280  25.878  21.727  1.00  0.00    -0.274 OA
ATOM      7  H   UNL A   1      34.248  24.725  22.077  1.00  0.00     0.163 HD
BRANCH   5   8
ATOM      8  C   UNL A   1      32.193  26.613  24.033  1.00  0.00     0.103 C 
ATOM      9  C   UNL A   1      30.533  25.079  24.872  1.00  0.00     0.106 C 
ATOM     10  C   UNL A   1      29.876  26.345  24.434  1.00  0.00    -0.006 C 
ATOM     11  C   UNL A   1      31.948  25.592  25.162  1.00  0.00     0.047 C 
ATOM     12  C   UNL A   1      30.800  27.183  23.943  1.00  0.00    -0.016 C 
BRANCH   9  13
ATOM     13  N   UNL A   1      29.881  24.489  26.009  1.00  0.00    -0.346 N 
ATOM     14  C   UNL A   1      30.236  23.385  26.751  1.00  0.00     0.251 C 
ATOM     15  O   UNL A   1      29.556  23.115  27.743  1.00  0.00    -0.269 OA
ATOM     16  H   UNL A   1      29.058  24.943  26.300  1.00  0.00     0.164 HD
BRANCH  14  17
ATOM     17  C   UNL A   1      31.449  22.558  26.461  1.00  0.00     0.040 A 
ATOM     18  C   UNL A   1      32.877  20.158  23.868  1.00  0.00     0.047 C 
ATOM     19  C   UNL A   1      32.759  21.004  25.100  1.00  0.00    -0.015 A 
ATOM     20  C   UNL A   1      31.540  21.615  25.429  1.00  0.00     0.020 A 
ATOM     21  C   UNL A   1      33.859  21.228  25.923  1.00  0.00     0.126 A 
ATOM     22  C   UNL A   1      33.768  22.071  27.024  1.00  0.00     0.040 A 
ATOM     23  F   UNL A   1      35.028  20.630  25.657  1.00  0.00    -0.207 F 
ATOM     24  C   UNL A   1      32.572  22.751  27.281  1.00  0.00     0.017 A 
ENDBRANCH  14  17
ENDBRANCH   9  13
ENDBRANCH   5   8
ENDBRANCH   3   4
ENDBRANCH   2   3
ENDBRANCH   1   2
BRANCH   1  25
ATOM     25  C   UNL A   1      37.218  23.681  25.514  1.00  0.00     0.116 C 
BRANCH  25  26
ATOM     26  N   UNL A   1      38.184  22.758  26.099  1.00  0.00    -0.352 N 
ATOM     27  C   UNL A   1      39.442  23.042  26.582  1.00  0.00     0.251 C 
ATOM     28  H   UNL A   1      37.901  21.817  26.157  1.00  0.00     0.163 HD
ATOM     29  O   UNL A   1      40.300  22.175  26.624  1.00  0.00    -0.269 OA
BRANCH  27  30
ATOM     30  C   UNL A   1      39.716  24.413  27.029  1.00  0.00     0.039 A 
ATOM     31  C   UNL A   1      40.228  25.373  26.145  1.00  0.00     0.014 A 
ATOM     32  C   UNL A   1      39.478  24.710  28.368  1.00  0.00     0.014 A 
ATOM     33  C   UNL A   1      40.457  26.665  26.605  1.00  0.00     0.010 A 
ATOM     34  C   UNL A   1      39.597  25.997  28.794  1.00  0.00     0.010 A 
ATOM     35  C   UNL A   1      40.135  26.954  27.928  1.00  0.00    -0.014 A 
BRANCH  35  36
ATOM     36  C   UNL A   1      40.320  28.233  28.574  1.00  0.00     0.031 A 
ATOM     37  C   UNL A   1      39.228  29.209  28.580  1.00  0.00     0.074 A 
ATOM     38  C   UNL A   1      41.389  28.275  29.400  1.00  0.00     0.049 A 
ATOM     39  N   UNL A   1      39.373  30.436  28.920  1.00  0.00    -0.248 NA
ATOM     40  C   UNL A   1      37.860  28.897  28.163  1.00  0.00     0.031 C 
ATOM     41  C   UNL A   1      41.641  29.108  30.561  1.00  0.00     0.029 A 
ATOM     42  N   UNL A   1      42.573  27.559  29.234  1.00  0.00    -0.354 N 
ATOM     43  C   UNL A   1      38.115  30.944  29.151  1.00  0.00     0.074 A 
ATOM     44  C   UNL A   1      37.211  30.017  28.512  1.00  0.00     0.031 C 
ATOM     45  C   UNL A   1      42.959  29.073  30.838  1.00  0.00     0.029 A 
ATOM     46  C   UNL A   1      43.604  28.354  29.748  1.00  0.00     0.049 A 
ATOM     47  H   UNL A   1      42.666  26.666  28.832  1.00  0.00     0.167 HD
ATOM     48  C   UNL A   1      37.991  31.986  30.021  1.00  0.00     0.034 A 
ATOM     49  C   UNL A   1      44.497  28.902  28.869  1.00  0.00     0.034 A 
ATOM     50  C   UNL A   1      39.305  32.354  30.539  1.00  0.00     0.049 A 
ATOM     51  C   UNL A   1      44.393  30.406  28.839  1.00  0.00     0.074 A 
ATOM     52  C   UNL A   1      39.961  32.054  31.721  1.00  0.00     0.029 A 
ATOM     53  N   UNL A   1      40.270  32.819  29.660  1.00  0.00    -0.354 N 
ATOM     54  N   UNL A   1      43.304  31.080  29.100  1.00  0.00    -0.248 NA
ATOM     55  C   UNL A   1      45.539  31.263  28.591  1.00  0.00     0.031 C 
ATOM     56  C   UNL A   1      41.340  32.339  31.539  1.00  0.00     0.029 A 
ATOM     57  C   UNL A   1      41.515  32.814  30.251  1.00  0.00     0.049 A 
ATOM     58  H   UNL A   1      40.090  33.114  28.738  1.00  0.00     0.167 HD
ATOM     59  C   UNL A   1      43.600  32.424  29.164  1.00  0.00     0.074 A 
ATOM     60  C   UNL A   1      45.007  32.477  28.813  1.00  0.00     0.031 C 
ATOM     61  C   UNL A   1      42.663  33.356  29.529  1.00  0.00     0.034 A 
BRANCH  48  62
ATOM     62  C   UNL A   1      36.699  32.508  30.615  1.00  0.00     0.023 A 
ATOM     63  C   UNL A   1      36.307  32.264  31.947  1.00  0.00     0.012 A 
ATOM     64  C   UNL A   1      35.799  33.274  29.836  1.00  0.00     0.148 A 
ATOM     65  C   UNL A   1      35.131  32.804  32.495  1.00  0.00     0.002 A 
ATOM     66  C   UNL A   1      34.623  33.795  30.375  1.00  0.00     0.091 A 
ATOM     67  F   UNL A   1      36.059  33.520  28.546  1.00  0.00    -0.205 F 
ATOM     68  C   UNL A   1      34.286  33.575  31.709  1.00  0.00     0.022 A 
BRANCH  66  69
ATOM     69  S   UNL A   1      33.537  34.755  29.315  1.00  0.00     0.127 S 
ATOM     70  O   UNL A   1      32.502  35.208  30.239  1.00  0.00    -0.237 OA
ATOM     71  O   UNL A   1      34.425  35.775  28.768  1.00  0.00    -0.237 OA
ATOM     72  O   UNL A   1      33.076  33.773  28.332  1.00  0.00    -0.744 OA
ENDBRANCH  66  69
ENDBRANCH  48  62
BRANCH  49  73
ATOM     73  C   UNL A   1      44.750  27.998  27.694  1.00  0.00     0.023 A 
ATOM     74  C   UNL A   1      43.905  28.053  26.568  1.00  0.00     0.012 A 
ATOM     75  C   UNL A   1      45.423  26.786  27.972  1.00  0.00     0.148 A 
ATOM     76  C   UNL A   1      43.622  26.885  25.843  1.00  0.00     0.002 A 
ATOM     77  C   UNL A   1      45.081  25.620  27.292  1.00  0.00     0.091 A 
ATOM     78  F   UNL A   1      46.275  26.750  29.011  1.00  0.00    -0.205 F 
ATOM     79  C   UNL A   1      44.163  25.658  26.238  1.00  0.00     0.022 A 
BRANCH  77  80
ATOM     80  S   UNL A   1      45.624  24.038  27.960  1.00  0.00     0.127 S 
ATOM     81  O   UNL A   1      45.239  24.133  29.364  1.00  0.00    -0.237 OA
ATOM     82  O   UNL A   1      44.897  23.065  27.149  1.00  0.00    -0.237 OA
ATOM     83  O   UNL A   1      47.068  24.040  27.724  1.00  0.00    -0.744 OA
ENDBRANCH  77  80
ENDBRANCH  49  73
BRANCH  61  84
ATOM     84  C   UNL A   1      42.674  34.868  29.315  1.00  0.00     0.023 A 
ATOM     85  C   UNL A   1      41.940  35.389  28.207  1.00  0.00     0.012 A 
ATOM     86  C   UNL A   1      43.415  35.814  30.029  1.00  0.00     0.148 A 
ATOM     87  C   UNL A   1      42.012  36.718  27.782  1.00  0.00     0.002 A 
ATOM     88  C   UNL A   1      43.430  37.161  29.653  1.00  0.00     0.091 A 
ATOM     89  F   UNL A   1      44.150  35.458  31.082  1.00  0.00    -0.205 F 
ATOM     90  C   UNL A   1      42.765  37.615  28.513  1.00  0.00     0.022 A 
BRANCH  88  91
ATOM     91  S   UNL A   1      44.307  38.321  30.699  1.00  0.00     0.127 S 
ATOM     92  O   UNL A   1      43.959  39.611  30.109  1.00  0.00    -0.237 OA
ATOM     93  O   UNL A   1      43.766  38.049  32.027  1.00  0.00    -0.237 OA
ATOM     94  O   UNL A   1      45.709  37.939  30.532  1.00  0.00    -0.744 OA
ENDBRANCH  88  91
ENDBRANCH  61  84
ENDBRANCH  35  36
ENDBRANCH  27  30
ENDBRANCH  25  26
ENDBRANCH   1  25
TORSDOF 16
ENDMDL
MODEL 3
REMARK VINA RESULT:     -12.9      1.550      3.144
REMARK SMILES Cc1cc(C(=O)N[C@H]2C=C[C@H](C(=O)NCCCCNC(=O)c3ccc(-c4c5nc(c(-c6cccc(S(=O)(=O)[O-])c6F)c6ccc([nH]6)c(-c6cccc(S(=O)(=O)[O-])c6F)c6nc(c(-c7cccc(S(=O)(=O)[O-])c7F)c7ccc4[nH]7)C=C6)C=C5)cc3)C2)ccc1F
REMARK SMILES IDX 17 1 16 2 15 3 14 4 12 5 13 6 11 8 8 9 9 10 85 11 10 12 7 13
REMARK SMILES IDX 5 14 6 15 4 17 1 18 2 19 3 20 88 21 87 22 89 23 86 24 18 25
REMARK SMILES IDX 19 26 20 27 21 29 22 30 23 31 84 32 24 33 83 34 25 35 26 36
REMARK SMILES IDX 27 37 77 38 28 39 82 40 76 41 78 42 29 43 81 44 75 45 74 46
REMARK SMILES IDX 30 48 62 49 42 50 61 51 43 52 46 53 60 54 79 55 44 56 45 57
REMARK SMILES IDX 59 59 80 60 47 61 31 62 32 63 40 64 33 65 35 66 41 67 34 68
REMARK SMILES IDX 36 69 37 70 38 71 39 72 63 73 64 74 72 75 65 76 67 77 73 78
REMARK SMILES IDX 66 79 68 80 69 81 70 82 71 83 48 84 49 85 57 86 50 87 52 88
REMARK SMILES IDX 58 89 51 90 53 91 54 92 55 93 56 94
REMARK H PARENT 14 7 7 16 19 28 78 47 46 58
REMARK Flexibility Score: inf
ROOT
ATOM      1  C   UNL A   1      33.411  28.249  27.458  1.00  0.00     0.023 C 
ENDROOT
BRANCH   1   2
ATOM      2  C   UNL A   1      32.155  27.674  26.788  1.00  0.00     0.023 C 
BRANCH   2   3
ATOM      3  C   UNL A   1      32.346  26.300  26.152  1.00  0.00     0.116 C 
BRANCH   3   4
ATOM      4  N   UNL A   1      31.504  25.319  26.794  1.00  0.00    -0.356 N 
ATOM      5  C   UNL A   1      31.446  23.972  26.676  1.00  0.00     0.227 C 
ATOM      6  O   UNL A   1      30.477  23.430  27.223  1.00  0.00    -0.274 OA
ATOM      7  H   UNL A   1      30.856  25.697  27.432  1.00  0.00     0.163 HD
BRANCH   5   8
ATOM      8  C   UNL A   1      32.465  23.128  25.873  1.00  0.00     0.103 C 
ATOM      9  C   UNL A   1      32.068  23.820  23.597  1.00  0.00     0.106 C 
ATOM     10  C   UNL A   1      31.811  22.357  23.733  1.00  0.00    -0.006 C 
ATOM     11  C   UNL A   1      33.036  24.037  24.766  1.00  0.00     0.047 C 
ATOM     12  C   UNL A   1      32.007  21.983  25.006  1.00  0.00    -0.016 C 
BRANCH   9  13
ATOM     13  N   UNL A   1      32.615  24.163  22.314  1.00  0.00    -0.346 N 
ATOM     14  C   UNL A   1      32.638  25.376  21.662  1.00  0.00     0.251 C 
ATOM     15  O   UNL A   1      33.243  25.443  20.591  1.00  0.00    -0.269 OA
ATOM     16  H   UNL A   1      33.039  23.419  21.828  1.00  0.00     0.164 HD
BRANCH  14  17
ATOM     17  C   UNL A   1      32.039  26.624  22.234  1.00  0.00     0.040 A 
ATOM     18  C   UNL A   1      28.716  28.083  23.393  1.00  0.00     0.047 C 
ATOM     19  C   UNL A   1      30.177  27.965  23.078  1.00  0.00    -0.015 A 
ATOM     20  C   UNL A   1      30.665  26.854  22.375  1.00  0.00     0.020 A 
ATOM     21  C   UNL A   1      31.081  28.933  23.504  1.00  0.00     0.126 A 
ATOM     22  C   UNL A   1      32.445  28.787  23.276  1.00  0.00     0.040 A 
ATOM     23  F   UNL A   1      30.643  30.024  24.147  1.00  0.00    -0.207 F 
ATOM     24  C   UNL A   1      32.925  27.625  22.662  1.00  0.00     0.017 A 
ENDBRANCH  14  17
ENDBRANCH   9  13
ENDBRANCH   5   8
ENDBRANCH   3   4
ENDBRANCH   2   3
ENDBRANCH   1   2
BRANCH   1  25
ATOM     25  C   UNL A   1      34.270  29.081  26.517  1.00  0.00     0.116 C 
BRANCH  25  26
ATOM     26  N   UNL A   1      34.319  30.477  26.936  1.00  0.00    -0.352 N 
ATOM     27  C   UNL A   1      35.045  31.025  27.971  1.00  0.00     0.251 C 
ATOM     28  H   UNL A   1      33.766  31.103  26.416  1.00  0.00     0.163 HD
ATOM     29  O   UNL A   1      34.682  32.063  28.500  1.00  0.00    -0.269 OA
BRANCH  27  30
ATOM     30  C   UNL A   1      36.252  30.319  28.417  1.00  0.00     0.039 A 
ATOM     31  C   UNL A   1      36.269  29.612  29.628  1.00  0.00     0.014 A 
ATOM     32  C   UNL A   1      37.381  30.405  27.608  1.00  0.00     0.014 A 
ATOM     33  C   UNL A   1      37.428  28.943  30.005  1.00  0.00     0.010 A 
ATOM     34  C   UNL A   1      38.479  29.663  27.918  1.00  0.00     0.010 A 
ATOM     35  C   UNL A   1      38.517  28.980  29.138  1.00  0.00    -0.014 A 
BRANCH  35  36
ATOM     36  C   UNL A   1      39.798  28.357  29.375  1.00  0.00     0.031 A 
ATOM     37  C   UNL A   1      40.054  27.008  28.866  1.00  0.00     0.074 A 
ATOM     38  C   UNL A   1      40.758  29.221  29.771  1.00  0.00     0.049 A 
ATOM     39  N   UNL A   1      41.059  26.294  29.218  1.00  0.00    -0.248 NA
ATOM     40  C   UNL A   1      39.172  26.314  27.927  1.00  0.00     0.031 C 
ATOM     41  C   UNL A   1      42.200  29.145  29.631  1.00  0.00     0.029 A 
ATOM     42  N   UNL A   1      40.552  30.374  30.527  1.00  0.00    -0.354 N 
ATOM     43  C   UNL A   1      41.175  25.276  28.299  1.00  0.00     0.074 A 
ATOM     44  C   UNL A   1      39.900  25.230  27.625  1.00  0.00     0.031 C 
ATOM     45  C   UNL A   1      42.763  30.020  30.487  1.00  0.00     0.029 A 
ATOM     46  C   UNL A   1      41.692  30.548  31.320  1.00  0.00     0.049 A 
ATOM     47  H   UNL A   1      39.757  30.954  30.506  1.00  0.00     0.167 HD
ATOM     48  C   UNL A   1      42.408  24.729  28.096  1.00  0.00     0.034 A 
ATOM     49  C   UNL A   1      41.578  30.348  32.669  1.00  0.00     0.034 A 
ATOM     50  C   UNL A   1      43.385  25.385  28.960  1.00  0.00     0.049 A 
ATOM     51  C   UNL A   1      42.386  29.159  33.122  1.00  0.00     0.074 A 
ATOM     52  C   UNL A   1      44.309  26.390  28.729  1.00  0.00     0.029 A 
ATOM     53  N   UNL A   1      43.243  25.288  30.334  1.00  0.00    -0.354 N 
ATOM     54  N   UNL A   1      42.668  28.124  32.375  1.00  0.00    -0.248 NA
ATOM     55  C   UNL A   1      43.006  29.090  34.434  1.00  0.00     0.031 C 
ATOM     56  C   UNL A   1      44.717  26.904  29.988  1.00  0.00     0.029 A 
ATOM     57  C   UNL A   1      44.046  26.207  30.976  1.00  0.00     0.049 A 
ATOM     58  H   UNL A   1      42.651  24.648  30.791  1.00  0.00     0.167 HD
ATOM     59  C   UNL A   1      43.568  27.315  33.032  1.00  0.00     0.074 A 
ATOM     60  C   UNL A   1      43.722  27.958  34.323  1.00  0.00     0.031 C 
ATOM     61  C   UNL A   1      44.120  26.211  32.435  1.00  0.00     0.034 A 
BRANCH  48  62
ATOM     62  C   UNL A   1      42.802  23.806  26.962  1.00  0.00     0.023 A 
ATOM     63  C   UNL A   1      43.560  24.229  25.850  1.00  0.00     0.012 A 
ATOM     64  C   UNL A   1      42.408  22.447  26.961  1.00  0.00     0.148 A 
ATOM     65  C   UNL A   1      43.963  23.344  24.837  1.00  0.00     0.002 A 
ATOM     66  C   UNL A   1      42.793  21.572  25.945  1.00  0.00     0.091 A 
ATOM     67  F   UNL A   1      41.647  21.962  27.949  1.00  0.00    -0.205 F 
ATOM     68  C   UNL A   1      43.581  22.010  24.883  1.00  0.00     0.022 A 
BRANCH  66  69
ATOM     69  S   UNL A   1      42.248  19.863  26.022  1.00  0.00     0.127 S 
ATOM     70  O   UNL A   1      40.799  19.981  25.889  1.00  0.00    -0.237 OA
ATOM     71  O   UNL A   1      42.963  19.238  24.915  1.00  0.00    -0.237 OA
ATOM     72  O   UNL A   1      42.696  19.429  27.346  1.00  0.00    -0.744 OA
ENDBRANCH  66  69
ENDBRANCH  48  62
BRANCH  49  73
ATOM     73  C   UNL A   1      40.226  30.761  33.181  1.00  0.00     0.023 A 
ATOM     74  C   UNL A   1      39.160  29.839  33.182  1.00  0.00     0.012 A 
ATOM     75  C   UNL A   1      39.922  32.140  33.104  1.00  0.00     0.148 A 
ATOM     76  C   UNL A   1      37.848  30.280  32.948  1.00  0.00     0.002 A 
ATOM     77  C   UNL A   1      38.629  32.560  32.802  1.00  0.00     0.091 A 
ATOM     78  F   UNL A   1      40.934  33.023  33.163  1.00  0.00    -0.205 F 
ATOM     79  C   UNL A   1      37.589  31.631  32.700  1.00  0.00     0.022 A 
BRANCH  77  80
ATOM     80  S   UNL A   1      38.373  34.264  32.279  1.00  0.00     0.127 S 
ATOM     81  O   UNL A   1      36.991  34.254  31.814  1.00  0.00    -0.237 OA
ATOM     82  O   UNL A   1      38.649  35.030  33.491  1.00  0.00    -0.237 OA
ATOM     83  O   UNL A   1      39.368  34.456  31.222  1.00  0.00    -0.744 OA
ENDBRANCH  77  80
ENDBRANCH  49  73
BRANCH  61  84
ATOM     84  C   UNL A   1      44.822  25.017  33.079  1.00  0.00     0.023 A 
ATOM     85  C   UNL A   1      44.052  23.838  33.313  1.00  0.00     0.012 A 
ATOM     86  C   UNL A   1      46.131  24.975  33.569  1.00  0.00     0.148 A 
ATOM     87  C   UNL A   1      44.508  22.748  34.057  1.00  0.00     0.002 A 
ATOM     88  C   UNL A   1      46.616  23.854  34.249  1.00  0.00     0.091 A 
ATOM     89  F   UNL A   1      46.952  26.013  33.423  1.00  0.00    -0.205 F 
ATOM     90  C   UNL A   1      45.804  22.754  34.531  1.00  0.00     0.022 A 
BRANCH  88  91
ATOM     91  S   UNL A   1      48.341  23.840  34.733  1.00  0.00     0.127 S 
ATOM     92  O   UNL A   1      48.521  22.482  35.241  1.00  0.00    -0.237 OA
ATOM     93  O   UNL A   1      49.039  24.166  33.493  1.00  0.00    -0.237 OA
ATOM     94  O   UNL A   1      48.418  24.882  35.757  1.00  0.00    -0.744 OA
ENDBRANCH  88  91
ENDBRANCH  61  84
ENDBRANCH  35  36
ENDBRANCH  27  30
ENDBRANCH  25  26
ENDBRANCH   1  25
TORSDOF 16
ENDMDL
