MODEL 1
REMARK VINA RESULT:     -11.9      0.000      0.000
REMARK SMILES COc1cc([C@@H]2[NH2+][C@H](C(=O)NCCCCNC(=O)c3ccc(-c4c5nc(c(-c6cccc(S(=O)(=O)[O-])c6F)c6ccc([nH]6)c(-c6cccc(S(=O)(=O)[O-])c6F)c6nc(c(-c7cccc(S(=O)(=O)[O-])c7F)c7ccc4[nH]7)C=C6)C=C5)cc3)CS2)ccc1OCc1ccc(Cl)cc1
REMARK SMILES IDX 13 1 12 2 11 3 9 4 10 5 8 7 6 8 7 9 83 10 82 13 5 14 3 15
REMARK SMILES IDX 4 16 86 17 85 18 84 19 2 20 1 21 87 22 88 23 89 24 90 25
REMARK SMILES IDX 95 26 91 27 94 28 92 29 93 30 14 31 15 32 16 33 17 34 18 36
REMARK SMILES IDX 19 37 20 38 81 39 21 40 80 41 22 42 23 43 24 44 74 45 25 46
REMARK SMILES IDX 79 47 73 48 75 49 26 50 78 51 72 52 71 53 27 55 59 56 39 57
REMARK SMILES IDX 58 58 40 59 43 60 57 61 76 62 41 63 42 64 56 66 77 67 44 68
REMARK SMILES IDX 28 69 29 70 37 71 30 72 32 73 38 74 31 75 33 76 34 77 35 78
REMARK SMILES IDX 36 79 60 80 61 81 69 82 62 83 64 84 70 85 63 86 65 87 66 88
REMARK SMILES IDX 67 89 68 90 45 91 46 92 54 93 47 94 49 95 55 96 48 97 50 98
REMARK SMILES IDX 51 99 52 100 53 101
REMARK H PARENT 11 6 7 11 7 12 16 35 75 54 43 65
REMARK Flexibility Score: inf
ROOT
ATOM      1  C   UNL A   1      33.766  25.969  25.975  1.00  0.00     0.023 C 
ENDROOT
BRANCH   1   2
ATOM      2  C   UNL A   1      34.446  24.819  25.238  1.00  0.00     0.116 C 
BRANCH   2   3
ATOM      3  N   UNL A   1      35.889  24.843  25.399  1.00  0.00    -0.351 N 
ATOM      4  C   UNL A   1      36.774  23.847  25.692  1.00  0.00     0.279 C 
ATOM      5  O   UNL A   1      37.972  24.145  25.736  1.00  0.00    -0.268 OA
ATOM      6  H   UNL A   1      36.299  25.730  25.277  1.00  0.00     0.163 HD
BRANCH   4   7
ATOM      7  C   UNL A   1      36.337  22.389  25.923  1.00  0.00     0.283 C 
ATOM      8  C   UNL A   1      34.318  21.032  25.886  1.00  0.00     0.274 C 
ATOM      9  N   UNL A   1      34.909  22.320  26.266  1.00  0.00    -0.321 N 
ATOM     10  S   UNL A   1      35.556  20.082  24.967  1.00  0.00    -0.088 SA
ATOM     11  H   UNL A   1      34.805  22.448  27.273  1.00  0.00     0.348 HD
ATOM     12  H   UNL A   1      34.424  23.055  25.751  1.00  0.00     0.348 HD
ATOM     13  C   UNL A   1      36.647  21.503  24.729  1.00  0.00     0.151 C 
BRANCH   8  14
ATOM     14  C   UNL A   1      33.011  21.340  25.161  1.00  0.00     0.024 A 
ATOM     15  C   UNL A   1      31.099  22.881  25.186  1.00  0.00     0.161 A 
ATOM     16  C   UNL A   1      32.054  22.104  25.856  1.00  0.00     0.061 A 
ATOM     17  C   UNL A   1      31.056  22.841  23.791  1.00  0.00     0.161 A 
ATOM     18  C   UNL A   1      31.824  21.882  23.115  1.00  0.00     0.051 A 
ATOM     19  C   UNL A   1      32.807  21.148  23.789  1.00  0.00     0.015 A 
BRANCH  15  20
ATOM     20  O   UNL A   1      30.344  23.634  26.040  1.00  0.00    -0.493 OA
ATOM     21  C   UNL A   1      29.617  22.961  27.050  1.00  0.00     0.278 C 
ENDBRANCH  15  20
BRANCH  17  22
ATOM     22  O   UNL A   1      30.707  23.942  23.054  1.00  0.00    -0.485 OA
BRANCH  22  23
ATOM     23  C   UNL A   1      31.217  25.239  23.337  1.00  0.00     0.265 C 
BRANCH  23  24
ATOM     24  C   UNL A   1      30.301  26.415  23.180  1.00  0.00    -0.011 A 
ATOM     25  C   UNL A   1      30.747  27.554  22.501  1.00  0.00     0.009 A 
ATOM     26  C   UNL A   1      29.019  26.403  23.741  1.00  0.00     0.009 A 
ATOM     27  C   UNL A   1      29.944  28.689  22.444  1.00  0.00     0.021 A 
ATOM     28  C   UNL A   1      28.212  27.535  23.678  1.00  0.00     0.021 A 
ATOM     29  C   UNL A   1      28.688  28.680  23.048  1.00  0.00     0.041 A 
ATOM     30  Cl  UNL A   1      27.730  30.107  23.039  1.00  0.00    -0.084 Cl
ENDBRANCH  23  24
ENDBRANCH  22  23
ENDBRANCH  17  22
ENDBRANCH   8  14
ENDBRANCH   4   7
ENDBRANCH   2   3
ENDBRANCH   1   2
BRANCH   1  31
ATOM     31  C   UNL A   1      33.268  27.162  25.153  1.00  0.00     0.023 C 
BRANCH  31  32
ATOM     32  C   UNL A   1      33.921  28.530  25.311  1.00  0.00     0.116 C 
BRANCH  32  33
ATOM     33  N   UNL A   1      33.071  29.592  25.828  1.00  0.00    -0.352 N 
ATOM     34  C   UNL A   1      33.340  30.547  26.795  1.00  0.00     0.251 C 
ATOM     35  H   UNL A   1      32.171  29.639  25.432  1.00  0.00     0.163 HD
ATOM     36  O   UNL A   1      32.507  31.372  27.116  1.00  0.00    -0.269 OA
BRANCH  34  37
ATOM     37  C   UNL A   1      34.665  30.539  27.452  1.00  0.00     0.039 A 
ATOM     38  C   UNL A   1      35.429  31.710  27.541  1.00  0.00     0.014 A 
ATOM     39  C   UNL A   1      35.112  29.356  28.030  1.00  0.00     0.014 A 
ATOM     40  C   UNL A   1      36.584  31.727  28.320  1.00  0.00     0.010 A 
ATOM     41  C   UNL A   1      36.206  29.390  28.872  1.00  0.00     0.010 A 
ATOM     42  C   UNL A   1      36.955  30.571  29.010  1.00  0.00    -0.014 A 
BRANCH  42  43
ATOM     43  C   UNL A   1      38.220  30.455  29.758  1.00  0.00     0.031 A 
ATOM     44  C   UNL A   1      39.263  29.557  29.164  1.00  0.00     0.074 A 
ATOM     45  C   UNL A   1      38.336  30.977  30.989  1.00  0.00     0.049 A 
ATOM     46  N   UNL A   1      40.294  28.996  29.727  1.00  0.00    -0.248 NA
ATOM     47  C   UNL A   1      39.059  29.176  27.752  1.00  0.00     0.031 C 
ATOM     48  C   UNL A   1      37.356  31.845  31.645  1.00  0.00     0.029 A 
ATOM     49  N   UNL A   1      39.314  30.803  31.932  1.00  0.00    -0.354 N 
ATOM     50  C   UNL A   1      40.814  28.138  28.766  1.00  0.00     0.074 A 
ATOM     51  C   UNL A   1      39.964  28.224  27.602  1.00  0.00     0.031 C 
ATOM     52  C   UNL A   1      37.774  32.111  32.895  1.00  0.00     0.029 A 
ATOM     53  C   UNL A   1      39.022  31.396  33.139  1.00  0.00     0.049 A 
ATOM     54  H   UNL A   1      40.144  30.301  31.764  1.00  0.00     0.167 HD
ATOM     55  C   UNL A   1      41.918  27.361  28.849  1.00  0.00     0.034 A 
ATOM     56  C   UNL A   1      39.686  31.332  34.310  1.00  0.00     0.034 A 
ATOM     57  C   UNL A   1      42.763  27.341  30.008  1.00  0.00     0.049 A 
ATOM     58  C   UNL A   1      40.939  30.495  34.366  1.00  0.00     0.074 A 
ATOM     59  C   UNL A   1      43.950  26.665  30.204  1.00  0.00     0.029 A 
ATOM     60  N   UNL A   1      42.502  28.050  31.175  1.00  0.00    -0.354 N 
ATOM     61  N   UNL A   1      41.483  29.759  33.424  1.00  0.00    -0.248 NA
ATOM     62  C   UNL A   1      41.683  30.499  35.632  1.00  0.00     0.031 C 
ATOM     63  C   UNL A   1      44.399  26.951  31.497  1.00  0.00     0.029 A 
ATOM     64  C   UNL A   1      43.507  27.831  32.097  1.00  0.00     0.049 A 
ATOM     65  H   UNL A   1      41.715  28.623  31.323  1.00  0.00     0.167 HD
ATOM     66  C   UNL A   1      42.656  29.248  33.967  1.00  0.00     0.074 A 
ATOM     67  C   UNL A   1      42.745  29.770  35.318  1.00  0.00     0.031 C 
ATOM     68  C   UNL A   1      43.576  28.418  33.412  1.00  0.00     0.034 A 
BRANCH  55  69
ATOM     69  C   UNL A   1      42.260  26.518  27.648  1.00  0.00     0.023 A 
ATOM     70  C   UNL A   1      42.869  27.113  26.523  1.00  0.00     0.012 A 
ATOM     71  C   UNL A   1      41.958  25.143  27.617  1.00  0.00     0.148 A 
ATOM     72  C   UNL A   1      43.113  26.372  25.366  1.00  0.00     0.002 A 
ATOM     73  C   UNL A   1      42.256  24.397  26.482  1.00  0.00     0.091 A 
ATOM     74  F   UNL A   1      41.355  24.594  28.682  1.00  0.00    -0.205 F 
ATOM     75  C   UNL A   1      42.813  25.013  25.350  1.00  0.00     0.022 A 
BRANCH  73  76
ATOM     76  S   UNL A   1      41.986  22.624  26.387  1.00  0.00     0.127 S 
ATOM     77  O   UNL A   1      40.528  22.542  26.480  1.00  0.00    -0.237 OA
ATOM     78  O   UNL A   1      42.532  22.301  25.069  1.00  0.00    -0.237 OA
ATOM     79  O   UNL A   1      42.717  22.047  27.505  1.00  0.00    -0.744 OA
ENDBRANCH  73  76
ENDBRANCH  55  69
BRANCH  56  80
ATOM     80  C   UNL A   1      39.232  32.138  35.479  1.00  0.00     0.023 A 
ATOM     81  C   UNL A   1      38.337  31.556  36.399  1.00  0.00     0.012 A 
ATOM     82  C   UNL A   1      39.703  33.445  35.719  1.00  0.00     0.148 A 
ATOM     83  C   UNL A   1      37.897  32.265  37.517  1.00  0.00     0.002 A 
ATOM     84  C   UNL A   1      39.300  34.128  36.862  1.00  0.00     0.091 A 
ATOM     85  F   UNL A   1      40.550  33.986  34.832  1.00  0.00    -0.205 F 
ATOM     86  C   UNL A   1      38.384  33.546  37.754  1.00  0.00     0.022 A 
BRANCH  84  87
ATOM     87  S   UNL A   1      39.967  35.733  37.322  1.00  0.00     0.127 S 
ATOM     88  O   UNL A   1      39.249  36.011  38.564  1.00  0.00    -0.237 OA
ATOM     89  O   UNL A   1      41.390  35.432  37.485  1.00  0.00    -0.237 OA
ATOM     90  O   UNL A   1      39.663  36.619  36.206  1.00  0.00    -0.744 OA
ENDBRANCH  84  87
ENDBRANCH  56  80
BRANCH  68  91
ATOM     91  C   UNL A   1      44.780  28.071  34.243  1.00  0.00     0.023 A 
ATOM     92  C   UNL A   1      45.916  28.901  34.220  1.00  0.00     0.012 A 
ATOM     93  C   UNL A   1      44.740  26.965  35.115  1.00  0.00     0.148 A 
ATOM     94  C   UNL A   1      47.010  28.619  35.035  1.00  0.00     0.002 A 
ATOM     95  C   UNL A   1      45.812  26.722  35.963  1.00  0.00     0.091 A 
ATOM     96  F   UNL A   1      43.653  26.179  35.104  1.00  0.00    -0.205 F 
ATOM     97  C   UNL A   1      46.953  27.540  35.915  1.00  0.00     0.022 A 
BRANCH  95  98
ATOM     98  S   UNL A   1      45.778  25.425  37.203  1.00  0.00     0.127 S 
ATOM     99  O   UNL A   1      44.398  25.507  37.679  1.00  0.00    -0.237 OA
ATOM    100  O   UNL A   1      46.080  24.232  36.410  1.00  0.00    -0.237 OA
ATOM    101  O   UNL A   1      46.798  25.775  38.181  1.00  0.00    -0.744 OA
ENDBRANCH  95  98
ENDBRANCH  68  91
ENDBRANCH  42  43
ENDBRANCH  34  37
ENDBRANCH  32  33
ENDBRANCH  31  32
ENDBRANCH   1  31
TORSDOF 19
ENDMDL
MODEL 2
REMARK VINA RESULT:     -11.8      1.903      2.265
REMARK SMILES COc1cc([C@@H]2[NH2+][C@H](C(=O)NCCCCNC(=O)c3ccc(-c4c5nc(c(-c6cccc(S(=O)(=O)[O-])c6F)c6ccc([nH]6)c(-c6cccc(S(=O)(=O)[O-])c6F)c6nc(c(-c7cccc(S(=O)(=O)[O-])c7F)c7ccc4[nH]7)C=C6)C=C5)cc3)CS2)ccc1OCc1ccc(Cl)cc1
REMARK SMILES IDX 13 1 12 2 11 3 9 4 10 5 8 7 6 8 7 9 83 10 82 13 5 14 3 15
REMARK SMILES IDX 4 16 86 17 85 18 84 19 2 20 1 21 87 22 88 23 89 24 90 25
REMARK SMILES IDX 95 26 91 27 94 28 92 29 93 30 14 31 15 32 16 33 17 34 18 36
REMARK SMILES IDX 19 37 20 38 81 39 21 40 80 41 22 42 23 43 24 44 74 45 25 46
REMARK SMILES IDX 79 47 73 48 75 49 26 50 78 51 72 52 71 53 27 55 59 56 39 57
REMARK SMILES IDX 58 58 40 59 43 60 57 61 76 62 41 63 42 64 56 66 77 67 44 68
REMARK SMILES IDX 28 69 29 70 37 71 30 72 32 73 38 74 31 75 33 76 34 77 35 78
REMARK SMILES IDX 36 79 60 80 61 81 69 82 62 83 64 84 70 85 63 86 65 87 66 88
REMARK SMILES IDX 67 89 68 90 45 91 46 92 54 93 47 94 49 95 55 96 48 97 50 98
REMARK SMILES IDX 51 99 52 100 53 101
REMARK H PARENT 11 6 7 11 7 12 16 35 75 54 43 65
REMARK Flexibility Score: inf
ROOT
ATOM      1  C   UNL A   1      33.988  26.131  25.533  1.00  0.00     0.023 C 
ENDROOT
BRANCH   1   2
ATOM      2  C   UNL A   1      34.569  24.914  24.819  1.00  0.00     0.116 C 
BRANCH   2   3
ATOM      3  N   UNL A   1      35.868  24.538  25.349  1.00  0.00    -0.351 N 
ATOM      4  C   UNL A   1      36.310  23.363  25.884  1.00  0.00     0.279 C 
ATOM      5  O   UNL A   1      37.495  23.306  26.231  1.00  0.00    -0.268 OA
ATOM      6  H   UNL A   1      36.546  25.253  25.316  1.00  0.00     0.163 HD
BRANCH   4   7
ATOM      7  C   UNL A   1      35.408  22.124  26.028  1.00  0.00     0.283 C 
ATOM      8  C   UNL A   1      33.054  21.523  25.912  1.00  0.00     0.274 C 
ATOM      9  N   UNL A   1      34.033  22.517  26.368  1.00  0.00    -0.321 N 
ATOM     10  S   UNL A   1      33.923  20.268  24.935  1.00  0.00    -0.088 SA
ATOM     11  H   UNL A   1      33.958  22.614  27.380  1.00  0.00     0.348 HD
ATOM     12  H   UNL A   1      33.830  23.399  25.898  1.00  0.00     0.348 HD
ATOM     13  C   UNL A   1      35.429  21.255  24.783  1.00  0.00     0.151 C 
BRANCH   8  14
ATOM     14  C   UNL A   1      31.938  22.290  25.207  1.00  0.00     0.024 A 
ATOM     15  C   UNL A   1      30.545  24.303  25.410  1.00  0.00     0.161 A 
ATOM     16  C   UNL A   1      31.195  23.200  25.983  1.00  0.00     0.061 A 
ATOM     17  C   UNL A   1      30.583  24.461  24.023  1.00  0.00     0.161 A 
ATOM     18  C   UNL A   1      31.090  23.419  23.233  1.00  0.00     0.051 A 
ATOM     19  C   UNL A   1      31.778  22.348  23.818  1.00  0.00     0.015 A 
BRANCH  15  20
ATOM     20  O   UNL A   1      29.982  25.122  26.345  1.00  0.00    -0.493 OA
ATOM     21  C   UNL A   1      28.841  24.651  27.039  1.00  0.00     0.278 C 
ENDBRANCH  15  20
BRANCH  17  22
ATOM     22  O   UNL A   1      30.610  25.703  23.446  1.00  0.00    -0.485 OA
BRANCH  22  23
ATOM     23  C   UNL A   1      30.109  26.859  24.106  1.00  0.00     0.265 C 
BRANCH  23  24
ATOM     24  C   UNL A   1      29.586  27.987  23.269  1.00  0.00    -0.011 A 
ATOM     25  C   UNL A   1      30.483  28.865  22.650  1.00  0.00     0.009 A 
ATOM     26  C   UNL A   1      28.209  28.198  23.133  1.00  0.00     0.009 A 
ATOM     27  C   UNL A   1      30.007  29.976  21.962  1.00  0.00     0.021 A 
ATOM     28  C   UNL A   1      27.732  29.305  22.438  1.00  0.00     0.021 A 
ATOM     29  C   UNL A   1      28.634  30.201  21.874  1.00  0.00     0.041 A 
ATOM     30  Cl  UNL A   1      28.052  31.613  21.086  1.00  0.00    -0.084 Cl
ENDBRANCH  23  24
ENDBRANCH  22  23
ENDBRANCH  17  22
ENDBRANCH   8  14
ENDBRANCH   4   7
ENDBRANCH   2   3
ENDBRANCH   1   2
BRANCH   1  31
ATOM     31  C   UNL A   1      33.513  27.312  24.681  1.00  0.00     0.023 C 
BRANCH  31  32
ATOM     32  C   UNL A   1      34.024  28.719  24.964  1.00  0.00     0.116 C 
BRANCH  32  33
ATOM     33  N   UNL A   1      33.075  29.637  25.576  1.00  0.00    -0.352 N 
ATOM     34  C   UNL A   1      33.243  30.499  26.647  1.00  0.00     0.251 C 
ATOM     35  H   UNL A   1      32.179  29.648  25.168  1.00  0.00     0.163 HD
ATOM     36  O   UNL A   1      32.334  31.206  27.039  1.00  0.00    -0.269 OA
BRANCH  34  37
ATOM     37  C   UNL A   1      34.555  30.536  27.329  1.00  0.00     0.039 A 
ATOM     38  C   UNL A   1      35.176  31.757  27.623  1.00  0.00     0.014 A 
ATOM     39  C   UNL A   1      35.132  29.334  27.722  1.00  0.00     0.014 A 
ATOM     40  C   UNL A   1      36.316  31.780  28.426  1.00  0.00     0.010 A 
ATOM     41  C   UNL A   1      36.209  29.357  28.587  1.00  0.00     0.010 A 
ATOM     42  C   UNL A   1      36.814  30.577  28.931  1.00  0.00    -0.014 A 
BRANCH  42  43
ATOM     43  C   UNL A   1      38.079  30.488  29.684  1.00  0.00     0.031 A 
ATOM     44  C   UNL A   1      39.150  29.628  29.083  1.00  0.00     0.074 A 
ATOM     45  C   UNL A   1      38.174  30.996  30.923  1.00  0.00     0.049 A 
ATOM     46  N   UNL A   1      40.194  29.089  29.644  1.00  0.00    -0.248 NA
ATOM     47  C   UNL A   1      38.963  29.261  27.665  1.00  0.00     0.031 C 
ATOM     48  C   UNL A   1      37.167  31.825  31.586  1.00  0.00     0.029 A 
ATOM     49  N   UNL A   1      39.152  30.836  31.869  1.00  0.00    -0.354 N 
ATOM     50  C   UNL A   1      40.743  28.260  28.673  1.00  0.00     0.074 A 
ATOM     51  C   UNL A   1      39.896  28.338  27.506  1.00  0.00     0.031 C 
ATOM     52  C   UNL A   1      37.571  32.086  32.841  1.00  0.00     0.029 A 
ATOM     53  C   UNL A   1      38.838  31.404  33.082  1.00  0.00     0.049 A 
ATOM     54  H   UNL A   1      39.997  30.361  31.697  1.00  0.00     0.167 HD
ATOM     55  C   UNL A   1      41.868  27.513  28.751  1.00  0.00     0.034 A 
ATOM     56  C   UNL A   1      39.498  31.343  34.255  1.00  0.00     0.034 A 
ATOM     57  C   UNL A   1      42.708  27.502  29.914  1.00  0.00     0.049 A 
ATOM     58  C   UNL A   1      40.774  30.541  34.306  1.00  0.00     0.074 A 
ATOM     59  C   UNL A   1      43.913  26.857  30.106  1.00  0.00     0.029 A 
ATOM     60  N   UNL A   1      42.421  28.186  31.090  1.00  0.00    -0.354 N 
ATOM     61  N   UNL A   1      41.344  29.834  33.356  1.00  0.00    -0.248 NA
ATOM     62  C   UNL A   1      41.512  30.549  35.575  1.00  0.00     0.031 C 
ATOM     63  C   UNL A   1      44.348  27.138  31.406  1.00  0.00     0.029 A 
ATOM     64  C   UNL A   1      43.428  27.983  32.013  1.00  0.00     0.049 A 
ATOM     65  H   UNL A   1      41.618  28.734  31.241  1.00  0.00     0.167 HD
ATOM     66  C   UNL A   1      42.528  29.350  33.898  1.00  0.00     0.074 A 
ATOM     67  C   UNL A   1      42.596  29.855  35.257  1.00  0.00     0.031 C 
ATOM     68  C   UNL A   1      43.474  28.554  33.336  1.00  0.00     0.034 A 
BRANCH  55  69
ATOM     69  C   UNL A   1      42.240  26.697  27.540  1.00  0.00     0.023 A 
ATOM     70  C   UNL A   1      42.812  27.329  26.416  1.00  0.00     0.012 A 
ATOM     71  C   UNL A   1      42.001  25.310  27.499  1.00  0.00     0.148 A 
ATOM     72  C   UNL A   1      43.081  26.610  25.251  1.00  0.00     0.002 A 
ATOM     73  C   UNL A   1      42.324  24.588  26.355  1.00  0.00     0.091 A 
ATOM     74  F   UNL A   1      41.432  24.725  28.563  1.00  0.00    -0.205 F 
ATOM     75  C   UNL A   1      42.845  25.239  25.225  1.00  0.00     0.022 A 
BRANCH  73  76
ATOM     76  S   UNL A   1      42.136  22.806  26.247  1.00  0.00     0.127 S 
ATOM     77  O   UNL A   1      42.713  22.527  24.932  1.00  0.00    -0.237 OA
ATOM     78  O   UNL A   1      42.942  22.343  27.376  1.00  0.00    -0.237 OA
ATOM     79  O   UNL A   1      40.709  22.546  26.372  1.00  0.00    -0.744 OA
ENDBRANCH  73  76
ENDBRANCH  55  69
BRANCH  56  80
ATOM     80  C   UNL A   1      39.016  32.119  35.433  1.00  0.00     0.023 A 
ATOM     81  C   UNL A   1      39.134  33.524  35.415  1.00  0.00     0.012 A 
ATOM     82  C   UNL A   1      38.406  31.500  36.542  1.00  0.00     0.148 A 
ATOM     83  C   UNL A   1      38.682  34.294  36.486  1.00  0.00     0.002 A 
ATOM     84  C   UNL A   1      37.912  32.278  37.585  1.00  0.00     0.091 A 
ATOM     85  F   UNL A   1      38.306  30.164  36.546  1.00  0.00    -0.205 F 
ATOM     86  C   UNL A   1      38.064  33.674  37.566  1.00  0.00     0.022 A 
BRANCH  84  87
ATOM     87  S   UNL A   1      36.988  31.584  38.962  1.00  0.00     0.127 S 
ATOM     88  O   UNL A   1      37.930  31.746  40.067  1.00  0.00    -0.237 OA
ATOM     89  O   UNL A   1      35.819  32.464  39.014  1.00  0.00    -0.237 OA
ATOM     90  O   UNL A   1      36.690  30.209  38.582  1.00  0.00    -0.744 OA
ENDBRANCH  84  87
ENDBRANCH  56  80
BRANCH  68  91
ATOM     91  C   UNL A   1      44.683  28.230  34.168  1.00  0.00     0.023 A 
ATOM     92  C   UNL A   1      44.660  27.131  35.049  1.00  0.00     0.012 A 
ATOM     93  C   UNL A   1      45.873  28.965  34.003  1.00  0.00     0.148 A 
ATOM     94  C   UNL A   1      45.797  26.788  35.776  1.00  0.00     0.002 A 
ATOM     95  C   UNL A   1      47.017  28.584  34.690  1.00  0.00     0.091 A 
ATOM     96  F   UNL A   1      45.863  30.019  33.171  1.00  0.00    -0.205 F 
ATOM     97  C   UNL A   1      46.977  27.504  35.586  1.00  0.00     0.022 A 
BRANCH  95  98
ATOM     98  S   UNL A   1      48.604  29.378  34.422  1.00  0.00     0.127 S 
ATOM     99  O   UNL A   1      48.847  29.086  33.010  1.00  0.00    -0.237 OA
ATOM    100  O   UNL A   1      48.302  30.780  34.713  1.00  0.00    -0.237 OA
ATOM    101  O   UNL A   1      49.530  28.753  35.357  1.00  0.00    -0.744 OA
ENDBRANCH  95  98
ENDBRANCH  68  91
ENDBRANCH  42  43
ENDBRANCH  34  37
ENDBRANCH  32  33
ENDBRANCH  31  32
ENDBRANCH   1  31
TORSDOF 19
ENDMDL
MODEL 3
REMARK VINA RESULT:     -11.7      2.510      7.342
REMARK SMILES COc1cc([C@@H]2[NH2+][C@H](C(=O)NCCCCNC(=O)c3ccc(-c4c5nc(c(-c6cccc(S(=O)(=O)[O-])c6F)c6ccc([nH]6)c(-c6cccc(S(=O)(=O)[O-])c6F)c6nc(c(-c7cccc(S(=O)(=O)[O-])c7F)c7ccc4[nH]7)C=C6)C=C5)cc3)CS2)ccc1OCc1ccc(Cl)cc1
REMARK SMILES IDX 13 1 12 2 11 3 9 4 10 5 8 7 6 8 7 9 83 10 82 13 5 14 3 15
REMARK SMILES IDX 4 16 86 17 85 18 84 19 2 20 1 21 87 22 88 23 89 24 90 25
REMARK SMILES IDX 95 26 91 27 94 28 92 29 93 30 14 31 15 32 16 33 17 34 18 36
REMARK SMILES IDX 19 37 20 38 81 39 21 40 80 41 22 42 23 43 24 44 74 45 25 46
REMARK SMILES IDX 79 47 73 48 75 49 26 50 78 51 72 52 71 53 27 55 59 56 39 57
REMARK SMILES IDX 58 58 40 59 43 60 57 61 76 62 41 63 42 64 56 66 77 67 44 68
REMARK SMILES IDX 28 69 29 70 37 71 30 72 32 73 38 74 31 75 33 76 34 77 35 78
REMARK SMILES IDX 36 79 60 80 61 81 69 82 62 83 64 84 70 85 63 86 65 87 66 88
REMARK SMILES IDX 67 89 68 90 45 91 46 92 54 93 47 94 49 95 55 96 48 97 50 98
REMARK SMILES IDX 51 99 52 100 53 101
REMARK H PARENT 11 6 7 11 7 12 16 35 75 54 43 65
REMARK Flexibility Score: inf
ROOT
ATOM      1  C   UNL A   1      38.640  20.718  25.737  1.00  0.00     0.023 C 
ENDROOT
BRANCH   1   2
ATOM      2  C   UNL A   1      38.036  19.668  24.809  1.00  0.00     0.116 C 
BRANCH   2   3
ATOM      3  N   UNL A   1      36.604  19.521  25.009  1.00  0.00    -0.351 N 
ATOM      4  C   UNL A   1      35.598  20.442  24.985  1.00  0.00     0.279 C 
ATOM      5  O   UNL A   1      34.445  20.030  25.155  1.00  0.00    -0.268 OA
ATOM      6  H   UNL A   1      36.309  18.599  25.192  1.00  0.00     0.163 HD
BRANCH   4   7
ATOM      7  C   UNL A   1      35.847  21.938  24.718  1.00  0.00     0.283 C 
ATOM      8  C   UNL A   1      34.733  23.849  23.707  1.00  0.00     0.274 C 
ATOM      9  N   UNL A   1      35.017  22.414  23.602  1.00  0.00    -0.321 N 
ATOM     10  S   UNL A   1      35.377  24.447  25.292  1.00  0.00    -0.088 SA
ATOM     11  H   UNL A   1      35.510  22.237  22.726  1.00  0.00     0.348 HD
ATOM     12  H   UNL A   1      34.130  21.913  23.631  1.00  0.00     0.348 HD
ATOM     13  C   UNL A   1      35.619  22.785  25.958  1.00  0.00     0.151 C 
BRANCH   8  14
ATOM     14  C   UNL A   1      33.237  24.025  23.464  1.00  0.00     0.024 A 
ATOM     15  C   UNL A   1      31.084  24.138  24.640  1.00  0.00     0.161 A 
ATOM     16  C   UNL A   1      32.365  23.591  24.480  1.00  0.00     0.061 A 
ATOM     17  C   UNL A   1      30.639  25.092  23.721  1.00  0.00     0.161 A 
ATOM     18  C   UNL A   1      31.396  25.325  22.564  1.00  0.00     0.051 A 
ATOM     19  C   UNL A   1      32.692  24.810  22.441  1.00  0.00     0.015 A 
BRANCH  15  20
ATOM     20  O   UNL A   1      30.447  23.665  25.752  1.00  0.00    -0.493 OA
ATOM     21  C   UNL A   1      31.229  23.013  26.735  1.00  0.00     0.278 C 
ENDBRANCH  15  20
BRANCH  17  22
ATOM     22  O   UNL A   1      29.810  26.114  24.098  1.00  0.00    -0.485 OA
BRANCH  22  23
ATOM     23  C   UNL A   1      30.243  27.468  24.142  1.00  0.00     0.265 C 
BRANCH  23  24
ATOM     24  C   UNL A   1      29.626  28.446  23.188  1.00  0.00    -0.011 A 
ATOM     25  C   UNL A   1      30.448  29.284  22.427  1.00  0.00     0.009 A 
ATOM     26  C   UNL A   1      28.235  28.559  23.079  1.00  0.00     0.009 A 
ATOM     27  C   UNL A   1      29.883  30.267  21.620  1.00  0.00     0.021 A 
ATOM     28  C   UNL A   1      27.670  29.536  22.267  1.00  0.00     0.021 A 
ATOM     29  C   UNL A   1      28.497  30.400  21.558  1.00  0.00     0.041 A 
ATOM     30  Cl  UNL A   1      27.805  31.663  20.618  1.00  0.00    -0.084 Cl
ENDBRANCH  23  24
ENDBRANCH  22  23
ENDBRANCH  17  22
ENDBRANCH   8  14
ENDBRANCH   4   7
ENDBRANCH   2   3
ENDBRANCH   1   2
BRANCH   1  31
ATOM     31  C   UNL A   1      40.142  20.649  26.028  1.00  0.00     0.023 C 
BRANCH  31  32
ATOM     32  C   UNL A   1      40.926  21.920  26.330  1.00  0.00     0.116 C 
BRANCH  32  33
ATOM     33  N   UNL A   1      42.025  22.227  25.427  1.00  0.00    -0.352 N 
ATOM     34  C   UNL A   1      42.815  23.362  25.350  1.00  0.00     0.251 C 
ATOM     35  H   UNL A   1      42.241  21.523  24.773  1.00  0.00     0.163 HD
ATOM     36  O   UNL A   1      43.703  23.460  24.524  1.00  0.00    -0.269 OA
BRANCH  34  37
ATOM     37  C   UNL A   1      42.551  24.476  26.287  1.00  0.00     0.039 A 
ATOM     38  C   UNL A   1      42.867  25.796  25.939  1.00  0.00     0.014 A 
ATOM     39  C   UNL A   1      41.929  24.191  27.497  1.00  0.00     0.014 A 
ATOM     40  C   UNL A   1      42.444  26.847  26.751  1.00  0.00     0.010 A 
ATOM     41  C   UNL A   1      41.433  25.231  28.259  1.00  0.00     0.010 A 
ATOM     42  C   UNL A   1      41.700  26.562  27.898  1.00  0.00    -0.014 A 
BRANCH  42  43
ATOM     43  C   UNL A   1      41.316  27.593  28.880  1.00  0.00     0.031 A 
ATOM     44  C   UNL A   1      42.147  27.667  30.125  1.00  0.00     0.074 A 
ATOM     45  C   UNL A   1      40.172  28.281  28.736  1.00  0.00     0.049 A 
ATOM     46  N   UNL A   1      41.867  28.201  31.279  1.00  0.00    -0.248 NA
ATOM     47  C   UNL A   1      43.444  26.963  30.079  1.00  0.00     0.031 C 
ATOM     48  C   UNL A   1      39.297  28.248  27.562  1.00  0.00     0.029 A 
ATOM     49  N   UNL A   1      39.521  29.104  29.616  1.00  0.00    -0.354 N 
ATOM     50  C   UNL A   1      42.913  27.832  32.116  1.00  0.00     0.074 A 
ATOM     51  C   UNL A   1      43.809  26.999  31.349  1.00  0.00     0.031 C 
ATOM     52  C   UNL A   1      38.211  29.002  27.804  1.00  0.00     0.029 A 
ATOM     53  C   UNL A   1      38.293  29.529  29.162  1.00  0.00     0.049 A 
ATOM     54  H   UNL A   1      39.894  29.365  30.489  1.00  0.00     0.167 HD
ATOM     55  C   UNL A   1      43.111  28.177  33.409  1.00  0.00     0.034 A 
ATOM     56  C   UNL A   1      37.342  30.240  29.798  1.00  0.00     0.034 A 
ATOM     57  C   UNL A   1      42.220  29.047  34.121  1.00  0.00     0.049 A 
ATOM     58  C   UNL A   1      37.604  30.651  31.225  1.00  0.00     0.074 A 
ATOM     59  C   UNL A   1      42.334  29.542  35.403  1.00  0.00     0.029 A 
ATOM     60  N   UNL A   1      41.041  29.559  33.590  1.00  0.00    -0.354 N 
ATOM     61  N   UNL A   1      38.641  30.382  31.985  1.00  0.00    -0.248 NA
ATOM     62  C   UNL A   1      36.584  31.485  31.873  1.00  0.00     0.031 C 
ATOM     63  C   UNL A   1      41.214  30.342  35.656  1.00  0.00     0.029 A 
ATOM     64  C   UNL A   1      40.418  30.369  34.519  1.00  0.00     0.049 A 
ATOM     65  H   UNL A   1      40.701  29.371  32.686  1.00  0.00     0.167 HD
ATOM     66  C   UNL A   1      38.420  31.048  33.184  1.00  0.00     0.074 A 
ATOM     67  C   UNL A   1      37.154  31.743  33.042  1.00  0.00     0.031 C 
ATOM     68  C   UNL A   1      39.182  31.082  34.307  1.00  0.00     0.034 A 
BRANCH  55  69
ATOM     69  C   UNL A   1      44.341  27.632  34.088  1.00  0.00     0.023 A 
ATOM     70  C   UNL A   1      45.559  28.339  34.007  1.00  0.00     0.012 A 
ATOM     71  C   UNL A   1      44.303  26.408  34.784  1.00  0.00     0.148 A 
ATOM     72  C   UNL A   1      46.730  27.811  34.551  1.00  0.00     0.002 A 
ATOM     73  C   UNL A   1      45.462  25.915  35.373  1.00  0.00     0.091 A 
ATOM     74  F   UNL A   1      43.146  25.732  34.831  1.00  0.00    -0.205 F 
ATOM     75  C   UNL A   1      46.679  26.603  35.240  1.00  0.00     0.022 A 
BRANCH  73  76
ATOM     76  S   UNL A   1      45.487  24.409  36.352  1.00  0.00     0.127 S 
ATOM     77  O   UNL A   1      46.877  24.377  36.809  1.00  0.00    -0.237 OA
ATOM     78  O   UNL A   1      44.509  24.707  37.397  1.00  0.00    -0.237 OA
ATOM     79  O   UNL A   1      45.102  23.337  35.447  1.00  0.00    -0.744 OA
ENDBRANCH  73  76
ENDBRANCH  55  69
BRANCH  56  80
ATOM     80  C   UNL A   1      36.112  30.671  29.074  1.00  0.00     0.023 A 
ATOM     81  C   UNL A   1      35.328  29.696  28.426  1.00  0.00     0.012 A 
ATOM     82  C   UNL A   1      35.684  32.013  29.055  1.00  0.00     0.148 A 
ATOM     83  C   UNL A   1      34.161  30.049  27.749  1.00  0.00     0.002 A 
ATOM     84  C   UNL A   1      34.492  32.352  28.421  1.00  0.00     0.091 A 
ATOM     85  F   UNL A   1      36.443  32.930  29.672  1.00  0.00    -0.205 F 
ATOM     86  C   UNL A   1      33.737  31.374  27.755  1.00  0.00     0.022 A 
BRANCH  84  87
ATOM     87  S   UNL A   1      33.797  34.009  28.479  1.00  0.00     0.127 S 
ATOM     88  O   UNL A   1      34.805  34.783  27.758  1.00  0.00    -0.237 OA
ATOM     89  O   UNL A   1      32.531  33.829  27.766  1.00  0.00    -0.237 OA
ATOM     90  O   UNL A   1      33.650  34.325  29.893  1.00  0.00    -0.744 OA
ENDBRANCH  84  87
ENDBRANCH  56  80
BRANCH  68  91
ATOM     91  C   UNL A   1      38.696  31.939  35.444  1.00  0.00     0.023 A 
ATOM     92  C   UNL A   1      38.699  33.341  35.321  1.00  0.00     0.012 A 
ATOM     93  C   UNL A   1      38.151  31.340  36.596  1.00  0.00     0.148 A 
ATOM     94  C   UNL A   1      38.191  34.138  36.345  1.00  0.00     0.002 A 
ATOM     95  C   UNL A   1      37.598  32.139  37.588  1.00  0.00     0.091 A 
ATOM     96  F   UNL A   1      38.177  30.002  36.696  1.00  0.00    -0.205 F 
ATOM     97  C   UNL A   1      37.629  33.538  37.470  1.00  0.00     0.022 A 
BRANCH  95  98
ATOM     98  S   UNL A   1      36.755  31.449  39.014  1.00  0.00     0.127 S 
ATOM     99  O   UNL A   1      35.613  32.351  39.148  1.00  0.00    -0.237 OA
ATOM    100  O   UNL A   1      36.418  30.101  38.552  1.00  0.00    -0.237 OA
ATOM    101  O   UNL A   1      37.715  31.490  40.108  1.00  0.00    -0.744 OA
ENDBRANCH  95  98
ENDBRANCH  68  91
ENDBRANCH  42  43
ENDBRANCH  34  37
ENDBRANCH  32  33
ENDBRANCH  31  32
ENDBRANCH   1  31
TORSDOF 19
ENDMDL
