MODEL 1
REMARK VINA RESULT:     -13.0      0.000      0.000
REMARK SMILES Cc1ccc(S(=O)(=O)N2C[C@@H](CC(=O)NCCCCNC(=O)c3ccc(-c4c5nc(c(-c6cccc(S(=O)(=O)[O-])c6F)c6ccc([nH]6)c(-c6cccc(S(=O)(=O)[O-])c6F)c6nc(c(-c7cccc(S(=O)(=O)[O-])c7F)c7ccc4[nH]7)C=C6)C=C5)cc3)c3ccccc32)c(C)c1
REMARK SMILES IDX 17 1 16 2 15 3 13 4 14 5 12 7 11 8 9 9 10 10 91 11 86 12
REMARK SMILES IDX 90 13 87 14 89 15 88 16 6 17 7 18 8 19 5 20 1 21 2 22 3 23
REMARK SMILES IDX 94 24 4 25 92 26 93 27 18 28 19 29 20 30 21 31 22 33 23 34
REMARK SMILES IDX 24 35 85 36 25 37 84 38 26 39 27 40 28 41 78 42 29 43 83 44
REMARK SMILES IDX 77 45 79 46 30 47 82 48 76 49 75 50 31 52 63 53 43 54 62 55
REMARK SMILES IDX 44 56 47 57 61 58 80 59 45 60 46 61 60 63 81 64 48 65 32 66
REMARK SMILES IDX 33 67 41 68 34 69 36 70 42 71 35 72 37 73 38 74 39 75 40 76
REMARK SMILES IDX 64 77 65 78 73 79 66 80 68 81 74 82 67 83 69 84 70 85 71 86
REMARK SMILES IDX 72 87 49 88 50 89 58 90 51 91 53 92 59 93 52 94 54 95 55 96
REMARK SMILES IDX 56 97 57 98
REMARK H PARENT 15 6 20 32 79 51 47 62
REMARK Flexibility Score: inf
ROOT
ATOM      1  C   UNL A   1      33.960  28.955  23.942  1.00  0.00     0.023 C 
ENDROOT
BRANCH   1   2
ATOM      2  C   UNL A   1      33.905  28.404  22.526  1.00  0.00     0.116 C 
BRANCH   2   3
ATOM      3  N   UNL A   1      32.732  27.559  22.391  1.00  0.00    -0.356 N 
ATOM      4  C   UNL A   1      32.682  26.194  22.379  1.00  0.00     0.220 C 
ATOM      5  O   UNL A   1      31.687  25.634  21.917  1.00  0.00    -0.275 OA
ATOM      6  H   UNL A   1      31.870  28.025  22.297  1.00  0.00     0.163 HD
BRANCH   4   7
ATOM      7  C   UNL A   1      33.800  25.392  23.012  1.00  0.00     0.110 C 
BRANCH   7   8
ATOM      8  C   UNL A   1      33.842  25.429  24.550  1.00  0.00     0.051 C 
ATOM      9  N   UNL A   1      33.585  23.104  25.236  1.00  0.00    -0.265 N 
ATOM     10  C   UNL A   1      34.621  24.189  25.044  1.00  0.00     0.144 C 
ATOM     11  C   UNL A   1      32.354  23.805  25.492  1.00  0.00     0.055 A 
ATOM     12  C   UNL A   1      32.522  25.165  25.227  1.00  0.00    -0.018 A 
ATOM     13  C   UNL A   1      31.131  23.303  25.910  1.00  0.00     0.027 A 
ATOM     14  C   UNL A   1      31.545  26.072  25.603  1.00  0.00     0.006 A 
ATOM     15  C   UNL A   1      30.099  24.204  26.182  1.00  0.00     0.002 A 
ATOM     16  C   UNL A   1      30.319  25.582  26.069  1.00  0.00     0.000 A 
BRANCH   9  17
ATOM     17  S   UNL A   1      34.070  21.948  26.410  1.00  0.00     0.264 S 
ATOM     18  O   UNL A   1      33.087  21.962  27.471  1.00  0.00    -0.201 OA
ATOM     19  O   UNL A   1      35.477  22.179  26.689  1.00  0.00    -0.201 OA
BRANCH  17  20
ATOM     20  C   UNL A   1      34.003  20.362  25.592  1.00  0.00     0.090 A 
ATOM     21  C   UNL A   1      33.702  16.569  23.569  1.00  0.00     0.044 C 
ATOM     22  C   UNL A   1      33.799  17.879  24.293  1.00  0.00    -0.051 A 
ATOM     23  C   UNL A   1      32.675  18.452  24.888  1.00  0.00     0.005 A 
ATOM     24  C   UNL A   1      35.020  18.566  24.337  1.00  0.00     0.008 A 
ATOM     25  C   UNL A   1      32.772  19.690  25.523  1.00  0.00     0.023 A 
ATOM     26  C   UNL A   1      35.147  19.810  24.986  1.00  0.00    -0.030 A 
ATOM     27  C   UNL A   1      36.488  20.486  24.899  1.00  0.00     0.046 C 
ENDBRANCH  17  20
ENDBRANCH   9  17
ENDBRANCH   7   8
ENDBRANCH   4   7
ENDBRANCH   2   3
ENDBRANCH   1   2
BRANCH   1  28
ATOM     28  C   UNL A   1      32.632  29.340  24.563  1.00  0.00     0.023 C 
BRANCH  28  29
ATOM     29  C   UNL A   1      32.691  29.546  26.059  1.00  0.00     0.116 C 
BRANCH  29  30
ATOM     30  N   UNL A   1      32.404  30.913  26.482  1.00  0.00    -0.352 N 
ATOM     31  C   UNL A   1      33.189  31.769  27.222  1.00  0.00     0.251 C 
ATOM     32  H   UNL A   1      31.530  31.271  26.202  1.00  0.00     0.163 HD
ATOM     33  O   UNL A   1      32.758  32.865  27.563  1.00  0.00    -0.269 OA
BRANCH  31  34
ATOM     34  C   UNL A   1      34.535  31.321  27.640  1.00  0.00     0.039 A 
ATOM     35  C   UNL A   1      35.538  32.270  27.846  1.00  0.00     0.014 A 
ATOM     36  C   UNL A   1      34.766  29.978  27.937  1.00  0.00     0.014 A 
ATOM     37  C   UNL A   1      36.740  31.873  28.437  1.00  0.00     0.010 A 
ATOM     38  C   UNL A   1      35.886  29.624  28.671  1.00  0.00     0.010 A 
ATOM     39  C   UNL A   1      36.902  30.557  28.907  1.00  0.00    -0.014 A 
BRANCH  39  40
ATOM     40  C   UNL A   1      38.128  30.139  29.633  1.00  0.00     0.031 A 
ATOM     41  C   UNL A   1      38.364  30.600  31.050  1.00  0.00     0.074 A 
ATOM     42  C   UNL A   1      39.065  29.407  28.996  1.00  0.00     0.049 A 
ATOM     43  N   UNL A   1      39.369  30.337  31.845  1.00  0.00    -0.248 NA
ATOM     44  C   UNL A   1      37.366  31.511  31.642  1.00  0.00     0.031 C 
ATOM     45  C   UNL A   1      39.016  29.005  27.586  1.00  0.00     0.029 A 
ATOM     46  N   UNL A   1      40.247  28.877  29.446  1.00  0.00    -0.354 N 
ATOM     47  C   UNL A   1      39.143  31.076  33.001  1.00  0.00     0.074 A 
ATOM     48  C   UNL A   1      37.945  31.851  32.782  1.00  0.00     0.031 C 
ATOM     49  C   UNL A   1      40.094  28.257  27.302  1.00  0.00     0.029 A 
ATOM     50  C   UNL A   1      40.927  28.151  28.495  1.00  0.00     0.049 A 
ATOM     51  H   UNL A   1      40.578  29.004  30.365  1.00  0.00     0.167 HD
ATOM     52  C   UNL A   1      39.838  31.076  34.162  1.00  0.00     0.034 A 
ATOM     53  C   UNL A   1      42.084  27.468  28.580  1.00  0.00     0.034 A 
ATOM     54  C   UNL A   1      40.997  30.260  34.393  1.00  0.00     0.049 A 
ATOM     55  C   UNL A   1      42.794  27.416  29.905  1.00  0.00     0.074 A 
ATOM     56  C   UNL A   1      41.723  30.107  35.560  1.00  0.00     0.029 A 
ATOM     57  N   UNL A   1      41.600  29.461  33.436  1.00  0.00    -0.354 N 
ATOM     58  N   UNL A   1      42.470  27.986  31.040  1.00  0.00    -0.248 NA
ATOM     59  C   UNL A   1      44.006  26.587  29.973  1.00  0.00     0.031 C 
ATOM     60  C   UNL A   1      42.786  29.236  35.298  1.00  0.00     0.029 A 
ATOM     61  C   UNL A   1      42.696  28.814  33.981  1.00  0.00     0.049 A 
ATOM     62  H   UNL A   1      41.295  29.366  32.504  1.00  0.00     0.167 HD
ATOM     63  C   UNL A   1      43.414  27.558  31.966  1.00  0.00     0.074 A 
ATOM     64  C   UNL A   1      44.303  26.655  31.263  1.00  0.00     0.031 C 
ATOM     65  C   UNL A   1      43.544  27.889  33.275  1.00  0.00     0.034 A 
BRANCH  52  66
ATOM     66  C   UNL A   1      39.326  31.944  35.283  1.00  0.00     0.023 A 
ATOM     67  C   UNL A   1      38.373  31.429  36.189  1.00  0.00     0.012 A 
ATOM     68  C   UNL A   1      39.813  33.252  35.468  1.00  0.00     0.148 A 
ATOM     69  C   UNL A   1      37.880  32.214  37.230  1.00  0.00     0.002 A 
ATOM     70  C   UNL A   1      39.357  34.010  36.541  1.00  0.00     0.091 A 
ATOM     71  F   UNL A   1      40.700  33.734  34.587  1.00  0.00    -0.205 F 
ATOM     72  C   UNL A   1      38.381  33.499  37.413  1.00  0.00     0.022 A 
BRANCH  70  73
ATOM     73  S   UNL A   1      39.999  35.645  36.915  1.00  0.00     0.127 S 
ATOM     74  O   UNL A   1      39.296  35.960  38.158  1.00  0.00    -0.237 OA
ATOM     75  O   UNL A   1      41.430  35.382  37.073  1.00  0.00    -0.237 OA
ATOM     76  O   UNL A   1      39.656  36.484  35.775  1.00  0.00    -0.744 OA
ENDBRANCH  70  73
ENDBRANCH  52  66
BRANCH  53  77
ATOM     77  C   UNL A   1      42.596  26.710  27.402  1.00  0.00     0.023 A 
ATOM     78  C   UNL A   1      43.388  27.370  26.441  1.00  0.00     0.012 A 
ATOM     79  C   UNL A   1      42.322  25.339  27.240  1.00  0.00     0.148 A 
ATOM     80  C   UNL A   1      43.863  26.688  25.319  1.00  0.00     0.002 A 
ATOM     81  C   UNL A   1      42.848  24.652  26.152  1.00  0.00     0.091 A 
ATOM     82  F   UNL A   1      41.562  24.730  28.160  1.00  0.00    -0.205 F 
ATOM     83  C   UNL A   1      43.601  25.328  25.179  1.00  0.00     0.022 A 
BRANCH  81  84
ATOM     84  S   UNL A   1      42.676  22.874  25.962  1.00  0.00     0.127 S 
ATOM     85  O   UNL A   1      41.265  22.674  26.283  1.00  0.00    -0.237 OA
ATOM     86  O   UNL A   1      43.020  22.687  24.552  1.00  0.00    -0.237 OA
ATOM     87  O   UNL A   1      43.628  22.286  26.894  1.00  0.00    -0.744 OA
ENDBRANCH  81  84
ENDBRANCH  53  77
BRANCH  65  88
ATOM     88  C   UNL A   1      44.665  27.239  34.042  1.00  0.00     0.023 A 
ATOM     89  C   UNL A   1      45.957  27.798  34.015  1.00  0.00     0.012 A 
ATOM     90  C   UNL A   1      44.423  26.093  34.824  1.00  0.00     0.148 A 
ATOM     91  C   UNL A   1      47.005  27.194  34.709  1.00  0.00     0.002 A 
ATOM     92  C   UNL A   1      45.458  25.531  35.559  1.00  0.00     0.091 A 
ATOM     93  F   UNL A   1      43.190  25.566  34.826  1.00  0.00    -0.205 F 
ATOM     94  C   UNL A   1      46.753  26.068  35.488  1.00  0.00     0.022 A 
BRANCH  92  95
ATOM     95  S   UNL A   1      45.198  24.144  36.671  1.00  0.00     0.127 S 
ATOM     96  O   UNL A   1      44.331  24.736  37.687  1.00  0.00    -0.237 OA
ATOM     97  O   UNL A   1      44.543  23.167  35.800  1.00  0.00    -0.237 OA
ATOM     98  O   UNL A   1      46.523  23.747  37.129  1.00  0.00    -0.744 OA
ENDBRANCH  92  95
ENDBRANCH  65  88
ENDBRANCH  39  40
ENDBRANCH  31  34
ENDBRANCH  29  30
ENDBRANCH  28  29
ENDBRANCH   1  28
TORSDOF 17
ENDMDL
MODEL 2
REMARK VINA RESULT:     -12.9      4.972     10.452
REMARK SMILES Cc1ccc(S(=O)(=O)N2C[C@@H](CC(=O)NCCCCNC(=O)c3ccc(-c4c5nc(c(-c6cccc(S(=O)(=O)[O-])c6F)c6ccc([nH]6)c(-c6cccc(S(=O)(=O)[O-])c6F)c6nc(c(-c7cccc(S(=O)(=O)[O-])c7F)c7ccc4[nH]7)C=C6)C=C5)cc3)c3ccccc32)c(C)c1
REMARK SMILES IDX 17 1 16 2 15 3 13 4 14 5 12 7 11 8 9 9 10 10 91 11 86 12
REMARK SMILES IDX 90 13 87 14 89 15 88 16 6 17 7 18 8 19 5 20 1 21 2 22 3 23
REMARK SMILES IDX 94 24 4 25 92 26 93 27 18 28 19 29 20 30 21 31 22 33 23 34
REMARK SMILES IDX 24 35 85 36 25 37 84 38 26 39 27 40 28 41 78 42 29 43 83 44
REMARK SMILES IDX 77 45 79 46 30 47 82 48 76 49 75 50 31 52 63 53 43 54 62 55
REMARK SMILES IDX 44 56 47 57 61 58 80 59 45 60 46 61 60 63 81 64 48 65 32 66
REMARK SMILES IDX 33 67 41 68 34 69 36 70 42 71 35 72 37 73 38 74 39 75 40 76
REMARK SMILES IDX 64 77 65 78 73 79 66 80 68 81 74 82 67 83 69 84 70 85 71 86
REMARK SMILES IDX 72 87 49 88 50 89 58 90 51 91 53 92 59 93 52 94 54 95 55 96
REMARK SMILES IDX 56 97 57 98
REMARK H PARENT 15 6 20 32 79 51 47 62
REMARK Flexibility Score: inf
ROOT
ATOM      1  C   UNL A   1      33.778  21.549  25.756  1.00  0.00     0.023 C 
ENDROOT
BRANCH   1   2
ATOM      2  C   UNL A   1      32.408  21.507  25.098  1.00  0.00     0.116 C 
BRANCH   2   3
ATOM      3  N   UNL A   1      31.390  21.745  26.106  1.00  0.00    -0.356 N 
ATOM      4  C   UNL A   1      30.901  22.947  26.533  1.00  0.00     0.220 C 
ATOM      5  O   UNL A   1      30.311  23.006  27.612  1.00  0.00    -0.275 OA
ATOM      6  H   UNL A   1      31.006  20.945  26.533  1.00  0.00     0.163 HD
BRANCH   4   7
ATOM      7  C   UNL A   1      31.009  24.165  25.640  1.00  0.00     0.110 C 
BRANCH   7   8
ATOM      8  C   UNL A   1      32.326  24.954  25.766  1.00  0.00     0.051 C 
ATOM      9  N   UNL A   1      31.709  27.270  25.323  1.00  0.00    -0.265 N 
ATOM     10  C   UNL A   1      32.018  26.307  26.447  1.00  0.00     0.144 C 
ATOM     11  C   UNL A   1      32.411  26.747  24.180  1.00  0.00     0.055 A 
ATOM     12  C   UNL A   1      32.886  25.465  24.464  1.00  0.00    -0.018 A 
ATOM     13  C   UNL A   1      32.617  27.328  22.938  1.00  0.00     0.027 A 
ATOM     14  C   UNL A   1      33.772  24.845  23.600  1.00  0.00     0.006 A 
ATOM     15  C   UNL A   1      33.418  26.654  22.013  1.00  0.00     0.002 A 
ATOM     16  C   UNL A   1      34.026  25.441  22.359  1.00  0.00     0.000 A 
BRANCH   9  17
ATOM     17  S   UNL A   1      32.049  28.897  25.755  1.00  0.00     0.264 S 
ATOM     18  O   UNL A   1      33.372  29.214  25.264  1.00  0.00    -0.201 OA
ATOM     19  O   UNL A   1      31.716  29.050  27.161  1.00  0.00    -0.201 OA
BRANCH  17  20
ATOM     20  C   UNL A   1      30.859  29.896  24.875  1.00  0.00     0.090 A 
ATOM     21  C   UNL A   1      27.896  32.183  22.740  1.00  0.00     0.044 C 
ATOM     22  C   UNL A   1      28.938  31.383  23.462  1.00  0.00    -0.051 A 
ATOM     23  C   UNL A   1      29.147  30.038  23.156  1.00  0.00     0.005 A 
ATOM     24  C   UNL A   1      29.684  31.971  24.493  1.00  0.00     0.008 A 
ATOM     25  C   UNL A   1      30.091  29.295  23.863  1.00  0.00     0.023 A 
ATOM     26  C   UNL A   1      30.655  31.247  25.212  1.00  0.00    -0.030 A 
ATOM     27  C   UNL A   1      31.335  31.965  26.345  1.00  0.00     0.046 C 
ENDBRANCH  17  20
ENDBRANCH   9  17
ENDBRANCH   7   8
ENDBRANCH   4   7
ENDBRANCH   2   3
ENDBRANCH   1   2
BRANCH   1  28
ATOM     28  C   UNL A   1      34.952  21.827  24.841  1.00  0.00     0.023 C 
BRANCH  28  29
ATOM     29  C   UNL A   1      36.238  22.142  25.571  1.00  0.00     0.116 C 
BRANCH  29  30
ATOM     30  N   UNL A   1      37.267  21.116  25.431  1.00  0.00    -0.352 N 
ATOM     31  C   UNL A   1      38.594  21.172  25.796  1.00  0.00     0.251 C 
ATOM     32  H   UNL A   1      36.973  20.271  25.019  1.00  0.00     0.163 HD
ATOM     33  O   UNL A   1      39.348  20.242  25.530  1.00  0.00    -0.269 OA
BRANCH  31  34
ATOM     34  C   UNL A   1      39.100  22.390  26.463  1.00  0.00     0.039 A 
ATOM     35  C   UNL A   1      40.237  22.306  27.268  1.00  0.00     0.014 A 
ATOM     36  C   UNL A   1      38.517  23.628  26.198  1.00  0.00     0.014 A 
ATOM     37  C   UNL A   1      40.834  23.481  27.729  1.00  0.00     0.010 A 
ATOM     38  C   UNL A   1      39.205  24.789  26.514  1.00  0.00     0.010 A 
ATOM     39  C   UNL A   1      40.356  24.735  27.308  1.00  0.00    -0.014 A 
BRANCH  39  40
ATOM     40  C   UNL A   1      41.038  25.996  27.696  1.00  0.00     0.031 A 
ATOM     41  C   UNL A   1      42.451  26.264  27.242  1.00  0.00     0.074 A 
ATOM     42  C   UNL A   1      40.415  26.866  28.518  1.00  0.00     0.049 A 
ATOM     43  N   UNL A   1      43.208  27.305  27.477  1.00  0.00    -0.248 NA
ATOM     44  C   UNL A   1      43.123  25.210  26.459  1.00  0.00     0.031 C 
ATOM     45  C   UNL A   1      39.098  26.664  29.130  1.00  0.00     0.029 A 
ATOM     46  N   UNL A   1      40.810  28.092  28.989  1.00  0.00    -0.354 N 
ATOM     47  C   UNL A   1      44.443  27.013  26.910  1.00  0.00     0.074 A 
ATOM     48  C   UNL A   1      44.361  25.673  26.379  1.00  0.00     0.031 C 
ATOM     49  C   UNL A   1      38.778  27.745  29.857  1.00  0.00     0.029 A 
ATOM     50  C   UNL A   1      39.875  28.704  29.792  1.00  0.00     0.049 A 
ATOM     51  H   UNL A   1      41.682  28.496  28.773  1.00  0.00     0.167 HD
ATOM     52  C   UNL A   1      45.536  27.802  26.793  1.00  0.00     0.034 A 
ATOM     53  C   UNL A   1      39.896  29.907  30.397  1.00  0.00     0.034 A 
ATOM     54  C   UNL A   1      45.592  29.155  27.273  1.00  0.00     0.049 A 
ATOM     55  C   UNL A   1      41.088  30.800  30.183  1.00  0.00     0.074 A 
ATOM     56  C   UNL A   1      46.611  30.079  27.125  1.00  0.00     0.029 A 
ATOM     57  N   UNL A   1      44.587  29.776  27.997  1.00  0.00    -0.354 N 
ATOM     58  N   UNL A   1      42.181  30.569  29.496  1.00  0.00    -0.248 NA
ATOM     59  C   UNL A   1      41.029  32.137  30.789  1.00  0.00     0.031 C 
ATOM     60  C   UNL A   1      46.232  31.252  27.787  1.00  0.00     0.029 A 
ATOM     61  C   UNL A   1      44.961  31.071  28.310  1.00  0.00     0.049 A 
ATOM     62  H   UNL A   1      43.732  29.358  28.251  1.00  0.00     0.167 HD
ATOM     63  C   UNL A   1      42.923  31.743  29.556  1.00  0.00     0.074 A 
ATOM     64  C   UNL A   1      42.139  32.691  30.321  1.00  0.00     0.031 C 
ATOM     65  C   UNL A   1      44.148  32.010  29.038  1.00  0.00     0.034 A 
BRANCH  52  66
ATOM     66  C   UNL A   1      46.733  27.238  26.071  1.00  0.00     0.023 A 
ATOM     67  C   UNL A   1      47.555  26.287  26.713  1.00  0.00     0.012 A 
ATOM     68  C   UNL A   1      47.025  27.616  24.747  1.00  0.00     0.148 A 
ATOM     69  C   UNL A   1      48.671  25.756  26.068  1.00  0.00     0.002 A 
ATOM     70  C   UNL A   1      48.108  27.042  24.090  1.00  0.00     0.091 A 
ATOM     71  F   UNL A   1      46.249  28.537  24.159  1.00  0.00    -0.205 F 
ATOM     72  C   UNL A   1      48.940  26.124  24.754  1.00  0.00     0.022 A 
BRANCH  70  73
ATOM     73  S   UNL A   1      48.492  27.384  22.370  1.00  0.00     0.127 S 
ATOM     74  O   UNL A   1      49.700  28.198  22.494  1.00  0.00    -0.237 OA
ATOM     75  O   UNL A   1      48.714  26.040  21.834  1.00  0.00    -0.237 OA
ATOM     76  O   UNL A   1      47.329  28.072  21.826  1.00  0.00    -0.744 OA
ENDBRANCH  70  73
ENDBRANCH  52  66
BRANCH  53  77
ATOM     77  C   UNL A   1      38.720  30.371  31.188  1.00  0.00     0.023 A 
ATOM     78  C   UNL A   1      38.661  30.102  32.570  1.00  0.00     0.012 A 
ATOM     79  C   UNL A   1      37.673  31.092  30.585  1.00  0.00     0.148 A 
ATOM     80  C   UNL A   1      37.562  30.507  33.328  1.00  0.00     0.002 A 
ATOM     81  C   UNL A   1      36.609  31.545  31.358  1.00  0.00     0.091 A 
ATOM     82  F   UNL A   1      37.743  31.332  29.268  1.00  0.00    -0.205 F 
ATOM     83  C   UNL A   1      36.541  31.236  32.725  1.00  0.00     0.022 A 
BRANCH  81  84
ATOM     84  S   UNL A   1      35.320  32.604  30.693  1.00  0.00     0.127 S 
ATOM     85  O   UNL A   1      36.081  33.784  30.288  1.00  0.00    -0.237 OA
ATOM     86  O   UNL A   1      34.804  31.794  29.589  1.00  0.00    -0.237 OA
ATOM     87  O   UNL A   1      34.375  32.803  31.783  1.00  0.00    -0.744 OA
ENDBRANCH  81  84
ENDBRANCH  53  77
BRANCH  65  88
ATOM     88  C   UNL A   1      44.696  33.398  29.247  1.00  0.00     0.023 A 
ATOM     89  C   UNL A   1      45.396  33.711  30.428  1.00  0.00     0.012 A 
ATOM     90  C   UNL A   1      44.549  34.380  28.249  1.00  0.00     0.148 A 
ATOM     91  C   UNL A   1      45.893  34.997  30.637  1.00  0.00     0.002 A 
ATOM     92  C   UNL A   1      45.097  35.642  28.438  1.00  0.00     0.091 A 
ATOM     93  F   UNL A   1      43.866  34.069  27.137  1.00  0.00    -0.205 F 
ATOM     94  C   UNL A   1      45.753  35.958  29.639  1.00  0.00     0.022 A 
BRANCH  92  95
ATOM     95  S   UNL A   1      45.054  36.905  27.163  1.00  0.00     0.127 S 
ATOM     96  O   UNL A   1      45.858  36.291  26.108  1.00  0.00    -0.237 OA
ATOM     97  O   UNL A   1      43.624  36.999  26.866  1.00  0.00    -0.237 OA
ATOM     98  O   UNL A   1      45.622  38.103  27.768  1.00  0.00    -0.744 OA
ENDBRANCH  92  95
ENDBRANCH  65  88
ENDBRANCH  39  40
ENDBRANCH  31  34
ENDBRANCH  29  30
ENDBRANCH  28  29
ENDBRANCH   1  28
TORSDOF 17
ENDMDL
MODEL 3
REMARK VINA RESULT:     -12.8      4.812     10.160
REMARK SMILES Cc1ccc(S(=O)(=O)N2C[C@@H](CC(=O)NCCCCNC(=O)c3ccc(-c4c5nc(c(-c6cccc(S(=O)(=O)[O-])c6F)c6ccc([nH]6)c(-c6cccc(S(=O)(=O)[O-])c6F)c6nc(c(-c7cccc(S(=O)(=O)[O-])c7F)c7ccc4[nH]7)C=C6)C=C5)cc3)c3ccccc32)c(C)c1
REMARK SMILES IDX 17 1 16 2 15 3 13 4 14 5 12 7 11 8 9 9 10 10 91 11 86 12
REMARK SMILES IDX 90 13 87 14 89 15 88 16 6 17 7 18 8 19 5 20 1 21 2 22 3 23
REMARK SMILES IDX 94 24 4 25 92 26 93 27 18 28 19 29 20 30 21 31 22 33 23 34
REMARK SMILES IDX 24 35 85 36 25 37 84 38 26 39 27 40 28 41 78 42 29 43 83 44
REMARK SMILES IDX 77 45 79 46 30 47 82 48 76 49 75 50 31 52 63 53 43 54 62 55
REMARK SMILES IDX 44 56 47 57 61 58 80 59 45 60 46 61 60 63 81 64 48 65 32 66
REMARK SMILES IDX 33 67 41 68 34 69 36 70 42 71 35 72 37 73 38 74 39 75 40 76
REMARK SMILES IDX 64 77 65 78 73 79 66 80 68 81 74 82 67 83 69 84 70 85 71 86
REMARK SMILES IDX 72 87 49 88 50 89 58 90 51 91 53 92 59 93 52 94 54 95 55 96
REMARK SMILES IDX 56 97 57 98
REMARK H PARENT 15 6 20 32 79 51 47 62
REMARK Flexibility Score: inf
ROOT
ATOM      1  C   UNL A   1      35.968  20.423  24.627  1.00  0.00     0.023 C 
ENDROOT
BRANCH   1   2
ATOM      2  C   UNL A   1      34.803  20.417  25.603  1.00  0.00     0.116 C 
BRANCH   2   3
ATOM      3  N   UNL A   1      33.801  19.472  25.141  1.00  0.00    -0.356 N 
ATOM      4  C   UNL A   1      32.706  19.728  24.366  1.00  0.00     0.220 C 
ATOM      5  O   UNL A   1      31.782  18.914  24.347  1.00  0.00    -0.275 OA
ATOM      6  H   UNL A   1      33.927  18.536  25.418  1.00  0.00     0.163 HD
BRANCH   4   7
ATOM      7  C   UNL A   1      32.680  20.953  23.476  1.00  0.00     0.110 C 
BRANCH   7   8
ATOM      8  C   UNL A   1      31.985  22.186  24.082  1.00  0.00     0.051 C 
ATOM      9  N   UNL A   1      33.004  24.091  22.952  1.00  0.00    -0.265 N 
ATOM     10  C   UNL A   1      31.767  23.221  22.954  1.00  0.00     0.144 C 
ATOM     11  C   UNL A   1      33.515  24.018  24.296  1.00  0.00     0.055 A 
ATOM     12  C   UNL A   1      32.848  23.013  24.999  1.00  0.00    -0.018 A 
ATOM     13  C   UNL A   1      34.524  24.759  24.891  1.00  0.00     0.027 A 
ATOM     14  C   UNL A   1      33.013  22.896  26.369  1.00  0.00     0.006 A 
ATOM     15  C   UNL A   1      34.779  24.566  26.250  1.00  0.00     0.002 A 
ATOM     16  C   UNL A   1      33.999  23.670  26.993  1.00  0.00     0.000 A 
BRANCH   9  17
ATOM     17  S   UNL A   1      32.689  25.662  22.334  1.00  0.00     0.264 S 
ATOM     18  O   UNL A   1      31.404  25.623  21.671  1.00  0.00    -0.201 OA
ATOM     19  O   UNL A   1      33.882  26.098  21.629  1.00  0.00    -0.201 OA
BRANCH  17  20
ATOM     20  C   UNL A   1      32.563  26.732  23.758  1.00  0.00     0.090 A 
ATOM     21  C   UNL A   1      32.328  29.425  27.114  1.00  0.00     0.044 C 
ATOM     22  C   UNL A   1      32.430  28.479  25.955  1.00  0.00    -0.051 A 
ATOM     23  C   UNL A   1      33.524  28.523  25.090  1.00  0.00     0.005 A 
ATOM     24  C   UNL A   1      31.395  27.568  25.700  1.00  0.00     0.008 A 
ATOM     25  C   UNL A   1      33.586  27.665  23.993  1.00  0.00     0.023 A 
ATOM     26  C   UNL A   1      31.442  26.680  24.608  1.00  0.00    -0.030 A 
ATOM     27  C   UNL A   1      30.238  25.804  24.394  1.00  0.00     0.046 C 
ENDBRANCH  17  20
ENDBRANCH   9  17
ENDBRANCH   7   8
ENDBRANCH   4   7
ENDBRANCH   2   3
ENDBRANCH   1   2
BRANCH   1  28
ATOM     28  C   UNL A   1      36.575  21.775  24.316  1.00  0.00     0.023 C 
BRANCH  28  29
ATOM     29  C   UNL A   1      37.596  22.237  25.330  1.00  0.00     0.116 C 
BRANCH  29  30
ATOM     30  N   UNL A   1      38.607  21.235  25.653  1.00  0.00    -0.352 N 
ATOM     31  C   UNL A   1      39.763  21.383  26.388  1.00  0.00     0.251 C 
ATOM     32  H   UNL A   1      38.442  20.332  25.297  1.00  0.00     0.163 HD
ATOM     33  O   UNL A   1      40.552  20.450  26.496  1.00  0.00    -0.269 OA
BRANCH  31  34
ATOM     34  C   UNL A   1      40.059  22.698  26.996  1.00  0.00     0.039 A 
ATOM     35  C   UNL A   1      41.032  22.787  27.993  1.00  0.00     0.014 A 
ATOM     36  C   UNL A   1      39.455  23.852  26.497  1.00  0.00     0.014 A 
ATOM     37  C   UNL A   1      41.457  24.047  28.419  1.00  0.00     0.010 A 
ATOM     38  C   UNL A   1      39.997  25.091  26.800  1.00  0.00     0.010 A 
ATOM     39  C   UNL A   1      40.984  25.210  27.785  1.00  0.00    -0.014 A 
BRANCH  39  40
ATOM     40  C   UNL A   1      41.500  26.555  28.147  1.00  0.00     0.031 A 
ATOM     41  C   UNL A   1      42.927  26.930  27.830  1.00  0.00     0.074 A 
ATOM     42  C   UNL A   1      40.711  27.412  28.826  1.00  0.00     0.049 A 
ATOM     43  N   UNL A   1      43.555  28.053  28.064  1.00  0.00    -0.248 NA
ATOM     44  C   UNL A   1      43.777  25.897  27.208  1.00  0.00     0.031 C 
ATOM     45  C   UNL A   1      39.356  27.124  29.305  1.00  0.00     0.029 A 
ATOM     46  N   UNL A   1      40.937  28.700  29.241  1.00  0.00    -0.354 N 
ATOM     47  C   UNL A   1      44.868  27.846  27.659  1.00  0.00     0.074 A 
ATOM     48  C   UNL A   1      44.969  26.472  27.228  1.00  0.00     0.031 C 
ATOM     49  C   UNL A   1      38.857  28.215  29.907  1.00  0.00     0.029 A 
ATOM     50  C   UNL A   1      39.864  29.270  29.888  1.00  0.00     0.049 A 
ATOM     51  H   UNL A   1      41.788  29.173  29.090  1.00  0.00     0.167 HD
ATOM     52  C   UNL A   1      45.892  28.730  27.601  1.00  0.00     0.034 A 
ATOM     53  C   UNL A   1      39.707  30.507  30.396  1.00  0.00     0.034 A 
ATOM     54  C   UNL A   1      45.771  30.110  27.977  1.00  0.00     0.049 A 
ATOM     55  C   UNL A   1      40.831  31.496  30.244  1.00  0.00     0.074 A 
ATOM     56  C   UNL A   1      46.711  31.118  27.871  1.00  0.00     0.029 A 
ATOM     57  N   UNL A   1      44.637  30.676  28.538  1.00  0.00    -0.354 N 
ATOM     58  N   UNL A   1      42.011  31.328  29.701  1.00  0.00    -0.248 NA
ATOM     59  C   UNL A   1      40.582  32.858  30.735  1.00  0.00     0.031 C 
ATOM     60  C   UNL A   1      46.155  32.290  28.395  1.00  0.00     0.029 A 
ATOM     61  C   UNL A   1      44.854  32.020  28.789  1.00  0.00     0.049 A 
ATOM     62  H   UNL A   1      43.799  30.194  28.729  1.00  0.00     0.167 HD
ATOM     63  C   UNL A   1      42.634  32.571  29.750  1.00  0.00     0.074 A 
ATOM     64  C   UNL A   1      41.684  33.486  30.349  1.00  0.00     0.031 C 
ATOM     65  C   UNL A   1      43.881  32.922  29.349  1.00  0.00     0.034 A 
BRANCH  52  66
ATOM     66  C   UNL A   1      47.210  28.239  27.059  1.00  0.00     0.023 A 
ATOM     67  C   UNL A   1      48.273  27.960  27.946  1.00  0.00     0.012 A 
ATOM     68  C   UNL A   1      47.390  28.016  25.681  1.00  0.00     0.148 A 
ATOM     69  C   UNL A   1      49.503  27.511  27.469  1.00  0.00     0.002 A 
ATOM     70  C   UNL A   1      48.601  27.517  25.217  1.00  0.00     0.091 A 
ATOM     71  F   UNL A   1      46.380  28.307  24.850  1.00  0.00    -0.205 F 
ATOM     72  C   UNL A   1      49.663  27.278  26.106  1.00  0.00     0.022 A 
BRANCH  70  73
ATOM     73  S   UNL A   1      48.883  27.103  23.492  1.00  0.00     0.127 S 
ATOM     74  O   UNL A   1      50.339  26.973  23.455  1.00  0.00    -0.237 OA
ATOM     75  O   UNL A   1      48.155  25.840  23.359  1.00  0.00    -0.237 OA
ATOM     76  O   UNL A   1      48.335  28.207  22.717  1.00  0.00    -0.744 OA
ENDBRANCH  70  73
ENDBRANCH  52  66
BRANCH  53  77
ATOM     77  C   UNL A   1      38.410  30.905  31.016  1.00  0.00     0.023 A 
ATOM     78  C   UNL A   1      38.187  30.652  32.385  1.00  0.00     0.012 A 
ATOM     79  C   UNL A   1      37.409  31.548  30.266  1.00  0.00     0.148 A 
ATOM     80  C   UNL A   1      36.974  30.997  32.984  1.00  0.00     0.002 A 
ATOM     81  C   UNL A   1      36.226  31.942  30.882  1.00  0.00     0.091 A 
ATOM     82  F   UNL A   1      37.636  31.773  28.964  1.00  0.00    -0.205 F 
ATOM     83  C   UNL A   1      35.998  31.649  32.236  1.00  0.00     0.022 A 
BRANCH  81  84
ATOM     84  S   UNL A   1      34.973  32.906  30.032  1.00  0.00     0.127 S 
ATOM     85  O   UNL A   1      35.771  33.974  29.434  1.00  0.00    -0.237 OA
ATOM     86  O   UNL A   1      34.436  31.931  29.082  1.00  0.00    -0.237 OA
ATOM     87  O   UNL A   1      34.030  33.321  31.062  1.00  0.00    -0.744 OA
ENDBRANCH  81  84
ENDBRANCH  53  77
BRANCH  65  88
ATOM     88  C   UNL A   1      44.274  34.367  29.508  1.00  0.00     0.023 A 
ATOM     89  C   UNL A   1      44.952  34.792  30.667  1.00  0.00     0.012 A 
ATOM     90  C   UNL A   1      44.004  35.296  28.485  1.00  0.00     0.148 A 
ATOM     91  C   UNL A   1      45.305  36.131  30.830  1.00  0.00     0.002 A 
ATOM     92  C   UNL A   1      44.411  36.616  28.628  1.00  0.00     0.091 A 
ATOM     93  F   UNL A   1      43.344  34.877  27.395  1.00  0.00    -0.205 F 
ATOM     94  C   UNL A   1      45.044  37.039  29.808  1.00  0.00     0.022 A 
BRANCH  92  95
ATOM     95  S   UNL A   1      44.209  37.827  27.318  1.00  0.00     0.127 S 
ATOM     96  O   UNL A   1      44.214  39.082  28.068  1.00  0.00    -0.237 OA
ATOM     97  O   UNL A   1      45.400  37.600  26.498  1.00  0.00    -0.237 OA
ATOM     98  O   UNL A   1      42.953  37.495  26.658  1.00  0.00    -0.744 OA
ENDBRANCH  92  95
ENDBRANCH  65  88
ENDBRANCH  39  40
ENDBRANCH  31  34
ENDBRANCH  29  30
ENDBRANCH  28  29
ENDBRANCH   1  28
TORSDOF 17
ENDMDL
