MODEL 1
REMARK VINA RESULT:     -12.1      0.000      0.000
REMARK SMILES CC(C)[C@@H](C)[N@@H+]1[C@@H](C(=O)NCCCCNC(=O)c2ccc(-c3c4nc(c(-c5cccc(S(=O)(=O)[O-])c5F)c5ccc([nH]5)c(-c5cccc(S(=O)(=O)[O-])c5F)c5nc(c(-c6cccc(S(=O)(=O)[O-])c6F)c6ccc3[nH]6)C=C5)C=C4)cc2)C[C@H]2CCCC[C@H]21
REMARK SMILES IDX 13 1 12 2 11 3 10 4 8 5 9 6 7 8 6 9 87 10 81 12 82 13 86 14
REMARK SMILES IDX 83 15 85 16 84 17 4 18 5 19 2 20 1 21 3 22 14 23 15 24 16 25
REMARK SMILES IDX 17 27 18 28 19 29 80 30 20 31 79 32 21 33 22 34 23 35 73 36
REMARK SMILES IDX 24 37 78 38 72 39 74 40 25 41 77 42 71 43 70 44 26 46 58 47
REMARK SMILES IDX 38 48 57 49 39 50 42 51 56 52 75 53 40 54 41 55 55 57 76 58
REMARK SMILES IDX 43 59 27 60 28 61 36 62 29 63 31 64 37 65 30 66 32 67 33 68
REMARK SMILES IDX 34 69 35 70 59 71 60 72 68 73 61 74 63 75 69 76 62 77 64 78
REMARK SMILES IDX 65 79 66 80 67 81 44 82 45 83 53 84 46 85 48 86 54 87 47 88
REMARK SMILES IDX 49 89 50 90 51 91 52 92
REMARK H PARENT 10 7 6 11 15 26 74 45 42 56
REMARK Flexibility Score: inf
ROOT
ATOM      1  C   UNL A   1      31.605  29.357  26.796  1.00  0.00     0.023 C 
ENDROOT
BRANCH   1   2
ATOM      2  C   UNL A   1      31.773  27.885  27.167  1.00  0.00     0.023 C 
BRANCH   2   3
ATOM      3  C   UNL A   1      31.249  26.874  26.157  1.00  0.00     0.116 C 
BRANCH   3   4
ATOM      4  N   UNL A   1      31.071  25.545  26.697  1.00  0.00    -0.351 N 
ATOM      5  C   UNL A   1      31.925  24.477  26.652  1.00  0.00     0.278 C 
ATOM      6  O   UNL A   1      31.601  23.486  27.311  1.00  0.00    -0.268 OA
ATOM      7  H   UNL A   1      30.218  25.387  27.162  1.00  0.00     0.163 HD
BRANCH   5   8
ATOM      8  C   UNL A   1      33.190  24.534  25.737  1.00  0.00     0.275 C 
ATOM      9  N   UNL A   1      32.800  24.320  24.316  1.00  0.00    -0.320 N 
ATOM     10  C   UNL A   1      33.161  22.925  23.984  1.00  0.00     0.188 C 
ATOM     11  H   UNL A   1      31.791  24.443  24.232  1.00  0.00     0.349 HD
ATOM     12  C   UNL A   1      34.210  23.433  26.055  1.00  0.00     0.085 C 
ATOM     13  C   UNL A   1      34.481  22.739  24.729  1.00  0.00     0.054 C 
ATOM     14  C   UNL A   1      32.090  21.908  24.437  1.00  0.00     0.065 C 
ATOM     15  C   UNL A   1      34.958  21.298  24.872  1.00  0.00     0.010 C 
ATOM     16  C   UNL A   1      32.625  20.475  24.427  1.00  0.00     0.006 C 
ATOM     17  C   UNL A   1      33.859  20.339  25.312  1.00  0.00     0.001 C 
BRANCH   9  18
ATOM     18  C   UNL A   1      33.108  25.384  23.316  1.00  0.00     0.184 C 
ATOM     19  C   UNL A   1      33.624  26.712  23.913  1.00  0.00     0.075 C 
BRANCH  18  20
ATOM     20  C   UNL A   1      31.999  25.685  22.230  1.00  0.00     0.041 C 
ATOM     21  C   UNL A   1      31.341  27.069  22.376  1.00  0.00     0.013 C 
ATOM     22  C   UNL A   1      32.525  25.583  20.794  1.00  0.00     0.013 C 
ENDBRANCH  18  20
ENDBRANCH   9  18
ENDBRANCH   5   8
ENDBRANCH   3   4
ENDBRANCH   2   3
ENDBRANCH   1   2
BRANCH   1  23
ATOM     23  C   UNL A   1      32.884  30.115  26.457  1.00  0.00     0.116 C 
BRANCH  23  24
ATOM     24  N   UNL A   1      32.859  31.512  26.867  1.00  0.00    -0.352 N 
ATOM     25  C   UNL A   1      33.760  32.221  27.627  1.00  0.00     0.251 C 
ATOM     26  H   UNL A   1      32.080  32.026  26.554  1.00  0.00     0.163 HD
ATOM     27  O   UNL A   1      33.512  33.384  27.941  1.00  0.00    -0.269 OA
BRANCH  25  28
ATOM     28  C   UNL A   1      35.004  31.576  28.097  1.00  0.00     0.039 A 
ATOM     29  C   UNL A   1      36.169  32.344  28.192  1.00  0.00     0.014 A 
ATOM     30  C   UNL A   1      35.018  30.232  28.476  1.00  0.00     0.014 A 
ATOM     31  C   UNL A   1      37.321  31.787  28.753  1.00  0.00     0.010 A 
ATOM     32  C   UNL A   1      36.141  29.705  29.109  1.00  0.00     0.010 A 
ATOM     33  C   UNL A   1      37.303  30.477  29.259  1.00  0.00    -0.014 A 
BRANCH  33  34
ATOM     34  C   UNL A   1      38.473  29.903  29.974  1.00  0.00     0.031 A 
ATOM     35  C   UNL A   1      38.834  30.391  31.351  1.00  0.00     0.074 A 
ATOM     36  C   UNL A   1      39.277  29.025  29.339  1.00  0.00     0.049 A 
ATOM     37  N   UNL A   1      39.859  30.068  32.097  1.00  0.00    -0.248 NA
ATOM     38  C   UNL A   1      37.948  31.399  31.958  1.00  0.00     0.031 C 
ATOM     39  C   UNL A   1      39.091  28.543  27.967  1.00  0.00     0.029 A 
ATOM     40  N   UNL A   1      40.432  28.406  29.751  1.00  0.00    -0.354 N 
ATOM     41  C   UNL A   1      39.769  30.865  33.232  1.00  0.00     0.074 A 
ATOM     42  C   UNL A   1      38.603  31.705  33.068  1.00  0.00     0.031 C 
ATOM     43  C   UNL A   1      40.094  27.706  27.654  1.00  0.00     0.029 A 
ATOM     44  C   UNL A   1      41.007  27.609  28.788  1.00  0.00     0.049 A 
ATOM     45  H   UNL A   1      40.813  28.522  30.651  1.00  0.00     0.167 HD
ATOM     46  C   UNL A   1      40.568  30.877  34.325  1.00  0.00     0.034 A 
ATOM     47  C   UNL A   1      42.144  26.885  28.812  1.00  0.00     0.034 A 
ATOM     48  C   UNL A   1      41.682  29.990  34.519  1.00  0.00     0.049 A 
ATOM     49  C   UNL A   1      42.969  26.862  30.071  1.00  0.00     0.074 A 
ATOM     50  C   UNL A   1      42.471  29.835  35.645  1.00  0.00     0.029 A 
ATOM     51  N   UNL A   1      42.168  29.111  33.565  1.00  0.00    -0.354 N 
ATOM     52  N   UNL A   1      42.756  27.478  31.209  1.00  0.00    -0.248 NA
ATOM     53  C   UNL A   1      44.171  26.015  30.065  1.00  0.00     0.031 C 
ATOM     54  C   UNL A   1      43.446  28.872  35.365  1.00  0.00     0.029 A 
ATOM     55  C   UNL A   1      43.252  28.417  34.070  1.00  0.00     0.049 A 
ATOM     56  H   UNL A   1      41.796  28.997  32.660  1.00  0.00     0.167 HD
ATOM     57  C   UNL A   1      43.771  27.063  32.063  1.00  0.00     0.074 A 
ATOM     58  C   UNL A   1      44.588  26.127  31.319  1.00  0.00     0.031 C 
ATOM     59  C   UNL A   1      44.016  27.437  33.342  1.00  0.00     0.034 A 
BRANCH  46  60
ATOM     60  C   UNL A   1      40.229  31.838  35.434  1.00  0.00     0.023 A 
ATOM     61  C   UNL A   1      40.952  33.043  35.553  1.00  0.00     0.012 A 
ATOM     62  C   UNL A   1      39.151  31.589  36.306  1.00  0.00     0.148 A 
ATOM     63  C   UNL A   1      40.628  33.971  36.542  1.00  0.00     0.002 A 
ATOM     64  C   UNL A   1      38.807  32.537  37.261  1.00  0.00     0.091 A 
ATOM     65  F   UNL A   1      38.490  30.428  36.189  1.00  0.00    -0.205 F 
ATOM     66  C   UNL A   1      39.550  33.723  37.387  1.00  0.00     0.022 A 
BRANCH  64  67
ATOM     67  S   UNL A   1      37.387  32.348  38.345  1.00  0.00     0.127 S 
ATOM     68  O   UNL A   1      37.854  33.013  39.562  1.00  0.00    -0.237 OA
ATOM     69  O   UNL A   1      36.344  33.074  37.618  1.00  0.00    -0.237 OA
ATOM     70  O   UNL A   1      37.160  30.915  38.462  1.00  0.00    -0.744 OA
ENDBRANCH  64  67
ENDBRANCH  46  60
BRANCH  47  71
ATOM     71  C   UNL A   1      42.531  26.056  27.634  1.00  0.00     0.023 A 
ATOM     72  C   UNL A   1      43.367  26.614  26.646  1.00  0.00     0.012 A 
ATOM     73  C   UNL A   1      42.094  24.727  27.490  1.00  0.00     0.148 A 
ATOM     74  C   UNL A   1      43.730  25.876  25.520  1.00  0.00     0.002 A 
ATOM     75  C   UNL A   1      42.503  23.978  26.392  1.00  0.00     0.091 A 
ATOM     76  F   UNL A   1      41.285  24.215  28.430  1.00  0.00    -0.205 F 
ATOM     77  C   UNL A   1      43.307  24.555  25.396  1.00  0.00     0.022 A 
BRANCH  75  78
ATOM     78  S   UNL A   1      42.111  22.233  26.227  1.00  0.00     0.127 S 
ATOM     79  O   UNL A   1      42.635  21.688  27.477  1.00  0.00    -0.237 OA
ATOM     80  O   UNL A   1      40.651  22.252  26.128  1.00  0.00    -0.237 OA
ATOM     81  O   UNL A   1      42.783  21.801  25.008  1.00  0.00    -0.744 OA
ENDBRANCH  75  78
ENDBRANCH  47  71
BRANCH  59  82
ATOM     82  C   UNL A   1      45.192  26.811  34.044  1.00  0.00     0.023 A 
ATOM     83  C   UNL A   1      46.437  27.472  34.044  1.00  0.00     0.012 A 
ATOM     84  C   UNL A   1      45.043  25.614  34.771  1.00  0.00     0.148 A 
ATOM     85  C   UNL A   1      47.523  26.937  34.734  1.00  0.00     0.002 A 
ATOM     86  C   UNL A   1      46.118  25.111  35.495  1.00  0.00     0.091 A 
ATOM     87  F   UNL A   1      43.857  24.990  34.741  1.00  0.00    -0.205 F 
ATOM     88  C   UNL A   1      47.360  25.764  35.469  1.00  0.00     0.022 A 
BRANCH  86  89
ATOM     89  S   UNL A   1      45.968  23.661  36.545  1.00  0.00     0.127 S 
ATOM     90  O   UNL A   1      45.433  22.671  35.614  1.00  0.00    -0.237 OA
ATOM     91  O   UNL A   1      47.354  23.427  36.954  1.00  0.00    -0.237 OA
ATOM     92  O   UNL A   1      45.079  24.046  37.632  1.00  0.00    -0.744 OA
ENDBRANCH  86  89
ENDBRANCH  59  82
ENDBRANCH  33  34
ENDBRANCH  25  28
ENDBRANCH  23  24
ENDBRANCH   1  23
TORSDOF 16
ENDMDL
MODEL 2
REMARK VINA RESULT:     -12.0      1.760      2.188
REMARK SMILES CC(C)[C@@H](C)[N@@H+]1[C@@H](C(=O)NCCCCNC(=O)c2ccc(-c3c4nc(c(-c5cccc(S(=O)(=O)[O-])c5F)c5ccc([nH]5)c(-c5cccc(S(=O)(=O)[O-])c5F)c5nc(c(-c6cccc(S(=O)(=O)[O-])c6F)c6ccc3[nH]6)C=C5)C=C4)cc2)C[C@H]2CCCC[C@H]21
REMARK SMILES IDX 13 1 12 2 11 3 10 4 8 5 9 6 7 8 6 9 87 10 81 12 82 13 86 14
REMARK SMILES IDX 83 15 85 16 84 17 4 18 5 19 2 20 1 21 3 22 14 23 15 24 16 25
REMARK SMILES IDX 17 27 18 28 19 29 80 30 20 31 79 32 21 33 22 34 23 35 73 36
REMARK SMILES IDX 24 37 78 38 72 39 74 40 25 41 77 42 71 43 70 44 26 46 58 47
REMARK SMILES IDX 38 48 57 49 39 50 42 51 56 52 75 53 40 54 41 55 55 57 76 58
REMARK SMILES IDX 43 59 27 60 28 61 36 62 29 63 31 64 37 65 30 66 32 67 33 68
REMARK SMILES IDX 34 69 35 70 59 71 60 72 68 73 61 74 63 75 69 76 62 77 64 78
REMARK SMILES IDX 65 79 66 80 67 81 44 82 45 83 53 84 46 85 48 86 54 87 47 88
REMARK SMILES IDX 49 89 50 90 51 91 52 92
REMARK H PARENT 10 7 6 11 15 26 74 45 42 56
REMARK Flexibility Score: inf
ROOT
ATOM      1  C   UNL A   1      31.942  28.934  26.839  1.00  0.00     0.023 C 
ENDROOT
BRANCH   1   2
ATOM      2  C   UNL A   1      31.516  27.549  27.318  1.00  0.00     0.023 C 
BRANCH   2   3
ATOM      3  C   UNL A   1      30.904  26.633  26.267  1.00  0.00     0.116 C 
BRANCH   3   4
ATOM      4  N   UNL A   1      30.762  25.261  26.698  1.00  0.00    -0.351 N 
ATOM      5  C   UNL A   1      31.690  24.255  26.687  1.00  0.00     0.278 C 
ATOM      6  O   UNL A   1      31.365  23.202  27.239  1.00  0.00    -0.268 OA
ATOM      7  H   UNL A   1      29.875  25.015  27.047  1.00  0.00     0.163 HD
BRANCH   5   8
ATOM      8  C   UNL A   1      33.044  24.458  25.936  1.00  0.00     0.275 C 
ATOM      9  N   UNL A   1      32.821  24.416  24.465  1.00  0.00    -0.320 N 
ATOM     10  C   UNL A   1      33.268  23.084  24.006  1.00  0.00     0.188 C 
ATOM     11  H   UNL A   1      31.822  24.525  24.283  1.00  0.00     0.349 HD
ATOM     12  C   UNL A   1      34.065  23.351  26.229  1.00  0.00     0.085 C 
ATOM     13  C   UNL A   1      34.505  22.838  24.867  1.00  0.00     0.054 C 
ATOM     14  C   UNL A   1      32.194  21.992  24.206  1.00  0.00     0.065 C 
ATOM     15  C   UNL A   1      35.018  21.401  24.885  1.00  0.00     0.010 C 
ATOM     16  C   UNL A   1      32.781  20.585  24.081  1.00  0.00     0.006 C 
ATOM     17  C   UNL A   1      33.915  20.369  25.077  1.00  0.00     0.001 C 
BRANCH   9  18
ATOM     18  C   UNL A   1      33.194  25.606  23.644  1.00  0.00     0.184 C 
ATOM     19  C   UNL A   1      33.882  26.747  24.425  1.00  0.00     0.075 C 
BRANCH  18  20
ATOM     20  C   UNL A   1      32.075  26.205  22.704  1.00  0.00     0.041 C 
ATOM     21  C   UNL A   1      31.901  27.730  22.831  1.00  0.00     0.013 C 
ATOM     22  C   UNL A   1      32.312  25.899  21.221  1.00  0.00     0.013 C 
ENDBRANCH  18  20
ENDBRANCH   9  18
ENDBRANCH   5   8
ENDBRANCH   3   4
ENDBRANCH   2   3
ENDBRANCH   1   2
BRANCH   1  23
ATOM     23  C   UNL A   1      33.393  29.320  27.102  1.00  0.00     0.116 C 
BRANCH  23  24
ATOM     24  N   UNL A   1      33.570  30.722  27.454  1.00  0.00    -0.352 N 
ATOM     25  C   UNL A   1      34.623  31.346  28.079  1.00  0.00     0.251 C 
ATOM     26  H   UNL A   1      32.821  31.312  27.207  1.00  0.00     0.163 HD
ATOM     27  O   UNL A   1      34.542  32.538  28.370  1.00  0.00    -0.269 OA
BRANCH  25  28
ATOM     28  C   UNL A   1      35.836  30.577  28.435  1.00  0.00     0.039 A 
ATOM     29  C   UNL A   1      36.967  30.684  27.621  1.00  0.00     0.014 A 
ATOM     30  C   UNL A   1      35.871  29.783  29.584  1.00  0.00     0.014 A 
ATOM     31  C   UNL A   1      38.159  30.068  28.009  1.00  0.00     0.010 A 
ATOM     32  C   UNL A   1      37.080  29.239  30.009  1.00  0.00     0.010 A 
ATOM     33  C   UNL A   1      38.238  29.379  29.230  1.00  0.00    -0.014 A 
BRANCH  33  34
ATOM     34  C   UNL A   1      39.524  28.822  29.727  1.00  0.00     0.031 A 
ATOM     35  C   UNL A   1      40.264  29.507  30.846  1.00  0.00     0.074 A 
ATOM     36  C   UNL A   1      40.082  27.768  29.098  1.00  0.00     0.049 A 
ATOM     37  N   UNL A   1      41.431  29.216  31.360  1.00  0.00    -0.248 NA
ATOM     38  C   UNL A   1      39.626  30.692  31.444  1.00  0.00     0.031 C 
ATOM     39  C   UNL A   1      39.512  27.073  27.940  1.00  0.00     0.029 A 
ATOM     40  N   UNL A   1      41.269  27.115  29.321  1.00  0.00    -0.354 N 
ATOM     41  C   UNL A   1      41.689  30.206  32.300  1.00  0.00     0.074 A 
ATOM     42  C   UNL A   1      40.568  31.120  32.271  1.00  0.00     0.031 C 
ATOM     43  C   UNL A   1      40.349  26.094  27.557  1.00  0.00     0.029 A 
ATOM     44  C   UNL A   1      41.524  26.105  28.422  1.00  0.00     0.049 A 
ATOM     45  H   UNL A   1      41.882  27.348  30.057  1.00  0.00     0.167 HD
ATOM     46  C   UNL A   1      42.749  30.329  33.133  1.00  0.00     0.034 A 
ATOM     47  C   UNL A   1      42.586  25.284  28.303  1.00  0.00     0.034 A 
ATOM     48  C   UNL A   1      43.825  29.380  33.213  1.00  0.00     0.049 A 
ATOM     49  C   UNL A   1      43.714  25.398  29.294  1.00  0.00     0.074 A 
ATOM     50  C   UNL A   1      44.876  29.346  34.113  1.00  0.00     0.029 A 
ATOM     51  N   UNL A   1      43.992  28.300  32.361  1.00  0.00    -0.354 N 
ATOM     52  N   UNL A   1      43.844  26.224  30.304  1.00  0.00    -0.248 NA
ATOM     53  C   UNL A   1      44.824  24.443  29.155  1.00  0.00     0.031 C 
ATOM     54  C   UNL A   1      45.687  28.252  33.794  1.00  0.00     0.029 A 
ATOM     55  C   UNL A   1      45.132  27.598  32.706  1.00  0.00     0.049 A 
ATOM     56  H   UNL A   1      43.387  28.067  31.619  1.00  0.00     0.167 HD
ATOM     57  C   UNL A   1      45.026  25.864  30.941  1.00  0.00     0.074 A 
ATOM     58  C   UNL A   1      45.564  24.732  30.216  1.00  0.00     0.031 C 
ATOM     59  C   UNL A   1      45.622  26.431  32.018  1.00  0.00     0.034 A 
BRANCH  46  60
ATOM     60  C   UNL A   1      42.769  31.500  34.079  1.00  0.00     0.023 A 
ATOM     61  C   UNL A   1      43.312  32.729  33.650  1.00  0.00     0.012 A 
ATOM     62  C   UNL A   1      42.185  31.411  35.358  1.00  0.00     0.148 A 
ATOM     63  C   UNL A   1      43.301  33.842  34.490  1.00  0.00     0.002 A 
ATOM     64  C   UNL A   1      42.139  32.536  36.172  1.00  0.00     0.091 A 
ATOM     65  F   UNL A   1      41.694  30.228  35.754  1.00  0.00    -0.205 F 
ATOM     66  C   UNL A   1      42.704  33.749  35.744  1.00  0.00     0.022 A 
BRANCH  64  67
ATOM     67  S   UNL A   1      41.325  32.539  37.774  1.00  0.00     0.127 S 
ATOM     68  O   UNL A   1      41.405  33.952  38.143  1.00  0.00    -0.237 OA
ATOM     69  O   UNL A   1      39.978  32.075  37.436  1.00  0.00    -0.237 OA
ATOM     70  O   UNL A   1      42.088  31.628  38.614  1.00  0.00    -0.744 OA
ENDBRANCH  64  67
ENDBRANCH  46  60
BRANCH  47  71
ATOM     71  C   UNL A   1      42.601  24.224  27.254  1.00  0.00     0.023 A 
ATOM     72  C   UNL A   1      43.264  24.472  26.036  1.00  0.00     0.012 A 
ATOM     73  C   UNL A   1      41.982  22.976  27.454  1.00  0.00     0.148 A 
ATOM     74  C   UNL A   1      43.279  23.513  25.023  1.00  0.00     0.002 A 
ATOM     75  C   UNL A   1      42.046  22.004  26.462  1.00  0.00     0.091 A 
ATOM     76  F   UNL A   1      41.341  22.761  28.612  1.00  0.00    -0.205 F 
ATOM     77  C   UNL A   1      42.678  22.276  25.239  1.00  0.00     0.022 A 
BRANCH  75  78
ATOM     78  S   UNL A   1      41.413  20.341  26.713  1.00  0.00     0.127 S 
ATOM     79  O   UNL A   1      41.729  19.704  25.437  1.00  0.00    -0.237 OA
ATOM     80  O   UNL A   1      42.213  19.875  27.847  1.00  0.00    -0.237 OA
ATOM     81  O   UNL A   1      39.998  20.509  27.013  1.00  0.00    -0.744 OA
ENDBRANCH  75  78
ENDBRANCH  47  71
BRANCH  59  82
ATOM     82  C   UNL A   1      46.907  25.821  32.512  1.00  0.00     0.023 A 
ATOM     83  C   UNL A   1      48.138  26.289  32.012  1.00  0.00     0.012 A 
ATOM     84  C   UNL A   1      46.897  24.846  33.528  1.00  0.00     0.148 A 
ATOM     85  C   UNL A   1      49.340  25.776  32.497  1.00  0.00     0.002 A 
ATOM     86  C   UNL A   1      48.100  24.373  34.040  1.00  0.00     0.091 A 
ATOM     87  F   UNL A   1      45.714  24.399  33.976  1.00  0.00    -0.205 F 
ATOM     88  C   UNL A   1      49.321  24.828  33.518  1.00  0.00     0.022 A 
BRANCH  86  89
ATOM     89  S   UNL A   1      48.167  23.226  35.421  1.00  0.00     0.127 S 
ATOM     90  O   UNL A   1      47.736  21.978  34.794  1.00  0.00    -0.237 OA
ATOM     91  O   UNL A   1      49.583  23.265  35.790  1.00  0.00    -0.237 OA
ATOM     92  O   UNL A   1      47.268  23.766  36.431  1.00  0.00    -0.744 OA
ENDBRANCH  86  89
ENDBRANCH  59  82
ENDBRANCH  33  34
ENDBRANCH  25  28
ENDBRANCH  23  24
ENDBRANCH   1  23
TORSDOF 16
ENDMDL
MODEL 3
REMARK VINA RESULT:     -12.0      0.956      7.647
REMARK SMILES CC(C)[C@@H](C)[N@@H+]1[C@@H](C(=O)NCCCCNC(=O)c2ccc(-c3c4nc(c(-c5cccc(S(=O)(=O)[O-])c5F)c5ccc([nH]5)c(-c5cccc(S(=O)(=O)[O-])c5F)c5nc(c(-c6cccc(S(=O)(=O)[O-])c6F)c6ccc3[nH]6)C=C5)C=C4)cc2)C[C@H]2CCCC[C@H]21
REMARK SMILES IDX 13 1 12 2 11 3 10 4 8 5 9 6 7 8 6 9 87 10 81 12 82 13 86 14
REMARK SMILES IDX 83 15 85 16 84 17 4 18 5 19 2 20 1 21 3 22 14 23 15 24 16 25
REMARK SMILES IDX 17 27 18 28 19 29 80 30 20 31 79 32 21 33 22 34 23 35 73 36
REMARK SMILES IDX 24 37 78 38 72 39 74 40 25 41 77 42 71 43 70 44 26 46 58 47
REMARK SMILES IDX 38 48 57 49 39 50 42 51 56 52 75 53 40 54 41 55 55 57 76 58
REMARK SMILES IDX 43 59 27 60 28 61 36 62 29 63 31 64 37 65 30 66 32 67 33 68
REMARK SMILES IDX 34 69 35 70 59 71 60 72 68 73 61 74 63 75 69 76 62 77 64 78
REMARK SMILES IDX 65 79 66 80 67 81 44 82 45 83 53 84 46 85 48 86 54 87 47 88
REMARK SMILES IDX 49 89 50 90 51 91 52 92
REMARK H PARENT 10 7 6 11 15 26 74 45 42 56
REMARK Flexibility Score: inf
ROOT
ATOM      1  C   UNL A   1      31.404  28.819  25.989  1.00  0.00     0.023 C 
ENDROOT
BRANCH   1   2
ATOM      2  C   UNL A   1      31.503  27.503  26.756  1.00  0.00     0.023 C 
BRANCH   2   3
ATOM      3  C   UNL A   1      31.078  26.251  26.001  1.00  0.00     0.116 C 
BRANCH   3   4
ATOM      4  N   UNL A   1      31.393  25.018  26.686  1.00  0.00    -0.351 N 
ATOM      5  C   UNL A   1      32.536  24.269  26.625  1.00  0.00     0.278 C 
ATOM      6  O   UNL A   1      32.617  23.325  27.415  1.00  0.00    -0.268 OA
ATOM      7  H   UNL A   1      30.689  24.670  27.279  1.00  0.00     0.163 HD
BRANCH   5   8
ATOM      8  C   UNL A   1      33.615  24.587  25.541  1.00  0.00     0.275 C 
ATOM      9  N   UNL A   1      33.151  24.115  24.208  1.00  0.00    -0.320 N 
ATOM     10  C   UNL A   1      33.873  22.855  23.929  1.00  0.00     0.188 C 
ATOM     11  H   UNL A   1      32.148  23.933  24.257  1.00  0.00     0.349 HD
ATOM     12  C   UNL A   1      34.947  23.867  25.792  1.00  0.00     0.085 C 
ATOM     13  C   UNL A   1      35.262  23.141  24.494  1.00  0.00     0.054 C 
ATOM     14  C   UNL A   1      33.213  21.630  24.598  1.00  0.00     0.065 C 
ATOM     15  C   UNL A   1      36.162  21.922  24.672  1.00  0.00     0.010 C 
ATOM     16  C   UNL A   1      34.148  20.419  24.616  1.00  0.00     0.006 C 
ATOM     17  C   UNL A   1      35.457  20.742  25.328  1.00  0.00     0.001 C 
BRANCH   9  18
ATOM     18  C   UNL A   1      33.011  25.107  23.101  1.00  0.00     0.184 C 
ATOM     19  C   UNL A   1      33.553  26.519  23.417  1.00  0.00     0.075 C 
BRANCH  18  20
ATOM     20  C   UNL A   1      31.589  25.224  22.422  1.00  0.00     0.041 C 
ATOM     21  C   UNL A   1      30.496  24.387  23.111  1.00  0.00     0.013 C 
ATOM     22  C   UNL A   1      31.076  26.666  22.350  1.00  0.00     0.013 C 
ENDBRANCH  18  20
ENDBRANCH   9  18
ENDBRANCH   5   8
ENDBRANCH   3   4
ENDBRANCH   2   3
ENDBRANCH   1   2
BRANCH   1  23
ATOM     23  C   UNL A   1      32.633  29.720  26.036  1.00  0.00     0.116 C 
BRANCH  23  24
ATOM     24  N   UNL A   1      32.341  31.083  26.457  1.00  0.00    -0.352 N 
ATOM     25  C   UNL A   1      33.068  31.930  27.259  1.00  0.00     0.251 C 
ATOM     26  H   UNL A   1      31.496  31.454  26.115  1.00  0.00     0.163 HD
ATOM     27  O   UNL A   1      32.603  33.024  27.573  1.00  0.00    -0.269 OA
BRANCH  25  28
ATOM     28  C   UNL A   1      34.389  31.512  27.777  1.00  0.00     0.039 A 
ATOM     29  C   UNL A   1      35.369  32.484  27.992  1.00  0.00     0.014 A 
ATOM     30  C   UNL A   1      34.649  30.174  28.082  1.00  0.00     0.014 A 
ATOM     31  C   UNL A   1      36.576  32.128  28.599  1.00  0.00     0.010 A 
ATOM     32  C   UNL A   1      35.818  29.836  28.760  1.00  0.00     0.010 A 
ATOM     33  C   UNL A   1      36.792  30.809  29.029  1.00  0.00    -0.014 A 
BRANCH  33  34
ATOM     34  C   UNL A   1      38.012  30.429  29.789  1.00  0.00     0.031 A 
ATOM     35  C   UNL A   1      38.997  29.453  29.202  1.00  0.00     0.074 A 
ATOM     36  C   UNL A   1      38.176  30.871  31.053  1.00  0.00     0.049 A 
ATOM     37  N   UNL A   1      40.074  28.944  29.743  1.00  0.00    -0.248 NA
ATOM     38  C   UNL A   1      38.721  28.960  27.842  1.00  0.00     0.031 C 
ATOM     39  C   UNL A   1      37.245  31.745  31.773  1.00  0.00     0.029 A 
ATOM     40  N   UNL A   1      39.167  30.622  31.970  1.00  0.00    -0.354 N 
ATOM     41  C   UNL A   1      40.572  28.036  28.815  1.00  0.00     0.074 A 
ATOM     42  C   UNL A   1      39.669  28.046  27.686  1.00  0.00     0.031 C 
ATOM     43  C   UNL A   1      37.710  31.957  33.015  1.00  0.00     0.029 A 
ATOM     44  C   UNL A   1      38.955  31.218  33.191  1.00  0.00     0.049 A 
ATOM     45  H   UNL A   1      39.957  30.067  31.771  1.00  0.00     0.167 HD
ATOM     46  C   UNL A   1      41.696  27.283  28.885  1.00  0.00     0.034 A 
ATOM     47  C   UNL A   1      39.678  31.171  34.328  1.00  0.00     0.034 A 
ATOM     48  C   UNL A   1      42.631  27.330  29.974  1.00  0.00     0.049 A 
ATOM     49  C   UNL A   1      40.962  30.385  34.346  1.00  0.00     0.074 A 
ATOM     50  C   UNL A   1      43.861  26.706  30.078  1.00  0.00     0.029 A 
ATOM     51  N   UNL A   1      42.440  28.037  31.150  1.00  0.00    -0.354 N 
ATOM     52  N   UNL A   1      41.516  29.687  33.384  1.00  0.00    -0.248 NA
ATOM     53  C   UNL A   1      41.742  30.409  35.593  1.00  0.00     0.031 C 
ATOM     54  C   UNL A   1      44.408  27.024  31.326  1.00  0.00     0.029 A 
ATOM     55  C   UNL A   1      43.524  27.859  31.991  1.00  0.00     0.049 A 
ATOM     56  H   UNL A   1      41.649  28.587  31.357  1.00  0.00     0.167 HD
ATOM     57  C   UNL A   1      42.723  29.224  33.895  1.00  0.00     0.074 A 
ATOM     58  C   UNL A   1      42.831  29.738  35.245  1.00  0.00     0.031 C 
ATOM     59  C   UNL A   1      43.650  28.430  33.306  1.00  0.00     0.034 A 
BRANCH  46  60
ATOM     60  C   UNL A   1      42.016  26.389  27.717  1.00  0.00     0.023 A 
ATOM     61  C   UNL A   1      42.769  26.897  26.639  1.00  0.00     0.012 A 
ATOM     62  C   UNL A   1      41.642  25.030  27.720  1.00  0.00     0.148 A 
ATOM     63  C   UNL A   1      43.118  26.078  25.567  1.00  0.00     0.002 A 
ATOM     64  C   UNL A   1      42.031  24.209  26.668  1.00  0.00     0.091 A 
ATOM     65  F   UNL A   1      40.909  24.571  28.743  1.00  0.00    -0.205 F 
ATOM     66  C   UNL A   1      42.760  24.733  25.587  1.00  0.00     0.022 A 
BRANCH  64  67
ATOM     67  S   UNL A   1      41.686  22.446  26.638  1.00  0.00     0.127 S 
ATOM     68  O   UNL A   1      40.224  22.431  26.634  1.00  0.00    -0.237 OA
ATOM     69  O   UNL A   1      42.301  22.033  25.375  1.00  0.00    -0.237 OA
ATOM     70  O   UNL A   1      42.315  21.894  27.829  1.00  0.00    -0.744 OA
ENDBRANCH  64  67
ENDBRANCH  46  60
BRANCH  47  71
ATOM     71  C   UNL A   1      39.251  31.955  35.523  1.00  0.00     0.023 A 
ATOM     72  C   UNL A   1      39.595  33.319  35.607  1.00  0.00     0.012 A 
ATOM     73  C   UNL A   1      38.502  31.372  36.561  1.00  0.00     0.148 A 
ATOM     74  C   UNL A   1      39.232  34.078  36.720  1.00  0.00     0.002 A 
ATOM     75  C   UNL A   1      38.097  32.147  37.643  1.00  0.00     0.091 A 
ATOM     76  F   UNL A   1      38.197  30.069  36.475  1.00  0.00    -0.205 F 
ATOM     77  C   UNL A   1      38.476  33.496  37.733  1.00  0.00     0.022 A 
BRANCH  75  78
ATOM     78  S   UNL A   1      37.010  31.507  38.922  1.00  0.00     0.127 S 
ATOM     79  O   UNL A   1      37.861  31.588  40.107  1.00  0.00    -0.237 OA
ATOM     80  O   UNL A   1      35.903  32.464  38.893  1.00  0.00    -0.237 OA
ATOM     81  O   UNL A   1      36.648  30.166  38.483  1.00  0.00    -0.744 OA
ENDBRANCH  75  78
ENDBRANCH  47  71
BRANCH  59  82
ATOM     82  C   UNL A   1      44.887  28.091  34.095  1.00  0.00     0.023 A 
ATOM     83  C   UNL A   1      46.002  28.952  34.049  1.00  0.00     0.012 A 
ATOM     84  C   UNL A   1      44.913  26.969  34.946  1.00  0.00     0.148 A 
ATOM     85  C   UNL A   1      47.135  28.685  34.815  1.00  0.00     0.002 A 
ATOM     86  C   UNL A   1      46.028  26.735  35.742  1.00  0.00     0.091 A 
ATOM     87  F   UNL A   1      43.850  26.151  34.960  1.00  0.00    -0.205 F 
ATOM     88  C   UNL A   1      47.143  27.585  35.670  1.00  0.00     0.022 A 
BRANCH  86  89
ATOM     89  S   UNL A   1      46.084  25.398  36.941  1.00  0.00     0.127 S 
ATOM     90  O   UNL A   1      44.910  25.685  37.764  1.00  0.00    -0.237 OA
ATOM     91  O   UNL A   1      45.959  24.212  36.093  1.00  0.00    -0.237 OA
ATOM     92  O   UNL A   1      47.369  25.521  37.616  1.00  0.00    -0.744 OA
ENDBRANCH  86  89
ENDBRANCH  59  82
ENDBRANCH  33  34
ENDBRANCH  25  28
ENDBRANCH  23  24
ENDBRANCH   1  23
TORSDOF 16
ENDMDL
