MODEL 1
REMARK VINA RESULT:     -11.9      0.000      0.000
REMARK SMILES CC1(C)OC(=O)C(/C=N/[C@@H](CCC(N)=O)C(=O)NCCCCNC(=O)c2ccc(-c3c4nc(c(-c5cccc(S(=O)(=O)[O-])c5F)c5ccc([nH]5)c(-c5cccc(S(=O)(=O)[O-])c5F)c5nc(c(-c6cccc(S(=O)(=O)[O-])c6F)c6ccc3[nH]6)C=C5)C=C4)cc2)C(=O)O1
REMARK SMILES IDX 20 1 19 2 18 3 16 4 17 5 10 7 9 8 8 9 7 10 1 11 2 12 3 13
REMARK SMILES IDX 4 14 91 15 5 16 89 17 6 18 90 19 11 20 12 21 13 22 14 23
REMARK SMILES IDX 15 24 21 27 22 28 23 29 24 30 25 32 26 33 27 34 88 35 28 36
REMARK SMILES IDX 87 37 29 38 30 39 31 40 81 41 32 42 86 43 80 44 82 45 33 46
REMARK SMILES IDX 85 47 79 48 78 49 34 51 66 52 46 53 65 54 47 55 50 56 64 57
REMARK SMILES IDX 83 58 48 59 49 60 63 62 84 63 51 64 35 65 36 66 44 67 37 68
REMARK SMILES IDX 39 69 45 70 38 71 40 72 41 73 42 74 43 75 67 76 68 77 76 78
REMARK SMILES IDX 69 79 71 80 77 81 70 82 72 83 73 84 74 85 75 86 52 87 53 88
REMARK SMILES IDX 61 89 54 90 56 91 62 92 55 93 57 94 58 95 59 96 60 97
REMARK H PARENT 18 6 14 25 14 26 23 31 82 50 50 61
REMARK Flexibility Score: inf
ROOT
ATOM      1  C   UNL A   1      33.048  30.024  26.373  1.00  0.00     0.023 C 
ENDROOT
BRANCH   1   2
ATOM      2  C   UNL A   1      32.367  29.707  25.051  1.00  0.00     0.116 C 
BRANCH   2   3
ATOM      3  N   UNL A   1      33.287  29.514  23.964  1.00  0.00    -0.354 N 
ATOM      4  C   UNL A   1      33.344  28.516  23.036  1.00  0.00     0.244 C 
ATOM      5  O   UNL A   1      34.161  28.642  22.118  1.00  0.00    -0.273 OA
ATOM      6  H   UNL A   1      33.981  30.206  23.874  1.00  0.00     0.163 HD
BRANCH   4   7
ATOM      7  C   UNL A   1      32.450  27.263  23.117  1.00  0.00     0.194 C 
BRANCH   7   8
ATOM      8  N   UNL A   1      32.712  26.491  24.355  1.00  0.00    -0.283 NA
ATOM      9  C   UNL A   1      33.330  25.378  24.420  1.00  0.00     0.105 C 
BRANCH   9  10
ATOM     10  C   UNL A   1      33.562  24.705  25.751  1.00  0.00     0.250 C 
ATOM     11  C   UNL A   1      33.440  21.012  24.617  1.00  0.00     0.106 C 
ATOM     12  C   UNL A   1      33.511  21.879  25.873  1.00  0.00     0.252 C 
ATOM     13  C   UNL A   1      33.531  21.000  27.120  1.00  0.00     0.106 C 
ATOM     14  O   UNL A   1      32.320  22.656  25.919  1.00  0.00    -0.422 OA
ATOM     15  O   UNL A   1      34.750  22.590  25.844  1.00  0.00    -0.422 OA
ATOM     16  C   UNL A   1      32.378  23.957  26.240  1.00  0.00     0.329 C 
ATOM     17  C   UNL A   1      34.817  23.921  25.721  1.00  0.00     0.329 C 
ATOM     18  O   UNL A   1      31.438  24.496  26.812  1.00  0.00    -0.251 OA
ATOM     19  O   UNL A   1      35.904  24.466  25.538  1.00  0.00    -0.251 OA
ENDBRANCH   9  10
ENDBRANCH   7   8
BRANCH   7  20
ATOM     20  C   UNL A   1      31.012  27.315  22.574  1.00  0.00     0.047 C 
BRANCH  20  21
ATOM     21  C   UNL A   1      30.012  28.384  23.018  1.00  0.00     0.102 C 
BRANCH  21  22
ATOM     22  C   UNL A   1      29.686  29.428  21.972  1.00  0.00     0.217 C 
ATOM     23  N   UNL A   1      30.769  30.126  21.520  1.00  0.00    -0.370 N 
ATOM     24  O   UNL A   1      28.562  29.672  21.563  1.00  0.00    -0.275 OA
ATOM     25  H   UNL A   1      31.668  29.916  21.860  1.00  0.00     0.159 HD
ATOM     26  H   UNL A   1      30.649  30.840  20.853  1.00  0.00     0.159 HD
ENDBRANCH  21  22
ENDBRANCH  20  21
ENDBRANCH   7  20
ENDBRANCH   4   7
ENDBRANCH   2   3
ENDBRANCH   1   2
BRANCH   1  27
ATOM     27  C   UNL A   1      32.416  31.160  27.170  1.00  0.00     0.023 C 
BRANCH  27  28
ATOM     28  C   UNL A   1      33.380  32.236  27.663  1.00  0.00     0.116 C 
BRANCH  28  29
ATOM     29  N   UNL A   1      32.794  33.570  27.768  1.00  0.00    -0.352 N 
ATOM     30  C   UNL A   1      33.179  34.594  28.607  1.00  0.00     0.251 C 
ATOM     31  H   UNL A   1      32.035  33.759  27.170  1.00  0.00     0.163 HD
ATOM     32  O   UNL A   1      32.558  35.645  28.642  1.00  0.00    -0.269 OA
BRANCH  30  33
ATOM     33  C   UNL A   1      34.344  34.358  29.486  1.00  0.00     0.039 A 
ATOM     34  C   UNL A   1      34.139  33.831  30.763  1.00  0.00     0.014 A 
ATOM     35  C   UNL A   1      35.633  34.511  28.971  1.00  0.00     0.014 A 
ATOM     36  C   UNL A   1      35.237  33.359  31.489  1.00  0.00     0.010 A 
ATOM     37  C   UNL A   1      36.708  33.967  29.659  1.00  0.00     0.010 A 
ATOM     38  C   UNL A   1      36.521  33.373  30.918  1.00  0.00    -0.014 A 
BRANCH  38  39
ATOM     39  C   UNL A   1      37.685  32.743  31.592  1.00  0.00     0.031 A 
ATOM     40  C   UNL A   1      38.393  31.588  30.941  1.00  0.00     0.074 A 
ATOM     41  C   UNL A   1      38.020  33.121  32.843  1.00  0.00     0.049 A 
ATOM     42  N   UNL A   1      39.348  30.832  31.415  1.00  0.00    -0.248 NA
ATOM     43  C   UNL A   1      37.940  31.205  29.592  1.00  0.00     0.031 C 
ATOM     44  C   UNL A   1      37.346  34.161  33.626  1.00  0.00     0.029 A 
ATOM     45  N   UNL A   1      38.991  32.649  33.692  1.00  0.00    -0.354 N 
ATOM     46  C   UNL A   1      39.573  29.858  30.451  1.00  0.00     0.074 A 
ATOM     47  C   UNL A   1      38.633  30.097  29.378  1.00  0.00     0.031 C 
ATOM     48  C   UNL A   1      37.928  34.250  34.835  1.00  0.00     0.029 A 
ATOM     49  C   UNL A   1      38.997  33.262  34.924  1.00  0.00     0.049 A 
ATOM     50  H   UNL A   1      39.625  31.939  33.441  1.00  0.00     0.167 HD
ATOM     51  C   UNL A   1      40.503  28.874  30.440  1.00  0.00     0.034 A 
ATOM     52  C   UNL A   1      39.776  33.050  36.004  1.00  0.00     0.034 A 
ATOM     53  C   UNL A   1      41.485  28.686  31.469  1.00  0.00     0.049 A 
ATOM     54  C   UNL A   1      40.859  32.008  35.930  1.00  0.00     0.074 A 
ATOM     55  C   UNL A   1      42.540  27.791  31.500  1.00  0.00     0.029 A 
ATOM     56  N   UNL A   1      41.541  29.412  32.650  1.00  0.00    -0.354 N 
ATOM     57  N   UNL A   1      41.168  31.210  34.937  1.00  0.00    -0.248 NA
ATOM     58  C   UNL A   1      41.725  31.860  37.109  1.00  0.00     0.031 C 
ATOM     59  C   UNL A   1      43.234  27.976  32.700  1.00  0.00     0.029 A 
ATOM     60  C   UNL A   1      42.614  28.989  33.414  1.00  0.00     0.049 A 
ATOM     61  H   UNL A   1      40.910  30.122  32.906  1.00  0.00     0.167 HD
ATOM     62  C   UNL A   1      42.283  30.493  35.356  1.00  0.00     0.074 A 
ATOM     63  C   UNL A   1      42.607  30.965  36.686  1.00  0.00     0.031 C 
ATOM     64  C   UNL A   1      42.965  29.518  34.705  1.00  0.00     0.034 A 
BRANCH  51  65
ATOM     65  C   UNL A   1      40.551  27.978  29.232  1.00  0.00     0.023 A 
ATOM     66  C   UNL A   1      39.657  26.891  29.145  1.00  0.00     0.012 A 
ATOM     67  C   UNL A   1      41.440  28.229  28.170  1.00  0.00     0.148 A 
ATOM     68  C   UNL A   1      39.670  26.047  28.037  1.00  0.00     0.002 A 
ATOM     69  C   UNL A   1      41.418  27.407  27.048  1.00  0.00     0.091 A 
ATOM     70  F   UNL A   1      42.301  29.250  28.281  1.00  0.00    -0.205 F 
ATOM     71  C   UNL A   1      40.542  26.311  26.985  1.00  0.00     0.022 A 
BRANCH  69  72
ATOM     72  S   UNL A   1      42.454  27.708  25.611  1.00  0.00     0.127 S 
ATOM     73  O   UNL A   1      43.792  27.661  26.198  1.00  0.00    -0.237 OA
ATOM     74  O   UNL A   1      42.127  26.570  24.750  1.00  0.00    -0.237 OA
ATOM     75  O   UNL A   1      42.040  29.002  25.086  1.00  0.00    -0.744 OA
ENDBRANCH  69  72
ENDBRANCH  51  65
BRANCH  52  76
ATOM     76  C   UNL A   1      39.623  33.908  37.213  1.00  0.00     0.023 A 
ATOM     77  C   UNL A   1      40.127  35.223  37.187  1.00  0.00     0.012 A 
ATOM     78  C   UNL A   1      38.964  33.449  38.370  1.00  0.00     0.148 A 
ATOM     79  C   UNL A   1      40.003  36.057  38.299  1.00  0.00     0.002 A 
ATOM     80  C   UNL A   1      38.799  34.302  39.457  1.00  0.00     0.091 A 
ATOM     81  F   UNL A   1      38.505  32.190  38.384  1.00  0.00    -0.205 F 
ATOM     82  C   UNL A   1      39.331  35.600  39.430  1.00  0.00     0.022 A 
BRANCH  80  83
ATOM     83  S   UNL A   1      37.834  33.839  40.899  1.00  0.00     0.127 S 
ATOM     84  O   UNL A   1      37.611  35.133  41.538  1.00  0.00    -0.237 OA
ATOM     85  O   UNL A   1      36.646  33.237  40.292  1.00  0.00    -0.237 OA
ATOM     86  O   UNL A   1      38.669  32.897  41.635  1.00  0.00    -0.744 OA
ENDBRANCH  80  83
ENDBRANCH  52  76
BRANCH  64  87
ATOM     87  C   UNL A   1      44.155  28.913  35.399  1.00  0.00     0.023 A 
ATOM     88  C   UNL A   1      45.437  29.451  35.179  1.00  0.00     0.012 A 
ATOM     89  C   UNL A   1      43.989  27.875  36.338  1.00  0.00     0.148 A 
ATOM     90  C   UNL A   1      46.542  28.952  35.869  1.00  0.00     0.002 A 
ATOM     91  C   UNL A   1      45.088  27.412  37.052  1.00  0.00     0.091 A 
ATOM     92  F   UNL A   1      42.762  27.362  36.515  1.00  0.00    -0.205 F 
ATOM     93  C   UNL A   1      46.365  27.943  36.813  1.00  0.00     0.022 A 
BRANCH  91  94
ATOM     94  S   UNL A   1      44.932  26.181  38.352  1.00  0.00     0.127 S 
ATOM     95  O   UNL A   1      43.646  26.537  38.947  1.00  0.00    -0.237 OA
ATOM     96  O   UNL A   1      44.930  24.927  37.597  1.00  0.00    -0.237 OA
ATOM     97  O   UNL A   1      46.095  26.362  39.211  1.00  0.00    -0.744 OA
ENDBRANCH  91  94
ENDBRANCH  64  87
ENDBRANCH  38  39
ENDBRANCH  30  33
ENDBRANCH  28  29
ENDBRANCH  27  28
ENDBRANCH   1  27
TORSDOF 19
ENDMDL
MODEL 2
REMARK VINA RESULT:     -11.9      2.493      8.021
REMARK SMILES CC1(C)OC(=O)C(/C=N/[C@@H](CCC(N)=O)C(=O)NCCCCNC(=O)c2ccc(-c3c4nc(c(-c5cccc(S(=O)(=O)[O-])c5F)c5ccc([nH]5)c(-c5cccc(S(=O)(=O)[O-])c5F)c5nc(c(-c6cccc(S(=O)(=O)[O-])c6F)c6ccc3[nH]6)C=C5)C=C4)cc2)C(=O)O1
REMARK SMILES IDX 20 1 19 2 18 3 16 4 17 5 10 7 9 8 8 9 7 10 1 11 2 12 3 13
REMARK SMILES IDX 4 14 91 15 5 16 89 17 6 18 90 19 11 20 12 21 13 22 14 23
REMARK SMILES IDX 15 24 21 27 22 28 23 29 24 30 25 32 26 33 27 34 88 35 28 36
REMARK SMILES IDX 87 37 29 38 30 39 31 40 81 41 32 42 86 43 80 44 82 45 33 46
REMARK SMILES IDX 85 47 79 48 78 49 34 51 66 52 46 53 65 54 47 55 50 56 64 57
REMARK SMILES IDX 83 58 48 59 49 60 63 62 84 63 51 64 35 65 36 66 44 67 37 68
REMARK SMILES IDX 39 69 45 70 38 71 40 72 41 73 42 74 43 75 67 76 68 77 76 78
REMARK SMILES IDX 69 79 71 80 77 81 70 82 72 83 73 84 74 85 75 86 52 87 53 88
REMARK SMILES IDX 61 89 54 90 56 91 62 92 55 93 57 94 58 95 59 96 60 97
REMARK H PARENT 18 6 14 25 14 26 23 31 82 50 50 61
REMARK Flexibility Score: inf
ROOT
ATOM      1  C   UNL A   1      31.899  28.335  27.302  1.00  0.00     0.023 C 
ENDROOT
BRANCH   1   2
ATOM      2  C   UNL A   1      31.647  27.235  26.284  1.00  0.00     0.116 C 
BRANCH   2   3
ATOM      3  N   UNL A   1      30.874  26.139  26.801  1.00  0.00    -0.354 N 
ATOM      4  C   UNL A   1      30.841  24.834  26.412  1.00  0.00     0.244 C 
ATOM      5  O   UNL A   1      30.179  24.052  27.103  1.00  0.00    -0.273 OA
ATOM      6  H   UNL A   1      30.277  26.366  27.551  1.00  0.00     0.163 HD
BRANCH   4   7
ATOM      7  C   UNL A   1      31.576  24.329  25.154  1.00  0.00     0.194 C 
BRANCH   7   8
ATOM      8  N   UNL A   1      32.519  23.234  25.481  1.00  0.00    -0.283 NA
ATOM      9  C   UNL A   1      32.207  22.011  25.652  1.00  0.00     0.105 C 
BRANCH   9  10
ATOM     10  C   UNL A   1      33.270  20.981  25.950  1.00  0.00     0.250 C 
ATOM     11  C   UNL A   1      36.319  22.749  24.364  1.00  0.00     0.106 C 
ATOM     12  C   UNL A   1      35.898  21.427  25.003  1.00  0.00     0.252 C 
ATOM     13  C   UNL A   1      37.073  20.452  25.020  1.00  0.00     0.106 C 
ATOM     14  O   UNL A   1      34.888  20.860  24.178  1.00  0.00    -0.422 OA
ATOM     15  O   UNL A   1      35.555  21.690  26.365  1.00  0.00    -0.422 OA
ATOM     16  C   UNL A   1      33.795  20.315  24.733  1.00  0.00     0.329 C 
ATOM     17  C   UNL A   1      34.309  21.554  26.835  1.00  0.00     0.329 C 
ATOM     18  O   UNL A   1      33.219  19.385  24.181  1.00  0.00    -0.251 OA
ATOM     19  O   UNL A   1      34.035  21.947  27.967  1.00  0.00    -0.251 OA
ENDBRANCH   9  10
ENDBRANCH   7   8
BRANCH   7  20
ATOM     20  C   UNL A   1      30.838  24.286  23.806  1.00  0.00     0.047 C 
BRANCH  20  21
ATOM     21  C   UNL A   1      31.293  25.113  22.601  1.00  0.00     0.102 C 
BRANCH  21  22
ATOM     22  C   UNL A   1      31.094  26.607  22.741  1.00  0.00     0.217 C 
ATOM     23  N   UNL A   1      32.233  27.343  22.576  1.00  0.00    -0.370 N 
ATOM     24  O   UNL A   1      30.030  27.142  23.006  1.00  0.00    -0.275 OA
ATOM     25  H   UNL A   1      33.083  26.895  22.362  1.00  0.00     0.159 HD
ATOM     26  H   UNL A   1      32.202  28.322  22.670  1.00  0.00     0.159 HD
ENDBRANCH  21  22
ENDBRANCH  20  21
ENDBRANCH   7  20
ENDBRANCH   4   7
ENDBRANCH   2   3
ENDBRANCH   1   2
BRANCH   1  27
ATOM     27  C   UNL A   1      31.458  29.729  26.870  1.00  0.00     0.023 C 
BRANCH  27  28
ATOM     28  C   UNL A   1      32.572  30.650  26.380  1.00  0.00     0.116 C 
BRANCH  28  29
ATOM     29  N   UNL A   1      32.466  32.029  26.851  1.00  0.00    -0.352 N 
ATOM     30  C   UNL A   1      33.390  32.737  27.592  1.00  0.00     0.251 C 
ATOM     31  H   UNL A   1      31.640  32.508  26.613  1.00  0.00     0.163 HD
ATOM     32  O   UNL A   1      33.147  33.869  27.980  1.00  0.00    -0.269 OA
BRANCH  30  33
ATOM     33  C   UNL A   1      34.661  32.062  27.929  1.00  0.00     0.039 A 
ATOM     34  C   UNL A   1      35.832  32.817  28.012  1.00  0.00     0.014 A 
ATOM     35  C   UNL A   1      34.642  30.721  28.317  1.00  0.00     0.014 A 
ATOM     36  C   UNL A   1      36.971  32.246  28.587  1.00  0.00     0.010 A 
ATOM     37  C   UNL A   1      35.749  30.185  28.960  1.00  0.00     0.010 A 
ATOM     38  C   UNL A   1      36.920  30.944  29.115  1.00  0.00    -0.014 A 
BRANCH  38  39
ATOM     39  C   UNL A   1      38.059  30.358  29.866  1.00  0.00     0.031 A 
ATOM     40  C   UNL A   1      38.353  30.825  31.265  1.00  0.00     0.074 A 
ATOM     41  C   UNL A   1      38.905  29.509  29.247  1.00  0.00     0.049 A 
ATOM     42  N   UNL A   1      39.362  30.526  32.040  1.00  0.00    -0.248 NA
ATOM     43  C   UNL A   1      37.407  31.787  31.857  1.00  0.00     0.031 C 
ATOM     44  C   UNL A   1      38.789  29.057  27.858  1.00  0.00     0.029 A 
ATOM     45  N   UNL A   1      40.052  28.900  29.696  1.00  0.00    -0.354 N 
ATOM     46  C   UNL A   1      39.203  31.298  33.184  1.00  0.00     0.074 A 
ATOM     47  C   UNL A   1      38.018  32.104  32.989  1.00  0.00     0.031 C 
ATOM     48  C   UNL A   1      39.818  28.240  27.572  1.00  0.00     0.029 A 
ATOM     49  C   UNL A   1      40.679  28.129  28.744  1.00  0.00     0.049 A 
ATOM     50  H   UNL A   1      40.393  29.006  30.613  1.00  0.00     0.167 HD
ATOM     51  C   UNL A   1      39.952  31.309  34.311  1.00  0.00     0.034 A 
ATOM     52  C   UNL A   1      41.820  27.413  28.810  1.00  0.00     0.034 A 
ATOM     53  C   UNL A   1      41.082  30.452  34.533  1.00  0.00     0.049 A 
ATOM     54  C   UNL A   1      42.586  27.376  30.105  1.00  0.00     0.074 A 
ATOM     55  C   UNL A   1      41.840  30.306  35.681  1.00  0.00     0.029 A 
ATOM     56  N   UNL A   1      41.614  29.587  33.589  1.00  0.00    -0.354 N 
ATOM     57  N   UNL A   1      42.319  27.983  31.237  1.00  0.00    -0.248 NA
ATOM     58  C   UNL A   1      43.786  26.529  30.147  1.00  0.00     0.031 C 
ATOM     59  C   UNL A   1      42.831  29.352  35.431  1.00  0.00     0.029 A 
ATOM     60  C   UNL A   1      42.687  28.901  34.129  1.00  0.00     0.049 A 
ATOM     61  H   UNL A   1      41.278  29.478  32.670  1.00  0.00     0.167 HD
ATOM     62  C   UNL A   1      43.296  27.564  32.133  1.00  0.00     0.074 A 
ATOM     63  C   UNL A   1      44.148  26.636  31.419  1.00  0.00     0.031 C 
ATOM     64  C   UNL A   1      43.481  27.928  33.426  1.00  0.00     0.034 A 
BRANCH  51  65
ATOM     65  C   UNL A   1      39.517  32.224  35.424  1.00  0.00     0.023 A 
ATOM     66  C   UNL A   1      38.657  31.729  36.426  1.00  0.00     0.012 A 
ATOM     67  C   UNL A   1      39.987  33.548  35.508  1.00  0.00     0.148 A 
ATOM     68  C   UNL A   1      38.243  32.547  37.475  1.00  0.00     0.002 A 
ATOM     69  C   UNL A   1      39.603  34.346  36.580  1.00  0.00     0.091 A 
ATOM     70  F   UNL A   1      40.783  34.010  34.533  1.00  0.00    -0.205 F 
ATOM     71  C   UNL A   1      38.723  33.851  37.558  1.00  0.00     0.022 A 
BRANCH  69  72
ATOM     72  S   UNL A   1      40.225  36.015  36.813  1.00  0.00     0.127 S 
ATOM     73  O   UNL A   1      41.664  35.780  36.920  1.00  0.00    -0.237 OA
ATOM     74  O   UNL A   1      39.806  36.677  35.577  1.00  0.00    -0.237 OA
ATOM     75  O   UNL A   1      39.577  36.516  38.017  1.00  0.00    -0.744 OA
ENDBRANCH  69  72
ENDBRANCH  51  65
BRANCH  52  76
ATOM     76  C   UNL A   1      42.256  26.596  27.642  1.00  0.00     0.023 A 
ATOM     77  C   UNL A   1      43.044  27.198  26.642  1.00  0.00     0.012 A 
ATOM     78  C   UNL A   1      41.925  25.232  27.526  1.00  0.00     0.148 A 
ATOM     79  C   UNL A   1      43.472  26.467  25.534  1.00  0.00     0.002 A 
ATOM     80  C   UNL A   1      42.397  24.495  26.445  1.00  0.00     0.091 A 
ATOM     81  F   UNL A   1      41.162  24.679  28.479  1.00  0.00    -0.205 F 
ATOM     82  C   UNL A   1      43.157  25.114  25.440  1.00  0.00     0.022 A 
BRANCH  80  83
ATOM     83  S   UNL A   1      42.150  22.721  26.314  1.00  0.00     0.127 S 
ATOM     84  O   UNL A   1      40.693  22.622  26.318  1.00  0.00    -0.237 OA
ATOM     85  O   UNL A   1      42.785  22.418  25.031  1.00  0.00    -0.237 OA
ATOM     86  O   UNL A   1      42.834  22.151  27.468  1.00  0.00    -0.744 OA
ENDBRANCH  80  83
ENDBRANCH  52  76
BRANCH  64  87
ATOM     87  C   UNL A   1      44.628  27.303  34.173  1.00  0.00     0.023 A 
ATOM     88  C   UNL A   1      45.886  27.935  34.171  1.00  0.00     0.012 A 
ATOM     89  C   UNL A   1      44.434  26.143  34.950  1.00  0.00     0.148 A 
ATOM     90  C   UNL A   1      46.942  27.411  34.917  1.00  0.00     0.002 A 
ATOM     91  C   UNL A   1      45.478  25.651  35.723  1.00  0.00     0.091 A 
ATOM     92  F   UNL A   1      43.234  25.545  34.918  1.00  0.00    -0.205 F 
ATOM     93  C   UNL A   1      46.734  26.278  35.701  1.00  0.00     0.022 A 
BRANCH  91  94
ATOM     94  S   UNL A   1      45.269  24.254  36.833  1.00  0.00     0.127 S 
ATOM     95  O   UNL A   1      46.622  24.086  37.360  1.00  0.00    -0.237 OA
ATOM     96  O   UNL A   1      44.296  24.764  37.800  1.00  0.00    -0.237 OA
ATOM     97  O   UNL A   1      44.776  23.160  36.006  1.00  0.00    -0.744 OA
ENDBRANCH  91  94
ENDBRANCH  64  87
ENDBRANCH  38  39
ENDBRANCH  30  33
ENDBRANCH  28  29
ENDBRANCH  27  28
ENDBRANCH   1  27
TORSDOF 19
ENDMDL
MODEL 3
REMARK VINA RESULT:     -11.8      6.133     11.282
REMARK SMILES CC1(C)OC(=O)C(/C=N/[C@@H](CCC(N)=O)C(=O)NCCCCNC(=O)c2ccc(-c3c4nc(c(-c5cccc(S(=O)(=O)[O-])c5F)c5ccc([nH]5)c(-c5cccc(S(=O)(=O)[O-])c5F)c5nc(c(-c6cccc(S(=O)(=O)[O-])c6F)c6ccc3[nH]6)C=C5)C=C4)cc2)C(=O)O1
REMARK SMILES IDX 20 1 19 2 18 3 16 4 17 5 10 7 9 8 8 9 7 10 1 11 2 12 3 13
REMARK SMILES IDX 4 14 91 15 5 16 89 17 6 18 90 19 11 20 12 21 13 22 14 23
REMARK SMILES IDX 15 24 21 27 22 28 23 29 24 30 25 32 26 33 27 34 88 35 28 36
REMARK SMILES IDX 87 37 29 38 30 39 31 40 81 41 32 42 86 43 80 44 82 45 33 46
REMARK SMILES IDX 85 47 79 48 78 49 34 51 66 52 46 53 65 54 47 55 50 56 64 57
REMARK SMILES IDX 83 58 48 59 49 60 63 62 84 63 51 64 35 65 36 66 44 67 37 68
REMARK SMILES IDX 39 69 45 70 38 71 40 72 41 73 42 74 43 75 67 76 68 77 76 78
REMARK SMILES IDX 69 79 71 80 77 81 70 82 72 83 73 84 74 85 75 86 52 87 53 88
REMARK SMILES IDX 61 89 54 90 56 91 62 92 55 93 57 94 58 95 59 96 60 97
REMARK H PARENT 18 6 14 25 14 26 23 31 82 50 50 61
REMARK Flexibility Score: inf
ROOT
ATOM      1  C   UNL A   1      36.711  23.104  24.336  1.00  0.00     0.023 C 
ENDROOT
BRANCH   1   2
ATOM      2  C   UNL A   1      35.295  23.501  24.720  1.00  0.00     0.116 C 
BRANCH   2   3
ATOM      3  N   UNL A   1      34.962  23.194  26.084  1.00  0.00    -0.354 N 
ATOM      4  C   UNL A   1      33.810  22.689  26.609  1.00  0.00     0.244 C 
ATOM      5  O   UNL A   1      33.815  22.393  27.809  1.00  0.00    -0.273 OA
ATOM      6  H   UNL A   1      35.675  23.375  26.739  1.00  0.00     0.163 HD
BRANCH   4   7
ATOM      7  C   UNL A   1      32.532  22.502  25.767  1.00  0.00     0.194 C 
BRANCH   7   8
ATOM      8  N   UNL A   1      31.941  23.806  25.386  1.00  0.00    -0.283 NA
ATOM      9  C   UNL A   1      31.143  24.497  26.099  1.00  0.00     0.105 C 
BRANCH   9  10
ATOM     10  C   UNL A   1      30.633  25.831  25.609  1.00  0.00     0.250 C 
ATOM     11  C   UNL A   1      33.765  27.033  23.689  1.00  0.00     0.106 C 
ATOM     12  C   UNL A   1      32.388  27.505  24.152  1.00  0.00     0.252 C 
ATOM     13  C   UNL A   1      32.157  28.952  23.727  1.00  0.00     0.106 C 
ATOM     14  O   UNL A   1      32.386  27.474  25.574  1.00  0.00    -0.422 OA
ATOM     15  O   UNL A   1      31.406  26.711  23.482  1.00  0.00    -0.422 OA
ATOM     16  C   UNL A   1      31.325  26.985  26.234  1.00  0.00     0.329 C 
ATOM     17  C   UNL A   1      30.602  25.859  24.129  1.00  0.00     0.329 C 
ATOM     18  O   UNL A   1      31.033  27.417  27.343  1.00  0.00    -0.251 OA
ATOM     19  O   UNL A   1      29.890  25.085  23.493  1.00  0.00    -0.251 OA
ENDBRANCH   9  10
ENDBRANCH   7   8
BRANCH   7  20
ATOM     20  C   UNL A   1      32.439  21.334  24.772  1.00  0.00     0.047 C 
BRANCH  20  21
ATOM     21  C   UNL A   1      33.502  20.236  24.703  1.00  0.00     0.102 C 
BRANCH  21  22
ATOM     22  C   UNL A   1      33.035  18.865  25.143  1.00  0.00     0.217 C 
ATOM     23  N   UNL A   1      32.903  18.723  26.494  1.00  0.00    -0.370 N 
ATOM     24  O   UNL A   1      32.811  17.934  24.386  1.00  0.00    -0.275 OA
ATOM     25  H   UNL A   1      33.087  19.485  27.090  1.00  0.00     0.159 HD
ATOM     26  H   UNL A   1      32.624  17.858  26.872  1.00  0.00     0.159 HD
ENDBRANCH  21  22
ENDBRANCH  20  21
ENDBRANCH   7  20
ENDBRANCH   4   7
ENDBRANCH   2   3
ENDBRANCH   1   2
BRANCH   1  27
ATOM     27  C   UNL A   1      37.001  21.609  24.393  1.00  0.00     0.023 C 
BRANCH  27  28
ATOM     28  C   UNL A   1      37.440  21.073  25.753  1.00  0.00     0.116 C 
BRANCH  28  29
ATOM     29  N   UNL A   1      38.558  20.135  25.700  1.00  0.00    -0.352 N 
ATOM     30  C   UNL A   1      39.859  20.355  26.103  1.00  0.00     0.251 C 
ATOM     31  H   UNL A   1      38.360  19.243  25.335  1.00  0.00     0.163 HD
ATOM     32  O   UNL A   1      40.718  19.501  25.941  1.00  0.00    -0.269 OA
BRANCH  30  33
ATOM     33  C   UNL A   1      40.181  21.669  26.697  1.00  0.00     0.039 A 
ATOM     34  C   UNL A   1      41.091  21.735  27.753  1.00  0.00     0.014 A 
ATOM     35  C   UNL A   1      39.697  22.831  26.092  1.00  0.00     0.014 A 
ATOM     36  C   UNL A   1      41.600  22.980  28.137  1.00  0.00     0.010 A 
ATOM     37  C   UNL A   1      40.265  24.054  26.421  1.00  0.00     0.010 A 
ATOM     38  C   UNL A   1      41.231  24.141  27.436  1.00  0.00    -0.014 A 
BRANCH  38  39
ATOM     39  C   UNL A   1      41.862  25.457  27.712  1.00  0.00     0.031 A 
ATOM     40  C   UNL A   1      41.075  26.534  28.406  1.00  0.00     0.074 A 
ATOM     41  C   UNL A   1      43.090  25.728  27.223  1.00  0.00     0.049 A 
ATOM     42  N   UNL A   1      41.401  27.778  28.633  1.00  0.00    -0.248 NA
ATOM     43  C   UNL A   1      39.724  26.174  28.872  1.00  0.00     0.031 C 
ATOM     44  C   UNL A   1      43.918  24.803  26.444  1.00  0.00     0.029 A 
ATOM     45  N   UNL A   1      43.843  26.875  27.280  1.00  0.00    -0.354 N 
ATOM     46  C   UNL A   1      40.284  28.362  29.217  1.00  0.00     0.074 A 
ATOM     47  C   UNL A   1      39.258  27.345  29.280  1.00  0.00     0.031 C 
ATOM     48  C   UNL A   1      45.063  25.417  26.101  1.00  0.00     0.029 A 
ATOM     49  C   UNL A   1      45.043  26.783  26.612  1.00  0.00     0.049 A 
ATOM     50  H   UNL A   1      43.552  27.687  27.753  1.00  0.00     0.167 HD
ATOM     51  C   UNL A   1      40.136  29.620  29.693  1.00  0.00     0.034 A 
ATOM     52  C   UNL A   1      46.018  27.697  26.433  1.00  0.00     0.034 A 
ATOM     53  C   UNL A   1      41.180  30.605  29.700  1.00  0.00     0.049 A 
ATOM     54  C   UNL A   1      45.862  29.062  27.049  1.00  0.00     0.074 A 
ATOM     55  C   UNL A   1      41.168  31.870  30.259  1.00  0.00     0.029 A 
ATOM     56  N   UNL A   1      42.432  30.433  29.127  1.00  0.00    -0.354 N 
ATOM     57  N   UNL A   1      44.862  29.539  27.751  1.00  0.00    -0.248 NA
ATOM     58  C   UNL A   1      46.980  30.001  26.882  1.00  0.00     0.031 C 
ATOM     59  C   UNL A   1      42.412  32.464  30.024  1.00  0.00     0.029 A 
ATOM     60  C   UNL A   1      43.201  31.566  29.323  1.00  0.00     0.049 A 
ATOM     61  H   UNL A   1      42.728  29.623  28.652  1.00  0.00     0.167 HD
ATOM     62  C   UNL A   1      45.245  30.818  28.138  1.00  0.00     0.074 A 
ATOM     63  C   UNL A   1      46.576  31.034  27.611  1.00  0.00     0.031 C 
ATOM     64  C   UNL A   1      44.550  31.738  28.852  1.00  0.00     0.034 A 
BRANCH  51  65
ATOM     65  C   UNL A   1      38.816  29.973  30.323  1.00  0.00     0.023 A 
ATOM     66  C   UNL A   1      38.543  29.543  31.638  1.00  0.00     0.012 A 
ATOM     67  C   UNL A   1      37.867  30.759  29.642  1.00  0.00     0.148 A 
ATOM     68  C   UNL A   1      37.334  29.860  32.254  1.00  0.00     0.002 A 
ATOM     69  C   UNL A   1      36.680  31.106  30.278  1.00  0.00     0.091 A 
ATOM     70  F   UNL A   1      38.131  31.136  28.383  1.00  0.00    -0.205 F 
ATOM     71  C   UNL A   1      36.408  30.649  31.578  1.00  0.00     0.022 A 
BRANCH  69  72
ATOM     72  S   UNL A   1      35.455  32.178  29.517  1.00  0.00     0.127 S 
ATOM     73  O   UNL A   1      36.251  33.368  29.220  1.00  0.00    -0.237 OA
ATOM     74  O   UNL A   1      35.054  31.405  28.341  1.00  0.00    -0.237 OA
ATOM     75  O   UNL A   1      34.407  32.353  30.513  1.00  0.00    -0.744 OA
ENDBRANCH  69  72
ENDBRANCH  51  65
BRANCH  52  76
ATOM     76  C   UNL A   1      47.271  27.322  25.718  1.00  0.00     0.023 A 
ATOM     77  C   UNL A   1      48.266  26.607  26.411  1.00  0.00     0.012 A 
ATOM     78  C   UNL A   1      47.473  27.637  24.360  1.00  0.00     0.148 A 
ATOM     79  C   UNL A   1      49.453  26.237  25.777  1.00  0.00     0.002 A 
ATOM     80  C   UNL A   1      48.636  27.221  23.719  1.00  0.00     0.091 A 
ATOM     81  F   UNL A   1      46.522  28.331  23.720  1.00  0.00    -0.205 F 
ATOM     82  C   UNL A   1      49.633  26.535  24.429  1.00  0.00     0.022 A 
BRANCH  80  83
ATOM     83  S   UNL A   1      48.890  27.449  21.956  1.00  0.00     0.127 S 
ATOM     84  O   UNL A   1      47.995  28.566  21.666  1.00  0.00    -0.237 OA
ATOM     85  O   UNL A   1      50.317  27.768  21.891  1.00  0.00    -0.237 OA
ATOM     86  O   UNL A   1      48.537  26.171  21.348  1.00  0.00    -0.744 OA
ENDBRANCH  80  83
ENDBRANCH  52  76
BRANCH  64  87
ATOM     87  C   UNL A   1      45.219  33.054  29.139  1.00  0.00     0.023 A 
ATOM     88  C   UNL A   1      46.020  33.190  30.289  1.00  0.00     0.012 A 
ATOM     89  C   UNL A   1      45.130  34.122  28.224  1.00  0.00     0.148 A 
ATOM     90  C   UNL A   1      46.708  34.379  30.535  1.00  0.00     0.002 A 
ATOM     91  C   UNL A   1      45.852  35.287  28.454  1.00  0.00     0.091 A 
ATOM     92  F   UNL A   1      44.343  33.978  27.147  1.00  0.00    -0.205 F 
ATOM     93  C   UNL A   1      46.633  35.420  29.612  1.00  0.00     0.022 A 
BRANCH  91  94
ATOM     94  S   UNL A   1      45.886  36.638  27.271  1.00  0.00     0.127 S 
ATOM     95  O   UNL A   1      46.267  35.948  26.040  1.00  0.00    -0.237 OA
ATOM     96  O   UNL A   1      44.503  37.116  27.300  1.00  0.00    -0.237 OA
ATOM     97  O   UNL A   1      46.861  37.591  27.785  1.00  0.00    -0.744 OA
ENDBRANCH  91  94
ENDBRANCH  64  87
ENDBRANCH  38  39
ENDBRANCH  30  33
ENDBRANCH  28  29
ENDBRANCH  27  28
ENDBRANCH   1  27
TORSDOF 19
ENDMDL
