MODEL 1
REMARK VINA RESULT:     -13.1      0.000      0.000
REMARK SMILES Cc1oc2cc3c(cc2c1C)[C@H](C)[C@@H](CC(=O)N[C@H](CC1=c2ccccc2=NC1)C(=O)NCCCCNC(=O)c1ccc(-c2c4nc(c(-c5cccc(S(=O)(=O)[O-])c5F)c5ccc([nH]5)c(-c5cccc(S(=O)(=O)[O-])c5F)c5nc(c(-c6cccc(S(=O)(=O)[O-])c6F)c6ccc2[nH]6)C=C5)C=C4)cc1)C(=O)O3
REMARK SMILES IDX 34 1 33 2 32 3 30 4 31 5 19 7 18 8 16 9 17 10 15 12 14 13
REMARK SMILES IDX 1 14 2 15 3 16 10 17 4 18 9 19 11 20 5 21 8 22 6 23 7 24
REMARK SMILES IDX 105 25 12 26 103 27 13 28 104 29 20 30 21 31 22 32 29 33
REMARK SMILES IDX 23 34 27 35 28 36 24 37 26 38 25 39 35 40 36 41 37 42 38 43
REMARK SMILES IDX 39 45 40 46 41 47 102 48 42 49 101 50 43 51 44 52 45 53
REMARK SMILES IDX 95 54 46 55 100 56 94 57 96 58 47 59 99 60 93 61 92 62 48 64
REMARK SMILES IDX 80 65 60 66 79 67 61 68 64 69 78 70 97 71 62 72 63 73 77 75
REMARK SMILES IDX 98 76 65 77 49 78 50 79 58 80 51 81 53 82 59 83 52 84 54 85
REMARK SMILES IDX 55 86 56 87 57 88 81 89 82 90 90 91 83 92 85 93 91 94 84 95
REMARK SMILES IDX 86 96 87 97 88 98 89 99 66 100 67 101 75 102 68 103 70 104
REMARK SMILES IDX 76 105 69 106 71 107 72 108 73 109 74 110
REMARK H PARENT 32 6 18 11 37 44 96 63 64 74
REMARK Flexibility Score: inf
ROOT
ATOM      1  C   UNL A   1      37.544  23.283  25.416  1.00  0.00     0.023 C 
ENDROOT
BRANCH   1   2
ATOM      2  C   UNL A   1      36.260  23.598  26.195  1.00  0.00     0.116 C 
BRANCH   2   3
ATOM      3  N   UNL A   1      35.485  22.404  26.454  1.00  0.00    -0.354 N 
ATOM      4  C   UNL A   1      34.140  22.262  26.420  1.00  0.00     0.242 C 
ATOM      5  O   UNL A   1      33.662  21.642  27.366  1.00  0.00    -0.273 OA
ATOM      6  H   UNL A   1      36.000  21.597  26.684  1.00  0.00     0.163 HD
BRANCH   4   7
ATOM      7  C   UNL A   1      33.288  22.856  25.295  1.00  0.00     0.175 C 
BRANCH   7   8
ATOM      8  N   UNL A   1      31.877  22.792  25.770  1.00  0.00    -0.344 N 
ATOM      9  C   UNL A   1      31.131  23.604  26.575  1.00  0.00     0.221 C 
ATOM     10  O   UNL A   1      30.100  23.111  27.050  1.00  0.00    -0.275 OA
ATOM     11  H   UNL A   1      31.384  22.008  25.437  1.00  0.00     0.164 HD
BRANCH   9  12
ATOM     12  C   UNL A   1      31.463  25.069  26.892  1.00  0.00     0.116 C 
BRANCH  12  13
ATOM     13  C   UNL A   1      31.420  25.988  25.664  1.00  0.00     0.116 C 
ATOM     14  C   UNL A   1      28.021  31.933  20.646  1.00  0.00     0.088 C 
ATOM     15  C   UNL A   1      28.748  31.118  21.641  1.00  0.00     0.105 A 
ATOM     16  O   UNL A   1      28.817  29.803  21.327  1.00  0.00    -0.461 OA
ATOM     17  C   UNL A   1      29.386  31.362  22.850  1.00  0.00    -0.002 A 
ATOM     18  C   UNL A   1      29.473  29.186  22.332  1.00  0.00     0.138 A 
ATOM     19  C   UNL A   1      29.869  30.090  23.310  1.00  0.00     0.024 A 
ATOM     20  C   UNL A   1      29.519  32.662  23.546  1.00  0.00     0.049 C 
ATOM     21  C   UNL A   1      29.677  27.828  22.387  1.00  0.00     0.095 A 
ATOM     22  C   UNL A   1      30.565  29.597  24.452  1.00  0.00     0.020 A 
ATOM     23  C   UNL A   1      30.285  27.380  23.552  1.00  0.00     0.138 A 
ATOM     24  C   UNL A   1      30.784  28.211  24.580  1.00  0.00    -0.001 A 
ATOM     25  O   UNL A   1      30.273  26.004  23.662  1.00  0.00    -0.426 OA
ATOM     26  C   UNL A   1      31.397  27.544  25.841  1.00  0.00     0.035 C 
ATOM     27  C   UNL A   1      30.102  25.775  24.992  1.00  0.00     0.315 C 
ATOM     28  C   UNL A   1      32.788  28.101  26.149  1.00  0.00     0.014 C 
ATOM     29  O   UNL A   1      29.036  25.566  25.553  1.00  0.00    -0.251 OA
ENDBRANCH  12  13
ENDBRANCH   9  12
ENDBRANCH   7   8
BRANCH   7  30
ATOM     30  C   UNL A   1      33.542  22.133  23.947  1.00  0.00     0.068 C 
BRANCH  30  31
ATOM     31  C   UNL A   1      32.634  20.966  23.633  1.00  0.00    -0.037 C 
ATOM     32  C   UNL A   1      32.543  19.718  24.103  1.00  0.00     0.001 A 
ATOM     33  C   UNL A   1      31.794  21.015  22.388  1.00  0.00     0.174 C 
ATOM     34  C   UNL A   1      32.775  18.966  25.293  1.00  0.00     0.010 A 
ATOM     35  C   UNL A   1      32.398  19.006  22.807  1.00  0.00     0.065 A 
ATOM     36  N   UNL A   1      31.989  19.688  21.776  1.00  0.00    -0.280 NA
ATOM     37  C   UNL A   1      33.010  17.646  25.209  1.00  0.00     0.001 A 
ATOM     38  C   UNL A   1      32.909  17.617  22.767  1.00  0.00     0.028 A 
ATOM     39  C   UNL A   1      33.215  17.007  23.924  1.00  0.00     0.002 A 
ENDBRANCH  30  31
ENDBRANCH   7  30
ENDBRANCH   4   7
ENDBRANCH   2   3
ENDBRANCH   1   2
BRANCH   1  40
ATOM     40  C   UNL A   1      38.805  23.968  25.948  1.00  0.00     0.023 C 
BRANCH  40  41
ATOM     41  C   UNL A   1      39.291  23.436  27.287  1.00  0.00     0.116 C 
BRANCH  41  42
ATOM     42  N   UNL A   1      40.176  22.294  27.154  1.00  0.00    -0.352 N 
ATOM     43  C   UNL A   1      41.551  22.303  27.136  1.00  0.00     0.251 C 
ATOM     44  H   UNL A   1      39.744  21.414  27.070  1.00  0.00     0.163 HD
ATOM     45  O   UNL A   1      42.195  21.270  26.990  1.00  0.00    -0.269 OA
BRANCH  43  46
ATOM     46  C   UNL A   1      42.206  23.612  27.284  1.00  0.00     0.039 A 
ATOM     47  C   UNL A   1      42.254  24.191  28.558  1.00  0.00     0.014 A 
ATOM     48  C   UNL A   1      42.523  24.335  26.135  1.00  0.00     0.014 A 
ATOM     49  C   UNL A   1      42.473  25.555  28.662  1.00  0.00     0.010 A 
ATOM     50  C   UNL A   1      42.799  25.692  26.252  1.00  0.00     0.010 A 
ATOM     51  C   UNL A   1      42.714  26.310  27.506  1.00  0.00    -0.014 A 
BRANCH  51  52
ATOM     52  C   UNL A   1      42.899  27.753  27.695  1.00  0.00     0.031 A 
ATOM     53  C   UNL A   1      41.617  28.513  27.728  1.00  0.00     0.074 A 
ATOM     54  C   UNL A   1      43.965  28.243  28.361  1.00  0.00     0.049 A 
ATOM     55  N   UNL A   1      40.882  28.599  28.797  1.00  0.00    -0.248 NA
ATOM     56  C   UNL A   1      40.946  28.951  26.505  1.00  0.00     0.031 C 
ATOM     57  C   UNL A   1      44.614  27.576  29.499  1.00  0.00     0.029 A 
ATOM     58  N   UNL A   1      44.529  29.496  28.335  1.00  0.00    -0.354 N 
ATOM     59  C   UNL A   1      39.627  29.015  28.393  1.00  0.00     0.074 A 
ATOM     60  C   UNL A   1      39.718  29.239  26.966  1.00  0.00     0.031 C 
ATOM     61  C   UNL A   1      45.342  28.488  30.175  1.00  0.00     0.029 A 
ATOM     62  C   UNL A   1      45.344  29.745  29.436  1.00  0.00     0.049 A 
ATOM     63  H   UNL A   1      44.373  30.148  27.614  1.00  0.00     0.167 HD
ATOM     64  C   UNL A   1      38.580  29.142  29.250  1.00  0.00     0.034 A 
ATOM     65  C   UNL A   1      45.556  30.981  29.966  1.00  0.00     0.034 A 
ATOM     66  C   UNL A   1      38.880  28.883  30.629  1.00  0.00     0.049 A 
ATOM     67  C   UNL A   1      44.235  31.201  30.665  1.00  0.00     0.074 A 
ATOM     68  C   UNL A   1      38.679  27.879  31.548  1.00  0.00     0.029 A 
ATOM     69  N   UNL A   1      39.615  29.828  31.303  1.00  0.00    -0.354 N 
ATOM     70  N   UNL A   1      43.878  30.664  31.804  1.00  0.00    -0.248 NA
ATOM     71  C   UNL A   1      43.125  31.740  29.881  1.00  0.00     0.031 C 
ATOM     72  C   UNL A   1      39.655  28.093  32.576  1.00  0.00     0.029 A 
ATOM     73  C   UNL A   1      40.431  29.190  32.198  1.00  0.00     0.049 A 
ATOM     74  H   UNL A   1      39.565  30.802  31.164  1.00  0.00     0.167 HD
ATOM     75  C   UNL A   1      42.489  30.508  31.724  1.00  0.00     0.074 A 
ATOM     76  C   UNL A   1      42.087  31.249  30.545  1.00  0.00     0.031 C 
ATOM     77  C   UNL A   1      41.776  29.643  32.508  1.00  0.00     0.034 A 
BRANCH  64  78
ATOM     78  C   UNL A   1      37.269  29.721  28.870  1.00  0.00     0.023 A 
ATOM     79  C   UNL A   1      36.575  29.056  27.839  1.00  0.00     0.012 A 
ATOM     80  C   UNL A   1      36.770  30.937  29.367  1.00  0.00     0.148 A 
ATOM     81  C   UNL A   1      35.429  29.603  27.275  1.00  0.00     0.002 A 
ATOM     82  C   UNL A   1      35.616  31.478  28.802  1.00  0.00     0.091 A 
ATOM     83  F   UNL A   1      37.445  31.561  30.343  1.00  0.00    -0.205 F 
ATOM     84  C   UNL A   1      34.953  30.817  27.752  1.00  0.00     0.022 A 
BRANCH  82  85
ATOM     85  S   UNL A   1      34.894  33.033  29.338  1.00  0.00     0.127 S 
ATOM     86  O   UNL A   1      33.838  33.236  28.348  1.00  0.00    -0.237 OA
ATOM     87  O   UNL A   1      34.412  32.700  30.680  1.00  0.00    -0.237 OA
ATOM     88  O   UNL A   1      35.978  34.004  29.314  1.00  0.00    -0.744 OA
ENDBRANCH  82  85
ENDBRANCH  64  78
BRANCH  65  89
ATOM     89  C   UNL A   1      46.199  31.933  28.994  1.00  0.00     0.023 A 
ATOM     90  C   UNL A   1      46.938  31.342  27.936  1.00  0.00     0.012 A 
ATOM     91  C   UNL A   1      46.089  33.333  28.996  1.00  0.00     0.148 A 
ATOM     92  C   UNL A   1      47.423  32.090  26.862  1.00  0.00     0.002 A 
ATOM     93  C   UNL A   1      46.505  34.069  27.886  1.00  0.00     0.091 A 
ATOM     94  F   UNL A   1      45.588  33.948  30.073  1.00  0.00    -0.205 F 
ATOM     95  C   UNL A   1      47.170  33.452  26.818  1.00  0.00     0.022 A 
BRANCH  93  96
ATOM     96  S   UNL A   1      46.105  35.810  27.682  1.00  0.00     0.127 S 
ATOM     97  O   UNL A   1      44.665  35.823  27.936  1.00  0.00    -0.237 OA
ATOM     98  O   UNL A   1      46.924  36.419  28.729  1.00  0.00    -0.237 OA
ATOM     99  O   UNL A   1      46.501  36.148  26.322  1.00  0.00    -0.744 OA
ENDBRANCH  93  96
ENDBRANCH  65  89
BRANCH  77 100
ATOM    100  C   UNL A   1      42.525  29.005  33.646  1.00  0.00     0.023 A 
ATOM    101  C   UNL A   1      42.586  29.686  34.877  1.00  0.00     0.012 A 
ATOM    102  C   UNL A   1      43.094  27.717  33.552  1.00  0.00     0.148 A 
ATOM    103  C   UNL A   1      43.174  29.096  35.995  1.00  0.00     0.002 A 
ATOM    104  C   UNL A   1      43.631  27.112  34.684  1.00  0.00     0.091 A 
ATOM    105  F   UNL A   1      43.098  27.094  32.365  1.00  0.00    -0.205 F 
ATOM    106  C   UNL A   1      43.677  27.802  35.905  1.00  0.00     0.022 A 
BRANCH 104 107
ATOM    107  S   UNL A   1      44.217  25.412  34.699  1.00  0.00     0.127 S 
ATOM    108  O   UNL A   1      45.112  25.385  33.543  1.00  0.00    -0.237 OA
ATOM    109  O   UNL A   1      44.894  25.338  35.995  1.00  0.00    -0.237 OA
ATOM    110  O   UNL A   1      43.036  24.567  34.581  1.00  0.00    -0.744 OA
ENDBRANCH 104 107
ENDBRANCH  77 100
ENDBRANCH  51  52
ENDBRANCH  43  46
ENDBRANCH  41  42
ENDBRANCH  40  41
ENDBRANCH   1  40
TORSDOF 19
ENDMDL
MODEL 2
REMARK VINA RESULT:     -13.0      2.879      5.865
REMARK SMILES Cc1oc2cc3c(cc2c1C)[C@H](C)[C@@H](CC(=O)N[C@H](CC1=c2ccccc2=NC1)C(=O)NCCCCNC(=O)c1ccc(-c2c4nc(c(-c5cccc(S(=O)(=O)[O-])c5F)c5ccc([nH]5)c(-c5cccc(S(=O)(=O)[O-])c5F)c5nc(c(-c6cccc(S(=O)(=O)[O-])c6F)c6ccc2[nH]6)C=C5)C=C4)cc1)C(=O)O3
REMARK SMILES IDX 34 1 33 2 32 3 30 4 31 5 19 7 18 8 16 9 17 10 15 12 14 13
REMARK SMILES IDX 1 14 2 15 3 16 10 17 4 18 9 19 11 20 5 21 8 22 6 23 7 24
REMARK SMILES IDX 105 25 12 26 103 27 13 28 104 29 20 30 21 31 22 32 29 33
REMARK SMILES IDX 23 34 27 35 28 36 24 37 26 38 25 39 35 40 36 41 37 42 38 43
REMARK SMILES IDX 39 45 40 46 41 47 102 48 42 49 101 50 43 51 44 52 45 53
REMARK SMILES IDX 95 54 46 55 100 56 94 57 96 58 47 59 99 60 93 61 92 62 48 64
REMARK SMILES IDX 80 65 60 66 79 67 61 68 64 69 78 70 97 71 62 72 63 73 77 75
REMARK SMILES IDX 98 76 65 77 49 78 50 79 58 80 51 81 53 82 59 83 52 84 54 85
REMARK SMILES IDX 55 86 56 87 57 88 81 89 82 90 90 91 83 92 85 93 91 94 84 95
REMARK SMILES IDX 86 96 87 97 88 98 89 99 66 100 67 101 75 102 68 103 70 104
REMARK SMILES IDX 76 105 69 106 71 107 72 108 73 109 74 110
REMARK H PARENT 32 6 18 11 37 44 96 63 64 74
REMARK Flexibility Score: inf
ROOT
ATOM      1  C   UNL A   1      38.589  22.272  26.053  1.00  0.00     0.023 C 
ENDROOT
BRANCH   1   2
ATOM      2  C   UNL A   1      37.194  22.504  25.456  1.00  0.00     0.116 C 
BRANCH   2   3
ATOM      3  N   UNL A   1      36.210  21.614  26.035  1.00  0.00    -0.354 N 
ATOM      4  C   UNL A   1      34.942  21.905  26.407  1.00  0.00     0.242 C 
ATOM      5  O   UNL A   1      34.611  21.460  27.503  1.00  0.00    -0.273 OA
ATOM      6  H   UNL A   1      36.500  20.683  26.175  1.00  0.00     0.163 HD
BRANCH   4   7
ATOM      7  C   UNL A   1      34.011  22.748  25.533  1.00  0.00     0.175 C 
BRANCH   7   8
ATOM      8  N   UNL A   1      32.704  22.795  26.248  1.00  0.00    -0.344 N 
ATOM      9  C   UNL A   1      31.596  23.579  26.107  1.00  0.00     0.221 C 
ATOM     10  O   UNL A   1      30.810  23.598  27.062  1.00  0.00    -0.275 OA
ATOM     11  H   UNL A   1      32.625  22.126  26.966  1.00  0.00     0.164 HD
BRANCH   9  12
ATOM     12  C   UNL A   1      31.253  24.394  24.851  1.00  0.00     0.116 C 
BRANCH  12  13
ATOM     13  C   UNL A   1      31.812  25.822  24.873  1.00  0.00     0.116 C 
ATOM     14  C   UNL A   1      34.254  33.048  28.603  1.00  0.00     0.088 C 
ATOM     15  C   UNL A   1      34.103  31.715  27.983  1.00  0.00     0.105 A 
ATOM     16  O   UNL A   1      32.987  31.585  27.228  1.00  0.00    -0.461 OA
ATOM     17  C   UNL A   1      34.827  30.530  27.984  1.00  0.00    -0.002 A 
ATOM     18  C   UNL A   1      32.966  30.320  26.759  1.00  0.00     0.138 A 
ATOM     19  C   UNL A   1      34.083  29.606  27.175  1.00  0.00     0.024 A 
ATOM     20  C   UNL A   1      36.095  30.257  28.697  1.00  0.00     0.049 C 
ATOM     21  C   UNL A   1      31.941  29.806  26.001  1.00  0.00     0.095 A 
ATOM     22  C   UNL A   1      34.208  28.244  26.776  1.00  0.00     0.020 A 
ATOM     23  C   UNL A   1      32.062  28.456  25.702  1.00  0.00     0.138 A 
ATOM     24  C   UNL A   1      33.178  27.651  26.018  1.00  0.00    -0.001 A 
ATOM     25  O   UNL A   1      30.918  27.934  25.134  1.00  0.00    -0.426 OA
ATOM     26  C   UNL A   1      33.133  26.142  25.650  1.00  0.00     0.035 C 
ATOM     27  C   UNL A   1      30.842  26.669  25.632  1.00  0.00     0.315 C 
ATOM     28  C   UNL A   1      34.373  25.722  24.860  1.00  0.00     0.014 C 
ATOM     29  O   UNL A   1      30.199  26.321  26.611  1.00  0.00    -0.251 OA
ENDBRANCH  12  13
ENDBRANCH   9  12
ENDBRANCH   7   8
BRANCH   7  30
ATOM     30  C   UNL A   1      33.929  22.192  24.088  1.00  0.00     0.068 C 
BRANCH  30  31
ATOM     31  C   UNL A   1      32.869  21.144  23.834  1.00  0.00    -0.037 C 
ATOM     32  C   UNL A   1      32.666  19.908  24.301  1.00  0.00     0.001 A 
ATOM     33  C   UNL A   1      31.952  21.311  22.655  1.00  0.00     0.174 C 
ATOM     34  C   UNL A   1      32.894  19.115  25.464  1.00  0.00     0.010 A 
ATOM     35  C   UNL A   1      32.343  19.239  23.013  1.00  0.00     0.065 A 
ATOM     36  N   UNL A   1      31.944  19.981  22.021  1.00  0.00    -0.280 NA
ATOM     37  C   UNL A   1      32.963  17.778  25.354  1.00  0.00     0.001 A 
ATOM     38  C   UNL A   1      32.682  17.800  22.926  1.00  0.00     0.028 A 
ATOM     39  C   UNL A   1      32.997  17.140  24.053  1.00  0.00     0.002 A 
ENDBRANCH  30  31
ENDBRANCH   7  30
ENDBRANCH   4   7
ENDBRANCH   2   3
ENDBRANCH   1   2
BRANCH   1  40
ATOM     40  C   UNL A   1      39.141  23.442  26.870  1.00  0.00     0.023 C 
BRANCH  40  41
ATOM     41  C   UNL A   1      40.557  23.236  27.385  1.00  0.00     0.116 C 
BRANCH  41  42
ATOM     42  N   UNL A   1      41.321  22.300  26.581  1.00  0.00    -0.352 N 
ATOM     43  C   UNL A   1      42.491  22.546  25.903  1.00  0.00     0.251 C 
ATOM     44  H   UNL A   1      40.961  21.386  26.515  1.00  0.00     0.163 HD
ATOM     45  O   UNL A   1      43.034  21.677  25.229  1.00  0.00    -0.269 OA
BRANCH  43  46
ATOM     46  C   UNL A   1      43.047  23.903  26.013  1.00  0.00     0.039 A 
ATOM     47  C   UNL A   1      43.925  24.178  27.068  1.00  0.00     0.014 A 
ATOM     48  C   UNL A   1      42.495  24.918  25.233  1.00  0.00     0.014 A 
ATOM     49  C   UNL A   1      44.128  25.498  27.441  1.00  0.00     0.010 A 
ATOM     50  C   UNL A   1      42.748  26.241  25.576  1.00  0.00     0.010 A 
ATOM     51  C   UNL A   1      43.514  26.526  26.714  1.00  0.00    -0.014 A 
BRANCH  51  52
ATOM     52  C   UNL A   1      43.746  27.893  27.193  1.00  0.00     0.031 A 
ATOM     53  C   UNL A   1      43.392  28.084  28.628  1.00  0.00     0.074 A 
ATOM     54  C   UNL A   1      44.699  28.676  26.647  1.00  0.00     0.049 A 
ATOM     55  N   UNL A   1      44.191  27.747  29.596  1.00  0.00    -0.248 NA
ATOM     56  C   UNL A   1      42.023  28.368  29.056  1.00  0.00     0.031 C 
ATOM     57  C   UNL A   1      45.981  28.184  26.122  1.00  0.00     0.029 A 
ATOM     58  N   UNL A   1      44.840  30.043  26.660  1.00  0.00    -0.354 N 
ATOM     59  C   UNL A   1      43.429  27.686  30.748  1.00  0.00     0.074 A 
ATOM     60  C   UNL A   1      42.094  28.098  30.369  1.00  0.00     0.031 C 
ATOM     61  C   UNL A   1      46.842  29.218  26.046  1.00  0.00     0.029 A 
ATOM     62  C   UNL A   1      46.134  30.456  26.353  1.00  0.00     0.049 A 
ATOM     63  H   UNL A   1      44.104  30.664  26.864  1.00  0.00     0.167 HD
ATOM     64  C   UNL A   1      43.933  27.291  31.948  1.00  0.00     0.034 A 
ATOM     65  C   UNL A   1      46.701  31.603  26.818  1.00  0.00     0.034 A 
ATOM     66  C   UNL A   1      45.340  27.007  31.959  1.00  0.00     0.049 A 
ATOM     67  C   UNL A   1      46.972  31.205  28.250  1.00  0.00     0.074 A 
ATOM     68  C   UNL A   1      46.159  25.901  31.976  1.00  0.00     0.029 A 
ATOM     69  N   UNL A   1      46.200  28.075  31.888  1.00  0.00    -0.354 N 
ATOM     70  N   UNL A   1      47.953  30.439  28.654  1.00  0.00    -0.248 NA
ATOM     71  C   UNL A   1      45.890  31.359  29.222  1.00  0.00     0.031 C 
ATOM     72  C   UNL A   1      47.431  26.353  31.495  1.00  0.00     0.029 A 
ATOM     73  C   UNL A   1      47.300  27.702  31.163  1.00  0.00     0.049 A 
ATOM     74  H   UNL A   1      46.051  28.961  32.292  1.00  0.00     0.167 HD
ATOM     75  C   UNL A   1      47.461  29.765  29.779  1.00  0.00     0.074 A 
ATOM     76  C   UNL A   1      46.214  30.426  30.107  1.00  0.00     0.031 C 
ATOM     77  C   UNL A   1      47.997  28.603  30.262  1.00  0.00     0.034 A 
BRANCH  64  78
ATOM     78  C   UNL A   1      43.177  27.354  33.221  1.00  0.00     0.023 A 
ATOM     79  C   UNL A   1      42.665  28.619  33.573  1.00  0.00     0.012 A 
ATOM     80  C   UNL A   1      43.074  26.289  34.131  1.00  0.00     0.148 A 
ATOM     81  C   UNL A   1      42.098  28.842  34.822  1.00  0.00     0.002 A 
ATOM     82  C   UNL A   1      42.498  26.516  35.380  1.00  0.00     0.091 A 
ATOM     83  F   UNL A   1      43.572  25.093  33.784  1.00  0.00    -0.205 F 
ATOM     84  C   UNL A   1      42.020  27.793  35.728  1.00  0.00     0.022 A 
BRANCH  82  85
ATOM     85  S   UNL A   1      42.328  25.240  36.633  1.00  0.00     0.127 S 
ATOM     86  O   UNL A   1      41.712  25.976  37.736  1.00  0.00    -0.237 OA
ATOM     87  O   UNL A   1      41.441  24.280  35.973  1.00  0.00    -0.237 OA
ATOM     88  O   UNL A   1      43.674  24.742  36.878  1.00  0.00    -0.744 OA
ENDBRANCH  82  85
ENDBRANCH  64  78
BRANCH  65  89
ATOM     89  C   UNL A   1      45.964  32.840  26.381  1.00  0.00     0.023 A 
ATOM     90  C   UNL A   1      44.697  32.630  25.773  1.00  0.00     0.012 A 
ATOM     91  C   UNL A   1      46.374  34.169  26.567  1.00  0.00     0.148 A 
ATOM     92  C   UNL A   1      43.825  33.684  25.495  1.00  0.00     0.002 A 
ATOM     93  C   UNL A   1      45.472  35.215  26.361  1.00  0.00     0.091 A 
ATOM     94  F   UNL A   1      47.634  34.419  26.937  1.00  0.00    -0.205 F 
ATOM     95  C   UNL A   1      44.199  34.977  25.828  1.00  0.00     0.022 A 
BRANCH  93  96
ATOM     96  S   UNL A   1      45.819  36.900  26.885  1.00  0.00     0.127 S 
ATOM     97  O   UNL A   1      46.342  36.698  28.234  1.00  0.00    -0.237 OA
ATOM     98  O   UNL A   1      46.810  37.313  25.892  1.00  0.00    -0.237 OA
ATOM     99  O   UNL A   1      44.548  37.606  26.808  1.00  0.00    -0.744 OA
ENDBRANCH  93  96
ENDBRANCH  65  89
BRANCH  77 100
ATOM    100  C   UNL A   1      49.309  28.176  29.662  1.00  0.00     0.023 A 
ATOM    101  C   UNL A   1      50.500  28.679  30.221  1.00  0.00     0.012 A 
ATOM    102  C   UNL A   1      49.393  27.229  28.619  1.00  0.00     0.148 A 
ATOM    103  C   UNL A   1      51.745  28.235  29.775  1.00  0.00     0.002 A 
ATOM    104  C   UNL A   1      50.636  26.750  28.216  1.00  0.00     0.091 A 
ATOM    105  F   UNL A   1      48.263  26.799  28.039  1.00  0.00    -0.205 F 
ATOM    106  C   UNL A   1      51.813  27.257  28.788  1.00  0.00     0.022 A 
BRANCH 104 107
ATOM    107  S   UNL A   1      50.830  25.420  27.021  1.00  0.00     0.127 S 
ATOM    108  O   UNL A   1      50.063  24.338  27.638  1.00  0.00    -0.237 OA
ATOM    109  O   UNL A   1      50.215  25.996  25.825  1.00  0.00    -0.237 OA
ATOM    110  O   UNL A   1      52.261  25.172  26.910  1.00  0.00    -0.744 OA
ENDBRANCH 104 107
ENDBRANCH  77 100
ENDBRANCH  51  52
ENDBRANCH  43  46
ENDBRANCH  41  42
ENDBRANCH  40  41
ENDBRANCH   1  40
TORSDOF 19
ENDMDL
MODEL 3
REMARK VINA RESULT:     -12.8      7.952     16.162
REMARK SMILES Cc1oc2cc3c(cc2c1C)[C@H](C)[C@@H](CC(=O)N[C@H](CC1=c2ccccc2=NC1)C(=O)NCCCCNC(=O)c1ccc(-c2c4nc(c(-c5cccc(S(=O)(=O)[O-])c5F)c5ccc([nH]5)c(-c5cccc(S(=O)(=O)[O-])c5F)c5nc(c(-c6cccc(S(=O)(=O)[O-])c6F)c6ccc2[nH]6)C=C5)C=C4)cc1)C(=O)O3
REMARK SMILES IDX 34 1 33 2 32 3 30 4 31 5 19 7 18 8 16 9 17 10 15 12 14 13
REMARK SMILES IDX 1 14 2 15 3 16 10 17 4 18 9 19 11 20 5 21 8 22 6 23 7 24
REMARK SMILES IDX 105 25 12 26 103 27 13 28 104 29 20 30 21 31 22 32 29 33
REMARK SMILES IDX 23 34 27 35 28 36 24 37 26 38 25 39 35 40 36 41 37 42 38 43
REMARK SMILES IDX 39 45 40 46 41 47 102 48 42 49 101 50 43 51 44 52 45 53
REMARK SMILES IDX 95 54 46 55 100 56 94 57 96 58 47 59 99 60 93 61 92 62 48 64
REMARK SMILES IDX 80 65 60 66 79 67 61 68 64 69 78 70 97 71 62 72 63 73 77 75
REMARK SMILES IDX 98 76 65 77 49 78 50 79 58 80 51 81 53 82 59 83 52 84 54 85
REMARK SMILES IDX 55 86 56 87 57 88 81 89 82 90 90 91 83 92 85 93 91 94 84 95
REMARK SMILES IDX 86 96 87 97 88 98 89 99 66 100 67 101 75 102 68 103 70 104
REMARK SMILES IDX 76 105 69 106 71 107 72 108 73 109 74 110
REMARK H PARENT 32 6 18 11 37 44 96 63 64 74
REMARK Flexibility Score: inf
ROOT
ATOM      1  C   UNL A   1      41.388  40.366  26.224  1.00  0.00     0.023 C 
ENDROOT
BRANCH   1   2
ATOM      2  C   UNL A   1      42.449  41.114  25.405  1.00  0.00     0.116 C 
BRANCH   2   3
ATOM      3  N   UNL A   1      41.854  41.872  24.325  1.00  0.00    -0.354 N 
ATOM      4  C   UNL A   1      42.406  42.885  23.617  1.00  0.00     0.242 C 
ATOM      5  O   UNL A   1      41.671  43.855  23.447  1.00  0.00    -0.273 OA
ATOM      6  H   UNL A   1      40.936  41.618  24.074  1.00  0.00     0.163 HD
BRANCH   4   7
ATOM      7  C   UNL A   1      43.845  42.826  23.100  1.00  0.00     0.175 C 
BRANCH   7   8
ATOM      8  N   UNL A   1      44.718  42.835  24.308  1.00  0.00    -0.344 N 
ATOM      9  C   UNL A   1      45.788  42.077  24.686  1.00  0.00     0.221 C 
ATOM     10  O   UNL A   1      46.087  42.107  25.886  1.00  0.00    -0.275 OA
ATOM     11  H   UNL A   1      44.473  43.526  24.965  1.00  0.00     0.164 HD
BRANCH   9  12
ATOM     12  C   UNL A   1      46.648  41.237  23.731  1.00  0.00     0.116 C 
BRANCH  12  13
ATOM     13  C   UNL A   1      47.530  42.076  22.799  1.00  0.00     0.116 C 
ATOM     14  C   UNL A   1      49.007  47.223  16.210  1.00  0.00     0.088 C 
ATOM     15  C   UNL A   1      48.730  46.570  17.506  1.00  0.00     0.105 A 
ATOM     16  O   UNL A   1      49.079  45.263  17.547  1.00  0.00    -0.461 OA
ATOM     17  C   UNL A   1      48.181  46.962  18.720  1.00  0.00    -0.002 A 
ATOM     18  C   UNL A   1      48.741  44.796  18.767  1.00  0.00     0.138 A 
ATOM     19  C   UNL A   1      48.188  45.795  19.557  1.00  0.00     0.024 A 
ATOM     20  C   UNL A   1      47.662  48.302  19.076  1.00  0.00     0.049 C 
ATOM     21  C   UNL A   1      48.891  43.484  19.148  1.00  0.00     0.095 A 
ATOM     22  C   UNL A   1      47.762  45.463  20.876  1.00  0.00     0.020 A 
ATOM     23  C   UNL A   1      48.390  43.185  20.408  1.00  0.00     0.138 A 
ATOM     24  C   UNL A   1      47.867  44.129  21.319  1.00  0.00    -0.001 A 
ATOM     25  O   UNL A   1      48.363  41.829  20.660  1.00  0.00    -0.426 OA
ATOM     26  C   UNL A   1      47.304  43.620  22.674  1.00  0.00     0.035 C 
ATOM     27  C   UNL A   1      47.233  41.647  21.398  1.00  0.00     0.315 C 
ATOM     28  C   UNL A   1      47.913  44.380  23.853  1.00  0.00     0.014 C 
ATOM     29  O   UNL A   1      46.138  41.322  20.964  1.00  0.00    -0.251 OA
ENDBRANCH  12  13
ENDBRANCH   9  12
ENDBRANCH   7   8
BRANCH   7  30
ATOM     30  C   UNL A   1      44.135  43.970  22.093  1.00  0.00     0.068 C 
BRANCH  30  31
ATOM     31  C   UNL A   1      43.726  43.718  20.660  1.00  0.00    -0.037 C 
ATOM     32  C   UNL A   1      43.802  44.443  19.540  1.00  0.00     0.001 A 
ATOM     33  C   UNL A   1      42.813  42.562  20.359  1.00  0.00     0.174 C 
ATOM     34  C   UNL A   1      44.605  45.450  18.928  1.00  0.00     0.010 A 
ATOM     35  C   UNL A   1      42.433  44.187  19.021  1.00  0.00     0.065 A 
ATOM     36  N   UNL A   1      41.799  43.137  19.457  1.00  0.00    -0.280 NA
ATOM     37  C   UNL A   1      44.068  46.254  17.995  1.00  0.00     0.001 A 
ATOM     38  C   UNL A   1      41.844  45.257  18.184  1.00  0.00     0.028 A 
ATOM     39  C   UNL A   1      42.643  46.239  17.734  1.00  0.00     0.002 A 
ENDBRANCH  30  31
ENDBRANCH   7  30
ENDBRANCH   4   7
ENDBRANCH   2   3
ENDBRANCH   1   2
BRANCH   1  40
ATOM     40  C   UNL A   1      41.943  39.475  27.336  1.00  0.00     0.023 C 
BRANCH  40  41
ATOM     41  C   UNL A   1      42.170  38.028  26.928  1.00  0.00     0.116 C 
BRANCH  41  42
ATOM     42  N   UNL A   1      43.575  37.692  26.790  1.00  0.00    -0.352 N 
ATOM     43  C   UNL A   1      44.278  36.743  27.494  1.00  0.00     0.251 C 
ATOM     44  H   UNL A   1      44.081  38.201  26.117  1.00  0.00     0.163 HD
ATOM     45  O   UNL A   1      45.477  36.567  27.308  1.00  0.00    -0.269 OA
BRANCH  43  46
ATOM     46  C   UNL A   1      43.524  35.964  28.488  1.00  0.00     0.039 A 
ATOM     47  C   UNL A   1      43.819  36.151  29.843  1.00  0.00     0.014 A 
ATOM     48  C   UNL A   1      42.737  34.900  28.047  1.00  0.00     0.014 A 
ATOM     49  C   UNL A   1      43.448  35.169  30.748  1.00  0.00     0.010 A 
ATOM     50  C   UNL A   1      42.318  33.948  28.970  1.00  0.00     0.010 A 
ATOM     51  C   UNL A   1      42.726  34.054  30.306  1.00  0.00    -0.014 A 
BRANCH  51  52
ATOM     52  C   UNL A   1      42.403  33.041  31.317  1.00  0.00     0.031 A 
ATOM     53  C   UNL A   1      41.009  33.147  31.834  1.00  0.00     0.074 A 
ATOM     54  C   UNL A   1      43.013  31.838  31.326  1.00  0.00     0.049 A 
ATOM     55  N   UNL A   1      39.989  32.650  31.200  1.00  0.00    -0.248 NA
ATOM     56  C   UNL A   1      40.652  34.066  32.913  1.00  0.00     0.031 C 
ATOM     57  C   UNL A   1      43.446  31.115  30.121  1.00  0.00     0.029 A 
ATOM     58  N   UNL A   1      43.156  30.922  32.341  1.00  0.00    -0.354 N 
ATOM     59  C   UNL A   1      38.857  33.247  31.723  1.00  0.00     0.074 A 
ATOM     60  C   UNL A   1      39.314  34.104  32.796  1.00  0.00     0.031 C 
ATOM     61  C   UNL A   1      43.621  29.816  30.437  1.00  0.00     0.029 A 
ATOM     62  C   UNL A   1      43.476  29.649  31.878  1.00  0.00     0.049 A 
ATOM     63  H   UNL A   1      43.044  31.145  33.294  1.00  0.00     0.167 HD
ATOM     64  C   UNL A   1      37.608  33.012  31.241  1.00  0.00     0.034 A 
ATOM     65  C   UNL A   1      43.134  28.496  32.517  1.00  0.00     0.034 A 
ATOM     66  C   UNL A   1      37.529  32.041  30.187  1.00  0.00     0.049 A 
ATOM     67  C   UNL A   1      41.660  28.440  32.194  1.00  0.00     0.074 A 
ATOM     68  C   UNL A   1      37.363  32.025  28.821  1.00  0.00     0.029 A 
ATOM     69  N   UNL A   1      37.702  30.722  30.531  1.00  0.00    -0.354 N 
ATOM     70  N   UNL A   1      41.145  28.075  31.047  1.00  0.00    -0.248 NA
ATOM     71  C   UNL A   1      40.739  29.178  33.058  1.00  0.00     0.031 C 
ATOM     72  C   UNL A   1      37.862  30.754  28.385  1.00  0.00     0.029 A 
ATOM     73  C   UNL A   1      38.352  30.086  29.508  1.00  0.00     0.049 A 
ATOM     74  H   UNL A   1      37.408  30.304  31.373  1.00  0.00     0.167 HD
ATOM     75  C   UNL A   1      39.962  28.814  30.917  1.00  0.00     0.074 A 
ATOM     76  C   UNL A   1      39.744  29.419  32.215  1.00  0.00     0.031 C 
ATOM     77  C   UNL A   1      39.334  29.038  29.722  1.00  0.00     0.034 A 
BRANCH  64  78
ATOM     78  C   UNL A   1      36.370  33.525  31.874  1.00  0.00     0.023 A 
ATOM     79  C   UNL A   1      36.099  33.052  33.173  1.00  0.00     0.012 A 
ATOM     80  C   UNL A   1      35.415  34.315  31.212  1.00  0.00     0.148 A 
ATOM     81  C   UNL A   1      34.885  33.318  33.796  1.00  0.00     0.002 A 
ATOM     82  C   UNL A   1      34.201  34.584  31.844  1.00  0.00     0.091 A 
ATOM     83  F   UNL A   1      35.684  34.751  29.973  1.00  0.00    -0.205 F 
ATOM     84  C   UNL A   1      33.933  34.077  33.129  1.00  0.00     0.022 A 
BRANCH  82  85
ATOM     85  S   UNL A   1      32.896  35.564  31.093  1.00  0.00     0.127 S 
ATOM     86  O   UNL A   1      32.673  34.859  29.832  1.00  0.00    -0.237 OA
ATOM     87  O   UNL A   1      31.811  35.425  32.066  1.00  0.00    -0.237 OA
ATOM     88  O   UNL A   1      33.429  36.914  30.977  1.00  0.00    -0.744 OA
ENDBRANCH  82  85
ENDBRANCH  64  78
BRANCH  65  89
ATOM     89  C   UNL A   1      43.731  28.389  33.894  1.00  0.00     0.023 A 
ATOM     90  C   UNL A   1      44.551  29.473  34.306  1.00  0.00     0.012 A 
ATOM     91  C   UNL A   1      43.510  27.362  34.825  1.00  0.00     0.148 A 
ATOM     92  C   UNL A   1      45.010  29.598  35.618  1.00  0.00     0.002 A 
ATOM     93  C   UNL A   1      43.903  27.526  36.154  1.00  0.00     0.091 A 
ATOM     94  F   UNL A   1      42.925  26.229  34.422  1.00  0.00    -0.205 F 
ATOM     95  C   UNL A   1      44.650  28.641  36.554  1.00  0.00     0.022 A 
BRANCH  93  96
ATOM     96  S   UNL A   1      43.371  26.408  37.459  1.00  0.00     0.127 S 
ATOM     97  O   UNL A   1      43.889  25.125  36.990  1.00  0.00    -0.237 OA
ATOM     98  O   UNL A   1      44.064  26.969  38.619  1.00  0.00    -0.237 OA
ATOM     99  O   UNL A   1      41.920  26.517  37.503  1.00  0.00    -0.744 OA
ENDBRANCH  93  96
ENDBRANCH  65  89
BRANCH  77 100
ATOM    100  C   UNL A   1      39.848  28.256  28.544  1.00  0.00     0.023 A 
ATOM    101  C   UNL A   1      40.508  28.952  27.512  1.00  0.00     0.012 A 
ATOM    102  C   UNL A   1      39.770  26.850  28.475  1.00  0.00     0.148 A 
ATOM    103  C   UNL A   1      41.098  28.268  26.449  1.00  0.00     0.002 A 
ATOM    104  C   UNL A   1      40.407  26.169  27.442  1.00  0.00     0.091 A 
ATOM    105  F   UNL A   1      39.085  26.190  29.420  1.00  0.00    -0.205 F 
ATOM    106  C   UNL A   1      41.065  26.877  26.425  1.00  0.00     0.022 A 
BRANCH 104 107
ATOM    107  S   UNL A   1      40.509  24.375  27.368  1.00  0.00     0.127 S 
ATOM    108  O   UNL A   1      39.100  23.989  27.301  1.00  0.00    -0.237 OA
ATOM    109  O   UNL A   1      41.257  24.166  26.127  1.00  0.00    -0.237 OA
ATOM    110  O   UNL A   1      41.204  23.952  28.576  1.00  0.00    -0.744 OA
ENDBRANCH 104 107
ENDBRANCH  77 100
ENDBRANCH  51  52
ENDBRANCH  43  46
ENDBRANCH  41  42
ENDBRANCH  40  41
ENDBRANCH   1  40
TORSDOF 19
ENDMDL
