MODEL 1
REMARK VINA RESULT:     -13.4      0.000      0.000
REMARK SMILES CC1=Nc2c(c(C)nn2-c2ccc(F)cc2)[C@H](c2ccc(C(=O)NCCCCNC(=O)c3ccc(-c4c5nc(c(-c6cccc(S(=O)(=O)[O-])c6F)c6ccc([nH]6)c(-c6cccc(S(=O)(=O)[O-])c6F)c6nc(c(-c7cccc(S(=O)(=O)[O-])c7F)c7ccc4[nH]7)C=C6)C=C5)cc3)cc2)S1
REMARK SMILES IDX 27 1 26 2 25 3 24 4 22 5 23 6 21 8 18 9 19 10 96 11 20 12
REMARK SMILES IDX 95 13 17 14 1 15 2 16 3 17 97 18 4 19 5 20 9 21 6 22 8 23
REMARK SMILES IDX 7 24 10 25 11 26 16 27 12 28 15 29 13 30 14 31 28 32 29 33
REMARK SMILES IDX 30 34 31 36 32 37 33 38 94 39 34 40 93 41 35 42 36 43 37 44
REMARK SMILES IDX 87 45 38 46 92 47 86 48 88 49 39 50 91 51 85 52 84 53 40 55
REMARK SMILES IDX 72 56 52 57 71 58 53 59 56 60 70 61 89 62 54 63 55 64 69 66
REMARK SMILES IDX 90 67 57 68 41 69 42 70 50 71 43 72 45 73 51 74 44 75 46 76
REMARK SMILES IDX 47 77 48 78 49 79 73 80 74 81 82 82 75 83 77 84 83 85 76 86
REMARK SMILES IDX 78 87 79 88 80 89 81 90 58 91 59 92 67 93 60 94 62 95 68 96
REMARK SMILES IDX 61 97 63 98 64 99 65 100 66 101
REMARK H PARENT 24 7 29 35 88 54 56 65
REMARK Flexibility Score: inf
ROOT
ATOM      1  C   UNL A   1      38.093  19.706  25.014  1.00  0.00     0.023 C 
ENDROOT
BRANCH   1   2
ATOM      2  C   UNL A   1      37.116  20.826  24.621  1.00  0.00     0.023 C 
BRANCH   2   3
ATOM      3  C   UNL A   1      35.822  20.881  25.444  1.00  0.00     0.116 C 
BRANCH   3   4
ATOM      4  N   UNL A   1      34.876  19.884  24.986  1.00  0.00    -0.352 N 
ATOM      5  C   UNL A   1      33.580  19.979  24.556  1.00  0.00     0.251 C 
ATOM      6  O   UNL A   1      32.979  18.944  24.268  1.00  0.00    -0.269 OA
ATOM      7  H   UNL A   1      35.232  18.966  24.985  1.00  0.00     0.163 HD
BRANCH   5   8
ATOM      8  C   UNL A   1      32.875  21.275  24.392  1.00  0.00     0.039 A 
ATOM      9  C   UNL A   1      31.595  23.756  23.885  1.00  0.00    -0.030 A 
ATOM     10  C   UNL A   1      32.708  23.346  23.130  1.00  0.00     0.006 A 
ATOM     11  C   UNL A   1      31.132  22.888  24.889  1.00  0.00     0.006 A 
ATOM     12  C   UNL A   1      33.331  22.120  23.372  1.00  0.00     0.014 A 
ATOM     13  C   UNL A   1      31.758  21.661  25.132  1.00  0.00     0.014 A 
BRANCH   9  14
ATOM     14  C   UNL A   1      30.912  25.072  23.542  1.00  0.00     0.119 C 
ATOM     15  C   UNL A   1      33.843  27.327  21.689  1.00  0.00     0.075 C 
ATOM     16  C   UNL A   1      32.756  26.953  22.663  1.00  0.00     0.074 C 
ATOM     17  N   UNL A   1      32.821  27.445  23.860  1.00  0.00    -0.227 NA
ATOM     18  S   UNL A   1      31.538  25.860  22.022  1.00  0.00    -0.098 SA
ATOM     19  C   UNL A   1      31.923  27.017  24.780  1.00  0.00     0.161 A 
ATOM     20  C   UNL A   1      31.071  25.938  24.736  1.00  0.00     0.038 A 
ATOM     21  N   UNL A   1      31.802  27.556  26.050  1.00  0.00    -0.215 N 
ATOM     22  C   UNL A   1      30.483  25.882  26.027  1.00  0.00     0.067 A 
ATOM     23  N   UNL A   1      30.998  26.809  26.847  1.00  0.00    -0.171 NA
ATOM     24  C   UNL A   1      29.459  24.936  26.539  1.00  0.00     0.069 C 
BRANCH  21  25
ATOM     25  C   UNL A   1      32.398  28.746  26.529  1.00  0.00     0.067 A 
ATOM     26  C   UNL A   1      33.628  28.684  27.200  1.00  0.00     0.031 A 
ATOM     27  C   UNL A   1      31.749  29.972  26.341  1.00  0.00     0.031 A 
ATOM     28  C   UNL A   1      34.206  29.853  27.691  1.00  0.00     0.041 A 
ATOM     29  C   UNL A   1      32.308  31.129  26.884  1.00  0.00     0.041 A 
ATOM     30  C   UNL A   1      33.532  31.060  27.546  1.00  0.00     0.123 A 
ATOM     31  F   UNL A   1      34.071  32.177  28.055  1.00  0.00    -0.207 F 
ENDBRANCH  21  25
ENDBRANCH   9  14
ENDBRANCH   5   8
ENDBRANCH   3   4
ENDBRANCH   2   3
ENDBRANCH   1   2
BRANCH   1  32
ATOM     32  C   UNL A   1      39.254  20.149  25.896  1.00  0.00     0.116 C 
BRANCH  32  33
ATOM     33  N   UNL A   1      40.404  19.247  25.806  1.00  0.00    -0.352 N 
ATOM     34  C   UNL A   1      41.743  19.566  25.878  1.00  0.00     0.251 C 
ATOM     35  H   UNL A   1      40.195  18.294  25.677  1.00  0.00     0.163 HD
ATOM     36  O   UNL A   1      42.596  18.808  25.415  1.00  0.00    -0.269 OA
BRANCH  34  37
ATOM     37  C   UNL A   1      42.139  20.822  26.532  1.00  0.00     0.039 A 
ATOM     38  C   UNL A   1      42.539  21.934  25.789  1.00  0.00     0.014 A 
ATOM     39  C   UNL A   1      42.053  20.883  27.921  1.00  0.00     0.014 A 
ATOM     40  C   UNL A   1      42.761  23.138  26.452  1.00  0.00     0.010 A 
ATOM     41  C   UNL A   1      42.138  22.098  28.556  1.00  0.00     0.010 A 
ATOM     42  C   UNL A   1      42.530  23.221  27.836  1.00  0.00    -0.014 A 
BRANCH  42  43
ATOM     43  C   UNL A   1      42.560  24.516  28.512  1.00  0.00     0.031 A 
ATOM     44  C   UNL A   1      41.360  25.365  28.272  1.00  0.00     0.074 A 
ATOM     45  C   UNL A   1      43.482  24.846  29.444  1.00  0.00     0.049 A 
ATOM     46  N   UNL A   1      41.292  26.442  27.562  1.00  0.00    -0.248 NA
ATOM     47  C   UNL A   1      40.054  24.877  28.738  1.00  0.00     0.031 C 
ATOM     48  C   UNL A   1      44.527  23.993  30.022  1.00  0.00     0.029 A 
ATOM     49  N   UNL A   1      43.584  25.985  30.185  1.00  0.00    -0.354 N 
ATOM     50  C   UNL A   1      39.987  26.911  27.717  1.00  0.00     0.074 A 
ATOM     51  C   UNL A   1      39.232  25.805  28.240  1.00  0.00     0.031 C 
ATOM     52  C   UNL A   1      44.964  24.535  31.180  1.00  0.00     0.029 A 
ATOM     53  C   UNL A   1      44.375  25.851  31.324  1.00  0.00     0.049 A 
ATOM     54  H   UNL A   1      43.141  26.828  29.937  1.00  0.00     0.167 HD
ATOM     55  C   UNL A   1      39.714  28.246  27.670  1.00  0.00     0.034 A 
ATOM     56  C   UNL A   1      44.499  26.746  32.334  1.00  0.00     0.034 A 
ATOM     57  C   UNL A   1      40.834  28.981  27.132  1.00  0.00     0.049 A 
ATOM     58  C   UNL A   1      44.099  28.060  31.788  1.00  0.00     0.074 A 
ATOM     59  C   UNL A   1      41.560  28.965  25.960  1.00  0.00     0.029 A 
ATOM     60  N   UNL A   1      41.600  29.663  28.046  1.00  0.00    -0.354 N 
ATOM     61  N   UNL A   1      44.764  28.688  30.858  1.00  0.00    -0.248 NA
ATOM     62  C   UNL A   1      42.731  28.502  31.992  1.00  0.00     0.031 C 
ATOM     63  C   UNL A   1      42.903  29.231  26.357  1.00  0.00     0.029 A 
ATOM     64  C   UNL A   1      42.912  29.463  27.734  1.00  0.00     0.049 A 
ATOM     65  H   UNL A   1      41.260  30.204  28.795  1.00  0.00     0.167 HD
ATOM     66  C   UNL A   1      43.777  29.252  30.063  1.00  0.00     0.074 A 
ATOM     67  C   UNL A   1      42.567  29.220  30.880  1.00  0.00     0.031 C 
ATOM     68  C   UNL A   1      43.970  29.413  28.720  1.00  0.00     0.034 A 
BRANCH  55  69
ATOM     69  C   UNL A   1      38.652  28.967  28.489  1.00  0.00     0.023 A 
ATOM     70  C   UNL A   1      37.902  29.964  27.815  1.00  0.00     0.012 A 
ATOM     71  C   UNL A   1      38.559  28.954  29.899  1.00  0.00     0.148 A 
ATOM     72  C   UNL A   1      37.197  30.955  28.505  1.00  0.00     0.002 A 
ATOM     73  C   UNL A   1      37.792  29.896  30.579  1.00  0.00     0.091 A 
ATOM     74  F   UNL A   1      39.303  28.115  30.618  1.00  0.00    -0.205 F 
ATOM     75  C   UNL A   1      37.143  30.923  29.891  1.00  0.00     0.022 A 
BRANCH  73  76
ATOM     76  S   UNL A   1      37.642  29.873  32.371  1.00  0.00     0.127 S 
ATOM     77  O   UNL A   1      36.607  30.880  32.587  1.00  0.00    -0.237 OA
ATOM     78  O   UNL A   1      37.225  28.491  32.614  1.00  0.00    -0.237 OA
ATOM     79  O   UNL A   1      38.969  30.195  32.880  1.00  0.00    -0.744 OA
ENDBRANCH  73  76
ENDBRANCH  55  69
BRANCH  56  80
ATOM     80  C   UNL A   1      44.677  26.533  33.789  1.00  0.00     0.023 A 
ATOM     81  C   UNL A   1      45.901  26.896  34.391  1.00  0.00     0.012 A 
ATOM     82  C   UNL A   1      43.568  26.291  34.629  1.00  0.00     0.148 A 
ATOM     83  C   UNL A   1      46.000  27.075  35.775  1.00  0.00     0.002 A 
ATOM     84  C   UNL A   1      43.672  26.471  36.006  1.00  0.00     0.091 A 
ATOM     85  F   UNL A   1      42.392  25.978  34.070  1.00  0.00    -0.205 F 
ATOM     86  C   UNL A   1      44.883  26.880  36.580  1.00  0.00     0.022 A 
BRANCH  84  87
ATOM     87  S   UNL A   1      42.264  26.279  37.108  1.00  0.00     0.127 S 
ATOM     88  O   UNL A   1      41.787  24.940  36.756  1.00  0.00    -0.237 OA
ATOM     89  O   UNL A   1      42.894  26.379  38.422  1.00  0.00    -0.237 OA
ATOM     90  O   UNL A   1      41.341  27.352  36.764  1.00  0.00    -0.744 OA
ENDBRANCH  84  87
ENDBRANCH  56  80
BRANCH  68  91
ATOM     91  C   UNL A   1      45.365  29.280  28.170  1.00  0.00     0.023 A 
ATOM     92  C   UNL A   1      46.314  30.321  28.241  1.00  0.00     0.012 A 
ATOM     93  C   UNL A   1      45.784  27.997  27.783  1.00  0.00     0.148 A 
ATOM     94  C   UNL A   1      47.657  30.080  27.932  1.00  0.00     0.002 A 
ATOM     95  C   UNL A   1      47.126  27.749  27.533  1.00  0.00     0.091 A 
ATOM     96  F   UNL A   1      44.862  27.025  27.716  1.00  0.00    -0.205 F 
ATOM     97  C   UNL A   1      48.066  28.789  27.598  1.00  0.00     0.022 A 
BRANCH  95  98
ATOM     98  S   UNL A   1      47.732  26.084  27.257  1.00  0.00     0.127 S 
ATOM     99  O   UNL A   1      49.166  26.305  27.086  1.00  0.00    -0.237 OA
ATOM    100  O   UNL A   1      47.361  25.406  28.500  1.00  0.00    -0.237 OA
ATOM    101  O   UNL A   1      47.031  25.589  26.079  1.00  0.00    -0.744 OA
ENDBRANCH  95  98
ENDBRANCH  68  91
ENDBRANCH  42  43
ENDBRANCH  34  37
ENDBRANCH  32  33
ENDBRANCH   1  32
TORSDOF 16
ENDMDL
MODEL 2
REMARK VINA RESULT:     -12.5      3.280      8.218
REMARK SMILES CC1=Nc2c(c(C)nn2-c2ccc(F)cc2)[C@H](c2ccc(C(=O)NCCCCNC(=O)c3ccc(-c4c5nc(c(-c6cccc(S(=O)(=O)[O-])c6F)c6ccc([nH]6)c(-c6cccc(S(=O)(=O)[O-])c6F)c6nc(c(-c7cccc(S(=O)(=O)[O-])c7F)c7ccc4[nH]7)C=C6)C=C5)cc3)cc2)S1
REMARK SMILES IDX 27 1 26 2 25 3 24 4 22 5 23 6 21 8 18 9 19 10 96 11 20 12
REMARK SMILES IDX 95 13 17 14 1 15 2 16 3 17 97 18 4 19 5 20 9 21 6 22 8 23
REMARK SMILES IDX 7 24 10 25 11 26 16 27 12 28 15 29 13 30 14 31 28 32 29 33
REMARK SMILES IDX 30 34 31 36 32 37 33 38 94 39 34 40 93 41 35 42 36 43 37 44
REMARK SMILES IDX 87 45 38 46 92 47 86 48 88 49 39 50 91 51 85 52 84 53 40 55
REMARK SMILES IDX 72 56 52 57 71 58 53 59 56 60 70 61 89 62 54 63 55 64 69 66
REMARK SMILES IDX 90 67 57 68 41 69 42 70 50 71 43 72 45 73 51 74 44 75 46 76
REMARK SMILES IDX 47 77 48 78 49 79 73 80 74 81 82 82 75 83 77 84 83 85 76 86
REMARK SMILES IDX 78 87 79 88 80 89 81 90 58 91 59 92 67 93 60 94 62 95 68 96
REMARK SMILES IDX 61 97 63 98 64 99 65 100 66 101
REMARK H PARENT 24 7 29 35 88 54 56 65
REMARK Flexibility Score: inf
ROOT
ATOM      1  C   UNL A   1      34.085  28.855  25.792  1.00  0.00     0.023 C 
ENDROOT
BRANCH   1   2
ATOM      2  C   UNL A   1      33.098  29.725  24.998  1.00  0.00     0.023 C 
BRANCH   2   3
ATOM      3  C   UNL A   1      33.257  29.665  23.473  1.00  0.00     0.116 C 
BRANCH   3   4
ATOM      4  N   UNL A   1      32.045  29.179  22.846  1.00  0.00    -0.352 N 
ATOM      5  C   UNL A   1      31.376  27.989  22.944  1.00  0.00     0.251 C 
ATOM      6  O   UNL A   1      30.377  27.817  22.247  1.00  0.00    -0.269 OA
ATOM      7  H   UNL A   1      31.625  29.825  22.234  1.00  0.00     0.163 HD
BRANCH   5   8
ATOM      8  C   UNL A   1      31.782  26.907  23.877  1.00  0.00     0.039 A 
ATOM      9  C   UNL A   1      32.745  24.848  25.575  1.00  0.00    -0.030 A 
ATOM     10  C   UNL A   1      33.345  25.101  24.329  1.00  0.00     0.006 A 
ATOM     11  C   UNL A   1      31.661  25.659  25.954  1.00  0.00     0.006 A 
ATOM     12  C   UNL A   1      32.878  26.122  23.498  1.00  0.00     0.014 A 
ATOM     13  C   UNL A   1      31.193  26.680  25.120  1.00  0.00     0.014 A 
BRANCH   9  14
ATOM     14  C   UNL A   1      33.328  23.766  26.471  1.00  0.00     0.119 C 
ATOM     15  C   UNL A   1      37.040  22.938  24.844  1.00  0.00     0.075 C 
ATOM     16  C   UNL A   1      35.649  22.705  25.375  1.00  0.00     0.074 C 
ATOM     17  N   UNL A   1      34.962  21.734  24.864  1.00  0.00    -0.227 NA
ATOM     18  S   UNL A   1      35.143  23.829  26.628  1.00  0.00    -0.098 SA
ATOM     19  C   UNL A   1      33.667  21.595  25.243  1.00  0.00     0.161 A 
ATOM     20  C   UNL A   1      32.853  22.475  25.917  1.00  0.00     0.038 A 
ATOM     21  N   UNL A   1      32.865  20.527  24.874  1.00  0.00    -0.215 N 
ATOM     22  C   UNL A   1      31.568  21.872  25.898  1.00  0.00     0.067 A 
ATOM     23  N   UNL A   1      31.562  20.736  25.185  1.00  0.00    -0.171 NA
ATOM     24  C   UNL A   1      30.304  22.363  26.507  1.00  0.00     0.069 C 
BRANCH  21  25
ATOM     25  C   UNL A   1      33.282  19.323  24.260  1.00  0.00     0.067 A 
ATOM     26  C   UNL A   1      32.535  18.791  23.198  1.00  0.00     0.031 A 
ATOM     27  C   UNL A   1      34.428  18.667  24.725  1.00  0.00     0.031 A 
ATOM     28  C   UNL A   1      32.932  17.594  22.606  1.00  0.00     0.041 A 
ATOM     29  C   UNL A   1      34.786  17.441  24.162  1.00  0.00     0.041 A 
ATOM     30  C   UNL A   1      34.040  16.920  23.106  1.00  0.00     0.123 A 
ATOM     31  F   UNL A   1      34.396  15.750  22.561  1.00  0.00    -0.207 F 
ENDBRANCH  21  25
ENDBRANCH   9  14
ENDBRANCH   5   8
ENDBRANCH   3   4
ENDBRANCH   2   3
ENDBRANCH   1   2
BRANCH   1  32
ATOM     32  C   UNL A   1      34.090  29.103  27.296  1.00  0.00     0.116 C 
BRANCH  32  33
ATOM     33  N   UNL A   1      33.989  30.526  27.631  1.00  0.00    -0.352 N 
ATOM     34  C   UNL A   1      34.743  31.242  28.535  1.00  0.00     0.251 C 
ATOM     35  H   UNL A   1      33.296  31.032  27.150  1.00  0.00     0.163 HD
ATOM     36  O   UNL A   1      34.325  32.302  29.001  1.00  0.00    -0.269 OA
BRANCH  34  37
ATOM     37  C   UNL A   1      36.063  30.726  28.925  1.00  0.00     0.039 A 
ATOM     38  C   UNL A   1      36.204  29.485  29.547  1.00  0.00     0.014 A 
ATOM     39  C   UNL A   1      37.179  31.498  28.606  1.00  0.00     0.014 A 
ATOM     40  C   UNL A   1      37.486  28.984  29.759  1.00  0.00     0.010 A 
ATOM     41  C   UNL A   1      38.434  30.947  28.690  1.00  0.00     0.010 A 
ATOM     42  C   UNL A   1      38.600  29.709  29.302  1.00  0.00    -0.014 A 
BRANCH  42  43
ATOM     43  C   UNL A   1      39.933  29.112  29.332  1.00  0.00     0.031 A 
ATOM     44  C   UNL A   1      40.491  28.919  30.699  1.00  0.00     0.074 A 
ATOM     45  C   UNL A   1      40.533  28.580  28.245  1.00  0.00     0.049 A 
ATOM     46  N   UNL A   1      41.457  29.576  31.251  1.00  0.00    -0.248 NA
ATOM     47  C   UNL A   1      39.794  28.006  31.617  1.00  0.00     0.031 C 
ATOM     48  C   UNL A   1      39.972  28.402  26.900  1.00  0.00     0.029 A 
ATOM     49  N   UNL A   1      41.736  27.946  28.151  1.00  0.00    -0.354 N 
ATOM     50  C   UNL A   1      41.662  28.971  32.491  1.00  0.00     0.074 A 
ATOM     51  C   UNL A   1      40.481  28.192  32.748  1.00  0.00     0.031 C 
ATOM     52  C   UNL A   1      40.701  27.488  26.223  1.00  0.00     0.029 A 
ATOM     53  C   UNL A   1      41.877  27.165  27.006  1.00  0.00     0.049 A 
ATOM     54  H   UNL A   1      42.442  28.033  28.831  1.00  0.00     0.167 HD
ATOM     55  C   UNL A   1      42.902  28.940  33.057  1.00  0.00     0.034 A 
ATOM     56  C   UNL A   1      42.872  26.283  26.746  1.00  0.00     0.034 A 
ATOM     57  C   UNL A   1      43.795  29.857  32.390  1.00  0.00     0.049 A 
ATOM     58  C   UNL A   1      44.018  26.672  27.595  1.00  0.00     0.074 A 
ATOM     59  C   UNL A   1      43.813  31.212  32.132  1.00  0.00     0.029 A 
ATOM     60  N   UNL A   1      44.705  29.292  31.530  1.00  0.00    -0.354 N 
ATOM     61  N   UNL A   1      44.675  27.789  27.454  1.00  0.00    -0.248 NA
ATOM     62  C   UNL A   1      44.188  25.997  28.870  1.00  0.00     0.031 C 
ATOM     63  C   UNL A   1      44.386  31.330  30.831  1.00  0.00     0.029 A 
ATOM     64  C   UNL A   1      44.748  30.052  30.398  1.00  0.00     0.049 A 
ATOM     65  H   UNL A   1      45.234  28.481  31.701  1.00  0.00     0.167 HD
ATOM     66  C   UNL A   1      44.945  28.187  28.755  1.00  0.00     0.074 A 
ATOM     67  C   UNL A   1      44.746  26.988  29.566  1.00  0.00     0.031 C 
ATOM     68  C   UNL A   1      45.011  29.511  29.082  1.00  0.00     0.034 A 
BRANCH  55  69
ATOM     69  C   UNL A   1      43.467  27.807  33.902  1.00  0.00     0.023 A 
ATOM     70  C   UNL A   1      43.886  26.646  33.205  1.00  0.00     0.012 A 
ATOM     71  C   UNL A   1      43.330  27.684  35.303  1.00  0.00     0.148 A 
ATOM     72  C   UNL A   1      44.046  25.413  33.845  1.00  0.00     0.002 A 
ATOM     73  C   UNL A   1      43.566  26.473  35.947  1.00  0.00     0.091 A 
ATOM     74  F   UNL A   1      42.850  28.695  36.026  1.00  0.00    -0.205 F 
ATOM     75  C   UNL A   1      43.883  25.325  35.220  1.00  0.00     0.022 A 
BRANCH  73  76
ATOM     76  S   UNL A   1      43.423  26.312  37.733  1.00  0.00     0.127 S 
ATOM     77  O   UNL A   1      41.974  26.317  37.908  1.00  0.00    -0.237 OA
ATOM     78  O   UNL A   1      44.073  25.021  37.966  1.00  0.00    -0.237 OA
ATOM     79  O   UNL A   1      44.142  27.451  38.289  1.00  0.00    -0.744 OA
ENDBRANCH  73  76
ENDBRANCH  55  69
BRANCH  56  80
ATOM     80  C   UNL A   1      42.843  24.986  26.030  1.00  0.00     0.023 A 
ATOM     81  C   UNL A   1      43.855  24.697  25.091  1.00  0.00     0.012 A 
ATOM     82  C   UNL A   1      42.039  23.920  26.492  1.00  0.00     0.148 A 
ATOM     83  C   UNL A   1      44.100  23.384  24.674  1.00  0.00     0.002 A 
ATOM     84  C   UNL A   1      42.288  22.616  26.074  1.00  0.00     0.091 A 
ATOM     85  F   UNL A   1      41.096  24.174  27.409  1.00  0.00    -0.205 F 
ATOM     86  C   UNL A   1      43.329  22.342  25.178  1.00  0.00     0.022 A 
BRANCH  84  87
ATOM     87  S   UNL A   1      41.363  21.211  26.712  1.00  0.00     0.127 S 
ATOM     88  O   UNL A   1      42.296  20.107  26.482  1.00  0.00    -0.237 OA
ATOM     89  O   UNL A   1      41.184  21.581  28.113  1.00  0.00    -0.237 OA
ATOM     90  O   UNL A   1      40.146  21.142  25.914  1.00  0.00    -0.744 OA
ENDBRANCH  84  87
ENDBRANCH  56  80
BRANCH  68  91
ATOM     91  C   UNL A   1      45.114  30.523  27.972  1.00  0.00     0.023 A 
ATOM     92  C   UNL A   1      43.982  31.099  27.359  1.00  0.00     0.012 A 
ATOM     93  C   UNL A   1      46.383  31.065  27.711  1.00  0.00     0.148 A 
ATOM     94  C   UNL A   1      44.119  32.196  26.502  1.00  0.00     0.002 A 
ATOM     95  C   UNL A   1      46.509  32.188  26.907  1.00  0.00     0.091 A 
ATOM     96  F   UNL A   1      47.445  30.496  28.301  1.00  0.00    -0.205 F 
ATOM     97  C   UNL A   1      45.380  32.754  26.293  1.00  0.00     0.022 A 
BRANCH  95  98
ATOM     98  S   UNL A   1      48.077  33.041  26.732  1.00  0.00     0.127 S 
ATOM     99  O   UNL A   1      47.763  34.057  25.731  1.00  0.00    -0.237 OA
ATOM    100  O   UNL A   1      48.303  33.560  28.082  1.00  0.00    -0.237 OA
ATOM    101  O   UNL A   1      49.041  32.030  26.316  1.00  0.00    -0.744 OA
ENDBRANCH  95  98
ENDBRANCH  68  91
ENDBRANCH  42  43
ENDBRANCH  34  37
ENDBRANCH  32  33
ENDBRANCH   1  32
TORSDOF 16
ENDMDL
MODEL 3
REMARK VINA RESULT:     -12.2      3.164      8.425
REMARK SMILES CC1=Nc2c(c(C)nn2-c2ccc(F)cc2)[C@H](c2ccc(C(=O)NCCCCNC(=O)c3ccc(-c4c5nc(c(-c6cccc(S(=O)(=O)[O-])c6F)c6ccc([nH]6)c(-c6cccc(S(=O)(=O)[O-])c6F)c6nc(c(-c7cccc(S(=O)(=O)[O-])c7F)c7ccc4[nH]7)C=C6)C=C5)cc3)cc2)S1
REMARK SMILES IDX 27 1 26 2 25 3 24 4 22 5 23 6 21 8 18 9 19 10 96 11 20 12
REMARK SMILES IDX 95 13 17 14 1 15 2 16 3 17 97 18 4 19 5 20 9 21 6 22 8 23
REMARK SMILES IDX 7 24 10 25 11 26 16 27 12 28 15 29 13 30 14 31 28 32 29 33
REMARK SMILES IDX 30 34 31 36 32 37 33 38 94 39 34 40 93 41 35 42 36 43 37 44
REMARK SMILES IDX 87 45 38 46 92 47 86 48 88 49 39 50 91 51 85 52 84 53 40 55
REMARK SMILES IDX 72 56 52 57 71 58 53 59 56 60 70 61 89 62 54 63 55 64 69 66
REMARK SMILES IDX 90 67 57 68 41 69 42 70 50 71 43 72 45 73 51 74 44 75 46 76
REMARK SMILES IDX 47 77 48 78 49 79 73 80 74 81 82 82 75 83 77 84 83 85 76 86
REMARK SMILES IDX 78 87 79 88 80 89 81 90 58 91 59 92 67 93 60 94 62 95 68 96
REMARK SMILES IDX 61 97 63 98 64 99 65 100 66 101
REMARK H PARENT 24 7 29 35 88 54 56 65
REMARK Flexibility Score: inf
ROOT
ATOM      1  C   UNL A   1      35.122  32.769  28.002  1.00  0.00     0.023 C 
ENDROOT
BRANCH   1   2
ATOM      2  C   UNL A   1      35.501  31.323  27.647  1.00  0.00     0.023 C 
BRANCH   2   3
ATOM      3  C   UNL A   1      34.318  30.357  27.493  1.00  0.00     0.116 C 
BRANCH   3   4
ATOM      4  N   UNL A   1      33.077  31.084  27.326  1.00  0.00    -0.352 N 
ATOM      5  C   UNL A   1      31.938  30.804  26.618  1.00  0.00     0.251 C 
ATOM      6  O   UNL A   1      31.033  31.637  26.607  1.00  0.00    -0.269 OA
ATOM      7  H   UNL A   1      33.046  31.939  27.811  1.00  0.00     0.163 HD
BRANCH   5   8
ATOM      8  C   UNL A   1      31.733  29.528  25.887  1.00  0.00     0.039 A 
ATOM      9  C   UNL A   1      31.291  27.004  24.669  1.00  0.00    -0.030 A 
ATOM     10  C   UNL A   1      31.613  27.104  26.034  1.00  0.00     0.006 A 
ATOM     11  C   UNL A   1      31.183  28.197  23.934  1.00  0.00     0.006 A 
ATOM     12  C   UNL A   1      31.819  28.348  26.636  1.00  0.00     0.014 A 
ATOM     13  C   UNL A   1      31.393  29.442  24.538  1.00  0.00     0.014 A 
BRANCH   9  14
ATOM     14  C   UNL A   1      31.014  25.632  24.073  1.00  0.00     0.119 C 
ATOM     15  C   UNL A   1      30.952  23.067  27.318  1.00  0.00     0.075 C 
ATOM     16  C   UNL A   1      31.335  23.634  25.975  1.00  0.00     0.074 C 
ATOM     17  N   UNL A   1      32.544  23.432  25.556  1.00  0.00    -0.227 NA
ATOM     18  S   UNL A   1      30.057  24.527  25.163  1.00  0.00    -0.098 SA
ATOM     19  C   UNL A   1      32.936  24.043  24.411  1.00  0.00     0.161 A 
ATOM     20  C   UNL A   1      32.338  25.066  23.715  1.00  0.00     0.038 A 
ATOM     21  N   UNL A   1      34.152  23.808  23.789  1.00  0.00    -0.215 N 
ATOM     22  C   UNL A   1      33.264  25.406  22.694  1.00  0.00     0.067 A 
ATOM     23  N   UNL A   1      34.400  24.702  22.801  1.00  0.00    -0.171 NA
ATOM     24  C   UNL A   1      33.129  26.425  21.621  1.00  0.00     0.069 C 
BRANCH  21  25
ATOM     25  C   UNL A   1      35.069  22.771  24.079  1.00  0.00     0.067 A 
ATOM     26  C   UNL A   1      34.605  21.573  24.643  1.00  0.00     0.031 A 
ATOM     27  C   UNL A   1      36.431  22.954  23.814  1.00  0.00     0.031 A 
ATOM     28  C   UNL A   1      35.510  20.558  24.948  1.00  0.00     0.041 A 
ATOM     29  C   UNL A   1      37.335  21.954  24.175  1.00  0.00     0.041 A 
ATOM     30  C   UNL A   1      36.867  20.766  24.731  1.00  0.00     0.123 A 
ATOM     31  F   UNL A   1      37.738  19.804  25.063  1.00  0.00    -0.207 F 
ENDBRANCH  21  25
ENDBRANCH   9  14
ENDBRANCH   5   8
ENDBRANCH   3   4
ENDBRANCH   2   3
ENDBRANCH   1   2
BRANCH   1  32
ATOM     32  C   UNL A   1      36.247  33.594  28.617  1.00  0.00     0.116 C 
BRANCH  32  33
ATOM     33  N   UNL A   1      36.135  33.697  30.073  1.00  0.00    -0.352 N 
ATOM     34  C   UNL A   1      36.703  32.881  31.029  1.00  0.00     0.251 C 
ATOM     35  H   UNL A   1      35.587  34.440  30.411  1.00  0.00     0.163 HD
ATOM     36  O   UNL A   1      36.238  32.832  32.168  1.00  0.00    -0.269 OA
BRANCH  34  37
ATOM     37  C   UNL A   1      37.882  32.081  30.670  1.00  0.00     0.039 A 
ATOM     38  C   UNL A   1      39.167  32.624  30.703  1.00  0.00     0.014 A 
ATOM     39  C   UNL A   1      37.679  30.741  30.344  1.00  0.00     0.014 A 
ATOM     40  C   UNL A   1      40.256  31.781  30.496  1.00  0.00     0.010 A 
ATOM     41  C   UNL A   1      38.753  29.887  30.277  1.00  0.00     0.010 A 
ATOM     42  C   UNL A   1      40.043  30.404  30.312  1.00  0.00    -0.014 A 
BRANCH  42  43
ATOM     43  C   UNL A   1      41.173  29.478  30.297  1.00  0.00     0.031 A 
ATOM     44  C   UNL A   1      41.630  29.041  31.645  1.00  0.00     0.074 A 
ATOM     45  C   UNL A   1      41.640  28.893  29.171  1.00  0.00     0.049 A 
ATOM     46  N   UNL A   1      42.722  29.378  32.250  1.00  0.00    -0.248 NA
ATOM     47  C   UNL A   1      40.698  28.274  32.485  1.00  0.00     0.031 C 
ATOM     48  C   UNL A   1      41.082  28.973  27.815  1.00  0.00     0.029 A 
ATOM     49  N   UNL A   1      42.637  27.976  29.030  1.00  0.00    -0.354 N 
ATOM     50  C   UNL A   1      42.732  28.646  33.438  1.00  0.00     0.074 A 
ATOM     51  C   UNL A   1      41.384  28.185  33.628  1.00  0.00     0.031 C 
ATOM     52  C   UNL A   1      41.564  27.955  27.068  1.00  0.00     0.029 A 
ATOM     53  C   UNL A   1      42.596  27.276  27.826  1.00  0.00     0.049 A 
ATOM     54  H   UNL A   1      43.325  27.822  29.716  1.00  0.00     0.167 HD
ATOM     55  C   UNL A   1      43.908  28.248  34.002  1.00  0.00     0.034 A 
ATOM     56  C   UNL A   1      43.333  26.188  27.497  1.00  0.00     0.034 A 
ATOM     57  C   UNL A   1      45.024  28.948  33.413  1.00  0.00     0.049 A 
ATOM     58  C   UNL A   1      44.520  26.196  28.377  1.00  0.00     0.074 A 
ATOM     59  C   UNL A   1      45.401  30.266  33.265  1.00  0.00     0.029 A 
ATOM     60  N   UNL A   1      45.776  28.233  32.512  1.00  0.00    -0.354 N 
ATOM     61  N   UNL A   1      45.449  27.110  28.328  1.00  0.00    -0.248 NA
ATOM     62  C   UNL A   1      44.479  25.403  29.594  1.00  0.00     0.031 C 
ATOM     63  C   UNL A   1      46.015  30.330  31.979  1.00  0.00     0.029 A 
ATOM     64  C   UNL A   1      46.041  29.040  31.445  1.00  0.00     0.049 A 
ATOM     65  H   UNL A   1      46.071  27.300  32.619  1.00  0.00     0.167 HD
ATOM     66  C   UNL A   1      45.784  27.321  29.658  1.00  0.00     0.074 A 
ATOM     67  C   UNL A   1      45.261  26.157  30.369  1.00  0.00     0.031 C 
ATOM     68  C   UNL A   1      46.184  28.553  30.090  1.00  0.00     0.034 A 
BRANCH  55  69
ATOM     69  C   UNL A   1      44.139  26.944  34.754  1.00  0.00     0.023 A 
ATOM     70  C   UNL A   1      44.810  27.042  35.999  1.00  0.00     0.012 A 
ATOM     71  C   UNL A   1      44.026  25.650  34.200  1.00  0.00     0.148 A 
ATOM     72  C   UNL A   1      45.430  25.940  36.596  1.00  0.00     0.002 A 
ATOM     73  C   UNL A   1      44.578  24.542  34.838  1.00  0.00     0.091 A 
ATOM     74  F   UNL A   1      43.496  25.476  32.990  1.00  0.00    -0.205 F 
ATOM     75  C   UNL A   1      45.316  24.687  36.013  1.00  0.00     0.022 A 
BRANCH  73  76
ATOM     76  S   UNL A   1      44.417  22.885  34.157  1.00  0.00     0.127 S 
ATOM     77  O   UNL A   1      45.296  22.964  32.994  1.00  0.00    -0.237 OA
ATOM     78  O   UNL A   1      44.917  22.063  35.260  1.00  0.00    -0.237 OA
ATOM     79  O   UNL A   1      42.997  22.711  33.879  1.00  0.00    -0.744 OA
ENDBRANCH  73  76
ENDBRANCH  55  69
BRANCH  56  80
ATOM     80  C   UNL A   1      42.983  25.002  26.679  1.00  0.00     0.023 A 
ATOM     81  C   UNL A   1      43.923  24.509  25.750  1.00  0.00     0.012 A 
ATOM     82  C   UNL A   1      41.894  24.175  27.029  1.00  0.00     0.148 A 
ATOM     83  C   UNL A   1      43.817  23.211  25.237  1.00  0.00     0.002 A 
ATOM     84  C   UNL A   1      41.794  22.884  26.516  1.00  0.00     0.091 A 
ATOM     85  F   UNL A   1      41.013  24.618  27.935  1.00  0.00    -0.205 F 
ATOM     86  C   UNL A   1      42.764  22.393  25.632  1.00  0.00     0.022 A 
BRANCH  84  87
ATOM     87  S   UNL A   1      40.486  21.753  27.011  1.00  0.00     0.127 S 
ATOM     88  O   UNL A   1      40.844  21.469  28.401  1.00  0.00    -0.237 OA
ATOM     89  O   UNL A   1      39.294  22.580  26.841  1.00  0.00    -0.237 OA
ATOM     90  O   UNL A   1      40.594  20.607  26.119  1.00  0.00    -0.744 OA
ENDBRANCH  84  87
ENDBRANCH  56  80
BRANCH  68  91
ATOM     91  C   UNL A   1      46.573  29.586  29.067  1.00  0.00     0.023 A 
ATOM     92  C   UNL A   1      47.856  29.636  28.484  1.00  0.00     0.012 A 
ATOM     93  C   UNL A   1      45.544  30.372  28.523  1.00  0.00     0.148 A 
ATOM     94  C   UNL A   1      48.103  30.456  27.378  1.00  0.00     0.002 A 
ATOM     95  C   UNL A   1      45.777  31.139  27.392  1.00  0.00     0.091 A 
ATOM     96  F   UNL A   1      44.334  30.313  29.099  1.00  0.00    -0.205 F 
ATOM     97  C   UNL A   1      47.058  31.192  26.819  1.00  0.00     0.022 A 
BRANCH  95  98
ATOM     98  S   UNL A   1      44.440  31.977  26.539  1.00  0.00     0.127 S 
ATOM     99  O   UNL A   1      43.508  30.882  26.280  1.00  0.00    -0.237 OA
ATOM    100  O   UNL A   1      43.987  32.943  27.540  1.00  0.00    -0.237 OA
ATOM    101  O   UNL A   1      45.035  32.584  25.354  1.00  0.00    -0.744 OA
ENDBRANCH  95  98
ENDBRANCH  68  91
ENDBRANCH  42  43
ENDBRANCH  34  37
ENDBRANCH  32  33
ENDBRANCH   1  32
TORSDOF 16
ENDMDL
