MODEL 1
REMARK VINA RESULT:     -11.1      0.000      0.000
REMARK SMILES COc1ccc(C(=O)NCCCCNC(=O)c2ccc(-c3c4nc(c(-c5cccc(S(=O)(=O)[O-])c5F)c5ccc([nH]5)c(-c5cccc(S(=O)(=O)[O-])c5F)c5nc(c(-c6cccc(S(=O)(=O)[O-])c6F)c6ccc3[nH]6)C=C5)C=C4)cc2)cc1C(F)(F)F
REMARK SMILES IDX 12 1 11 2 10 3 9 4 7 5 8 6 6 8 3 9 4 10 81 11 5 12 80 13
REMARK SMILES IDX 2 14 1 15 82 16 83 17 84 18 85 19 13 20 14 21 15 22 16 24
REMARK SMILES IDX 17 25 18 26 79 27 19 28 78 29 20 30 21 31 22 32 72 33 23 34
REMARK SMILES IDX 77 35 71 36 73 37 24 38 76 39 70 40 69 41 25 43 57 44 37 45
REMARK SMILES IDX 56 46 38 47 41 48 55 49 74 50 39 51 40 52 54 54 75 55 42 56
REMARK SMILES IDX 26 57 27 58 35 59 28 60 30 61 36 62 29 63 31 64 32 65 33 66
REMARK SMILES IDX 34 67 58 68 59 69 67 70 60 71 62 72 68 73 61 74 63 75 64 76
REMARK SMILES IDX 65 77 66 78 43 79 44 80 52 81 45 82 47 83 53 84 46 85 48 86
REMARK SMILES IDX 49 87 50 88 51 89
REMARK H PARENT 9 7 14 23 73 42 41 53
REMARK Flexibility Score: inf
ROOT
ATOM      1  C   UNL A   1      33.378  27.496  25.994  1.00  0.00     0.023 C 
ENDROOT
BRANCH   1   2
ATOM      2  C   UNL A   1      31.992  27.787  25.410  1.00  0.00     0.023 C 
BRANCH   2   3
ATOM      3  C   UNL A   1      31.526  26.743  24.392  1.00  0.00     0.116 C 
BRANCH   3   4
ATOM      4  N   UNL A   1      32.337  26.819  23.192  1.00  0.00    -0.352 N 
ATOM      5  C   UNL A   1      33.267  25.975  22.638  1.00  0.00     0.251 C 
ATOM      6  O   UNL A   1      33.814  26.335  21.596  1.00  0.00    -0.269 OA
ATOM      7  H   UNL A   1      32.189  27.640  22.669  1.00  0.00     0.163 HD
BRANCH   5   8
ATOM      8  C   UNL A   1      33.599  24.631  23.194  1.00  0.00     0.040 A 
ATOM      9  C   UNL A   1      34.017  22.031  24.291  1.00  0.00     0.131 A 
ATOM     10  C   UNL A   1      33.083  22.273  23.263  1.00  0.00     0.048 A 
ATOM     11  C   UNL A   1      34.769  23.105  24.772  1.00  0.00     0.098 A 
ATOM     12  C   UNL A   1      32.853  23.548  22.743  1.00  0.00     0.017 A 
ATOM     13  C   UNL A   1      34.593  24.371  24.136  1.00  0.00     0.030 A 
BRANCH   9  14
ATOM     14  O   UNL A   1      34.024  20.702  24.589  1.00  0.00    -0.496 OA
ATOM     15  C   UNL A   1      32.933  19.858  24.296  1.00  0.00     0.278 C 
ENDBRANCH   9  14
BRANCH  11  16
ATOM     16  C   UNL A   1      35.776  23.165  25.897  1.00  0.00     0.419 C 
ATOM     17  F   UNL A   1      36.517  24.309  25.864  1.00  0.00    -0.166 F 
ATOM     18  F   UNL A   1      35.145  23.188  27.115  1.00  0.00    -0.166 F 
ATOM     19  F   UNL A   1      36.666  22.151  26.011  1.00  0.00    -0.166 F 
ENDBRANCH  11  16
ENDBRANCH   5   8
ENDBRANCH   3   4
ENDBRANCH   2   3
ENDBRANCH   1   2
BRANCH   1  20
ATOM     20  C   UNL A   1      34.367  28.655  25.893  1.00  0.00     0.116 C 
BRANCH  20  21
ATOM     21  N   UNL A   1      33.870  29.879  26.503  1.00  0.00    -0.352 N 
ATOM     22  C   UNL A   1      34.416  30.612  27.524  1.00  0.00     0.251 C 
ATOM     23  H   UNL A   1      33.027  30.228  26.132  1.00  0.00     0.163 HD
ATOM     24  O   UNL A   1      33.786  31.555  28.001  1.00  0.00    -0.269 OA
BRANCH  22  25
ATOM     25  C   UNL A   1      35.740  30.248  28.072  1.00  0.00     0.039 A 
ATOM     26  C   UNL A   1      35.794  29.612  29.313  1.00  0.00     0.014 A 
ATOM     27  C   UNL A   1      36.918  30.521  27.370  1.00  0.00     0.014 A 
ATOM     28  C   UNL A   1      37.026  29.211  29.828  1.00  0.00     0.010 A 
ATOM     29  C   UNL A   1      38.137  30.046  27.848  1.00  0.00     0.010 A 
ATOM     30  C   UNL A   1      38.207  29.396  29.087  1.00  0.00    -0.014 A 
BRANCH  30  31
ATOM     31  C   UNL A   1      39.501  28.882  29.605  1.00  0.00     0.031 A 
ATOM     32  C   UNL A   1      40.187  29.543  30.772  1.00  0.00     0.074 A 
ATOM     33  C   UNL A   1      40.079  27.827  28.994  1.00  0.00     0.049 A 
ATOM     34  N   UNL A   1      41.272  29.173  31.400  1.00  0.00    -0.248 NA
ATOM     35  C   UNL A   1      39.595  30.788  31.290  1.00  0.00     0.031 C 
ATOM     36  C   UNL A   1      39.570  27.166  27.789  1.00  0.00     0.029 A 
ATOM     37  N   UNL A   1      41.223  27.132  29.294  1.00  0.00    -0.354 N 
ATOM     38  C   UNL A   1      41.514  30.151  32.359  1.00  0.00     0.074 A 
ATOM     39  C   UNL A   1      40.476  31.147  32.215  1.00  0.00     0.031 C 
ATOM     40  C   UNL A   1      40.383  26.145  27.469  1.00  0.00     0.029 A 
ATOM     41  C   UNL A   1      41.481  26.095  28.426  1.00  0.00     0.049 A 
ATOM     42  H   UNL A   1      41.803  27.353  30.057  1.00  0.00     0.167 HD
ATOM     43  C   UNL A   1      42.495  30.201  33.289  1.00  0.00     0.034 A 
ATOM     44  C   UNL A   1      42.490  25.201  28.406  1.00  0.00     0.034 A 
ATOM     45  C   UNL A   1      43.500  29.185  33.458  1.00  0.00     0.049 A 
ATOM     46  C   UNL A   1      43.522  25.246  29.501  1.00  0.00     0.074 A 
ATOM     47  C   UNL A   1      44.464  29.088  34.446  1.00  0.00     0.029 A 
ATOM     48  N   UNL A   1      43.686  28.105  32.612  1.00  0.00    -0.354 N 
ATOM     49  N   UNL A   1      43.609  26.061  30.524  1.00  0.00    -0.248 NA
ATOM     50  C   UNL A   1      44.572  24.219  29.461  1.00  0.00     0.031 C 
ATOM     51  C   UNL A   1      45.260  27.971  34.172  1.00  0.00     0.029 A 
ATOM     52  C   UNL A   1      44.763  27.347  33.040  1.00  0.00     0.049 A 
ATOM     53  H   UNL A   1      43.133  27.906  31.821  1.00  0.00     0.167 HD
ATOM     54  C   UNL A   1      44.700  25.623  31.267  1.00  0.00     0.074 A 
ATOM     55  C   UNL A   1      45.214  24.447  30.597  1.00  0.00     0.031 C 
ATOM     56  C   UNL A   1      45.240  26.156  32.390  1.00  0.00     0.034 A 
BRANCH  43  57
ATOM     57  C   UNL A   1      42.523  31.371  34.237  1.00  0.00     0.023 A 
ATOM     58  C   UNL A   1      43.301  32.506  33.930  1.00  0.00     0.012 A 
ATOM     59  C   UNL A   1      41.690  31.391  35.374  1.00  0.00     0.148 A 
ATOM     60  C   UNL A   1      43.263  33.635  34.748  1.00  0.00     0.002 A 
ATOM     61  C   UNL A   1      41.623  32.536  36.157  1.00  0.00     0.091 A 
ATOM     62  F   UNL A   1      40.974  30.294  35.658  1.00  0.00    -0.205 F 
ATOM     63  C   UNL A   1      42.415  33.656  35.852  1.00  0.00     0.022 A 
BRANCH  61  64
ATOM     64  S   UNL A   1      40.498  32.697  37.549  1.00  0.00     0.127 S 
ATOM     65  O   UNL A   1      41.330  32.228  38.656  1.00  0.00    -0.237 OA
ATOM     66  O   UNL A   1      40.226  34.134  37.556  1.00  0.00    -0.237 OA
ATOM     67  O   UNL A   1      39.349  31.858  37.240  1.00  0.00    -0.744 OA
ENDBRANCH  61  64
ENDBRANCH  43  57
BRANCH  44  68
ATOM     68  C   UNL A   1      42.551  24.151  27.350  1.00  0.00     0.023 A 
ATOM     69  C   UNL A   1      43.419  24.313  26.251  1.00  0.00     0.012 A 
ATOM     70  C   UNL A   1      41.736  23.005  27.414  1.00  0.00     0.148 A 
ATOM     71  C   UNL A   1      43.433  23.384  25.211  1.00  0.00     0.002 A 
ATOM     72  C   UNL A   1      41.802  22.050  26.406  1.00  0.00     0.091 A 
ATOM     73  F   UNL A   1      40.907  22.871  28.459  1.00  0.00    -0.205 F 
ATOM     74  C   UNL A   1      42.631  22.250  25.291  1.00  0.00     0.022 A 
BRANCH  72  75
ATOM     75  S   UNL A   1      40.905  20.498  26.503  1.00  0.00     0.127 S 
ATOM     76  O   UNL A   1      39.569  20.897  26.069  1.00  0.00    -0.237 OA
ATOM     77  O   UNL A   1      41.639  19.663  25.552  1.00  0.00    -0.237 OA
ATOM     78  O   UNL A   1      41.024  20.067  27.890  1.00  0.00    -0.744 OA
ENDBRANCH  72  75
ENDBRANCH  44  68
BRANCH  56  79
ATOM     79  C   UNL A   1      46.430  25.449  32.987  1.00  0.00     0.023 A 
ATOM     80  C   UNL A   1      47.736  25.873  32.666  1.00  0.00     0.012 A 
ATOM     81  C   UNL A   1      46.255  24.379  33.886  1.00  0.00     0.148 A 
ATOM     82  C   UNL A   1      48.846  25.207  33.183  1.00  0.00     0.002 A 
ATOM     83  C   UNL A   1      47.366  23.758  34.443  1.00  0.00     0.091 A 
ATOM     84  F   UNL A   1      45.007  23.978  34.170  1.00  0.00    -0.205 F 
ATOM     85  C   UNL A   1      48.661  24.156  34.078  1.00  0.00     0.022 A 
BRANCH  83  86
ATOM     86  S   UNL A   1      47.219  22.466  35.682  1.00  0.00     0.127 S 
ATOM     87  O   UNL A   1      46.590  21.390  34.919  1.00  0.00    -0.237 OA
ATOM     88  O   UNL A   1      48.615  22.221  36.043  1.00  0.00    -0.237 OA
ATOM     89  O   UNL A   1      46.411  23.031  36.755  1.00  0.00    -0.744 OA
ENDBRANCH  83  86
ENDBRANCH  56  79
ENDBRANCH  30  31
ENDBRANCH  22  25
ENDBRANCH  20  21
ENDBRANCH   1  20
TORSDOF 16
ENDMDL
MODEL 2
REMARK VINA RESULT:     -11.0      2.248      2.900
REMARK SMILES COc1ccc(C(=O)NCCCCNC(=O)c2ccc(-c3c4nc(c(-c5cccc(S(=O)(=O)[O-])c5F)c5ccc([nH]5)c(-c5cccc(S(=O)(=O)[O-])c5F)c5nc(c(-c6cccc(S(=O)(=O)[O-])c6F)c6ccc3[nH]6)C=C5)C=C4)cc2)cc1C(F)(F)F
REMARK SMILES IDX 12 1 11 2 10 3 9 4 7 5 8 6 6 8 3 9 4 10 81 11 5 12 80 13
REMARK SMILES IDX 2 14 1 15 82 16 83 17 84 18 85 19 13 20 14 21 15 22 16 24
REMARK SMILES IDX 17 25 18 26 79 27 19 28 78 29 20 30 21 31 22 32 72 33 23 34
REMARK SMILES IDX 77 35 71 36 73 37 24 38 76 39 70 40 69 41 25 43 57 44 37 45
REMARK SMILES IDX 56 46 38 47 41 48 55 49 74 50 39 51 40 52 54 54 75 55 42 56
REMARK SMILES IDX 26 57 27 58 35 59 28 60 30 61 36 62 29 63 31 64 32 65 33 66
REMARK SMILES IDX 34 67 58 68 59 69 67 70 60 71 62 72 68 73 61 74 63 75 64 76
REMARK SMILES IDX 65 77 66 78 43 79 44 80 52 81 45 82 47 83 53 84 46 85 48 86
REMARK SMILES IDX 49 87 50 88 51 89
REMARK H PARENT 9 7 14 23 73 42 41 53
REMARK Flexibility Score: inf
ROOT
ATOM      1  C   UNL A   1      32.001  28.329  25.066  1.00  0.00     0.023 C 
ENDROOT
BRANCH   1   2
ATOM      2  C   UNL A   1      30.926  28.625  24.015  1.00  0.00     0.023 C 
BRANCH   2   3
ATOM      3  C   UNL A   1      30.679  27.464  23.049  1.00  0.00     0.116 C 
BRANCH   3   4
ATOM      4  N   UNL A   1      31.847  27.251  22.215  1.00  0.00    -0.352 N 
ATOM      5  C   UNL A   1      32.726  26.205  22.089  1.00  0.00     0.251 C 
ATOM      6  O   UNL A   1      33.653  26.332  21.289  1.00  0.00    -0.269 OA
ATOM      7  H   UNL A   1      32.048  28.008  21.619  1.00  0.00     0.163 HD
BRANCH   5   8
ATOM      8  C   UNL A   1      32.581  24.910  22.817  1.00  0.00     0.040 A 
ATOM      9  C   UNL A   1      32.201  22.356  24.030  1.00  0.00     0.131 A 
ATOM     10  C   UNL A   1      32.761  22.503  22.744  1.00  0.00     0.048 A 
ATOM     11  C   UNL A   1      31.836  23.508  24.730  1.00  0.00     0.098 A 
ATOM     12  C   UNL A   1      32.922  23.749  22.133  1.00  0.00     0.017 A 
ATOM     13  C   UNL A   1      32.125  24.768  24.126  1.00  0.00     0.030 A 
BRANCH   9  14
ATOM     14  O   UNL A   1      32.171  21.036  24.359  1.00  0.00    -0.496 OA
ATOM     15  C   UNL A   1      33.122  20.453  25.223  1.00  0.00     0.278 C 
ENDBRANCH   9  14
BRANCH  11  16
ATOM     16  C   UNL A   1      31.158  23.660  26.073  1.00  0.00     0.419 C 
ATOM     17  F   UNL A   1      32.037  23.542  27.109  1.00  0.00    -0.166 F 
ATOM     18  F   UNL A   1      30.619  24.914  26.207  1.00  0.00    -0.166 F 
ATOM     19  F   UNL A   1      30.129  22.829  26.365  1.00  0.00    -0.166 F 
ENDBRANCH  11  16
ENDBRANCH   5   8
ENDBRANCH   3   4
ENDBRANCH   2   3
ENDBRANCH   1   2
BRANCH   1  20
ATOM     20  C   UNL A   1      33.068  29.411  25.207  1.00  0.00     0.116 C 
BRANCH  20  21
ATOM     21  N   UNL A   1      32.559  30.635  25.807  1.00  0.00    -0.352 N 
ATOM     22  C   UNL A   1      33.048  31.333  26.880  1.00  0.00     0.251 C 
ATOM     23  H   UNL A   1      31.754  31.013  25.384  1.00  0.00     0.163 HD
ATOM     24  O   UNL A   1      32.409  32.282  27.331  1.00  0.00    -0.269 OA
BRANCH  22  25
ATOM     25  C   UNL A   1      34.319  30.923  27.513  1.00  0.00     0.039 A 
ATOM     26  C   UNL A   1      35.320  31.882  27.677  1.00  0.00     0.014 A 
ATOM     27  C   UNL A   1      34.525  29.611  27.950  1.00  0.00     0.014 A 
ATOM     28  C   UNL A   1      36.508  31.534  28.319  1.00  0.00     0.010 A 
ATOM     29  C   UNL A   1      35.678  29.288  28.661  1.00  0.00     0.010 A 
ATOM     30  C   UNL A   1      36.687  30.242  28.845  1.00  0.00    -0.014 A 
BRANCH  30  31
ATOM     31  C   UNL A   1      37.919  29.912  29.606  1.00  0.00     0.031 A 
ATOM     32  C   UNL A   1      38.132  30.435  31.002  1.00  0.00     0.074 A 
ATOM     33  C   UNL A   1      38.871  29.160  29.017  1.00  0.00     0.049 A 
ATOM     34  N   UNL A   1      39.107  30.174  31.834  1.00  0.00    -0.248 NA
ATOM     35  C   UNL A   1      37.139  31.387  31.530  1.00  0.00     0.031 C 
ATOM     36  C   UNL A   1      38.833  28.682  27.631  1.00  0.00     0.029 A 
ATOM     37  N   UNL A   1      40.058  28.672  29.501  1.00  0.00    -0.354 N 
ATOM     38  C   UNL A   1      38.867  30.951  32.963  1.00  0.00     0.074 A 
ATOM     39  C   UNL A   1      37.667  31.714  32.701  1.00  0.00     0.031 C 
ATOM     40  C   UNL A   1      39.932  27.948  27.388  1.00  0.00     0.029 A 
ATOM     41  C   UNL A   1      40.763  27.924  28.585  1.00  0.00     0.049 A 
ATOM     42  H   UNL A   1      40.376  28.840  30.418  1.00  0.00     0.167 HD
ATOM     43  C   UNL A   1      39.568  31.005  34.119  1.00  0.00     0.034 A 
ATOM     44  C   UNL A   1      41.945  27.287  28.699  1.00  0.00     0.034 A 
ATOM     45  C   UNL A   1      40.736  30.210  34.392  1.00  0.00     0.049 A 
ATOM     46  C   UNL A   1      42.659  27.312  30.024  1.00  0.00     0.074 A 
ATOM     47  C   UNL A   1      41.446  30.107  35.576  1.00  0.00     0.029 A 
ATOM     48  N   UNL A   1      41.379  29.401  33.470  1.00  0.00    -0.354 N 
ATOM     49  N   UNL A   1      42.301  27.886  31.146  1.00  0.00    -0.248 NA
ATOM     50  C   UNL A   1      43.919  26.561  30.109  1.00  0.00     0.031 C 
ATOM     51  C   UNL A   1      42.543  29.268  35.356  1.00  0.00     0.029 A 
ATOM     52  C   UNL A   1      42.490  28.813  34.049  1.00  0.00     0.049 A 
ATOM     53  H   UNL A   1      41.088  29.266  32.539  1.00  0.00     0.167 HD
ATOM     54  C   UNL A   1      43.272  27.538  32.078  1.00  0.00     0.074 A 
ATOM     55  C   UNL A   1      44.209  26.669  31.397  1.00  0.00     0.031 C 
ATOM     56  C   UNL A   1      43.391  27.917  33.374  1.00  0.00     0.034 A 
BRANCH  43  57
ATOM     57  C   UNL A   1      39.079  31.922  35.209  1.00  0.00     0.023 A 
ATOM     58  C   UNL A   1      38.161  31.447  36.167  1.00  0.00     0.012 A 
ATOM     59  C   UNL A   1      39.616  33.217  35.348  1.00  0.00     0.148 A 
ATOM     60  C   UNL A   1      37.772  32.252  37.238  1.00  0.00     0.002 A 
ATOM     61  C   UNL A   1      39.260  33.996  36.442  1.00  0.00     0.091 A 
ATOM     62  F   UNL A   1      40.472  33.656  34.415  1.00  0.00    -0.205 F 
ATOM     63  C   UNL A   1      38.331  33.519  37.383  1.00  0.00     0.022 A 
BRANCH  61  64
ATOM     64  S   UNL A   1      39.988  35.606  36.769  1.00  0.00     0.127 S 
ATOM     65  O   UNL A   1      39.339  35.973  38.027  1.00  0.00    -0.237 OA
ATOM     66  O   UNL A   1      41.409  35.278  36.889  1.00  0.00    -0.237 OA
ATOM     67  O   UNL A   1      39.647  36.443  35.629  1.00  0.00    -0.744 OA
ENDBRANCH  61  64
ENDBRANCH  43  57
BRANCH  44  68
ATOM     68  C   UNL A   1      42.511  26.527  27.548  1.00  0.00     0.023 A 
ATOM     69  C   UNL A   1      43.383  27.169  26.646  1.00  0.00     0.012 A 
ATOM     70  C   UNL A   1      42.169  25.180  27.328  1.00  0.00     0.148 A 
ATOM     71  C   UNL A   1      43.858  26.500  25.517  1.00  0.00     0.002 A 
ATOM     72  C   UNL A   1      42.697  24.500  26.237  1.00  0.00     0.091 A 
ATOM     73  F   UNL A   1      41.328  24.587  28.188  1.00  0.00    -0.205 F 
ATOM     74  C   UNL A   1      43.522  25.165  25.317  1.00  0.00     0.022 A 
BRANCH  72  75
ATOM     75  S   UNL A   1      42.424  22.744  25.985  1.00  0.00     0.127 S 
ATOM     76  O   UNL A   1      40.971  22.649  26.087  1.00  0.00    -0.237 OA
ATOM     77  O   UNL A   1      42.962  22.543  24.639  1.00  0.00    -0.237 OA
ATOM     78  O   UNL A   1      43.183  22.078  27.035  1.00  0.00    -0.744 OA
ENDBRANCH  72  75
ENDBRANCH  44  68
BRANCH  56  79
ATOM     79  C   UNL A   1      44.558  27.365  34.152  1.00  0.00     0.023 A 
ATOM     80  C   UNL A   1      45.803  28.024  34.119  1.00  0.00     0.012 A 
ATOM     81  C   UNL A   1      44.414  26.204  34.936  1.00  0.00     0.148 A 
ATOM     82  C   UNL A   1      46.900  27.505  34.805  1.00  0.00     0.002 A 
ATOM     83  C   UNL A   1      45.496  25.725  35.665  1.00  0.00     0.091 A 
ATOM     84  F   UNL A   1      43.228  25.579  34.946  1.00  0.00    -0.205 F 
ATOM     85  C   UNL A   1      46.745  26.361  35.585  1.00  0.00     0.022 A 
BRANCH  83  86
ATOM     86  S   UNL A   1      45.357  24.320  36.775  1.00  0.00     0.127 S 
ATOM     87  O   UNL A   1      45.019  23.241  35.849  1.00  0.00    -0.237 OA
ATOM     88  O   UNL A   1      46.704  24.238  37.342  1.00  0.00    -0.237 OA
ATOM     89  O   UNL A   1      44.320  24.671  37.736  1.00  0.00    -0.744 OA
ENDBRANCH  83  86
ENDBRANCH  56  79
ENDBRANCH  30  31
ENDBRANCH  22  25
ENDBRANCH  20  21
ENDBRANCH   1  20
TORSDOF 16
ENDMDL
MODEL 3
REMARK VINA RESULT:     -11.0      2.222      2.963
REMARK SMILES COc1ccc(C(=O)NCCCCNC(=O)c2ccc(-c3c4nc(c(-c5cccc(S(=O)(=O)[O-])c5F)c5ccc([nH]5)c(-c5cccc(S(=O)(=O)[O-])c5F)c5nc(c(-c6cccc(S(=O)(=O)[O-])c6F)c6ccc3[nH]6)C=C5)C=C4)cc2)cc1C(F)(F)F
REMARK SMILES IDX 12 1 11 2 10 3 9 4 7 5 8 6 6 8 3 9 4 10 81 11 5 12 80 13
REMARK SMILES IDX 2 14 1 15 82 16 83 17 84 18 85 19 13 20 14 21 15 22 16 24
REMARK SMILES IDX 17 25 18 26 79 27 19 28 78 29 20 30 21 31 22 32 72 33 23 34
REMARK SMILES IDX 77 35 71 36 73 37 24 38 76 39 70 40 69 41 25 43 57 44 37 45
REMARK SMILES IDX 56 46 38 47 41 48 55 49 74 50 39 51 40 52 54 54 75 55 42 56
REMARK SMILES IDX 26 57 27 58 35 59 28 60 30 61 36 62 29 63 31 64 32 65 33 66
REMARK SMILES IDX 34 67 58 68 59 69 67 70 60 71 62 72 68 73 61 74 63 75 64 76
REMARK SMILES IDX 65 77 66 78 43 79 44 80 52 81 45 82 47 83 53 84 46 85 48 86
REMARK SMILES IDX 49 87 50 88 51 89
REMARK H PARENT 9 7 14 23 73 42 41 53
REMARK Flexibility Score: inf
ROOT
ATOM      1  C   UNL A   1      33.462  28.740  23.474  1.00  0.00     0.023 C 
ENDROOT
BRANCH   1   2
ATOM      2  C   UNL A   1      32.033  28.796  22.923  1.00  0.00     0.023 C 
BRANCH   2   3
ATOM      3  C   UNL A   1      31.396  27.417  22.733  1.00  0.00     0.116 C 
BRANCH   3   4
ATOM      4  N   UNL A   1      31.951  26.768  21.560  1.00  0.00    -0.352 N 
ATOM      5  C   UNL A   1      32.735  25.655  21.391  1.00  0.00     0.251 C 
ATOM      6  O   UNL A   1      33.067  25.360  20.244  1.00  0.00    -0.269 OA
ATOM      7  H   UNL A   1      31.716  27.216  20.715  1.00  0.00     0.163 HD
BRANCH   5   8
ATOM      8  C   UNL A   1      33.147  24.757  22.509  1.00  0.00     0.040 A 
ATOM      9  C   UNL A   1      34.144  23.079  24.590  1.00  0.00     0.131 A 
ATOM     10  C   UNL A   1      34.601  24.400  24.404  1.00  0.00     0.048 A 
ATOM     11  C   UNL A   1      33.159  22.590  23.729  1.00  0.00     0.098 A 
ATOM     12  C   UNL A   1      34.138  25.215  23.369  1.00  0.00     0.017 A 
ATOM     13  C   UNL A   1      32.623  23.489  22.759  1.00  0.00     0.030 A 
BRANCH   9  14
ATOM     14  O   UNL A   1      34.769  22.535  25.670  1.00  0.00    -0.496 OA
ATOM     15  C   UNL A   1      36.135  22.756  25.942  1.00  0.00     0.278 C 
ENDBRANCH   9  14
BRANCH  11  16
ATOM     16  C   UNL A   1      32.536  21.215  23.640  1.00  0.00     0.419 C 
ATOM     17  F   UNL A   1      33.462  20.222  23.756  1.00  0.00    -0.166 F 
ATOM     18  F   UNL A   1      31.664  21.008  24.678  1.00  0.00    -0.166 F 
ATOM     19  F   UNL A   1      31.808  20.916  22.538  1.00  0.00    -0.166 F 
ENDBRANCH  11  16
ENDBRANCH   5   8
ENDBRANCH   3   4
ENDBRANCH   2   3
ENDBRANCH   1   2
BRANCH   1  20
ATOM     20  C   UNL A   1      33.572  28.960  24.981  1.00  0.00     0.116 C 
BRANCH  20  21
ATOM     21  N   UNL A   1      32.818  30.117  25.441  1.00  0.00    -0.352 N 
ATOM     22  C   UNL A   1      33.036  30.898  26.546  1.00  0.00     0.251 C 
ATOM     23  H   UNL A   1      32.047  30.372  24.885  1.00  0.00     0.163 HD
ATOM     24  O   UNL A   1      32.214  31.761  26.852  1.00  0.00    -0.269 OA
BRANCH  22  25
ATOM     25  C   UNL A   1      34.234  30.680  27.383  1.00  0.00     0.039 A 
ATOM     26  C   UNL A   1      34.460  29.403  27.900  1.00  0.00     0.014 A 
ATOM     27  C   UNL A   1      35.133  31.717  27.653  1.00  0.00     0.014 A 
ATOM     28  C   UNL A   1      35.610  29.158  28.649  1.00  0.00     0.010 A 
ATOM     29  C   UNL A   1      36.319  31.449  28.331  1.00  0.00     0.010 A 
ATOM     30  C   UNL A   1      36.567  30.170  28.847  1.00  0.00    -0.014 A 
BRANCH  30  31
ATOM     31  C   UNL A   1      37.830  29.871  29.568  1.00  0.00     0.031 A 
ATOM     32  C   UNL A   1      38.079  30.409  30.953  1.00  0.00     0.074 A 
ATOM     33  C   UNL A   1      38.778  29.134  28.952  1.00  0.00     0.049 A 
ATOM     34  N   UNL A   1      39.087  30.175  31.753  1.00  0.00    -0.248 NA
ATOM     35  C   UNL A   1      37.085  31.343  31.507  1.00  0.00     0.031 C 
ATOM     36  C   UNL A   1      38.703  28.645  27.571  1.00  0.00     0.029 A 
ATOM     37  N   UNL A   1      39.991  28.675  29.399  1.00  0.00    -0.354 N 
ATOM     38  C   UNL A   1      38.869  30.955  32.883  1.00  0.00     0.074 A 
ATOM     39  C   UNL A   1      37.645  31.691  32.657  1.00  0.00     0.031 C 
ATOM     40  C   UNL A   1      39.808  27.933  27.296  1.00  0.00     0.029 A 
ATOM     41  C   UNL A   1      40.680  27.936  28.465  1.00  0.00     0.049 A 
ATOM     42  H   UNL A   1      40.335  28.857  30.303  1.00  0.00     0.167 HD
ATOM     43  C   UNL A   1      39.607  31.032  34.014  1.00  0.00     0.034 A 
ATOM     44  C   UNL A   1      41.878  27.324  28.543  1.00  0.00     0.034 A 
ATOM     45  C   UNL A   1      40.801  30.264  34.253  1.00  0.00     0.049 A 
ATOM     46  C   UNL A   1      42.636  27.373  29.843  1.00  0.00     0.074 A 
ATOM     47  C   UNL A   1      41.552  30.184  35.413  1.00  0.00     0.029 A 
ATOM     48  N   UNL A   1      41.429  29.462  33.315  1.00  0.00    -0.354 N 
ATOM     49  N   UNL A   1      42.304  27.949  30.973  1.00  0.00    -0.248 NA
ATOM     50  C   UNL A   1      43.913  26.650  29.890  1.00  0.00     0.031 C 
ATOM     51  C   UNL A   1      42.658  29.367  35.162  1.00  0.00     0.029 A 
ATOM     52  C   UNL A   1      42.571  28.901  33.861  1.00  0.00     0.049 A 
ATOM     53  H   UNL A   1      41.109  29.313  32.396  1.00  0.00     0.167 HD
ATOM     54  C   UNL A   1      43.313  27.628  31.873  1.00  0.00     0.074 A 
ATOM     55  C   UNL A   1      44.245  26.774  31.167  1.00  0.00     0.031 C 
ATOM     56  C   UNL A   1      43.467  28.019  33.162  1.00  0.00     0.034 A 
BRANCH  43  57
ATOM     57  C   UNL A   1      39.137  31.947  35.114  1.00  0.00     0.023 A 
ATOM     58  C   UNL A   1      39.191  33.344  34.937  1.00  0.00     0.012 A 
ATOM     59  C   UNL A   1      38.539  31.420  36.277  1.00  0.00     0.148 A 
ATOM     60  C   UNL A   1      38.671  34.204  35.904  1.00  0.00     0.002 A 
ATOM     61  C   UNL A   1      37.982  32.281  37.214  1.00  0.00     0.091 A 
ATOM     62  F   UNL A   1      38.517  30.090  36.435  1.00  0.00    -0.205 F 
ATOM     63  C   UNL A   1      38.055  33.673  37.035  1.00  0.00     0.022 A 
BRANCH  61  64
ATOM     64  S   UNL A   1      37.090  31.698  38.661  1.00  0.00     0.127 S 
ATOM     65  O   UNL A   1      38.084  31.887  39.716  1.00  0.00    -0.237 OA
ATOM     66  O   UNL A   1      35.959  32.624  38.714  1.00  0.00    -0.237 OA
ATOM     67  O   UNL A   1      36.735  30.313  38.386  1.00  0.00    -0.744 OA
ENDBRANCH  61  64
ENDBRANCH  43  57
BRANCH  44  68
ATOM     68  C   UNL A   1      42.420  26.568  27.378  1.00  0.00     0.023 A 
ATOM     69  C   UNL A   1      43.162  27.243  26.388  1.00  0.00     0.012 A 
ATOM     70  C   UNL A   1      42.184  25.187  27.234  1.00  0.00     0.148 A 
ATOM     71  C   UNL A   1      43.608  26.570  25.250  1.00  0.00     0.002 A 
ATOM     72  C   UNL A   1      42.687  24.510  26.130  1.00  0.00     0.091 A 
ATOM     73  F   UNL A   1      41.467  24.562  28.178  1.00  0.00    -0.205 F 
ATOM     74  C   UNL A   1      43.378  25.204  25.124  1.00  0.00     0.022 A 
BRANCH  72  75
ATOM     75  S   UNL A   1      42.553  22.728  25.962  1.00  0.00     0.127 S 
ATOM     76  O   UNL A   1      43.313  22.261  27.118  1.00  0.00    -0.237 OA
ATOM     77  O   UNL A   1      41.107  22.522  26.052  1.00  0.00    -0.237 OA
ATOM     78  O   UNL A   1      43.119  22.416  24.657  1.00  0.00    -0.744 OA
ENDBRANCH  72  75
ENDBRANCH  44  68
BRANCH  56  79
ATOM     79  C   UNL A   1      44.672  27.497  33.903  1.00  0.00     0.023 A 
ATOM     80  C   UNL A   1      45.887  28.210  33.865  1.00  0.00     0.012 A 
ATOM     81  C   UNL A   1      44.591  26.311  34.660  1.00  0.00     0.148 A 
ATOM     82  C   UNL A   1      47.018  27.720  34.517  1.00  0.00     0.002 A 
ATOM     83  C   UNL A   1      45.707  25.861  35.355  1.00  0.00     0.091 A 
ATOM     84  F   UNL A   1      43.433  25.637  34.674  1.00  0.00    -0.205 F 
ATOM     85  C   UNL A   1      46.925  26.551  35.269  1.00  0.00     0.022 A 
BRANCH  83  86
ATOM     86  S   UNL A   1      45.648  24.423  36.430  1.00  0.00     0.127 S 
ATOM     87  O   UNL A   1      44.587  24.792  37.365  1.00  0.00    -0.237 OA
ATOM     88  O   UNL A   1      45.294  23.352  35.498  1.00  0.00    -0.237 OA
ATOM     89  O   UNL A   1      46.980  24.301  37.008  1.00  0.00    -0.744 OA
ENDBRANCH  83  86
ENDBRANCH  56  79
ENDBRANCH  30  31
ENDBRANCH  22  25
ENDBRANCH  20  21
ENDBRANCH   1  20
TORSDOF 16
ENDMDL
