MODEL 1
REMARK VINA RESULT:     -12.7      0.000      0.000
REMARK SMILES Cc1c(Br)c(C)c2c(c1Br)O[C@H](C(F)(F)F)C(C(=O)NCCCCNC(=O)c1ccc(-c3c4nc(c(-c5cccc(S(=O)(=O)[O-])c5F)c5ccc([nH]5)c(-c5cccc(S(=O)(=O)[O-])c5F)c5nc(c(-c6cccc(S(=O)(=O)[O-])c6F)c6ccc3[nH]6)C=C5)C=C4)cc1)=C2
REMARK SMILES IDX 23 1 22 2 21 3 20 4 18 5 19 6 17 8 1 9 2 10 3 11 9 12 4 13
REMARK SMILES IDX 5 14 8 15 10 16 6 17 7 18 11 19 91 20 12 21 13 22 14 23
REMARK SMILES IDX 15 24 16 25 24 26 25 27 26 28 27 30 28 31 29 32 90 33 30 34
REMARK SMILES IDX 89 35 31 36 32 37 33 38 83 39 34 40 88 41 82 42 84 43 35 44
REMARK SMILES IDX 87 45 81 46 80 47 36 49 68 50 48 51 67 52 49 53 52 54 66 55
REMARK SMILES IDX 85 56 50 57 51 58 65 60 86 61 53 62 37 63 38 64 46 65 39 66
REMARK SMILES IDX 41 67 47 68 40 69 42 70 43 71 44 72 45 73 69 74 70 75 78 76
REMARK SMILES IDX 71 77 73 78 79 79 72 80 74 81 75 82 76 83 77 84 54 85 55 86
REMARK SMILES IDX 63 87 56 88 58 89 64 90 57 91 59 92 60 93 61 94 62 95
REMARK H PARENT 20 7 25 29 84 48 52 59
REMARK Flexibility Score: inf
ROOT
ATOM      1  C   UNL A   1      32.826  29.644  25.103  1.00  0.00     0.023 C 
ENDROOT
BRANCH   1   2
ATOM      2  C   UNL A   1      33.673  28.389  24.864  1.00  0.00     0.023 C 
BRANCH   2   3
ATOM      3  C   UNL A   1      32.885  27.194  24.335  1.00  0.00     0.116 C 
BRANCH   3   4
ATOM      4  N   UNL A   1      31.883  26.740  25.282  1.00  0.00    -0.352 N 
ATOM      5  C   UNL A   1      31.487  25.560  25.811  1.00  0.00     0.251 C 
ATOM      6  O   UNL A   1      30.555  25.628  26.619  1.00  0.00    -0.270 OA
ATOM      7  H   UNL A   1      31.351  27.490  25.633  1.00  0.00     0.163 HD
BRANCH   5   8
ATOM      8  C   UNL A   1      32.086  24.227  25.499  1.00  0.00     0.067 C 
ATOM      9  C   UNL A   1      35.934  18.970  24.693  1.00  0.00     0.047 C 
ATOM     10  C   UNL A   1      35.311  20.317  24.981  1.00  0.00    -0.019 A 
ATOM     11  C   UNL A   1      36.095  21.452  25.306  1.00  0.00     0.025 A 
ATOM     12  C   UNL A   1      33.916  20.485  24.872  1.00  0.00     0.064 A 
ATOM     13  Br  UNL A   1      38.008  21.278  25.343  1.00  0.00    -0.050 Br
ATOM     14  C   UNL A   1      35.501  22.713  25.581  1.00  0.00    -0.026 A 
ATOM     15  C   UNL A   1      33.317  21.727  25.135  1.00  0.00     0.142 A 
ATOM     16  Br  UNL A   1      32.785  19.043  24.312  1.00  0.00    -0.046 Br
ATOM     17  C   UNL A   1      36.314  23.933  25.958  1.00  0.00     0.046 C 
ATOM     18  C   UNL A   1      34.091  22.832  25.505  1.00  0.00     0.022 A 
ATOM     19  O   UNL A   1      31.950  21.798  25.070  1.00  0.00    -0.474 OA
ATOM     20  C   UNL A   1      33.385  24.081  25.823  1.00  0.00     0.026 C 
ATOM     21  C   UNL A   1      31.361  23.102  24.832  1.00  0.00     0.314 C 
BRANCH  21  22
ATOM     22  C   UNL A   1      31.174  23.320  23.319  1.00  0.00     0.429 C 
ATOM     23  F   UNL A   1      31.324  22.150  22.649  1.00  0.00    -0.167 F 
ATOM     24  F   UNL A   1      29.943  23.786  23.009  1.00  0.00    -0.167 F 
ATOM     25  F   UNL A   1      32.070  24.195  22.808  1.00  0.00    -0.167 F 
ENDBRANCH  21  22
ENDBRANCH   5   8
ENDBRANCH   3   4
ENDBRANCH   2   3
ENDBRANCH   1   2
BRANCH   1  26
ATOM     26  C   UNL A   1      32.524  29.966  26.566  1.00  0.00     0.116 C 
BRANCH  26  27
ATOM     27  N   UNL A   1      32.350  31.388  26.834  1.00  0.00    -0.352 N 
ATOM     28  C   UNL A   1      33.234  32.245  27.446  1.00  0.00     0.251 C 
ATOM     29  H   UNL A   1      31.496  31.783  26.542  1.00  0.00     0.163 HD
ATOM     30  O   UNL A   1      32.926  33.411  27.670  1.00  0.00    -0.269 OA
BRANCH  28  31
ATOM     31  C   UNL A   1      34.545  31.718  27.871  1.00  0.00     0.039 A 
ATOM     32  C   UNL A   1      35.624  32.599  27.969  1.00  0.00     0.014 A 
ATOM     33  C   UNL A   1      34.672  30.382  28.258  1.00  0.00     0.014 A 
ATOM     34  C   UNL A   1      36.818  32.155  28.534  1.00  0.00     0.010 A 
ATOM     35  C   UNL A   1      35.844  29.958  28.874  1.00  0.00     0.010 A 
ATOM     36  C   UNL A   1      36.923  30.843  29.026  1.00  0.00    -0.014 A 
BRANCH  36  37
ATOM     37  C   UNL A   1      38.142  30.388  29.736  1.00  0.00     0.031 A 
ATOM     38  C   UNL A   1      38.425  30.865  31.132  1.00  0.00     0.074 A 
ATOM     39  C   UNL A   1      39.030  29.606  29.090  1.00  0.00     0.049 A 
ATOM     40  N   UNL A   1      39.450  30.599  31.897  1.00  0.00    -0.248 NA
ATOM     41  C   UNL A   1      37.442  31.778  31.738  1.00  0.00     0.031 C 
ATOM     42  C   UNL A   1      38.899  29.145  27.706  1.00  0.00     0.029 A 
ATOM     43  N   UNL A   1      40.225  29.075  29.504  1.00  0.00    -0.354 N 
ATOM     44  C   UNL A   1      39.248  31.325  33.063  1.00  0.00     0.074 A 
ATOM     45  C   UNL A   1      38.024  32.076  32.889  1.00  0.00     0.031 C 
ATOM     46  C   UNL A   1      39.960  28.386  27.393  1.00  0.00     0.029 A 
ATOM     47  C   UNL A   1      40.858  28.321  28.543  1.00  0.00     0.049 A 
ATOM     48  H   UNL A   1      40.596  29.220  30.405  1.00  0.00     0.167 HD
ATOM     49  C   UNL A   1      39.993  31.333  34.192  1.00  0.00     0.034 A 
ATOM     50  C   UNL A   1      42.023  27.642  28.589  1.00  0.00     0.034 A 
ATOM     51  C   UNL A   1      41.180  30.545  34.377  1.00  0.00     0.049 A 
ATOM     52  C   UNL A   1      42.810  27.635  29.871  1.00  0.00     0.074 A 
ATOM     53  C   UNL A   1      41.966  30.429  35.510  1.00  0.00     0.029 A 
ATOM     54  N   UNL A   1      41.748  29.732  33.409  1.00  0.00    -0.354 N 
ATOM     55  N   UNL A   1      42.526  28.210  31.014  1.00  0.00    -0.248 NA
ATOM     56  C   UNL A   1      44.059  26.860  29.884  1.00  0.00     0.031 C 
ATOM     57  C   UNL A   1      43.011  29.546  35.225  1.00  0.00     0.029 A 
ATOM     58  C   UNL A   1      42.874  29.108  33.917  1.00  0.00     0.049 A 
ATOM     59  H   UNL A   1      41.402  29.617  32.495  1.00  0.00     0.167 HD
ATOM     60  C   UNL A   1      43.541  27.843  31.891  1.00  0.00     0.074 A 
ATOM     61  C   UNL A   1      44.438  26.979  31.151  1.00  0.00     0.031 C 
ATOM     62  C   UNL A   1      43.722  28.204  33.185  1.00  0.00     0.034 A 
BRANCH  49  63
ATOM     63  C   UNL A   1      39.497  32.156  35.350  1.00  0.00     0.023 A 
ATOM     64  C   UNL A   1      38.631  31.558  36.289  1.00  0.00     0.012 A 
ATOM     65  C   UNL A   1      39.931  33.480  35.552  1.00  0.00     0.148 A 
ATOM     66  C   UNL A   1      38.183  32.274  37.398  1.00  0.00     0.002 A 
ATOM     67  C   UNL A   1      39.511  34.174  36.681  1.00  0.00     0.091 A 
ATOM     68  F   UNL A   1      40.735  34.038  34.635  1.00  0.00    -0.205 F 
ATOM     69  C   UNL A   1      38.631  33.576  37.600  1.00  0.00     0.022 A 
BRANCH  67  70
ATOM     70  S   UNL A   1      40.088  35.831  37.069  1.00  0.00     0.127 S 
ATOM     71  O   UNL A   1      39.347  36.121  38.295  1.00  0.00    -0.237 OA
ATOM     72  O   UNL A   1      41.523  35.622  37.260  1.00  0.00    -0.237 OA
ATOM     73  O   UNL A   1      39.743  36.653  35.918  1.00  0.00    -0.744 OA
ENDBRANCH  67  70
ENDBRANCH  49  63
BRANCH  50  74
ATOM     74  C   UNL A   1      42.446  26.825  27.417  1.00  0.00     0.023 A 
ATOM     75  C   UNL A   1      43.216  27.434  26.406  1.00  0.00     0.012 A 
ATOM     76  C   UNL A   1      42.154  25.450  27.323  1.00  0.00     0.148 A 
ATOM     77  C   UNL A   1      43.673  26.694  25.315  1.00  0.00     0.002 A 
ATOM     78  C   UNL A   1      42.657  24.708  26.259  1.00  0.00     0.091 A 
ATOM     79  F   UNL A   1      41.408  24.892  28.285  1.00  0.00    -0.205 F 
ATOM     80  C   UNL A   1      43.405  25.330  25.248  1.00  0.00     0.022 A 
BRANCH  78  81
ATOM     81  S   UNL A   1      42.478  22.922  26.165  1.00  0.00     0.127 S 
ATOM     82  O   UNL A   1      41.041  22.754  26.360  1.00  0.00    -0.237 OA
ATOM     83  O   UNL A   1      42.955  22.639  24.811  1.00  0.00    -0.237 OA
ATOM     84  O   UNL A   1      43.331  22.390  27.220  1.00  0.00    -0.744 OA
ENDBRANCH  78  81
ENDBRANCH  50  74
BRANCH  62  85
ATOM     85  C   UNL A   1      44.927  27.665  33.907  1.00  0.00     0.023 A 
ATOM     86  C   UNL A   1      46.135  28.387  33.864  1.00  0.00     0.012 A 
ATOM     87  C   UNL A   1      44.825  26.528  34.733  1.00  0.00     0.148 A 
ATOM     88  C   UNL A   1      47.230  27.978  34.624  1.00  0.00     0.002 A 
ATOM     89  C   UNL A   1      45.907  26.152  35.520  1.00  0.00     0.091 A 
ATOM     90  F   UNL A   1      43.670  25.846  34.745  1.00  0.00    -0.205 F 
ATOM     91  C   UNL A   1      47.112  26.871  35.462  1.00  0.00     0.022 A 
BRANCH  89  92
ATOM     92  S   UNL A   1      45.814  24.801  36.703  1.00  0.00     0.127 S 
ATOM     93  O   UNL A   1      45.746  23.638  35.820  1.00  0.00    -0.237 OA
ATOM     94  O   UNL A   1      47.073  24.940  37.435  1.00  0.00    -0.237 OA
ATOM     95  O   UNL A   1      44.622  25.053  37.502  1.00  0.00    -0.744 OA
ENDBRANCH  89  92
ENDBRANCH  62  85
ENDBRANCH  36  37
ENDBRANCH  28  31
ENDBRANCH  26  27
ENDBRANCH   1  26
TORSDOF 15
ENDMDL
MODEL 2
REMARK VINA RESULT:     -12.6      4.953     10.074
REMARK SMILES Cc1c(Br)c(C)c2c(c1Br)O[C@H](C(F)(F)F)C(C(=O)NCCCCNC(=O)c1ccc(-c3c4nc(c(-c5cccc(S(=O)(=O)[O-])c5F)c5ccc([nH]5)c(-c5cccc(S(=O)(=O)[O-])c5F)c5nc(c(-c6cccc(S(=O)(=O)[O-])c6F)c6ccc3[nH]6)C=C5)C=C4)cc1)=C2
REMARK SMILES IDX 23 1 22 2 21 3 20 4 18 5 19 6 17 8 1 9 2 10 3 11 9 12 4 13
REMARK SMILES IDX 5 14 8 15 10 16 6 17 7 18 11 19 91 20 12 21 13 22 14 23
REMARK SMILES IDX 15 24 16 25 24 26 25 27 26 28 27 30 28 31 29 32 90 33 30 34
REMARK SMILES IDX 89 35 31 36 32 37 33 38 83 39 34 40 88 41 82 42 84 43 35 44
REMARK SMILES IDX 87 45 81 46 80 47 36 49 68 50 48 51 67 52 49 53 52 54 66 55
REMARK SMILES IDX 85 56 50 57 51 58 65 60 86 61 53 62 37 63 38 64 46 65 39 66
REMARK SMILES IDX 41 67 47 68 40 69 42 70 43 71 44 72 45 73 69 74 70 75 78 76
REMARK SMILES IDX 71 77 73 78 79 79 72 80 74 81 75 82 76 83 77 84 54 85 55 86
REMARK SMILES IDX 63 87 56 88 58 89 64 90 57 91 59 92 60 93 61 94 62 95
REMARK H PARENT 20 7 25 29 84 48 52 59
REMARK Flexibility Score: inf
ROOT
ATOM      1  C   UNL A   1      35.686  21.360  25.753  1.00  0.00     0.023 C 
ENDROOT
BRANCH   1   2
ATOM      2  C   UNL A   1      35.041  22.442  26.625  1.00  0.00     0.023 C 
BRANCH   2   3
ATOM      3  C   UNL A   1      34.050  23.335  25.884  1.00  0.00     0.116 C 
BRANCH   3   4
ATOM      4  N   UNL A   1      34.297  23.352  24.454  1.00  0.00    -0.352 N 
ATOM      5  C   UNL A   1      33.923  24.107  23.396  1.00  0.00     0.251 C 
ATOM      6  O   UNL A   1      34.386  23.757  22.305  1.00  0.00    -0.270 OA
ATOM      7  H   UNL A   1      34.897  22.619  24.181  1.00  0.00     0.163 HD
BRANCH   5   8
ATOM      8  C   UNL A   1      33.024  25.298  23.457  1.00  0.00     0.067 C 
ATOM      9  C   UNL A   1      30.104  31.058  24.639  1.00  0.00     0.047 C 
ATOM     10  C   UNL A   1      30.987  29.832  24.576  1.00  0.00    -0.019 A 
ATOM     11  C   UNL A   1      32.049  29.625  25.492  1.00  0.00     0.025 A 
ATOM     12  C   UNL A   1      30.727  28.826  23.625  1.00  0.00     0.064 A 
ATOM     13  Br  UNL A   1      32.348  30.925  26.875  1.00  0.00    -0.050 Br
ATOM     14  C   UNL A   1      32.878  28.473  25.421  1.00  0.00    -0.026 A 
ATOM     15  C   UNL A   1      31.535  27.680  23.549  1.00  0.00     0.142 A 
ATOM     16  Br  UNL A   1      29.234  28.953  22.429  1.00  0.00    -0.046 Br
ATOM     17  C   UNL A   1      34.037  28.244  26.369  1.00  0.00     0.046 C 
ATOM     18  C   UNL A   1      32.615  27.505  24.422  1.00  0.00     0.022 A 
ATOM     19  O   UNL A   1      31.260  26.775  22.557  1.00  0.00    -0.474 OA
ATOM     20  C   UNL A   1      33.449  26.309  24.240  1.00  0.00     0.026 C 
ATOM     21  C   UNL A   1      31.707  25.410  22.759  1.00  0.00     0.314 C 
BRANCH  21  22
ATOM     22  C   UNL A   1      30.593  24.594  23.440  1.00  0.00     0.429 C 
ATOM     23  F   UNL A   1      29.446  25.314  23.501  1.00  0.00    -0.167 F 
ATOM     24  F   UNL A   1      30.300  23.455  22.771  1.00  0.00    -0.167 F 
ATOM     25  F   UNL A   1      30.913  24.237  24.705  1.00  0.00    -0.167 F 
ENDBRANCH  21  22
ENDBRANCH   5   8
ENDBRANCH   3   4
ENDBRANCH   2   3
ENDBRANCH   1   2
BRANCH   1  26
ATOM     26  C   UNL A   1      37.083  21.684  25.226  1.00  0.00     0.116 C 
BRANCH  26  27
ATOM     27  N   UNL A   1      38.063  20.630  25.460  1.00  0.00    -0.352 N 
ATOM     28  C   UNL A   1      39.285  20.739  26.080  1.00  0.00     0.251 C 
ATOM     29  H   UNL A   1      37.820  19.733  25.134  1.00  0.00     0.163 HD
ATOM     30  O   UNL A   1      40.043  19.777  26.147  1.00  0.00    -0.269 OA
BRANCH  28  31
ATOM     31  C   UNL A   1      39.685  22.051  26.622  1.00  0.00     0.039 A 
ATOM     32  C   UNL A   1      40.702  22.103  27.577  1.00  0.00     0.014 A 
ATOM     33  C   UNL A   1      39.119  23.222  26.113  1.00  0.00     0.014 A 
ATOM     34  C   UNL A   1      41.209  23.341  27.968  1.00  0.00     0.010 A 
ATOM     35  C   UNL A   1      39.666  24.453  26.461  1.00  0.00     0.010 A 
ATOM     36  C   UNL A   1      40.722  24.522  27.382  1.00  0.00    -0.014 A 
BRANCH  36  37
ATOM     37  C   UNL A   1      41.329  25.838  27.696  1.00  0.00     0.031 A 
ATOM     38  C   UNL A   1      42.737  26.139  27.272  1.00  0.00     0.074 A 
ATOM     39  C   UNL A   1      40.632  26.728  28.430  1.00  0.00     0.049 A 
ATOM     40  N   UNL A   1      43.443  27.219  27.481  1.00  0.00    -0.248 NA
ATOM     41  C   UNL A   1      43.455  25.083  26.539  1.00  0.00     0.031 C 
ATOM     42  C   UNL A   1      39.285  26.513  28.964  1.00  0.00     0.029 A 
ATOM     43  N   UNL A   1      40.966  27.984  28.870  1.00  0.00    -0.354 N 
ATOM     44  C   UNL A   1      44.691  26.967  26.927  1.00  0.00     0.074 A 
ATOM     45  C   UNL A   1      44.660  25.617  26.409  1.00  0.00     0.031 C 
ATOM     46  C   UNL A   1      38.901  27.606  29.642  1.00  0.00     0.029 A 
ATOM     47  C   UNL A   1      39.978  28.591  29.610  1.00  0.00     0.049 A 
ATOM     48  H   UNL A   1      41.831  28.411  28.674  1.00  0.00     0.167 HD
ATOM     49  C   UNL A   1      45.752  27.799  26.823  1.00  0.00     0.034 A 
ATOM     50  C   UNL A   1      39.940  29.811  30.185  1.00  0.00     0.034 A 
ATOM     51  C   UNL A   1      45.757  29.157  27.293  1.00  0.00     0.049 A 
ATOM     52  C   UNL A   1      41.118  30.732  30.017  1.00  0.00     0.074 A 
ATOM     53  C   UNL A   1      46.758  30.104  27.171  1.00  0.00     0.029 A 
ATOM     54  N   UNL A   1      44.711  29.763  27.969  1.00  0.00    -0.354 N 
ATOM     55  N   UNL A   1      42.234  30.529  29.361  1.00  0.00    -0.248 NA
ATOM     56  C   UNL A   1      41.021  32.061  30.637  1.00  0.00     0.031 C 
ATOM     57  C   UNL A   1      46.316  31.284  27.775  1.00  0.00     0.029 A 
ATOM     58  C   UNL A   1      45.038  31.074  28.269  1.00  0.00     0.049 A 
ATOM     59  H   UNL A   1      43.860  29.326  28.202  1.00  0.00     0.167 HD
ATOM     60  C   UNL A   1      42.958  31.711  29.462  1.00  0.00     0.074 A 
ATOM     61  C   UNL A   1      42.146  32.633  30.227  1.00  0.00     0.031 C 
ATOM     62  C   UNL A   1      44.193  31.998  28.979  1.00  0.00     0.034 A 
BRANCH  49  63
ATOM     63  C   UNL A   1      46.967  27.293  26.093  1.00  0.00     0.023 A 
ATOM     64  C   UNL A   1      47.062  27.500  24.702  1.00  0.00     0.012 A 
ATOM     65  C   UNL A   1      48.035  26.683  26.778  1.00  0.00     0.148 A 
ATOM     66  C   UNL A   1      48.191  27.084  23.998  1.00  0.00     0.002 A 
ATOM     67  C   UNL A   1      49.174  26.306  26.075  1.00  0.00     0.091 A 
ATOM     68  F   UNL A   1      47.915  26.474  28.097  1.00  0.00    -0.205 F 
ATOM     69  C   UNL A   1      49.249  26.498  24.684  1.00  0.00     0.022 A 
BRANCH  67  70
ATOM     70  S   UNL A   1      50.622  25.608  26.879  1.00  0.00     0.127 S 
ATOM     71  O   UNL A   1      51.478  25.307  25.733  1.00  0.00    -0.237 OA
ATOM     72  O   UNL A   1      51.082  26.722  27.708  1.00  0.00    -0.237 OA
ATOM     73  O   UNL A   1      50.145  24.453  27.626  1.00  0.00    -0.744 OA
ENDBRANCH  67  70
ENDBRANCH  49  63
BRANCH  50  74
ATOM     74  C   UNL A   1      38.696  30.263  30.871  1.00  0.00     0.023 A 
ATOM     75  C   UNL A   1      38.540  29.992  32.244  1.00  0.00     0.012 A 
ATOM     76  C   UNL A   1      37.705  31.008  30.202  1.00  0.00     0.148 A 
ATOM     77  C   UNL A   1      37.414  30.438  32.936  1.00  0.00     0.002 A 
ATOM     78  C   UNL A   1      36.610  31.495  30.910  1.00  0.00     0.091 A 
ATOM     79  F   UNL A   1      37.862  31.243  28.893  1.00  0.00    -0.205 F 
ATOM     80  C   UNL A   1      36.457  31.200  32.273  1.00  0.00     0.022 A 
BRANCH  78  81
ATOM     81  S   UNL A   1      35.401  32.598  30.168  1.00  0.00     0.127 S 
ATOM     82  O   UNL A   1      34.973  31.833  29.000  1.00  0.00    -0.237 OA
ATOM     83  O   UNL A   1      34.402  32.714  31.231  1.00  0.00    -0.237 OA
ATOM     84  O   UNL A   1      36.122  33.834  29.891  1.00  0.00    -0.744 OA
ENDBRANCH  78  81
ENDBRANCH  50  74
BRANCH  62  85
ATOM     85  C   UNL A   1      44.754  33.369  29.245  1.00  0.00     0.023 A 
ATOM     86  C   UNL A   1      45.529  33.583  30.400  1.00  0.00     0.012 A 
ATOM     87  C   UNL A   1      44.631  34.397  28.290  1.00  0.00     0.148 A 
ATOM     88  C   UNL A   1      46.164  34.806  30.609  1.00  0.00     0.002 A 
ATOM     89  C   UNL A   1      45.302  35.598  28.484  1.00  0.00     0.091 A 
ATOM     90  F   UNL A   1      43.873  34.176  27.205  1.00  0.00    -0.205 F 
ATOM     91  C   UNL A   1      46.063  35.807  29.645  1.00  0.00     0.022 A 
BRANCH  89  92
ATOM     92  S   UNL A   1      45.310  36.906  27.250  1.00  0.00     0.127 S 
ATOM     93  O   UNL A   1      45.997  37.981  27.962  1.00  0.00    -0.237 OA
ATOM     94  O   UNL A   1      46.083  36.303  26.163  1.00  0.00    -0.237 OA
ATOM     95  O   UNL A   1      43.913  37.159  26.926  1.00  0.00    -0.744 OA
ENDBRANCH  89  92
ENDBRANCH  62  85
ENDBRANCH  36  37
ENDBRANCH  28  31
ENDBRANCH  26  27
ENDBRANCH   1  26
TORSDOF 15
ENDMDL
MODEL 3
REMARK VINA RESULT:     -12.5      5.247     10.159
REMARK SMILES Cc1c(Br)c(C)c2c(c1Br)O[C@H](C(F)(F)F)C(C(=O)NCCCCNC(=O)c1ccc(-c3c4nc(c(-c5cccc(S(=O)(=O)[O-])c5F)c5ccc([nH]5)c(-c5cccc(S(=O)(=O)[O-])c5F)c5nc(c(-c6cccc(S(=O)(=O)[O-])c6F)c6ccc3[nH]6)C=C5)C=C4)cc1)=C2
REMARK SMILES IDX 23 1 22 2 21 3 20 4 18 5 19 6 17 8 1 9 2 10 3 11 9 12 4 13
REMARK SMILES IDX 5 14 8 15 10 16 6 17 7 18 11 19 91 20 12 21 13 22 14 23
REMARK SMILES IDX 15 24 16 25 24 26 25 27 26 28 27 30 28 31 29 32 90 33 30 34
REMARK SMILES IDX 89 35 31 36 32 37 33 38 83 39 34 40 88 41 82 42 84 43 35 44
REMARK SMILES IDX 87 45 81 46 80 47 36 49 68 50 48 51 67 52 49 53 52 54 66 55
REMARK SMILES IDX 85 56 50 57 51 58 65 60 86 61 53 62 37 63 38 64 46 65 39 66
REMARK SMILES IDX 41 67 47 68 40 69 42 70 43 71 44 72 45 73 69 74 70 75 78 76
REMARK SMILES IDX 71 77 73 78 79 79 72 80 74 81 75 82 76 83 77 84 54 85 55 86
REMARK SMILES IDX 63 87 56 88 58 89 64 90 57 91 59 92 60 93 61 94 62 95
REMARK H PARENT 20 7 25 29 84 48 52 59
REMARK Flexibility Score: inf
ROOT
ATOM      1  C   UNL A   1      35.636  21.661  26.027  1.00  0.00     0.023 C 
ENDROOT
BRANCH   1   2
ATOM      2  C   UNL A   1      34.477  21.203  25.137  1.00  0.00     0.023 C 
BRANCH   2   3
ATOM      3  C   UNL A   1      33.095  21.581  25.664  1.00  0.00     0.116 C 
BRANCH   3   4
ATOM      4  N   UNL A   1      32.181  21.931  24.593  1.00  0.00    -0.352 N 
ATOM      5  C   UNL A   1      31.647  23.063  24.080  1.00  0.00     0.251 C 
ATOM      6  O   UNL A   1      30.881  22.902  23.124  1.00  0.00    -0.270 OA
ATOM      7  H   UNL A   1      31.865  21.132  24.111  1.00  0.00     0.163 HD
BRANCH   5   8
ATOM      8  C   UNL A   1      31.919  24.447  24.571  1.00  0.00     0.067 C 
ATOM      9  C   UNL A   1      31.856  30.847  26.033  1.00  0.00     0.047 C 
ATOM     10  C   UNL A   1      31.614  29.442  25.531  1.00  0.00    -0.019 A 
ATOM     11  C   UNL A   1      30.647  29.158  24.534  1.00  0.00     0.025 A 
ATOM     12  C   UNL A   1      32.401  28.377  26.012  1.00  0.00     0.064 A 
ATOM     13  Br  UNL A   1      29.643  30.610  23.775  1.00  0.00    -0.050 Br
ATOM     14  C   UNL A   1      30.421  27.833  24.072  1.00  0.00    -0.026 A 
ATOM     15  C   UNL A   1      32.192  27.065  25.559  1.00  0.00     0.142 A 
ATOM     16  Br  UNL A   1      33.821  28.679  27.263  1.00  0.00    -0.046 Br
ATOM     17  C   UNL A   1      29.374  27.501  23.030  1.00  0.00     0.046 C 
ATOM     18  C   UNL A   1      31.201  26.782  24.612  1.00  0.00     0.022 A 
ATOM     19  O   UNL A   1      32.954  26.072  26.118  1.00  0.00    -0.474 OA
ATOM     20  C   UNL A   1      31.003  25.376  24.234  1.00  0.00     0.026 C 
ATOM     21  C   UNL A   1      33.129  24.853  25.351  1.00  0.00     0.314 C 
BRANCH  21  22
ATOM     22  C   UNL A   1      34.395  24.964  24.482  1.00  0.00     0.429 C 
ATOM     23  F   UNL A   1      35.508  24.908  25.255  1.00  0.00    -0.167 F 
ATOM     24  F   UNL A   1      34.498  23.957  23.584  1.00  0.00    -0.167 F 
ATOM     25  F   UNL A   1      34.446  26.122  23.785  1.00  0.00    -0.167 F 
ENDBRANCH  21  22
ENDBRANCH   5   8
ENDBRANCH   3   4
ENDBRANCH   2   3
ENDBRANCH   1   2
BRANCH   1  26
ATOM     26  C   UNL A   1      36.950  21.950  25.302  1.00  0.00     0.116 C 
BRANCH  26  27
ATOM     27  N   UNL A   1      37.954  20.906  25.460  1.00  0.00    -0.352 N 
ATOM     28  C   UNL A   1      39.202  21.016  26.028  1.00  0.00     0.251 C 
ATOM     29  H   UNL A   1      37.711  20.015  25.119  1.00  0.00     0.163 HD
ATOM     30  O   UNL A   1      39.976  20.065  26.032  1.00  0.00    -0.269 OA
BRANCH  28  31
ATOM     31  C   UNL A   1      39.607  22.319  26.590  1.00  0.00     0.039 A 
ATOM     32  C   UNL A   1      40.618  22.351  27.552  1.00  0.00     0.014 A 
ATOM     33  C   UNL A   1      39.051  23.500  26.093  1.00  0.00     0.014 A 
ATOM     34  C   UNL A   1      41.131  23.580  27.962  1.00  0.00     0.010 A 
ATOM     35  C   UNL A   1      39.604  24.722  26.460  1.00  0.00     0.010 A 
ATOM     36  C   UNL A   1      40.655  24.772  27.389  1.00  0.00    -0.014 A 
BRANCH  36  37
ATOM     37  C   UNL A   1      41.268  26.080  27.724  1.00  0.00     0.031 A 
ATOM     38  C   UNL A   1      42.681  26.377  27.314  1.00  0.00     0.074 A 
ATOM     39  C   UNL A   1      40.572  26.965  28.465  1.00  0.00     0.049 A 
ATOM     40  N   UNL A   1      43.393  27.449  27.543  1.00  0.00    -0.248 NA
ATOM     41  C   UNL A   1      43.398  25.326  26.573  1.00  0.00     0.031 C 
ATOM     42  C   UNL A   1      39.220  26.752  28.987  1.00  0.00     0.029 A 
ATOM     43  N   UNL A   1      40.911  28.213  28.924  1.00  0.00    -0.354 N 
ATOM     44  C   UNL A   1      44.643  27.196  26.995  1.00  0.00     0.074 A 
ATOM     45  C   UNL A   1      44.607  25.853  26.459  1.00  0.00     0.031 C 
ATOM     46  C   UNL A   1      38.839  27.839  29.676  1.00  0.00     0.029 A 
ATOM     47  C   UNL A   1      39.922  28.817  29.665  1.00  0.00     0.049 A 
ATOM     48  H   UNL A   1      41.781  28.637  28.739  1.00  0.00     0.167 HD
ATOM     49  C   UNL A   1      45.710  28.023  26.908  1.00  0.00     0.034 A 
ATOM     50  C   UNL A   1      39.887  30.030  30.255  1.00  0.00     0.034 A 
ATOM     51  C   UNL A   1      45.722  29.374  27.396  1.00  0.00     0.049 A 
ATOM     52  C   UNL A   1      41.073  30.945  30.108  1.00  0.00     0.074 A 
ATOM     53  C   UNL A   1      46.729  30.316  27.294  1.00  0.00     0.029 A 
ATOM     54  N   UNL A   1      44.674  29.978  28.073  1.00  0.00    -0.354 N 
ATOM     55  N   UNL A   1      42.192  30.742  29.456  1.00  0.00    -0.248 NA
ATOM     56  C   UNL A   1      40.980  32.266  30.744  1.00  0.00     0.031 C 
ATOM     57  C   UNL A   1      46.291  31.491  27.910  1.00  0.00     0.029 A 
ATOM     58  C   UNL A   1      45.008  31.283  28.392  1.00  0.00     0.049 A 
ATOM     59  H   UNL A   1      43.818  29.544  28.294  1.00  0.00     0.167 HD
ATOM     60  C   UNL A   1      42.924  31.918  29.578  1.00  0.00     0.074 A 
ATOM     61  C   UNL A   1      42.112  32.836  30.350  1.00  0.00     0.031 C 
ATOM     62  C   UNL A   1      44.163  32.203  29.108  1.00  0.00     0.034 A 
BRANCH  49  63
ATOM     63  C   UNL A   1      46.927  27.518  26.181  1.00  0.00     0.023 A 
ATOM     64  C   UNL A   1      47.824  26.668  26.861  1.00  0.00     0.012 A 
ATOM     65  C   UNL A   1      47.151  27.819  24.825  1.00  0.00     0.148 A 
ATOM     66  C   UNL A   1      48.939  26.145  26.209  1.00  0.00     0.002 A 
ATOM     67  C   UNL A   1      48.245  27.262  24.171  1.00  0.00     0.091 A 
ATOM     68  F   UNL A   1      46.301  28.648  24.203  1.00  0.00    -0.205 F 
ATOM     69  C   UNL A   1      49.144  26.433  24.864  1.00  0.00     0.022 A 
BRANCH  67  70
ATOM     70  S   UNL A   1      48.557  27.515  22.419  1.00  0.00     0.127 S 
ATOM     71  O   UNL A   1      47.370  28.266  22.014  1.00  0.00    -0.237 OA
ATOM     72  O   UNL A   1      49.796  28.294  22.434  1.00  0.00    -0.237 OA
ATOM     73  O   UNL A   1      48.685  26.184  21.841  1.00  0.00    -0.744 OA
ENDBRANCH  67  70
ENDBRANCH  49  63
BRANCH  50  74
ATOM     74  C   UNL A   1      38.642  30.481  30.938  1.00  0.00     0.023 A 
ATOM     75  C   UNL A   1      38.532  30.314  32.332  1.00  0.00     0.012 A 
ATOM     76  C   UNL A   1      37.602  31.127  30.240  1.00  0.00     0.148 A 
ATOM     77  C   UNL A   1      37.405  30.766  33.018  1.00  0.00     0.002 A 
ATOM     78  C   UNL A   1      36.504  31.621  30.938  1.00  0.00     0.091 A 
ATOM     79  F   UNL A   1      37.716  31.263  28.913  1.00  0.00    -0.205 F 
ATOM     80  C   UNL A   1      36.398  31.429  32.324  1.00  0.00     0.022 A 
BRANCH  78  81
ATOM     81  S   UNL A   1      35.229  32.608  30.146  1.00  0.00     0.127 S 
ATOM     82  O   UNL A   1      34.283  32.812  31.240  1.00  0.00    -0.237 OA
ATOM     83  O   UNL A   1      35.973  33.802  29.743  1.00  0.00    -0.237 OA
ATOM     84  O   UNL A   1      34.749  31.801  29.031  1.00  0.00    -0.744 OA
ENDBRANCH  78  81
ENDBRANCH  50  74
BRANCH  62  85
ATOM     85  C   UNL A   1      44.732  33.567  29.396  1.00  0.00     0.023 A 
ATOM     86  C   UNL A   1      45.489  33.764  30.566  1.00  0.00     0.012 A 
ATOM     87  C   UNL A   1      44.634  34.604  28.448  1.00  0.00     0.148 A 
ATOM     88  C   UNL A   1      46.131  34.980  30.796  1.00  0.00     0.002 A 
ATOM     89  C   UNL A   1      45.311  35.798  28.664  1.00  0.00     0.091 A 
ATOM     90  F   UNL A   1      43.893  34.400  27.349  1.00  0.00    -0.205 F 
ATOM     91  C   UNL A   1      46.055  35.990  29.840  1.00  0.00     0.022 A 
BRANCH  89  92
ATOM     92  S   UNL A   1      45.352  37.117  27.442  1.00  0.00     0.127 S 
ATOM     93  O   UNL A   1      46.144  38.134  28.130  1.00  0.00    -0.237 OA
ATOM     94  O   UNL A   1      46.029  36.475  26.314  1.00  0.00    -0.237 OA
ATOM     95  O   UNL A   1      43.962  37.469  27.188  1.00  0.00    -0.744 OA
ENDBRANCH  89  92
ENDBRANCH  62  85
ENDBRANCH  36  37
ENDBRANCH  28  31
ENDBRANCH  26  27
ENDBRANCH   1  26
TORSDOF 15
ENDMDL
