MODEL 1
REMARK VINA RESULT:     -11.2      0.000      0.000
REMARK SMILES O=C(CCC[NH2+][C@H]1CCOC2(CCOCC2)C1)NCCCCNC(=O)c1ccc(-c2c3nc(c(-c4cccc(S(=O)(=O)[O-])c4F)c4ccc([nH]4)c(-c4cccc(S(=O)(=O)[O-])c4F)c4nc(c(-c5cccc(S(=O)(=O)[O-])c5F)c5ccc2[nH]5)C=C4)C=C3)cc1
REMARK SMILES IDX 20 1 19 2 18 3 1 4 2 5 3 7 4 8 5 9 6 10 7 13 8 14 17 15 9 16
REMARK SMILES IDX 11 17 10 18 12 19 16 20 13 21 15 22 14 23 21 24 22 25 23 26
REMARK SMILES IDX 24 27 25 29 26 30 27 31 88 32 28 33 87 34 29 35 30 36 31 37
REMARK SMILES IDX 81 38 32 39 86 40 80 41 82 42 33 43 85 44 79 45 78 46 34 48
REMARK SMILES IDX 66 49 46 50 65 51 47 52 50 53 64 54 83 55 48 56 49 57 63 59
REMARK SMILES IDX 84 60 51 61 35 62 36 63 44 64 37 65 39 66 45 67 38 68 40 69
REMARK SMILES IDX 41 70 42 71 43 72 67 73 68 74 76 75 69 76 71 77 77 78 70 79
REMARK SMILES IDX 72 80 73 81 74 82 75 83 52 84 53 85 61 86 54 87 56 88 62 89
REMARK SMILES IDX 55 90 57 91 58 92 59 93 60 94
REMARK H PARENT 18 6 6 11 6 12 23 28 82 47 50 58
REMARK Flexibility Score: inf
ROOT
ATOM      1  C   UNL A   1      31.398  31.011  25.915  1.00  0.00     0.023 C 
ENDROOT
BRANCH   1   2
ATOM      2  C   UNL A   1      32.333  29.881  26.351  1.00  0.00     0.116 C 
BRANCH   2   3
ATOM      3  N   UNL A   1      31.872  28.557  25.968  1.00  0.00    -0.356 N 
ATOM      4  O   UNL A   1      31.364  27.866  28.100  1.00  0.00    -0.275 OA
ATOM      5  C   UNL A   1      31.381  27.657  26.890  1.00  0.00     0.220 C 
ATOM      6  H   UNL A   1      31.910  28.294  25.019  1.00  0.00     0.163 HD
BRANCH   5   7
ATOM      7  C   UNL A   1      30.841  26.365  26.302  1.00  0.00     0.106 C 
BRANCH   7   8
ATOM      8  C   UNL A   1      31.077  26.247  24.793  1.00  0.00     0.071 C 
BRANCH   8   9
ATOM      9  C   UNL A   1      29.889  25.704  23.991  1.00  0.00     0.261 C 
BRANCH   9  10
ATOM     10  N   UNL A   1      28.936  26.743  23.641  1.00  0.00    -0.344 N 
ATOM     11  H   UNL A   1      28.281  26.820  24.417  1.00  0.00     0.346 HD
ATOM     12  H   UNL A   1      28.553  26.432  22.747  1.00  0.00     0.346 HD
BRANCH  10  13
ATOM     13  C   UNL A   1      29.430  28.100  23.356  1.00  0.00     0.187 C 
ATOM     14  C   UNL A   1      30.702  28.177  22.509  1.00  0.00     0.093 C 
ATOM     15  C   UNL A   1      28.294  28.920  22.714  1.00  0.00     0.100 C 
ATOM     16  C   UNL A   1      31.037  29.616  22.193  1.00  0.00     0.167 C 
ATOM     17  C   UNL A   1      28.724  30.313  22.208  1.00  0.00     0.078 C 
ATOM     18  O   UNL A   1      29.956  30.198  21.475  1.00  0.00    -0.374 OA
ATOM     19  C   UNL A   1      28.840  31.355  23.336  1.00  0.00     0.064 C 
ATOM     20  C   UNL A   1      27.665  30.835  21.211  1.00  0.00     0.064 C 
ATOM     21  C   UNL A   1      29.134  32.734  22.753  1.00  0.00     0.163 C 
ATOM     22  C   UNL A   1      28.026  32.224  20.721  1.00  0.00     0.163 C 
ATOM     23  O   UNL A   1      28.117  33.113  21.822  1.00  0.00    -0.381 OA
ENDBRANCH  10  13
ENDBRANCH   9  10
ENDBRANCH   8   9
ENDBRANCH   7   8
ENDBRANCH   5   7
ENDBRANCH   2   3
ENDBRANCH   1   2
BRANCH   1  24
ATOM     24  C   UNL A   1      31.372  32.235  26.830  1.00  0.00     0.023 C 
BRANCH  24  25
ATOM     25  C   UNL A   1      32.722  32.826  27.244  1.00  0.00     0.116 C 
BRANCH  25  26
ATOM     26  N   UNL A   1      32.614  34.164  27.800  1.00  0.00    -0.352 N 
ATOM     27  C   UNL A   1      33.324  34.760  28.819  1.00  0.00     0.251 C 
ATOM     28  H   UNL A   1      31.928  34.733  27.382  1.00  0.00     0.163 HD
ATOM     29  O   UNL A   1      32.952  35.862  29.225  1.00  0.00    -0.269 OA
BRANCH  27  30
ATOM     30  C   UNL A   1      34.509  34.117  29.458  1.00  0.00     0.039 A 
ATOM     31  C   UNL A   1      34.320  33.365  30.624  1.00  0.00     0.014 A 
ATOM     32  C   UNL A   1      35.807  34.297  28.984  1.00  0.00     0.014 A 
ATOM     33  C   UNL A   1      35.409  32.758  31.273  1.00  0.00     0.010 A 
ATOM     34  C   UNL A   1      36.884  33.635  29.595  1.00  0.00     0.010 A 
ATOM     35  C   UNL A   1      36.707  32.855  30.750  1.00  0.00    -0.014 A 
BRANCH  35  36
ATOM     36  C   UNL A   1      37.873  32.143  31.371  1.00  0.00     0.031 A 
ATOM     37  C   UNL A   1      38.587  32.717  32.574  1.00  0.00     0.074 A 
ATOM     38  C   UNL A   1      38.375  31.024  30.805  1.00  0.00     0.049 A 
ATOM     39  N   UNL A   1      39.656  32.273  33.189  1.00  0.00    -0.248 NA
ATOM     40  C   UNL A   1      38.035  33.949  33.159  1.00  0.00     0.031 C 
ATOM     41  C   UNL A   1      37.837  30.362  29.619  1.00  0.00     0.029 A 
ATOM     42  N   UNL A   1      39.491  30.276  31.114  1.00  0.00    -0.354 N 
ATOM     43  C   UNL A   1      39.904  33.166  34.226  1.00  0.00     0.074 A 
ATOM     44  C   UNL A   1      38.912  34.214  34.117  1.00  0.00     0.031 C 
ATOM     45  C   UNL A   1      38.656  29.364  29.253  1.00  0.00     0.029 A 
ATOM     46  C   UNL A   1      39.775  29.299  30.184  1.00  0.00     0.049 A 
ATOM     47  H   UNL A   1      40.033  30.426  31.922  1.00  0.00     0.167 HD
ATOM     48  C   UNL A   1      40.837  33.102  35.210  1.00  0.00     0.034 A 
ATOM     49  C   UNL A   1      40.815  28.449  30.072  1.00  0.00     0.034 A 
ATOM     50  C   UNL A   1      41.807  32.047  35.348  1.00  0.00     0.049 A 
ATOM     51  C   UNL A   1      41.852  28.403  31.159  1.00  0.00     0.074 A 
ATOM     52  C   UNL A   1      42.720  31.848  36.371  1.00  0.00     0.029 A 
ATOM     53  N   UNL A   1      42.006  31.023  34.437  1.00  0.00    -0.354 N 
ATOM     54  N   UNL A   1      41.955  29.151  32.229  1.00  0.00    -0.248 NA
ATOM     55  C   UNL A   1      42.876  27.352  31.061  1.00  0.00     0.031 C 
ATOM     56  C   UNL A   1      43.492  30.724  36.061  1.00  0.00     0.029 A 
ATOM     57  C   UNL A   1      43.037  30.201  34.863  1.00  0.00     0.049 A 
ATOM     58  H   UNL A   1      41.489  30.898  33.608  1.00  0.00     0.167 HD
ATOM     59  C   UNL A   1      43.014  28.624  32.961  1.00  0.00     0.074 A 
ATOM     60  C   UNL A   1      43.519  27.493  32.212  1.00  0.00     0.031 C 
ATOM     61  C   UNL A   1      43.515  29.045  34.148  1.00  0.00     0.034 A 
BRANCH  48  62
ATOM     62  C   UNL A   1      40.808  34.175  36.271  1.00  0.00     0.023 A 
ATOM     63  C   UNL A   1      41.393  35.430  36.000  1.00  0.00     0.012 A 
ATOM     64  C   UNL A   1      40.149  33.973  37.499  1.00  0.00     0.148 A 
ATOM     65  C   UNL A   1      41.358  36.452  36.947  1.00  0.00     0.002 A 
ATOM     66  C   UNL A   1      40.078  35.012  38.420  1.00  0.00     0.091 A 
ATOM     67  F   UNL A   1      39.609  32.771  37.746  1.00  0.00    -0.205 F 
ATOM     68  C   UNL A   1      40.692  36.246  38.151  1.00  0.00     0.022 A 
BRANCH  66  69
ATOM     69  S   UNL A   1      39.176  34.879  39.969  1.00  0.00     0.127 S 
ATOM     70  O   UNL A   1      40.212  34.379  40.870  1.00  0.00    -0.237 OA
ATOM     71  O   UNL A   1      38.771  36.263  40.210  1.00  0.00    -0.237 OA
ATOM     72  O   UNL A   1      38.075  33.958  39.713  1.00  0.00    -0.744 OA
ENDBRANCH  66  69
ENDBRANCH  48  62
BRANCH  49  73
ATOM     73  C   UNL A   1      40.882  27.505  28.919  1.00  0.00     0.023 A 
ATOM     74  C   UNL A   1      40.008  26.402  28.878  1.00  0.00     0.012 A 
ATOM     75  C   UNL A   1      41.794  27.704  27.863  1.00  0.00     0.148 A 
ATOM     76  C   UNL A   1      40.062  25.492  27.821  1.00  0.00     0.002 A 
ATOM     77  C   UNL A   1      41.811  26.819  26.791  1.00  0.00     0.091 A 
ATOM     78  F   UNL A   1      42.626  28.754  27.931  1.00  0.00    -0.205 F 
ATOM     79  C   UNL A   1      40.957  25.705  26.776  1.00  0.00     0.022 A 
BRANCH  77  80
ATOM     80  S   UNL A   1      42.869  27.047  25.355  1.00  0.00     0.127 S 
ATOM     81  O   UNL A   1      42.681  25.785  24.643  1.00  0.00    -0.237 OA
ATOM     82  O   UNL A   1      42.255  28.211  24.712  1.00  0.00    -0.237 OA
ATOM     83  O   UNL A   1      44.210  27.275  25.875  1.00  0.00    -0.744 OA
ENDBRANCH  77  80
ENDBRANCH  49  73
BRANCH  61  84
ATOM     84  C   UNL A   1      44.648  28.256  34.754  1.00  0.00     0.023 A 
ATOM     85  C   UNL A   1      45.982  28.660  34.544  1.00  0.00     0.012 A 
ATOM     86  C   UNL A   1      44.386  27.150  35.589  1.00  0.00     0.148 A 
ATOM     87  C   UNL A   1      47.037  27.957  35.126  1.00  0.00     0.002 A 
ATOM     88  C   UNL A   1      45.439  26.485  36.207  1.00  0.00     0.091 A 
ATOM     89  F   UNL A   1      43.113  26.767  35.761  1.00  0.00    -0.205 F 
ATOM     90  C   UNL A   1      46.765  26.879  35.966  1.00  0.00     0.022 A 
BRANCH  88  91
ATOM     91  S   UNL A   1      45.184  25.148  37.378  1.00  0.00     0.127 S 
ATOM     92  O   UNL A   1      44.659  24.090  36.515  1.00  0.00    -0.237 OA
ATOM     93  O   UNL A   1      46.539  24.912  37.878  1.00  0.00    -0.237 OA
ATOM     94  O   UNL A   1      44.252  25.658  38.375  1.00  0.00    -0.744 OA
ENDBRANCH  88  91
ENDBRANCH  61  84
ENDBRANCH  35  36
ENDBRANCH  27  30
ENDBRANCH  25  26
ENDBRANCH  24  25
ENDBRANCH   1  24
TORSDOF 18
ENDMDL
MODEL 2
REMARK VINA RESULT:     -11.2      5.265      9.725
REMARK SMILES O=C(CCC[NH2+][C@H]1CCOC2(CCOCC2)C1)NCCCCNC(=O)c1ccc(-c2c3nc(c(-c4cccc(S(=O)(=O)[O-])c4F)c4ccc([nH]4)c(-c4cccc(S(=O)(=O)[O-])c4F)c4nc(c(-c5cccc(S(=O)(=O)[O-])c5F)c5ccc2[nH]5)C=C4)C=C3)cc1
REMARK SMILES IDX 20 1 19 2 18 3 1 4 2 5 3 7 4 8 5 9 6 10 7 13 8 14 17 15 9 16
REMARK SMILES IDX 11 17 10 18 12 19 16 20 13 21 15 22 14 23 21 24 22 25 23 26
REMARK SMILES IDX 24 27 25 29 26 30 27 31 88 32 28 33 87 34 29 35 30 36 31 37
REMARK SMILES IDX 81 38 32 39 86 40 80 41 82 42 33 43 85 44 79 45 78 46 34 48
REMARK SMILES IDX 66 49 46 50 65 51 47 52 50 53 64 54 83 55 48 56 49 57 63 59
REMARK SMILES IDX 84 60 51 61 35 62 36 63 44 64 37 65 39 66 45 67 38 68 40 69
REMARK SMILES IDX 41 70 42 71 43 72 67 73 68 74 76 75 69 76 71 77 77 78 70 79
REMARK SMILES IDX 72 80 73 81 74 82 75 83 52 84 53 85 61 86 54 87 56 88 62 89
REMARK SMILES IDX 55 90 57 91 58 92 59 93 60 94
REMARK H PARENT 18 6 6 11 6 12 23 28 82 47 50 58
REMARK Flexibility Score: inf
ROOT
ATOM      1  C   UNL A   1      35.219  21.875  26.395  1.00  0.00     0.023 C 
ENDROOT
BRANCH   1   2
ATOM      2  C   UNL A   1      34.523  20.956  25.389  1.00  0.00     0.116 C 
BRANCH   2   3
ATOM      3  N   UNL A   1      33.870  21.664  24.300  1.00  0.00    -0.356 N 
ATOM      4  O   UNL A   1      31.788  21.706  25.270  1.00  0.00    -0.275 OA
ATOM      5  C   UNL A   1      32.539  22.020  24.351  1.00  0.00     0.220 C 
ATOM      6  H   UNL A   1      34.396  21.899  23.500  1.00  0.00     0.163 HD
BRANCH   5   7
ATOM      7  C   UNL A   1      32.051  22.851  23.178  1.00  0.00     0.106 C 
BRANCH   7   8
ATOM      8  C   UNL A   1      33.189  23.369  22.293  1.00  0.00     0.071 C 
BRANCH   8   9
ATOM      9  C   UNL A   1      33.829  24.681  22.762  1.00  0.00     0.261 C 
BRANCH   9  10
ATOM     10  N   UNL A   1      33.343  25.830  22.018  1.00  0.00    -0.344 N 
ATOM     11  H   UNL A   1      32.732  25.473  21.284  1.00  0.00     0.346 HD
ATOM     12  H   UNL A   1      34.196  26.302  21.714  1.00  0.00     0.346 HD
BRANCH  10  13
ATOM     13  C   UNL A   1      32.597  26.880  22.729  1.00  0.00     0.187 C 
ATOM     14  C   UNL A   1      31.073  26.746  22.695  1.00  0.00     0.093 C 
ATOM     15  C   UNL A   1      33.108  26.960  24.181  1.00  0.00     0.100 C 
ATOM     16  C   UNL A   1      30.432  27.813  23.552  1.00  0.00     0.167 C 
ATOM     17  C   UNL A   1      32.295  27.905  25.089  1.00  0.00     0.078 C 
ATOM     18  O   UNL A   1      30.889  27.670  24.892  1.00  0.00    -0.374 OA
ATOM     19  C   UNL A   1      32.646  29.391  24.883  1.00  0.00     0.064 C 
ATOM     20  C   UNL A   1      32.595  27.566  26.566  1.00  0.00     0.064 C 
ATOM     21  C   UNL A   1      31.908  30.254  25.902  1.00  0.00     0.163 C 
ATOM     22  C   UNL A   1      31.849  28.503  27.497  1.00  0.00     0.163 C 
ATOM     23  O   UNL A   1      32.228  29.844  27.234  1.00  0.00    -0.381 OA
ENDBRANCH  10  13
ENDBRANCH   9  10
ENDBRANCH   8   9
ENDBRANCH   7   8
ENDBRANCH   5   7
ENDBRANCH   2   3
ENDBRANCH   1   2
BRANCH   1  24
ATOM     24  C   UNL A   1      35.536  23.283  25.890  1.00  0.00     0.023 C 
BRANCH  24  25
ATOM     25  C   UNL A   1      36.898  23.498  25.228  1.00  0.00     0.116 C 
BRANCH  25  26
ATOM     26  N   UNL A   1      37.908  22.558  25.681  1.00  0.00    -0.352 N 
ATOM     27  C   UNL A   1      39.107  22.785  26.321  1.00  0.00     0.251 C 
ATOM     28  H   UNL A   1      37.705  21.611  25.503  1.00  0.00     0.163 HD
ATOM     29  O   UNL A   1      39.879  21.838  26.473  1.00  0.00    -0.269 OA
BRANCH  27  30
ATOM     30  C   UNL A   1      39.510  24.133  26.820  1.00  0.00     0.039 A 
ATOM     31  C   UNL A   1      39.198  24.483  28.140  1.00  0.00     0.014 A 
ATOM     32  C   UNL A   1      40.115  25.086  26.003  1.00  0.00     0.014 A 
ATOM     33  C   UNL A   1      39.538  25.748  28.649  1.00  0.00     0.010 A 
ATOM     34  C   UNL A   1      40.513  26.324  26.533  1.00  0.00     0.010 A 
ATOM     35  C   UNL A   1      40.232  26.680  27.862  1.00  0.00    -0.014 A 
BRANCH  35  36
ATOM     36  C   UNL A   1      40.686  28.002  28.406  1.00  0.00     0.031 A 
ATOM     37  C   UNL A   1      42.147  28.267  28.695  1.00  0.00     0.074 A 
ATOM     38  C   UNL A   1      39.787  28.952  28.743  1.00  0.00     0.049 A 
ATOM     39  N   UNL A   1      42.703  29.324  29.236  1.00  0.00    -0.248 NA
ATOM     40  C   UNL A   1      43.105  27.209  28.340  1.00  0.00     0.031 C 
ATOM     41  C   UNL A   1      38.340  28.845  28.573  1.00  0.00     0.029 A 
ATOM     42  N   UNL A   1      39.949  30.174  29.361  1.00  0.00    -0.354 N 
ATOM     43  C   UNL A   1      44.068  29.059  29.285  1.00  0.00     0.074 A 
ATOM     44  C   UNL A   1      44.248  27.715  28.780  1.00  0.00     0.031 C 
ATOM     45  C   UNL A   1      37.742  29.904  29.139  1.00  0.00     0.029 A 
ATOM     46  C   UNL A   1      38.761  30.781  29.703  1.00  0.00     0.049 A 
ATOM     47  H   UNL A   1      40.831  30.572  29.542  1.00  0.00     0.167 HD
ATOM     48  C   UNL A   1      45.086  29.870  29.667  1.00  0.00     0.034 A 
ATOM     49  C   UNL A   1      38.501  31.906  30.398  1.00  0.00     0.034 A 
ATOM     50  C   UNL A   1      44.922  31.221  30.139  1.00  0.00     0.049 A 
ATOM     51  C   UNL A   1      39.640  32.785  30.834  1.00  0.00     0.074 A 
ATOM     52  C   UNL A   1      45.903  32.148  30.449  1.00  0.00     0.029 A 
ATOM     53  N   UNL A   1      43.706  31.836  30.386  1.00  0.00    -0.354 N 
ATOM     54  N   UNL A   1      40.928  32.588  30.701  1.00  0.00    -0.248 NA
ATOM     55  C   UNL A   1      39.291  34.074  31.450  1.00  0.00     0.031 C 
ATOM     56  C   UNL A   1      45.281  33.311  30.914  1.00  0.00     0.029 A 
ATOM     57  C   UNL A   1      43.911  33.121  30.861  1.00  0.00     0.049 A 
ATOM     58  H   UNL A   1      42.825  31.420  30.244  1.00  0.00     0.167 HD
ATOM     59  C   UNL A   1      41.540  33.749  31.160  1.00  0.00     0.074 A 
ATOM     60  C   UNL A   1      40.481  34.646  31.573  1.00  0.00     0.031 C 
ATOM     61  C   UNL A   1      42.862  34.039  31.229  1.00  0.00     0.034 A 
BRANCH  48  62
ATOM     62  C   UNL A   1      46.492  29.343  29.521  1.00  0.00     0.023 A 
ATOM     63  C   UNL A   1      47.051  28.567  30.559  1.00  0.00     0.012 A 
ATOM     64  C   UNL A   1      47.233  29.549  28.341  1.00  0.00     0.148 A 
ATOM     65  C   UNL A   1      48.336  28.040  30.443  1.00  0.00     0.002 A 
ATOM     66  C   UNL A   1      48.496  28.981  28.213  1.00  0.00     0.091 A 
ATOM     67  F   UNL A   1      46.693  30.298  27.369  1.00  0.00    -0.205 F 
ATOM     68  C   UNL A   1      49.053  28.239  29.267  1.00  0.00     0.022 A 
BRANCH  66  69
ATOM     69  S   UNL A   1      49.472  29.109  26.710  1.00  0.00     0.127 S 
ATOM     70  O   UNL A   1      48.560  28.543  25.718  1.00  0.00    -0.237 OA
ATOM     71  O   UNL A   1      49.678  30.552  26.598  1.00  0.00    -0.237 OA
ATOM     72  O   UNL A   1      50.685  28.338  26.953  1.00  0.00    -0.744 OA
ENDBRANCH  66  69
ENDBRANCH  48  62
BRANCH  49  73
ATOM     73  C   UNL A   1      37.089  32.313  30.653  1.00  0.00     0.023 A 
ATOM     74  C   UNL A   1      36.521  32.082  31.921  1.00  0.00     0.012 A 
ATOM     75  C   UNL A   1      36.316  32.939  29.654  1.00  0.00     0.148 A 
ATOM     76  C   UNL A   1      35.196  32.435  32.181  1.00  0.00     0.002 A 
ATOM     77  C   UNL A   1      35.012  33.329  29.934  1.00  0.00     0.091 A 
ATOM     78  F   UNL A   1      36.874  33.137  28.451  1.00  0.00    -0.205 F 
ATOM     79  C   UNL A   1      34.446  33.064  31.192  1.00  0.00     0.022 A 
BRANCH  77  80
ATOM     80  S   UNL A   1      33.986  34.221  28.757  1.00  0.00     0.127 S 
ATOM     81  O   UNL A   1      33.684  33.179  27.777  1.00  0.00    -0.237 OA
ATOM     82  O   UNL A   1      32.853  34.625  29.590  1.00  0.00    -0.237 OA
ATOM     83  O   UNL A   1      34.803  35.321  28.264  1.00  0.00    -0.744 OA
ENDBRANCH  77  80
ENDBRANCH  49  73
BRANCH  61  84
ATOM     84  C   UNL A   1      43.260  35.406  31.727  1.00  0.00     0.023 A 
ATOM     85  C   UNL A   1      43.423  35.634  33.108  1.00  0.00     0.012 A 
ATOM     86  C   UNL A   1      43.535  36.448  30.818  1.00  0.00     0.148 A 
ATOM     87  C   UNL A   1      43.822  36.885  33.578  1.00  0.00     0.002 A 
ATOM     88  C   UNL A   1      43.981  37.677  31.291  1.00  0.00     0.091 A 
ATOM     89  F   UNL A   1      43.355  36.219  29.510  1.00  0.00    -0.205 F 
ATOM     90  C   UNL A   1      44.112  37.902  32.670  1.00  0.00     0.022 A 
BRANCH  88  91
ATOM     91  S   UNL A   1      44.471  39.013  30.195  1.00  0.00     0.127 S 
ATOM     92  O   UNL A   1      45.518  38.378  29.397  1.00  0.00    -0.237 OA
ATOM     93  O   UNL A   1      43.230  39.286  29.468  1.00  0.00    -0.237 OA
ATOM     94  O   UNL A   1      44.917  40.099  31.058  1.00  0.00    -0.744 OA
ENDBRANCH  88  91
ENDBRANCH  61  84
ENDBRANCH  35  36
ENDBRANCH  27  30
ENDBRANCH  25  26
ENDBRANCH  24  25
ENDBRANCH   1  24
TORSDOF 18
ENDMDL
MODEL 3
REMARK VINA RESULT:     -11.1      6.811     10.949
REMARK SMILES O=C(CCC[NH2+][C@H]1CCOC2(CCOCC2)C1)NCCCCNC(=O)c1ccc(-c2c3nc(c(-c4cccc(S(=O)(=O)[O-])c4F)c4ccc([nH]4)c(-c4cccc(S(=O)(=O)[O-])c4F)c4nc(c(-c5cccc(S(=O)(=O)[O-])c5F)c5ccc2[nH]5)C=C4)C=C3)cc1
REMARK SMILES IDX 20 1 19 2 18 3 1 4 2 5 3 7 4 8 5 9 6 10 7 13 8 14 17 15 9 16
REMARK SMILES IDX 11 17 10 18 12 19 16 20 13 21 15 22 14 23 21 24 22 25 23 26
REMARK SMILES IDX 24 27 25 29 26 30 27 31 88 32 28 33 87 34 29 35 30 36 31 37
REMARK SMILES IDX 81 38 32 39 86 40 80 41 82 42 33 43 85 44 79 45 78 46 34 48
REMARK SMILES IDX 66 49 46 50 65 51 47 52 50 53 64 54 83 55 48 56 49 57 63 59
REMARK SMILES IDX 84 60 51 61 35 62 36 63 44 64 37 65 39 66 45 67 38 68 40 69
REMARK SMILES IDX 41 70 42 71 43 72 67 73 68 74 76 75 69 76 71 77 77 78 70 79
REMARK SMILES IDX 72 80 73 81 74 82 75 83 52 84 53 85 61 86 54 87 56 88 62 89
REMARK SMILES IDX 55 90 57 91 58 92 59 93 60 94
REMARK H PARENT 18 6 6 11 6 12 23 28 82 47 50 58
REMARK Flexibility Score: inf
ROOT
ATOM      1  C   UNL A   1      38.997  22.600  26.221  1.00  0.00     0.023 C 
ENDROOT
BRANCH   1   2
ATOM      2  C   UNL A   1      37.788  23.416  25.756  1.00  0.00     0.116 C 
BRANCH   2   3
ATOM      3  N   UNL A   1      36.574  23.148  26.511  1.00  0.00    -0.356 N 
ATOM      4  O   UNL A   1      35.147  23.331  24.719  1.00  0.00    -0.275 OA
ATOM      5  C   UNL A   1      35.335  23.090  25.908  1.00  0.00     0.220 C 
ATOM      6  H   UNL A   1      36.639  23.003  27.483  1.00  0.00     0.163 HD
BRANCH   5   7
ATOM      7  C   UNL A   1      34.193  22.691  26.826  1.00  0.00     0.106 C 
BRANCH   7   8
ATOM      8  C   UNL A   1      32.825  23.166  26.325  1.00  0.00     0.071 C 
BRANCH   8   9
ATOM      9  C   UNL A   1      31.956  22.080  25.682  1.00  0.00     0.261 C 
BRANCH   9  10
ATOM     10  N   UNL A   1      32.578  21.497  24.506  1.00  0.00    -0.344 N 
ATOM     11  H   UNL A   1      33.578  21.683  24.575  1.00  0.00     0.346 HD
ATOM     12  H   UNL A   1      32.083  21.934  23.728  1.00  0.00     0.346 HD
BRANCH  10  13
ATOM     13  C   UNL A   1      32.423  20.055  24.255  1.00  0.00     0.187 C 
ATOM     14  C   UNL A   1      32.308  19.649  22.784  1.00  0.00     0.093 C 
ATOM     15  C   UNL A   1      33.578  19.302  24.943  1.00  0.00     0.100 C 
ATOM     16  C   UNL A   1      32.271  18.145  22.656  1.00  0.00     0.167 C 
ATOM     17  C   UNL A   1      33.636  17.795  24.619  1.00  0.00     0.078 C 
ATOM     18  O   UNL A   1      33.466  17.601  23.203  1.00  0.00    -0.374 OA
ATOM     19  C   UNL A   1      32.616  16.966  25.422  1.00  0.00     0.064 C 
ATOM     20  C   UNL A   1      35.040  17.257  24.972  1.00  0.00     0.064 C 
ATOM     21  C   UNL A   1      32.818  15.477  25.155  1.00  0.00     0.163 C 
ATOM     22  C   UNL A   1      35.128  15.766  24.710  1.00  0.00     0.163 C 
ATOM     23  O   UNL A   1      34.153  15.085  25.483  1.00  0.00    -0.381 OA
ENDBRANCH  10  13
ENDBRANCH   9  10
ENDBRANCH   8   9
ENDBRANCH   7   8
ENDBRANCH   5   7
ENDBRANCH   2   3
ENDBRANCH   1   2
BRANCH   1  24
ATOM     24  C   UNL A   1      39.223  21.280  25.485  1.00  0.00     0.023 C 
BRANCH  24  25
ATOM     25  C   UNL A   1      39.240  20.004  26.329  1.00  0.00     0.116 C 
BRANCH  25  26
ATOM     26  N   UNL A   1      40.384  19.152  26.054  1.00  0.00    -0.352 N 
ATOM     27  C   UNL A   1      41.724  19.465  25.978  1.00  0.00     0.251 C 
ATOM     28  H   UNL A   1      40.169  18.204  25.899  1.00  0.00     0.163 HD
ATOM     29  O   UNL A   1      42.505  18.601  25.578  1.00  0.00    -0.269 OA
BRANCH  27  30
ATOM     30  C   UNL A   1      42.259  20.809  26.344  1.00  0.00     0.039 A 
ATOM     31  C   UNL A   1      42.782  21.624  25.332  1.00  0.00     0.014 A 
ATOM     32  C   UNL A   1      42.328  21.256  27.662  1.00  0.00     0.014 A 
ATOM     33  C   UNL A   1      43.316  22.889  25.632  1.00  0.00     0.010 A 
ATOM     34  C   UNL A   1      42.800  22.547  27.950  1.00  0.00     0.010 A 
ATOM     35  C   UNL A   1      43.304  23.387  26.943  1.00  0.00    -0.014 A 
BRANCH  35  36
ATOM     36  C   UNL A   1      43.784  24.768  27.278  1.00  0.00     0.031 A 
ATOM     37  C   UNL A   1      42.819  25.844  27.721  1.00  0.00     0.074 A 
ATOM     38  C   UNL A   1      45.078  25.109  27.093  1.00  0.00     0.049 A 
ATOM     39  N   UNL A   1      43.052  27.108  27.977  1.00  0.00    -0.248 NA
ATOM     40  C   UNL A   1      41.411  25.454  27.893  1.00  0.00     0.031 C 
ATOM     41  C   UNL A   1      46.132  24.209  26.630  1.00  0.00     0.029 A 
ATOM     42  N   UNL A   1      45.720  26.323  27.211  1.00  0.00    -0.354 N 
ATOM     43  C   UNL A   1      41.828  27.662  28.337  1.00  0.00     0.074 A 
ATOM     44  C   UNL A   1      40.842  26.610  28.203  1.00  0.00     0.031 C 
ATOM     45  C   UNL A   1      47.260  24.907  26.426  1.00  0.00     0.029 A 
ATOM     46  C   UNL A   1      47.021  26.306  26.758  1.00  0.00     0.049 A 
ATOM     47  H   UNL A   1      45.288  27.126  27.582  1.00  0.00     0.167 HD
ATOM     48  C   UNL A   1      41.549  28.912  28.785  1.00  0.00     0.034 A 
ATOM     49  C   UNL A   1      47.928  27.292  26.608  1.00  0.00     0.034 A 
ATOM     50  C   UNL A   1      42.527  29.956  28.954  1.00  0.00     0.049 A 
ATOM     51  C   UNL A   1      47.598  28.677  27.090  1.00  0.00     0.074 A 
ATOM     52  C   UNL A   1      42.351  31.217  29.499  1.00  0.00     0.029 A 
ATOM     53  N   UNL A   1      43.855  29.873  28.571  1.00  0.00    -0.354 N 
ATOM     54  N   UNL A   1      46.478  29.127  27.598  1.00  0.00    -0.248 NA
ATOM     55  C   UNL A   1      48.678  29.675  27.044  1.00  0.00     0.031 C 
ATOM     56  C   UNL A   1      43.565  31.908  29.414  1.00  0.00     0.029 A 
ATOM     57  C   UNL A   1      44.505  31.064  28.849  1.00  0.00     0.049 A 
ATOM     58  H   UNL A   1      44.275  29.082  28.160  1.00  0.00     0.167 HD
ATOM     59  C   UNL A   1      46.735  30.437  27.988  1.00  0.00     0.074 A 
ATOM     60  C   UNL A   1      48.118  30.708  27.657  1.00  0.00     0.031 C 
ATOM     61  C   UNL A   1      45.895  31.328  28.568  1.00  0.00     0.034 A 
BRANCH  48  62
ATOM     62  C   UNL A   1      40.128  29.205  29.200  1.00  0.00     0.023 A 
ATOM     63  C   UNL A   1      39.164  29.489  28.210  1.00  0.00     0.012 A 
ATOM     64  C   UNL A   1      39.729  29.133  30.549  1.00  0.00     0.148 A 
ATOM     65  C   UNL A   1      37.837  29.735  28.558  1.00  0.00     0.002 A 
ATOM     66  C   UNL A   1      38.394  29.333  30.883  1.00  0.00     0.091 A 
ATOM     67  F   UNL A   1      40.660  28.874  31.479  1.00  0.00    -0.205 F 
ATOM     68  C   UNL A   1      37.451  29.648  29.891  1.00  0.00     0.022 A 
BRANCH  66  69
ATOM     69  S   UNL A   1      37.777  29.165  32.562  1.00  0.00     0.127 S 
ATOM     70  O   UNL A   1      38.723  29.993  33.308  1.00  0.00    -0.237 OA
ATOM     71  O   UNL A   1      36.430  29.724  32.453  1.00  0.00    -0.237 OA
ATOM     72  O   UNL A   1      37.822  27.740  32.865  1.00  0.00    -0.744 OA
ENDBRANCH  66  69
ENDBRANCH  48  62
BRANCH  49  73
ATOM     73  C   UNL A   1      49.275  26.985  26.049  1.00  0.00     0.023 A 
ATOM     74  C   UNL A   1      50.234  26.351  26.863  1.00  0.00     0.012 A 
ATOM     75  C   UNL A   1      49.603  27.302  24.715  1.00  0.00     0.148 A 
ATOM     76  C   UNL A   1      51.509  26.069  26.371  1.00  0.00     0.002 A 
ATOM     77  C   UNL A   1      50.861  26.977  24.218  1.00  0.00     0.091 A 
ATOM     78  F   UNL A   1      48.679  27.917  23.963  1.00  0.00    -0.205 F 
ATOM     79  C   UNL A   1      51.819  26.375  25.049  1.00  0.00     0.022 A 
BRANCH  77  80
ATOM     80  S   UNL A   1      51.333  27.253  22.505  1.00  0.00     0.127 S 
ATOM     81  O   UNL A   1      52.625  26.574  22.440  1.00  0.00    -0.237 OA
ATOM     82  O   UNL A   1      50.251  26.582  21.783  1.00  0.00    -0.237 OA
ATOM     83  O   UNL A   1      51.379  28.698  22.329  1.00  0.00    -0.744 OA
ENDBRANCH  77  80
ENDBRANCH  49  73
BRANCH  61  84
ATOM     84  C   UNL A   1      46.447  32.681  28.937  1.00  0.00     0.023 A 
ATOM     85  C   UNL A   1      47.150  32.850  30.147  1.00  0.00     0.012 A 
ATOM     86  C   UNL A   1      46.325  33.771  28.052  1.00  0.00     0.148 A 
ATOM     87  C   UNL A   1      47.694  34.091  30.484  1.00  0.00     0.002 A 
ATOM     88  C   UNL A   1      46.913  34.990  28.371  1.00  0.00     0.091 A 
ATOM     89  F   UNL A   1      45.635  33.598  26.915  1.00  0.00    -0.205 F 
ATOM     90  C   UNL A   1      47.585  35.155  29.592  1.00  0.00     0.022 A 
BRANCH  88  91
ATOM     91  S   UNL A   1      46.908  36.389  27.245  1.00  0.00     0.127 S 
ATOM     92  O   UNL A   1      45.478  36.666  27.116  1.00  0.00    -0.237 OA
ATOM     93  O   UNL A   1      47.659  37.395  27.998  1.00  0.00    -0.237 OA
ATOM     94  O   UNL A   1      47.566  35.930  26.029  1.00  0.00    -0.744 OA
ENDBRANCH  88  91
ENDBRANCH  61  84
ENDBRANCH  35  36
ENDBRANCH  27  30
ENDBRANCH  25  26
ENDBRANCH  24  25
ENDBRANCH   1  24
TORSDOF 18
ENDMDL
