MODEL 1
REMARK VINA RESULT:     -12.0      0.000      0.000
REMARK SMILES COC(=O)c1c(NC(=O)[C@@H]2C[C@@H]2C(=O)NCCCCNC(=O)c2ccc(-c3c4nc(c(-c5cccc(S(=O)(=O)[O-])c5F)c5ccc([nH]5)c(-c5cccc(S(=O)(=O)[O-])c5F)c5nc(c(-c6cccc(S(=O)(=O)[O-])c6F)c6ccc3[nH]6)C=C5)C=C4)cc2)sc2c1CC[N@@H+](Cc1ccccc1)C2
REMARK SMILES IDX 17 1 16 2 15 3 13 4 14 5 12 7 10 8 11 9 8 10 7 11 9 13 6 14
REMARK SMILES IDX 5 15 88 16 86 17 87 18 89 19 99 20 90 21 91 22 3 24 4 25
REMARK SMILES IDX 2 26 1 27 92 28 93 29 94 30 98 31 95 32 97 33 96 34 18 35
REMARK SMILES IDX 19 36 20 37 21 38 22 40 23 41 24 42 85 43 25 44 84 45 26 46
REMARK SMILES IDX 27 47 28 48 78 49 29 50 83 51 77 52 79 53 30 54 82 55 76 56
REMARK SMILES IDX 75 57 31 59 63 60 43 61 62 62 44 63 47 64 61 65 80 66 45 67
REMARK SMILES IDX 46 68 60 70 81 71 48 72 32 73 33 74 41 75 34 76 36 77 42 78
REMARK SMILES IDX 35 79 37 80 38 81 39 82 40 83 64 84 65 85 73 86 66 87 68 88
REMARK SMILES IDX 74 89 67 90 69 91 70 92 71 93 72 94 49 95 50 96 58 97 51 98
REMARK SMILES IDX 53 99 59 100 52 101 54 102 55 103 56 104 57 105
REMARK H PARENT 15 6 7 12 91 23 20 39 79 58 47 69
REMARK Flexibility Score: inf
ROOT
ATOM      1  C   UNL A   1      34.832  29.508  27.602  1.00  0.00     0.023 C 
ENDROOT
BRANCH   1   2
ATOM      2  C   UNL A   1      34.522  28.472  26.516  1.00  0.00     0.116 C 
BRANCH   2   3
ATOM      3  N   UNL A   1      33.105  28.203  26.441  1.00  0.00    -0.356 N 
ATOM      4  C   UNL A   1      32.189  28.517  25.478  1.00  0.00     0.223 C 
ATOM      5  O   UNL A   1      31.040  28.112  25.610  1.00  0.00    -0.275 OA
ATOM      6  H   UNL A   1      32.738  27.714  27.212  1.00  0.00     0.163 HD
BRANCH   4   7
ATOM      7  C   UNL A   1      32.592  29.162  24.208  1.00  0.00     0.091 C 
ATOM      8  C   UNL A   1      32.120  28.878  22.807  1.00  0.00     0.092 C 
ATOM      9  C   UNL A   1      33.470  28.438  23.196  1.00  0.00     0.028 C 
BRANCH   8  10
ATOM     10  C   UNL A   1      30.960  28.052  22.458  1.00  0.00     0.228 C 
ATOM     11  N   UNL A   1      30.691  26.733  22.643  1.00  0.00    -0.317 N 
ATOM     12  H   UNL A   1      29.761  26.594  22.353  1.00  0.00     0.170 HD
ATOM     13  O   UNL A   1      30.024  28.672  21.937  1.00  0.00    -0.274 OA
BRANCH  11  14
ATOM     14  C   UNL A   1      31.156  25.512  23.060  1.00  0.00     0.110 A 
ATOM     15  C   UNL A   1      32.050  24.481  22.815  1.00  0.00     0.098 A 
ATOM     16  C   UNL A   1      31.830  23.378  23.740  1.00  0.00    -0.006 A 
ATOM     17  S   UNL A   1      30.176  25.153  24.458  1.00  0.00    -0.116 S 
ATOM     18  C   UNL A   1      30.978  23.710  24.766  1.00  0.00     0.065 A 
ATOM     19  C   UNL A   1      32.527  22.047  23.740  1.00  0.00     0.099 C 
ATOM     20  C   UNL A   1      30.752  22.902  26.007  1.00  0.00     0.310 C 
ATOM     21  C   UNL A   1      32.101  21.172  24.946  1.00  0.00     0.267 C 
ATOM     22  N   UNL A   1      31.790  21.874  26.204  1.00  0.00    -0.326 N 
ATOM     23  H   UNL A   1      31.380  21.173  26.821  1.00  0.00     0.348 HD
BRANCH  15  24
ATOM     24  C   UNL A   1      33.060  24.345  21.780  1.00  0.00     0.341 C 
ATOM     25  O   UNL A   1      33.768  23.357  21.671  1.00  0.00    -0.246 OA
BRANCH  24  26
ATOM     26  O   UNL A   1      33.193  25.482  21.047  1.00  0.00    -0.465 OA
ATOM     27  C   UNL A   1      32.567  25.479  19.760  1.00  0.00     0.282 C 
ENDBRANCH  24  26
ENDBRANCH  15  24
BRANCH  22  28
ATOM     28  C   UNL A   1      32.958  22.302  26.994  1.00  0.00     0.299 C 
BRANCH  28  29
ATOM     29  C   UNL A   1      34.266  22.552  26.276  1.00  0.00     0.006 A 
ATOM     30  C   UNL A   1      35.162  21.497  26.032  1.00  0.00     0.009 A 
ATOM     31  C   UNL A   1      34.605  23.834  25.821  1.00  0.00     0.009 A 
ATOM     32  C   UNL A   1      36.324  21.708  25.285  1.00  0.00     0.001 A 
ATOM     33  C   UNL A   1      35.759  24.039  25.066  1.00  0.00     0.001 A 
ATOM     34  C   UNL A   1      36.612  22.975  24.789  1.00  0.00     0.000 A 
ENDBRANCH  28  29
ENDBRANCH  22  28
ENDBRANCH  11  14
ENDBRANCH   8  10
ENDBRANCH   4   7
ENDBRANCH   2   3
ENDBRANCH   1   2
BRANCH   1  35
ATOM     35  C   UNL A   1      34.414  30.957  27.344  1.00  0.00     0.023 C 
BRANCH  35  36
ATOM     36  C   UNL A   1      35.354  32.018  27.898  1.00  0.00     0.116 C 
BRANCH  36  37
ATOM     37  N   UNL A   1      34.870  32.637  29.138  1.00  0.00    -0.352 N 
ATOM     38  C   UNL A   1      35.138  32.249  30.440  1.00  0.00     0.251 C 
ATOM     39  H   UNL A   1      34.285  33.421  29.031  1.00  0.00     0.163 HD
ATOM     40  O   UNL A   1      34.410  32.575  31.369  1.00  0.00    -0.269 OA
BRANCH  38  41
ATOM     41  C   UNL A   1      36.348  31.448  30.678  1.00  0.00     0.039 A 
ATOM     42  C   UNL A   1      36.336  30.053  30.706  1.00  0.00     0.014 A 
ATOM     43  C   UNL A   1      37.540  32.160  30.771  1.00  0.00     0.014 A 
ATOM     44  C   UNL A   1      37.556  29.382  30.723  1.00  0.00     0.010 A 
ATOM     45  C   UNL A   1      38.724  31.507  30.580  1.00  0.00     0.010 A 
ATOM     46  C   UNL A   1      38.746  30.121  30.629  1.00  0.00    -0.014 A 
BRANCH  46  47
ATOM     47  C   UNL A   1      40.040  29.472  30.495  1.00  0.00     0.031 A 
ATOM     48  C   UNL A   1      40.689  29.096  31.777  1.00  0.00     0.074 A 
ATOM     49  C   UNL A   1      40.516  29.054  29.303  1.00  0.00     0.049 A 
ATOM     50  N   UNL A   1      41.687  29.693  32.339  1.00  0.00    -0.248 NA
ATOM     51  C   UNL A   1      40.078  28.052  32.611  1.00  0.00     0.031 C 
ATOM     52  C   UNL A   1      39.841  29.053  27.997  1.00  0.00     0.029 A 
ATOM     53  N   UNL A   1      41.671  28.392  29.038  1.00  0.00    -0.354 N 
ATOM     54  C   UNL A   1      41.995  28.938  33.468  1.00  0.00     0.074 A 
ATOM     55  C   UNL A   1      40.849  28.099  33.703  1.00  0.00     0.031 C 
ATOM     56  C   UNL A   1      40.471  28.193  27.167  1.00  0.00     0.029 A 
ATOM     57  C   UNL A   1      41.685  27.735  27.814  1.00  0.00     0.049 A 
ATOM     58  H   UNL A   1      42.433  28.379  29.661  1.00  0.00     0.167 HD
ATOM     59  C   UNL A   1      43.268  28.893  33.952  1.00  0.00     0.034 A 
ATOM     60  C   UNL A   1      42.609  26.836  27.398  1.00  0.00     0.034 A 
ATOM     61  C   UNL A   1      44.104  29.869  33.290  1.00  0.00     0.049 A 
ATOM     62  C   UNL A   1      43.832  27.078  28.200  1.00  0.00     0.074 A 
ATOM     63  C   UNL A   1      44.070  31.240  33.130  1.00  0.00     0.029 A 
ATOM     64  N   UNL A   1      44.940  29.392  32.306  1.00  0.00    -0.354 N 
ATOM     65  N   UNL A   1      44.531  28.177  28.119  1.00  0.00    -0.248 NA
ATOM     66  C   UNL A   1      44.012  26.311  29.423  1.00  0.00     0.031 C 
ATOM     67  C   UNL A   1      44.475  31.455  31.779  1.00  0.00     0.029 A 
ATOM     68  C   UNL A   1      44.816  30.220  31.223  1.00  0.00     0.049 A 
ATOM     69  H   UNL A   1      45.521  28.599  32.369  1.00  0.00     0.167 HD
ATOM     70  C   UNL A   1      44.840  28.481  29.438  1.00  0.00     0.074 A 
ATOM     71  C   UNL A   1      44.600  27.243  30.180  1.00  0.00     0.031 C 
ATOM     72  C   UNL A   1      44.962  29.777  29.854  1.00  0.00     0.034 A 
BRANCH  59  73
ATOM     73  C   UNL A   1      43.901  27.757  34.727  1.00  0.00     0.023 A 
ATOM     74  C   UNL A   1      44.731  28.117  35.817  1.00  0.00     0.012 A 
ATOM     75  C   UNL A   1      43.962  26.414  34.296  1.00  0.00     0.148 A 
ATOM     76  C   UNL A   1      45.633  27.214  36.388  1.00  0.00     0.002 A 
ATOM     77  C   UNL A   1      44.808  25.500  34.916  1.00  0.00     0.091 A 
ATOM     78  F   UNL A   1      43.303  26.030  33.202  1.00  0.00    -0.205 F 
ATOM     79  C   UNL A   1      45.671  25.903  35.938  1.00  0.00     0.022 A 
BRANCH  77  80
ATOM     80  S   UNL A   1      44.874  23.776  34.409  1.00  0.00     0.127 S 
ATOM     81  O   UNL A   1      45.898  23.246  35.305  1.00  0.00    -0.237 OA
ATOM     82  O   UNL A   1      43.510  23.331  34.691  1.00  0.00    -0.237 OA
ATOM     83  O   UNL A   1      45.214  23.797  32.991  1.00  0.00    -0.744 OA
ENDBRANCH  77  80
ENDBRANCH  59  73
BRANCH  60  84
ATOM     84  C   UNL A   1      42.429  25.619  26.574  1.00  0.00     0.023 A 
ATOM     85  C   UNL A   1      43.238  25.426  25.436  1.00  0.00     0.012 A 
ATOM     86  C   UNL A   1      41.693  24.516  27.061  1.00  0.00     0.148 A 
ATOM     87  C   UNL A   1      43.349  24.166  24.835  1.00  0.00     0.002 A 
ATOM     88  C   UNL A   1      41.806  23.266  26.460  1.00  0.00     0.091 A 
ATOM     89  F   UNL A   1      40.962  24.664  28.174  1.00  0.00    -0.205 F 
ATOM     90  C   UNL A   1      42.644  23.083  25.354  1.00  0.00     0.022 A 
BRANCH  88  91
ATOM     91  S   UNL A   1      40.953  21.822  27.108  1.00  0.00     0.127 S 
ATOM     92  O   UNL A   1      41.041  22.036  28.552  1.00  0.00    -0.237 OA
ATOM     93  O   UNL A   1      39.616  21.985  26.542  1.00  0.00    -0.237 OA
ATOM     94  O   UNL A   1      41.709  20.671  26.627  1.00  0.00    -0.744 OA
ENDBRANCH  88  91
ENDBRANCH  60  84
BRANCH  72  95
ATOM     95  C   UNL A   1      45.002  30.865  28.809  1.00  0.00     0.023 A 
ATOM     96  C   UNL A   1      43.850  31.562  28.389  1.00  0.00     0.012 A 
ATOM     97  C   UNL A   1      46.261  31.317  28.382  1.00  0.00     0.148 A 
ATOM     98  C   UNL A   1      43.951  32.672  27.544  1.00  0.00     0.002 A 
ATOM     99  C   UNL A   1      46.362  32.450  27.584  1.00  0.00     0.091 A 
ATOM    100  F   UNL A   1      47.348  30.647  28.792  1.00  0.00    -0.205 F 
ATOM    101  C   UNL A   1      45.209  33.126  27.154  1.00  0.00     0.022 A 
BRANCH  99 102
ATOM    102  S   UNL A   1      47.958  33.150  27.163  1.00  0.00     0.127 S 
ATOM    103  O   UNL A   1      48.635  32.014  26.542  1.00  0.00    -0.237 OA
ATOM    104  O   UNL A   1      47.599  34.228  26.241  1.00  0.00    -0.237 OA
ATOM    105  O   UNL A   1      48.533  33.615  28.420  1.00  0.00    -0.744 OA
ENDBRANCH  99 102
ENDBRANCH  72  95
ENDBRANCH  46  47
ENDBRANCH  38  41
ENDBRANCH  36  37
ENDBRANCH  35  36
ENDBRANCH   1  35
TORSDOF 20
ENDMDL
MODEL 2
REMARK VINA RESULT:     -11.9      2.872      8.527
REMARK SMILES COC(=O)c1c(NC(=O)[C@@H]2C[C@@H]2C(=O)NCCCCNC(=O)c2ccc(-c3c4nc(c(-c5cccc(S(=O)(=O)[O-])c5F)c5ccc([nH]5)c(-c5cccc(S(=O)(=O)[O-])c5F)c5nc(c(-c6cccc(S(=O)(=O)[O-])c6F)c6ccc3[nH]6)C=C5)C=C4)cc2)sc2c1CC[N@@H+](Cc1ccccc1)C2
REMARK SMILES IDX 17 1 16 2 15 3 13 4 14 5 12 7 10 8 11 9 8 10 7 11 9 13 6 14
REMARK SMILES IDX 5 15 88 16 86 17 87 18 89 19 99 20 90 21 91 22 3 24 4 25
REMARK SMILES IDX 2 26 1 27 92 28 93 29 94 30 98 31 95 32 97 33 96 34 18 35
REMARK SMILES IDX 19 36 20 37 21 38 22 40 23 41 24 42 85 43 25 44 84 45 26 46
REMARK SMILES IDX 27 47 28 48 78 49 29 50 83 51 77 52 79 53 30 54 82 55 76 56
REMARK SMILES IDX 75 57 31 59 63 60 43 61 62 62 44 63 47 64 61 65 80 66 45 67
REMARK SMILES IDX 46 68 60 70 81 71 48 72 32 73 33 74 41 75 34 76 36 77 42 78
REMARK SMILES IDX 35 79 37 80 38 81 39 82 40 83 64 84 65 85 73 86 66 87 68 88
REMARK SMILES IDX 74 89 67 90 69 91 70 92 71 93 72 94 49 95 50 96 58 97 51 98
REMARK SMILES IDX 53 99 59 100 52 101 54 102 55 103 56 104 57 105
REMARK H PARENT 15 6 7 12 91 23 20 39 79 58 47 69
REMARK Flexibility Score: inf
ROOT
ATOM      1  C   UNL A   1      38.794  22.784  26.327  1.00  0.00     0.023 C 
ENDROOT
BRANCH   1   2
ATOM      2  C   UNL A   1      37.446  22.834  25.601  1.00  0.00     0.116 C 
BRANCH   2   3
ATOM      3  N   UNL A   1      36.348  22.822  26.539  1.00  0.00    -0.356 N 
ATOM      4  C   UNL A   1      35.119  22.230  26.464  1.00  0.00     0.223 C 
ATOM      5  O   UNL A   1      34.373  22.306  27.433  1.00  0.00    -0.275 OA
ATOM      6  H   UNL A   1      36.511  23.324  27.369  1.00  0.00     0.163 HD
BRANCH   4   7
ATOM      7  C   UNL A   1      34.750  21.355  25.328  1.00  0.00     0.091 C 
ATOM      8  C   UNL A   1      34.531  21.715  23.884  1.00  0.00     0.092 C 
ATOM      9  C   UNL A   1      33.357  21.401  24.714  1.00  0.00     0.028 C 
BRANCH   8  10
ATOM     10  C   UNL A   1      34.893  22.997  23.269  1.00  0.00     0.228 C 
ATOM     11  N   UNL A   1      34.249  24.191  23.205  1.00  0.00    -0.317 N 
ATOM     12  H   UNL A   1      34.875  24.825  22.787  1.00  0.00     0.170 HD
ATOM     13  O   UNL A   1      36.015  23.020  22.747  1.00  0.00    -0.274 OA
BRANCH  11  14
ATOM     14  C   UNL A   1      33.102  24.896  23.471  1.00  0.00     0.110 A 
ATOM     15  C   UNL A   1      32.010  25.032  24.314  1.00  0.00     0.098 A 
ATOM     16  C   UNL A   1      31.096  26.048  23.812  1.00  0.00    -0.006 A 
ATOM     17  S   UNL A   1      33.032  26.071  22.184  1.00  0.00    -0.116 S 
ATOM     18  C   UNL A   1      31.636  26.784  22.785  1.00  0.00     0.065 A 
ATOM     19  C   UNL A   1      29.759  26.423  24.386  1.00  0.00     0.099 C 
ATOM     20  C   UNL A   1      31.067  28.055  22.230  1.00  0.00     0.310 C 
ATOM     21  C   UNL A   1      29.127  27.625  23.640  1.00  0.00     0.267 C 
ATOM     22  N   UNL A   1      30.050  28.648  23.117  1.00  0.00    -0.326 N 
ATOM     23  H   UNL A   1      29.485  29.260  22.529  1.00  0.00     0.348 HD
BRANCH  15  24
ATOM     24  C   UNL A   1      31.655  24.292  25.512  1.00  0.00     0.341 C 
ATOM     25  O   UNL A   1      32.257  24.409  26.567  1.00  0.00    -0.246 OA
BRANCH  24  26
ATOM     26  O   UNL A   1      30.670  23.386  25.275  1.00  0.00    -0.465 OA
ATOM     27  C   UNL A   1      30.367  22.488  26.349  1.00  0.00     0.282 C 
ENDBRANCH  24  26
ENDBRANCH  15  24
BRANCH  22  28
ATOM     28  C   UNL A   1      30.564  29.604  24.114  1.00  0.00     0.299 C 
BRANCH  28  29
ATOM     29  C   UNL A   1      31.682  29.162  25.032  1.00  0.00     0.006 A 
ATOM     30  C   UNL A   1      31.405  28.702  26.331  1.00  0.00     0.009 A 
ATOM     31  C   UNL A   1      33.017  29.182  24.603  1.00  0.00     0.009 A 
ATOM     32  C   UNL A   1      32.425  28.204  27.144  1.00  0.00     0.001 A 
ATOM     33  C   UNL A   1      34.032  28.673  25.412  1.00  0.00     0.001 A 
ATOM     34  C   UNL A   1      33.735  28.174  26.676  1.00  0.00     0.000 A 
ENDBRANCH  28  29
ENDBRANCH  22  28
ENDBRANCH  11  14
ENDBRANCH   8  10
ENDBRANCH   4   7
ENDBRANCH   2   3
ENDBRANCH   1   2
BRANCH   1  35
ATOM     35  C   UNL A   1      39.615  21.497  26.216  1.00  0.00     0.023 C 
BRANCH  35  36
ATOM     36  C   UNL A   1      40.975  21.528  26.898  1.00  0.00     0.116 C 
BRANCH  36  37
ATOM     37  N   UNL A   1      42.066  21.940  26.007  1.00  0.00    -0.352 N 
ATOM     38  C   UNL A   1      42.479  23.228  25.712  1.00  0.00     0.251 C 
ATOM     39  H   UNL A   1      42.564  21.214  25.566  1.00  0.00     0.163 HD
ATOM     40  O   UNL A   1      43.121  23.481  24.700  1.00  0.00    -0.269 OA
BRANCH  38  41
ATOM     41  C   UNL A   1      42.143  24.290  26.674  1.00  0.00     0.039 A 
ATOM     42  C   UNL A   1      42.699  24.352  27.952  1.00  0.00     0.014 A 
ATOM     43  C   UNL A   1      41.312  25.300  26.199  1.00  0.00     0.014 A 
ATOM     44  C   UNL A   1      42.488  25.503  28.708  1.00  0.00     0.010 A 
ATOM     45  C   UNL A   1      41.279  26.499  26.851  1.00  0.00     0.010 A 
ATOM     46  C   UNL A   1      41.801  26.584  28.134  1.00  0.00    -0.014 A 
BRANCH  46  47
ATOM     47  C   UNL A   1      41.677  27.860  28.818  1.00  0.00     0.031 A 
ATOM     48  C   UNL A   1      42.606  28.918  28.348  1.00  0.00     0.074 A 
ATOM     49  C   UNL A   1      40.659  28.127  29.665  1.00  0.00     0.049 A 
ATOM     50  N   UNL A   1      43.662  29.343  28.958  1.00  0.00    -0.248 NA
ATOM     51  C   UNL A   1      42.451  29.457  26.989  1.00  0.00     0.031 C 
ATOM     52  C   UNL A   1      39.482  27.302  29.970  1.00  0.00     0.029 A 
ATOM     53  N   UNL A   1      40.390  29.281  30.327  1.00  0.00    -0.354 N 
ATOM     54  C   UNL A   1      44.158  30.386  28.180  1.00  0.00     0.074 A 
ATOM     55  C   UNL A   1      43.521  30.254  26.896  1.00  0.00     0.031 C 
ATOM     56  C   UNL A   1      38.521  28.077  30.519  1.00  0.00     0.029 A 
ATOM     57  C   UNL A   1      39.078  29.391  30.773  1.00  0.00     0.049 A 
ATOM     58  H   UNL A   1      41.066  29.980  30.477  1.00  0.00     0.167 HD
ATOM     59  C   UNL A   1      44.853  31.412  28.749  1.00  0.00     0.034 A 
ATOM     60  C   UNL A   1      38.490  30.508  31.263  1.00  0.00     0.034 A 
ATOM     61  C   UNL A   1      45.160  31.121  30.131  1.00  0.00     0.049 A 
ATOM     62  C   UNL A   1      39.581  31.394  31.733  1.00  0.00     0.074 A 
ATOM     63  C   UNL A   1      45.839  30.117  30.792  1.00  0.00     0.029 A 
ATOM     64  N   UNL A   1      44.366  31.730  31.076  1.00  0.00    -0.354 N 
ATOM     65  N   UNL A   1      40.363  31.092  32.733  1.00  0.00    -0.248 NA
ATOM     66  C   UNL A   1      40.105  32.387  30.807  1.00  0.00     0.031 C 
ATOM     67  C   UNL A   1      45.056  29.859  31.956  1.00  0.00     0.029 A 
ATOM     68  C   UNL A   1      44.001  30.773  31.984  1.00  0.00     0.049 A 
ATOM     69  H   UNL A   1      44.108  32.680  31.095  1.00  0.00     0.167 HD
ATOM     70  C   UNL A   1      41.628  31.468  32.300  1.00  0.00     0.074 A 
ATOM     71  C   UNL A   1      41.392  32.362  31.166  1.00  0.00     0.031 C 
ATOM     72  C   UNL A   1      42.743  30.784  32.698  1.00  0.00     0.034 A 
BRANCH  59  73
ATOM     73  C   UNL A   1      44.945  32.834  28.237  1.00  0.00     0.023 A 
ATOM     74  C   UNL A   1      43.721  33.523  28.054  1.00  0.00     0.012 A 
ATOM     75  C   UNL A   1      46.097  33.422  27.672  1.00  0.00     0.148 A 
ATOM     76  C   UNL A   1      43.635  34.685  27.280  1.00  0.00     0.002 A 
ATOM     77  C   UNL A   1      46.018  34.618  26.964  1.00  0.00     0.091 A 
ATOM     78  F   UNL A   1      47.261  32.773  27.697  1.00  0.00    -0.205 F 
ATOM     79  C   UNL A   1      44.786  35.233  26.735  1.00  0.00     0.022 A 
BRANCH  77  80
ATOM     80  S   UNL A   1      47.478  35.403  26.269  1.00  0.00     0.127 S 
ATOM     81  O   UNL A   1      47.640  34.665  25.019  1.00  0.00    -0.237 OA
ATOM     82  O   UNL A   1      47.029  36.787  26.119  1.00  0.00    -0.237 OA
ATOM     83  O   UNL A   1      48.532  35.221  27.260  1.00  0.00    -0.744 OA
ENDBRANCH  77  80
ENDBRANCH  59  73
BRANCH  60  84
ATOM     84  C   UNL A   1      37.097  30.984  31.100  1.00  0.00     0.023 A 
ATOM     85  C   UNL A   1      36.362  31.383  32.235  1.00  0.00     0.012 A 
ATOM     86  C   UNL A   1      36.594  31.333  29.827  1.00  0.00     0.148 A 
ATOM     87  C   UNL A   1      35.196  32.147  32.107  1.00  0.00     0.002 A 
ATOM     88  C   UNL A   1      35.434  32.092  29.705  1.00  0.00     0.091 A 
ATOM     89  F   UNL A   1      37.306  31.012  28.738  1.00  0.00    -0.205 F 
ATOM     90  C   UNL A   1      34.738  32.513  30.844  1.00  0.00     0.022 A 
BRANCH  88  91
ATOM     91  S   UNL A   1      34.817  32.630  28.104  1.00  0.00     0.127 S 
ATOM     92  O   UNL A   1      35.947  33.398  27.582  1.00  0.00    -0.237 OA
ATOM     93  O   UNL A   1      34.577  31.355  27.432  1.00  0.00    -0.237 OA
ATOM     94  O   UNL A   1      33.631  33.429  28.390  1.00  0.00    -0.744 OA
ENDBRANCH  88  91
ENDBRANCH  60  84
BRANCH  72  95
ATOM     95  C   UNL A   1      42.605  29.771  33.808  1.00  0.00     0.023 A 
ATOM     96  C   UNL A   1      41.955  28.532  33.634  1.00  0.00     0.012 A 
ATOM     97  C   UNL A   1      43.313  30.003  34.998  1.00  0.00     0.148 A 
ATOM     98  C   UNL A   1      41.993  27.555  34.633  1.00  0.00     0.002 A 
ATOM     99  C   UNL A   1      43.390  29.013  35.969  1.00  0.00     0.091 A 
ATOM    100  F   UNL A   1      43.928  31.186  35.150  1.00  0.00    -0.205 F 
ATOM    101  C   UNL A   1      42.724  27.789  35.795  1.00  0.00     0.022 A 
BRANCH  99 102
ATOM    102  S   UNL A   1      44.424  29.213  37.420  1.00  0.00     0.127 S 
ATOM    103  O   UNL A   1      44.230  27.940  38.111  1.00  0.00    -0.237 OA
ATOM    104  O   UNL A   1      45.755  29.398  36.839  1.00  0.00    -0.237 OA
ATOM    105  O   UNL A   1      43.913  30.390  38.113  1.00  0.00    -0.744 OA
ENDBRANCH  99 102
ENDBRANCH  72  95
ENDBRANCH  46  47
ENDBRANCH  38  41
ENDBRANCH  36  37
ENDBRANCH  35  36
ENDBRANCH   1  35
TORSDOF 20
ENDMDL
MODEL 3
REMARK VINA RESULT:     -10.7      1.854      2.550
REMARK SMILES COC(=O)c1c(NC(=O)[C@@H]2C[C@@H]2C(=O)NCCCCNC(=O)c2ccc(-c3c4nc(c(-c5cccc(S(=O)(=O)[O-])c5F)c5ccc([nH]5)c(-c5cccc(S(=O)(=O)[O-])c5F)c5nc(c(-c6cccc(S(=O)(=O)[O-])c6F)c6ccc3[nH]6)C=C5)C=C4)cc2)sc2c1CC[N@@H+](Cc1ccccc1)C2
REMARK SMILES IDX 17 1 16 2 15 3 13 4 14 5 12 7 10 8 11 9 8 10 7 11 9 13 6 14
REMARK SMILES IDX 5 15 88 16 86 17 87 18 89 19 99 20 90 21 91 22 3 24 4 25
REMARK SMILES IDX 2 26 1 27 92 28 93 29 94 30 98 31 95 32 97 33 96 34 18 35
REMARK SMILES IDX 19 36 20 37 21 38 22 40 23 41 24 42 85 43 25 44 84 45 26 46
REMARK SMILES IDX 27 47 28 48 78 49 29 50 83 51 77 52 79 53 30 54 82 55 76 56
REMARK SMILES IDX 75 57 31 59 63 60 43 61 62 62 44 63 47 64 61 65 80 66 45 67
REMARK SMILES IDX 46 68 60 70 81 71 48 72 32 73 33 74 41 75 34 76 36 77 42 78
REMARK SMILES IDX 35 79 37 80 38 81 39 82 40 83 64 84 65 85 73 86 66 87 68 88
REMARK SMILES IDX 74 89 67 90 69 91 70 92 71 93 72 94 49 95 50 96 58 97 51 98
REMARK SMILES IDX 53 99 59 100 52 101 54 102 55 103 56 104 57 105
REMARK H PARENT 15 6 7 12 91 23 20 39 79 58 47 69
REMARK Flexibility Score: inf
ROOT
ATOM      1  C   UNL A   1      35.249  32.527  27.956  1.00  0.00     0.023 C 
ENDROOT
BRANCH   1   2
ATOM      2  C   UNL A   1      34.109  31.532  27.712  1.00  0.00     0.116 C 
BRANCH   2   3
ATOM      3  N   UNL A   1      34.618  30.201  27.479  1.00  0.00    -0.356 N 
ATOM      4  C   UNL A   1      34.107  29.168  26.745  1.00  0.00     0.223 C 
ATOM      5  O   UNL A   1      34.770  28.143  26.640  1.00  0.00    -0.275 OA
ATOM      6  H   UNL A   1      35.474  30.005  27.923  1.00  0.00     0.163 HD
BRANCH   4   7
ATOM      7  C   UNL A   1      32.880  29.328  25.934  1.00  0.00     0.091 C 
ATOM      8  C   UNL A   1      31.685  28.420  25.831  1.00  0.00     0.092 C 
ATOM      9  C   UNL A   1      32.628  28.469  24.702  1.00  0.00     0.028 C 
BRANCH   8  10
ATOM     10  C   UNL A   1      31.400  27.295  26.727  1.00  0.00     0.228 C 
ATOM     11  N   UNL A   1      31.512  25.950  26.568  1.00  0.00    -0.317 N 
ATOM     12  H   UNL A   1      31.313  25.547  27.443  1.00  0.00     0.170 HD
ATOM     13  O   UNL A   1      31.030  27.622  27.863  1.00  0.00    -0.274 OA
BRANCH  11  14
ATOM     14  C   UNL A   1      31.783  24.912  25.714  1.00  0.00     0.110 A 
ATOM     15  C   UNL A   1      32.187  24.554  24.437  1.00  0.00     0.098 A 
ATOM     16  C   UNL A   1      32.117  23.110  24.261  1.00  0.00    -0.006 A 
ATOM     17  S   UNL A   1      31.450  23.492  26.671  1.00  0.00    -0.116 S 
ATOM     18  C   UNL A   1      31.909  22.442  25.444  1.00  0.00     0.065 A 
ATOM     19  C   UNL A   1      32.379  22.340  22.998  1.00  0.00     0.099 C 
ATOM     20  C   UNL A   1      32.045  20.964  25.646  1.00  0.00     0.310 C 
ATOM     21  C   UNL A   1      32.311  20.809  23.229  1.00  0.00     0.267 C 
ATOM     22  N   UNL A   1      32.765  20.310  24.538  1.00  0.00    -0.326 N 
ATOM     23  H   UNL A   1      32.500  19.326  24.571  1.00  0.00     0.348 HD
BRANCH  15  24
ATOM     24  C   UNL A   1      32.577  25.385  23.311  1.00  0.00     0.341 C 
ATOM     25  O   UNL A   1      33.723  25.764  23.133  1.00  0.00    -0.246 OA
BRANCH  24  26
ATOM     26  O   UNL A   1      31.504  25.774  22.573  1.00  0.00    -0.465 OA
ATOM     27  C   UNL A   1      31.788  26.267  21.259  1.00  0.00     0.282 C 
ENDBRANCH  24  26
ENDBRANCH  15  24
BRANCH  22  28
ATOM     28  C   UNL A   1      34.227  20.218  24.706  1.00  0.00     0.299 C 
BRANCH  28  29
ATOM     29  C   UNL A   1      35.008  21.486  24.974  1.00  0.00     0.006 A 
ATOM     30  C   UNL A   1      35.660  22.161  23.929  1.00  0.00     0.009 A 
ATOM     31  C   UNL A   1      35.080  22.027  26.266  1.00  0.00     0.009 A 
ATOM     32  C   UNL A   1      36.299  23.382  24.157  1.00  0.00     0.001 A 
ATOM     33  C   UNL A   1      35.708  23.252  26.489  1.00  0.00     0.001 A 
ATOM     34  C   UNL A   1      36.307  23.933  25.435  1.00  0.00     0.000 A 
ENDBRANCH  28  29
ENDBRANCH  22  28
ENDBRANCH  11  14
ENDBRANCH   8  10
ENDBRANCH   4   7
ENDBRANCH   2   3
ENDBRANCH   1   2
BRANCH   1  35
ATOM     35  C   UNL A   1      34.945  33.763  28.805  1.00  0.00     0.023 C 
BRANCH  35  36
ATOM     36  C   UNL A   1      34.740  33.503  30.290  1.00  0.00     0.116 C 
BRANCH  36  37
ATOM     37  N   UNL A   1      34.899  34.702  31.121  1.00  0.00    -0.352 N 
ATOM     38  C   UNL A   1      35.651  34.840  32.275  1.00  0.00     0.251 C 
ATOM     39  H   UNL A   1      34.412  35.504  30.823  1.00  0.00     0.163 HD
ATOM     40  O   UNL A   1      35.427  35.732  33.084  1.00  0.00    -0.269 OA
BRANCH  38  41
ATOM     41  C   UNL A   1      36.754  33.891  32.488  1.00  0.00     0.039 A 
ATOM     42  C   UNL A   1      36.546  32.571  32.892  1.00  0.00     0.014 A 
ATOM     43  C   UNL A   1      38.025  34.352  32.161  1.00  0.00     0.014 A 
ATOM     44  C   UNL A   1      37.625  31.692  32.859  1.00  0.00     0.010 A 
ATOM     45  C   UNL A   1      39.025  33.450  31.934  1.00  0.00     0.010 A 
ATOM     46  C   UNL A   1      38.856  32.137  32.348  1.00  0.00    -0.014 A 
BRANCH  46  47
ATOM     47  C   UNL A   1      39.974  31.229  32.154  1.00  0.00     0.031 A 
ATOM     48  C   UNL A   1      40.767  30.940  33.375  1.00  0.00     0.074 A 
ATOM     49  C   UNL A   1      40.151  30.540  31.006  1.00  0.00     0.049 A 
ATOM     50  N   UNL A   1      41.937  31.406  33.663  1.00  0.00    -0.248 NA
ATOM     51  C   UNL A   1      40.146  30.185  34.472  1.00  0.00     0.031 C 
ATOM     52  C   UNL A   1      39.264  30.466  29.836  1.00  0.00     0.029 A 
ATOM     53  N   UNL A   1      41.110  29.627  30.707  1.00  0.00    -0.354 N 
ATOM     54  C   UNL A   1      42.308  30.795  34.858  1.00  0.00     0.074 A 
ATOM     55  C   UNL A   1      41.096  30.250  35.411  1.00  0.00     0.031 C 
ATOM     56  C   UNL A   1      39.579  29.377  29.102  1.00  0.00     0.029 A 
ATOM     57  C   UNL A   1      40.793  28.794  29.640  1.00  0.00     0.049 A 
ATOM     58  H   UNL A   1      41.957  29.561  31.203  1.00  0.00     0.167 HD
ATOM     59  C   UNL A   1      43.620  30.574  35.151  1.00  0.00     0.034 A 
ATOM     60  C   UNL A   1      41.460  27.674  29.273  1.00  0.00     0.034 A 
ATOM     61  C   UNL A   1      44.479  31.244  34.201  1.00  0.00     0.049 A 
ATOM     62  C   UNL A   1      42.830  27.792  29.828  1.00  0.00     0.074 A 
ATOM     63  C   UNL A   1      44.652  32.552  33.791  1.00  0.00     0.029 A 
ATOM     64  N   UNL A   1      45.032  30.460  33.215  1.00  0.00    -0.354 N 
ATOM     65  N   UNL A   1      43.680  28.702  29.439  1.00  0.00    -0.248 NA
ATOM     66  C   UNL A   1      43.091  27.208  31.135  1.00  0.00     0.031 C 
ATOM     67  C   UNL A   1      44.840  32.464  32.379  1.00  0.00     0.029 A 
ATOM     68  C   UNL A   1      44.860  31.113  32.024  1.00  0.00     0.049 A 
ATOM     69  H   UNL A   1      45.471  29.588  33.343  1.00  0.00     0.167 HD
ATOM     70  C   UNL A   1      44.267  29.143  30.618  1.00  0.00     0.074 A 
ATOM     71  C   UNL A   1      43.955  28.112  31.608  1.00  0.00     0.031 C 
ATOM     72  C   UNL A   1      44.682  30.438  30.758  1.00  0.00     0.034 A 
BRANCH  59  73
ATOM     73  C   UNL A   1      44.177  29.472  36.027  1.00  0.00     0.023 A 
ATOM     74  C   UNL A   1      45.170  29.847  36.965  1.00  0.00     0.012 A 
ATOM     75  C   UNL A   1      44.004  28.089  35.803  1.00  0.00     0.148 A 
ATOM     76  C   UNL A   1      46.000  28.905  37.580  1.00  0.00     0.002 A 
ATOM     77  C   UNL A   1      44.784  27.151  36.472  1.00  0.00     0.091 A 
ATOM     78  F   UNL A   1      43.176  27.663  34.848  1.00  0.00    -0.205 F 
ATOM     79  C   UNL A   1      45.806  27.554  37.334  1.00  0.00     0.022 A 
BRANCH  77  80
ATOM     80  S   UNL A   1      44.554  25.384  36.231  1.00  0.00     0.127 S 
ATOM     81  O   UNL A   1      44.969  25.222  34.840  1.00  0.00    -0.237 OA
ATOM     82  O   UNL A   1      45.473  24.826  37.222  1.00  0.00    -0.237 OA
ATOM     83  O   UNL A   1      43.146  25.129  36.511  1.00  0.00    -0.744 OA
ENDBRANCH  77  80
ENDBRANCH  59  73
BRANCH  60  84
ATOM     84  C   UNL A   1      40.931  26.402  28.730  1.00  0.00     0.023 A 
ATOM     85  C   UNL A   1      39.539  26.235  28.588  1.00  0.00     0.012 A 
ATOM     86  C   UNL A   1      41.781  25.483  28.076  1.00  0.00     0.148 A 
ATOM     87  C   UNL A   1      39.012  25.219  27.780  1.00  0.00     0.002 A 
ATOM     88  C   UNL A   1      41.254  24.474  27.275  1.00  0.00     0.091 A 
ATOM     89  F   UNL A   1      43.107  25.657  28.154  1.00  0.00    -0.205 F 
ATOM     90  C   UNL A   1      39.869  24.347  27.113  1.00  0.00     0.022 A 
BRANCH  88  91
ATOM     91  S   UNL A   1      42.308  23.344  26.358  1.00  0.00     0.127 S 
ATOM     92  O   UNL A   1      43.218  22.862  27.397  1.00  0.00    -0.237 OA
ATOM     93  O   UNL A   1      41.343  22.356  25.880  1.00  0.00    -0.237 OA
ATOM     94  O   UNL A   1      42.950  24.153  25.329  1.00  0.00    -0.744 OA
ENDBRANCH  88  91
ENDBRANCH  60  84
BRANCH  72  95
ATOM     95  C   UNL A   1      44.720  31.316  29.531  1.00  0.00     0.023 A 
ATOM     96  C   UNL A   1      43.669  32.190  29.185  1.00  0.00     0.012 A 
ATOM     97  C   UNL A   1      45.927  31.392  28.817  1.00  0.00     0.148 A 
ATOM     98  C   UNL A   1      43.812  33.105  28.137  1.00  0.00     0.002 A 
ATOM     99  C   UNL A   1      46.084  32.335  27.810  1.00  0.00     0.091 A 
ATOM    100  F   UNL A   1      46.919  30.556  29.159  1.00  0.00    -0.205 F 
ATOM    101  C   UNL A   1      45.026  33.188  27.459  1.00  0.00     0.022 A 
BRANCH  99 102
ATOM    102  S   UNL A   1      47.665  32.572  26.997  1.00  0.00     0.127 S 
ATOM    103  O   UNL A   1      47.341  33.580  25.989  1.00  0.00    -0.237 OA
ATOM    104  O   UNL A   1      48.515  33.049  28.089  1.00  0.00    -0.237 OA
ATOM    105  O   UNL A   1      48.046  31.263  26.479  1.00  0.00    -0.744 OA
ENDBRANCH  99 102
ENDBRANCH  72  95
ENDBRANCH  46  47
ENDBRANCH  38  41
ENDBRANCH  36  37
ENDBRANCH  35  36
ENDBRANCH   1  35
TORSDOF 20
ENDMDL
