MODEL 1
REMARK VINA RESULT:     -11.3      0.000      0.000
REMARK SMILES Cc1ccc([C@@H](C)[N@@H+]2CCO[C@H](CC(=O)NCCCCNC(=O)c3ccc(-c4c5nc(c(-c6cccc(S(=O)(=O)[O-])c6F)c6ccc([nH]6)c(-c6cccc(S(=O)(=O)[O-])c6F)c6nc(c(-c7cccc(S(=O)(=O)[O-])c7F)c7ccc4[nH]7)C=C6)C=C5)cc3)C2)o1
REMARK SMILES IDX 18 1 17 2 16 3 14 4 15 5 13 7 12 8 8 9 9 10 87 11 10 13
REMARK SMILES IDX 11 14 6 15 7 16 5 17 1 18 2 19 3 20 88 21 4 22 19 23 20 24
REMARK SMILES IDX 21 25 22 26 23 28 24 29 25 30 86 31 26 32 85 33 27 34 28 35
REMARK SMILES IDX 29 36 79 37 30 38 84 39 78 40 80 41 31 42 83 43 77 44 76 45
REMARK SMILES IDX 32 47 64 48 44 49 63 50 45 51 48 52 62 53 81 54 46 55 47 56
REMARK SMILES IDX 61 58 82 59 49 60 33 61 34 62 42 63 35 64 37 65 43 66 36 67
REMARK SMILES IDX 38 68 39 69 40 70 41 71 65 72 66 73 74 74 67 75 69 76 75 77
REMARK SMILES IDX 68 78 70 79 71 80 72 81 73 82 50 83 51 84 59 85 52 86 54 87
REMARK SMILES IDX 60 88 53 89 55 90 56 91 57 92 58 93
REMARK H PARENT 16 6 8 12 21 27 80 46 48 57
REMARK Flexibility Score: inf
ROOT
ATOM      1  C   UNL A   1      31.389  27.854  26.863  1.00  0.00     0.023 C 
ENDROOT
BRANCH   1   2
ATOM      2  C   UNL A   1      30.912  26.558  26.206  1.00  0.00     0.116 C 
BRANCH   2   3
ATOM      3  N   UNL A   1      31.436  25.415  26.914  1.00  0.00    -0.356 N 
ATOM      4  C   UNL A   1      31.528  24.127  26.481  1.00  0.00     0.222 C 
ATOM      5  O   UNL A   1      31.885  23.265  27.287  1.00  0.00    -0.275 OA
ATOM      6  H   UNL A   1      31.769  25.588  27.824  1.00  0.00     0.163 HD
BRANCH   4   7
ATOM      7  C   UNL A   1      31.375  23.794  25.014  1.00  0.00     0.138 C 
BRANCH   7   8
ATOM      8  C   UNL A   1      32.410  24.190  23.960  1.00  0.00     0.182 C 
ATOM      9  N   UNL A   1      34.324  22.462  23.947  1.00  0.00    -0.322 N 
ATOM     10  C   UNL A   1      35.257  23.577  23.988  1.00  0.00     0.291 C 
ATOM     11  C   UNL A   1      33.056  22.905  23.366  1.00  0.00     0.295 C 
ATOM     12  H   UNL A   1      34.641  21.752  23.285  1.00  0.00     0.348 HD
ATOM     13  C   UNL A   1      34.682  24.802  24.688  1.00  0.00     0.222 C 
ATOM     14  O   UNL A   1      33.363  25.201  24.300  1.00  0.00    -0.366 OA
BRANCH   9  15
ATOM     15  C   UNL A   1      34.394  21.474  25.040  1.00  0.00     0.248 C 
ATOM     16  C   UNL A   1      35.825  21.357  25.583  1.00  0.00     0.084 C 
BRANCH  15  17
ATOM     17  C   UNL A   1      33.781  20.106  24.854  1.00  0.00     0.161 A 
ATOM     18  C   UNL A   1      34.570  16.715  23.977  1.00  0.00     0.087 C 
ATOM     19  C   UNL A   1      33.873  17.930  24.456  1.00  0.00     0.101 A 
ATOM     20  C   UNL A   1      32.564  18.207  24.782  1.00  0.00     0.046 A 
ATOM     21  O   UNL A   1      34.624  19.061  24.576  1.00  0.00    -0.460 OA
ATOM     22  C   UNL A   1      32.505  19.602  25.039  1.00  0.00     0.052 A 
ENDBRANCH  15  17
ENDBRANCH   9  15
ENDBRANCH   7   8
ENDBRANCH   4   7
ENDBRANCH   2   3
ENDBRANCH   1   2
BRANCH   1  23
ATOM     23  C   UNL A   1      32.359  28.625  25.978  1.00  0.00     0.023 C 
BRANCH  23  24
ATOM     24  C   UNL A   1      33.649  28.992  26.704  1.00  0.00     0.116 C 
BRANCH  24  25
ATOM     25  N   UNL A   1      33.647  30.370  27.185  1.00  0.00    -0.352 N 
ATOM     26  C   UNL A   1      34.545  31.016  28.006  1.00  0.00     0.251 C 
ATOM     27  H   UNL A   1      32.891  30.919  26.876  1.00  0.00     0.163 HD
ATOM     28  O   UNL A   1      34.293  32.133  28.430  1.00  0.00    -0.269 OA
BRANCH  26  29
ATOM     29  C   UNL A   1      35.801  30.335  28.394  1.00  0.00     0.039 A 
ATOM     30  C   UNL A   1      36.919  30.455  27.566  1.00  0.00     0.014 A 
ATOM     31  C   UNL A   1      35.883  29.605  29.581  1.00  0.00     0.014 A 
ATOM     32  C   UNL A   1      38.138  29.904  27.970  1.00  0.00     0.010 A 
ATOM     33  C   UNL A   1      37.118  29.146  30.027  1.00  0.00     0.010 A 
ATOM     34  C   UNL A   1      38.259  29.279  29.223  1.00  0.00    -0.014 A 
BRANCH  34  35
ATOM     35  C   UNL A   1      39.570  28.768  29.705  1.00  0.00     0.031 A 
ATOM     36  C   UNL A   1      40.296  29.470  30.822  1.00  0.00     0.074 A 
ATOM     37  C   UNL A   1      40.146  27.718  29.084  1.00  0.00     0.049 A 
ATOM     38  N   UNL A   1      41.455  29.183  31.357  1.00  0.00    -0.248 NA
ATOM     39  C   UNL A   1      39.659  30.669  31.395  1.00  0.00     0.031 C 
ATOM     40  C   UNL A   1      39.597  27.011  27.923  1.00  0.00     0.029 A 
ATOM     41  N   UNL A   1      41.337  27.075  29.325  1.00  0.00    -0.354 N 
ATOM     42  C   UNL A   1      41.704  30.183  32.288  1.00  0.00     0.074 A 
ATOM     43  C   UNL A   1      40.591  31.103  32.231  1.00  0.00     0.031 C 
ATOM     44  C   UNL A   1      40.443  26.035  27.557  1.00  0.00     0.029 A 
ATOM     45  C   UNL A   1      41.609  26.060  28.435  1.00  0.00     0.049 A 
ATOM     46  H   UNL A   1      41.939  27.318  30.065  1.00  0.00     0.167 HD
ATOM     47  C   UNL A   1      42.752  30.312  33.135  1.00  0.00     0.034 A 
ATOM     48  C   UNL A   1      42.680  25.248  28.331  1.00  0.00     0.034 A 
ATOM     49  C   UNL A   1      43.826  29.363  33.238  1.00  0.00     0.049 A 
ATOM     50  C   UNL A   1      43.793  25.371  29.337  1.00  0.00     0.074 A 
ATOM     51  C   UNL A   1      44.861  29.336  34.155  1.00  0.00     0.029 A 
ATOM     52  N   UNL A   1      44.012  28.284  32.391  1.00  0.00    -0.354 N 
ATOM     53  N   UNL A   1      43.907  26.204  30.342  1.00  0.00    -0.248 NA
ATOM     54  C   UNL A   1      44.905  24.417  29.222  1.00  0.00     0.031 C 
ATOM     55  C   UNL A   1      45.697  28.262  33.838  1.00  0.00     0.029 A 
ATOM     56  C   UNL A   1      45.159  27.596  32.750  1.00  0.00     0.049 A 
ATOM     57  H   UNL A   1      43.419  28.041  31.644  1.00  0.00     0.167 HD
ATOM     58  C   UNL A   1      45.081  25.851  30.998  1.00  0.00     0.074 A 
ATOM     59  C   UNL A   1      45.628  24.711  30.293  1.00  0.00     0.031 C 
ATOM     60  C   UNL A   1      45.662  26.429  32.077  1.00  0.00     0.034 A 
BRANCH  47  61
ATOM     61  C   UNL A   1      42.778  31.496  34.065  1.00  0.00     0.023 A 
ATOM     62  C   UNL A   1      43.326  32.718  33.628  1.00  0.00     0.012 A 
ATOM     63  C   UNL A   1      42.163  31.425  35.330  1.00  0.00     0.148 A 
ATOM     64  C   UNL A   1      43.279  33.848  34.444  1.00  0.00     0.002 A 
ATOM     65  C   UNL A   1      42.079  32.565  36.119  1.00  0.00     0.091 A 
ATOM     66  F   UNL A   1      41.667  30.246  35.733  1.00  0.00    -0.205 F 
ATOM     67  C   UNL A   1      42.644  33.775  35.682  1.00  0.00     0.022 A 
BRANCH  65  68
ATOM     68  S   UNL A   1      41.208  32.598  37.689  1.00  0.00     0.127 S 
ATOM     69  O   UNL A   1      42.018  31.685  38.494  1.00  0.00    -0.237 OA
ATOM     70  O   UNL A   1      41.317  34.007  38.068  1.00  0.00    -0.237 OA
ATOM     71  O   UNL A   1      39.853  32.143  37.409  1.00  0.00    -0.744 OA
ENDBRANCH  65  68
ENDBRANCH  47  61
BRANCH  48  72
ATOM     72  C   UNL A   1      42.740  24.214  27.258  1.00  0.00     0.023 A 
ATOM     73  C   UNL A   1      43.402  24.500  26.047  1.00  0.00     0.012 A 
ATOM     74  C   UNL A   1      42.135  22.954  27.425  1.00  0.00     0.148 A 
ATOM     75  C   UNL A   1      43.417  23.568  25.007  1.00  0.00     0.002 A 
ATOM     76  C   UNL A   1      42.206  22.009  26.409  1.00  0.00     0.091 A 
ATOM     77  F   UNL A   1      41.496  22.704  28.578  1.00  0.00    -0.205 F 
ATOM     78  C   UNL A   1      42.827  22.321  25.190  1.00  0.00     0.022 A 
BRANCH  76  79
ATOM     79  S   UNL A   1      41.589  20.335  26.616  1.00  0.00     0.127 S 
ATOM     80  O   UNL A   1      42.324  19.889  27.795  1.00  0.00    -0.237 OA
ATOM     81  O   UNL A   1      40.158  20.562  26.828  1.00  0.00    -0.237 OA
ATOM     82  O   UNL A   1      41.905  19.650  25.369  1.00  0.00    -0.744 OA
ENDBRANCH  76  79
ENDBRANCH  48  72
BRANCH  60  83
ATOM     83  C   UNL A   1      46.935  25.818  32.602  1.00  0.00     0.023 A 
ATOM     84  C   UNL A   1      48.181  26.256  32.114  1.00  0.00     0.012 A 
ATOM     85  C   UNL A   1      46.894  24.864  33.638  1.00  0.00     0.148 A 
ATOM     86  C   UNL A   1      49.367  25.729  32.624  1.00  0.00     0.002 A 
ATOM     87  C   UNL A   1      48.080  24.383  34.179  1.00  0.00     0.091 A 
ATOM     88  F   UNL A   1      45.697  24.448  34.078  1.00  0.00    -0.205 F 
ATOM     89  C   UNL A   1      49.317  24.803  33.664  1.00  0.00     0.022 A 
BRANCH  87  90
ATOM     90  S   UNL A   1      48.112  23.268  35.587  1.00  0.00     0.127 S 
ATOM     91  O   UNL A   1      47.380  24.037  36.592  1.00  0.00    -0.237 OA
ATOM     92  O   UNL A   1      47.398  22.099  35.073  1.00  0.00    -0.237 OA
ATOM     93  O   UNL A   1      49.519  23.034  35.884  1.00  0.00    -0.744 OA
ENDBRANCH  87  90
ENDBRANCH  60  83
ENDBRANCH  34  35
ENDBRANCH  26  29
ENDBRANCH  24  25
ENDBRANCH  23  24
ENDBRANCH   1  23
TORSDOF 17
ENDMDL
MODEL 2
REMARK VINA RESULT:     -11.3      2.069      2.752
REMARK SMILES Cc1ccc([C@@H](C)[N@@H+]2CCO[C@H](CC(=O)NCCCCNC(=O)c3ccc(-c4c5nc(c(-c6cccc(S(=O)(=O)[O-])c6F)c6ccc([nH]6)c(-c6cccc(S(=O)(=O)[O-])c6F)c6nc(c(-c7cccc(S(=O)(=O)[O-])c7F)c7ccc4[nH]7)C=C6)C=C5)cc3)C2)o1
REMARK SMILES IDX 18 1 17 2 16 3 14 4 15 5 13 7 12 8 8 9 9 10 87 11 10 13
REMARK SMILES IDX 11 14 6 15 7 16 5 17 1 18 2 19 3 20 88 21 4 22 19 23 20 24
REMARK SMILES IDX 21 25 22 26 23 28 24 29 25 30 86 31 26 32 85 33 27 34 28 35
REMARK SMILES IDX 29 36 79 37 30 38 84 39 78 40 80 41 31 42 83 43 77 44 76 45
REMARK SMILES IDX 32 47 64 48 44 49 63 50 45 51 48 52 62 53 81 54 46 55 47 56
REMARK SMILES IDX 61 58 82 59 49 60 33 61 34 62 42 63 35 64 37 65 43 66 36 67
REMARK SMILES IDX 38 68 39 69 40 70 41 71 65 72 66 73 74 74 67 75 69 76 75 77
REMARK SMILES IDX 68 78 70 79 71 80 72 81 73 82 50 83 51 84 59 85 52 86 54 87
REMARK SMILES IDX 60 88 53 89 55 90 56 91 57 92 58 93
REMARK H PARENT 16 6 8 12 21 27 80 46 48 57
REMARK Flexibility Score: inf
ROOT
ATOM      1  C   UNL A   1      31.302  27.845  26.744  1.00  0.00     0.023 C 
ENDROOT
BRANCH   1   2
ATOM      2  C   UNL A   1      31.130  26.532  25.979  1.00  0.00     0.116 C 
BRANCH   2   3
ATOM      3  N   UNL A   1      31.585  25.421  26.779  1.00  0.00    -0.356 N 
ATOM      4  C   UNL A   1      31.657  24.107  26.431  1.00  0.00     0.222 C 
ATOM      5  O   UNL A   1      31.951  23.287  27.304  1.00  0.00    -0.275 OA
ATOM      6  H   UNL A   1      31.882  25.641  27.692  1.00  0.00     0.163 HD
BRANCH   4   7
ATOM      7  C   UNL A   1      31.560  23.686  24.981  1.00  0.00     0.138 C 
BRANCH   7   8
ATOM      8  C   UNL A   1      32.595  24.087  23.929  1.00  0.00     0.182 C 
ATOM      9  N   UNL A   1      34.425  22.275  23.797  1.00  0.00    -0.322 N 
ATOM     10  C   UNL A   1      35.410  23.342  23.875  1.00  0.00     0.291 C 
ATOM     11  C   UNL A   1      33.170  22.804  23.262  1.00  0.00     0.295 C 
ATOM     12  H   UNL A   1      34.698  21.584  23.096  1.00  0.00     0.348 HD
ATOM     13  C   UNL A   1      34.905  24.555  24.645  1.00  0.00     0.222 C 
ATOM     14  O   UNL A   1      33.600  25.034  24.301  1.00  0.00    -0.366 OA
BRANCH   9  15
ATOM     15  C   UNL A   1      34.466  21.231  24.839  1.00  0.00     0.248 C 
ATOM     16  C   UNL A   1      35.891  21.053  25.380  1.00  0.00     0.084 C 
BRANCH  15  17
ATOM     17  C   UNL A   1      33.822  19.889  24.581  1.00  0.00     0.161 A 
ATOM     18  C   UNL A   1      34.500  16.366  24.476  1.00  0.00     0.087 C 
ATOM     19  C   UNL A   1      33.814  17.677  24.500  1.00  0.00     0.101 A 
ATOM     20  C   UNL A   1      32.521  18.076  24.248  1.00  0.00     0.046 A 
ATOM     21  O   UNL A   1      34.584  18.767  24.778  1.00  0.00    -0.460 OA
ATOM     22  C   UNL A   1      32.524  19.495  24.302  1.00  0.00     0.052 A 
ENDBRANCH  15  17
ENDBRANCH   9  15
ENDBRANCH   7   8
ENDBRANCH   4   7
ENDBRANCH   2   3
ENDBRANCH   1   2
BRANCH   1  23
ATOM     23  C   UNL A   1      31.390  29.046  25.812  1.00  0.00     0.023 C 
BRANCH  23  24
ATOM     24  C   UNL A   1      32.704  29.807  25.961  1.00  0.00     0.116 C 
BRANCH  24  25
ATOM     25  N   UNL A   1      32.503  31.201  26.342  1.00  0.00    -0.352 N 
ATOM     26  C   UNL A   1      33.216  31.984  27.223  1.00  0.00     0.251 C 
ATOM     27  H   UNL A   1      31.743  31.649  25.904  1.00  0.00     0.163 HD
ATOM     28  O   UNL A   1      32.802  33.089  27.534  1.00  0.00    -0.269 OA
BRANCH  26  29
ATOM     29  C   UNL A   1      34.472  31.463  27.811  1.00  0.00     0.039 A 
ATOM     30  C   UNL A   1      35.543  32.338  28.003  1.00  0.00     0.014 A 
ATOM     31  C   UNL A   1      34.582  30.125  28.195  1.00  0.00     0.014 A 
ATOM     32  C   UNL A   1      36.696  31.885  28.650  1.00  0.00     0.010 A 
ATOM     33  C   UNL A   1      35.688  29.704  28.926  1.00  0.00     0.010 A 
ATOM     34  C   UNL A   1      36.763  30.575  29.154  1.00  0.00    -0.014 A 
BRANCH  34  35
ATOM     35  C   UNL A   1      37.947  30.106  29.922  1.00  0.00     0.031 A 
ATOM     36  C   UNL A   1      38.181  30.590  31.330  1.00  0.00     0.074 A 
ATOM     37  C   UNL A   1      38.855  29.306  29.327  1.00  0.00     0.049 A 
ATOM     38  N   UNL A   1      39.166  30.307  32.142  1.00  0.00    -0.248 NA
ATOM     39  C   UNL A   1      37.202  31.538  31.891  1.00  0.00     0.031 C 
ATOM     40  C   UNL A   1      38.802  28.847  27.936  1.00  0.00     0.029 A 
ATOM     41  N   UNL A   1      40.019  28.756  29.808  1.00  0.00    -0.354 N 
ATOM     42  C   UNL A   1      38.952  31.073  33.282  1.00  0.00     0.074 A 
ATOM     43  C   UNL A   1      37.759  31.853  33.051  1.00  0.00     0.031 C 
ATOM     44  C   UNL A   1      39.878  28.086  27.678  1.00  0.00     0.029 A 
ATOM     45  C   UNL A   1      40.714  28.022  28.872  1.00  0.00     0.049 A 
ATOM     46  H   UNL A   1      40.328  28.875  30.735  1.00  0.00     0.167 HD
ATOM     47  C   UNL A   1      39.669  31.104  34.430  1.00  0.00     0.034 A 
ATOM     48  C   UNL A   1      41.896  27.380  28.961  1.00  0.00     0.034 A 
ATOM     49  C   UNL A   1      40.817  30.279  34.685  1.00  0.00     0.049 A 
ATOM     50  C   UNL A   1      42.629  27.374  30.276  1.00  0.00     0.074 A 
ATOM     51  C   UNL A   1      41.530  30.142  35.863  1.00  0.00     0.029 A 
ATOM     52  N   UNL A   1      41.431  29.465  33.749  1.00  0.00    -0.354 N 
ATOM     53  N   UNL A   1      42.297  27.946  31.408  1.00  0.00    -0.248 NA
ATOM     54  C   UNL A   1      43.878  26.602  30.341  1.00  0.00     0.031 C 
ATOM     55  C   UNL A   1      42.599  29.274  35.628  1.00  0.00     0.029 A 
ATOM     56  C   UNL A   1      42.527  28.838  34.316  1.00  0.00     0.049 A 
ATOM     57  H   UNL A   1      41.132  29.348  32.818  1.00  0.00     0.167 HD
ATOM     58  C   UNL A   1      43.273  27.572  32.324  1.00  0.00     0.074 A 
ATOM     59  C   UNL A   1      44.194  26.703  31.624  1.00  0.00     0.031 C 
ATOM     60  C   UNL A   1      43.403  27.930  33.625  1.00  0.00     0.034 A 
BRANCH  47  61
ATOM     61  C   UNL A   1      39.213  32.023  35.532  1.00  0.00     0.023 A 
ATOM     62  C   UNL A   1      38.374  31.533  36.552  1.00  0.00     0.012 A 
ATOM     63  C   UNL A   1      39.704  33.341  35.611  1.00  0.00     0.148 A 
ATOM     64  C   UNL A   1      38.014  32.347  37.625  1.00  0.00     0.002 A 
ATOM     65  C   UNL A   1      39.379  34.131  36.706  1.00  0.00     0.091 A 
ATOM     66  F   UNL A   1      40.485  33.792  34.619  1.00  0.00    -0.205 F 
ATOM     67  C   UNL A   1      38.527  33.639  37.709  1.00  0.00     0.022 A 
BRANCH  65  68
ATOM     68  S   UNL A   1      40.056  35.776  36.953  1.00  0.00     0.127 S 
ATOM     69  O   UNL A   1      41.488  35.493  37.051  1.00  0.00    -0.237 OA
ATOM     70  O   UNL A   1      39.653  36.459  35.724  1.00  0.00    -0.237 OA
ATOM     71  O   UNL A   1      39.441  36.289  38.169  1.00  0.00    -0.744 OA
ENDBRANCH  65  68
ENDBRANCH  47  61
BRANCH  48  72
ATOM     72  C   UNL A   1      42.448  26.650  27.783  1.00  0.00     0.023 A 
ATOM     73  C   UNL A   1      43.272  27.329  26.863  1.00  0.00     0.012 A 
ATOM     74  C   UNL A   1      42.152  25.291  27.564  1.00  0.00     0.148 A 
ATOM     75  C   UNL A   1      43.748  26.680  25.722  1.00  0.00     0.002 A 
ATOM     76  C   UNL A   1      42.679  24.636  26.459  1.00  0.00     0.091 A 
ATOM     77  F   UNL A   1      41.355  24.665  28.442  1.00  0.00    -0.205 F 
ATOM     78  C   UNL A   1      43.460  25.333  25.524  1.00  0.00     0.022 A 
BRANCH  76  79
ATOM     79  S   UNL A   1      42.466  22.871  26.203  1.00  0.00     0.127 S 
ATOM     80  O   UNL A   1      43.162  22.314  27.358  1.00  0.00    -0.237 OA
ATOM     81  O   UNL A   1      41.009  22.733  26.234  1.00  0.00    -0.237 OA
ATOM     82  O   UNL A   1      43.063  22.594  24.902  1.00  0.00    -0.744 OA
ENDBRANCH  76  79
ENDBRANCH  48  72
BRANCH  60  83
ATOM     83  C   UNL A   1      44.556  27.350  34.402  1.00  0.00     0.023 A 
ATOM     84  C   UNL A   1      45.778  28.048  34.476  1.00  0.00     0.012 A 
ATOM     85  C   UNL A   1      44.400  26.151  35.123  1.00  0.00     0.148 A 
ATOM     86  C   UNL A   1      46.838  27.542  35.228  1.00  0.00     0.002 A 
ATOM     87  C   UNL A   1      45.441  25.680  35.913  1.00  0.00     0.091 A 
ATOM     88  F   UNL A   1      43.234  25.493  35.025  1.00  0.00    -0.205 F 
ATOM     89  C   UNL A   1      46.665  26.367  35.956  1.00  0.00     0.022 A 
BRANCH  87  90
ATOM     90  S   UNL A   1      45.273  24.233  36.964  1.00  0.00     0.127 S 
ATOM     91  O   UNL A   1      46.615  24.120  37.531  1.00  0.00    -0.237 OA
ATOM     92  O   UNL A   1      44.242  24.656  37.913  1.00  0.00    -0.237 OA
ATOM     93  O   UNL A   1      44.873  23.141  36.085  1.00  0.00    -0.744 OA
ENDBRANCH  87  90
ENDBRANCH  60  83
ENDBRANCH  34  35
ENDBRANCH  26  29
ENDBRANCH  24  25
ENDBRANCH  23  24
ENDBRANCH   1  23
TORSDOF 17
ENDMDL
MODEL 3
REMARK VINA RESULT:     -11.2      1.025      2.239
REMARK SMILES Cc1ccc([C@@H](C)[N@@H+]2CCO[C@H](CC(=O)NCCCCNC(=O)c3ccc(-c4c5nc(c(-c6cccc(S(=O)(=O)[O-])c6F)c6ccc([nH]6)c(-c6cccc(S(=O)(=O)[O-])c6F)c6nc(c(-c7cccc(S(=O)(=O)[O-])c7F)c7ccc4[nH]7)C=C6)C=C5)cc3)C2)o1
REMARK SMILES IDX 18 1 17 2 16 3 14 4 15 5 13 7 12 8 8 9 9 10 87 11 10 13
REMARK SMILES IDX 11 14 6 15 7 16 5 17 1 18 2 19 3 20 88 21 4 22 19 23 20 24
REMARK SMILES IDX 21 25 22 26 23 28 24 29 25 30 86 31 26 32 85 33 27 34 28 35
REMARK SMILES IDX 29 36 79 37 30 38 84 39 78 40 80 41 31 42 83 43 77 44 76 45
REMARK SMILES IDX 32 47 64 48 44 49 63 50 45 51 48 52 62 53 81 54 46 55 47 56
REMARK SMILES IDX 61 58 82 59 49 60 33 61 34 62 42 63 35 64 37 65 43 66 36 67
REMARK SMILES IDX 38 68 39 69 40 70 41 71 65 72 66 73 74 74 67 75 69 76 75 77
REMARK SMILES IDX 68 78 70 79 71 80 72 81 73 82 50 83 51 84 59 85 52 86 54 87
REMARK SMILES IDX 60 88 53 89 55 90 56 91 57 92 58 93
REMARK H PARENT 16 6 8 12 21 27 80 46 48 57
REMARK Flexibility Score: inf
ROOT
ATOM      1  C   UNL A   1      31.732  27.525  26.660  1.00  0.00     0.023 C 
ENDROOT
BRANCH   1   2
ATOM      2  C   UNL A   1      31.041  26.512  25.745  1.00  0.00     0.116 C 
BRANCH   2   3
ATOM      3  N   UNL A   1      30.601  25.368  26.507  1.00  0.00    -0.356 N 
ATOM      4  C   UNL A   1      31.181  24.139  26.590  1.00  0.00     0.222 C 
ATOM      5  O   UNL A   1      30.576  23.249  27.193  1.00  0.00    -0.275 OA
ATOM      6  H   UNL A   1      29.777  25.492  27.033  1.00  0.00     0.163 HD
BRANCH   4   7
ATOM      7  C   UNL A   1      32.601  23.923  26.119  1.00  0.00     0.138 C 
BRANCH   7   8
ATOM      8  C   UNL A   1      33.585  23.002  26.842  1.00  0.00     0.182 C 
ATOM      9  N   UNL A   1      35.441  22.276  25.205  1.00  0.00    -0.322 N 
ATOM     10  C   UNL A   1      35.222  20.909  25.650  1.00  0.00     0.291 C 
ATOM     11  C   UNL A   1      35.009  23.206  26.249  1.00  0.00     0.295 C 
ATOM     12  H   UNL A   1      36.439  22.473  25.124  1.00  0.00     0.348 HD
ATOM     13  C   UNL A   1      33.791  20.660  26.108  1.00  0.00     0.222 C 
ATOM     14  O   UNL A   1      33.227  21.627  27.001  1.00  0.00    -0.366 OA
BRANCH   9  15
ATOM     15  C   UNL A   1      35.269  22.562  23.768  1.00  0.00     0.248 C 
ATOM     16  C   UNL A   1      36.605  22.959  23.125  1.00  0.00     0.084 C 
BRANCH  15  17
ATOM     17  C   UNL A   1      34.164  23.486  23.314  1.00  0.00     0.161 A 
ATOM     18  C   UNL A   1      33.377  26.944  22.758  1.00  0.00     0.087 C 
ATOM     19  C   UNL A   1      33.331  25.465  22.773  1.00  0.00     0.101 A 
ATOM     20  C   UNL A   1      32.351  24.542  22.485  1.00  0.00     0.046 A 
ATOM     21  O   UNL A   1      34.454  24.821  23.200  1.00  0.00    -0.460 OA
ATOM     22  C   UNL A   1      32.885  23.272  22.829  1.00  0.00     0.052 A 
ENDBRANCH  15  17
ENDBRANCH   9  15
ENDBRANCH   7   8
ENDBRANCH   4   7
ENDBRANCH   2   3
ENDBRANCH   1   2
BRANCH   1  23
ATOM     23  C   UNL A   1      32.325  28.692  25.881  1.00  0.00     0.023 C 
BRANCH  23  24
ATOM     24  C   UNL A   1      33.705  29.094  26.390  1.00  0.00     0.116 C 
BRANCH  24  25
ATOM     25  N   UNL A   1      33.761  30.490  26.810  1.00  0.00    -0.352 N 
ATOM     26  C   UNL A   1      34.669  31.127  27.628  1.00  0.00     0.251 C 
ATOM     27  H   UNL A   1      33.042  31.062  26.457  1.00  0.00     0.163 HD
ATOM     28  O   UNL A   1      34.464  32.273  27.995  1.00  0.00    -0.269 OA
BRANCH  26  29
ATOM     29  C   UNL A   1      35.879  30.402  28.080  1.00  0.00     0.039 A 
ATOM     30  C   UNL A   1      37.026  30.437  27.285  1.00  0.00     0.014 A 
ATOM     31  C   UNL A   1      35.888  29.713  29.295  1.00  0.00     0.014 A 
ATOM     32  C   UNL A   1      38.204  29.844  27.747  1.00  0.00     0.010 A 
ATOM     33  C   UNL A   1      37.085  29.212  29.796  1.00  0.00     0.010 A 
ATOM     34  C   UNL A   1      38.256  29.261  29.025  1.00  0.00    -0.014 A 
BRANCH  34  35
ATOM     35  C   UNL A   1      39.524  28.707  29.567  1.00  0.00     0.031 A 
ATOM     36  C   UNL A   1      40.216  29.379  30.725  1.00  0.00     0.074 A 
ATOM     37  C   UNL A   1      40.098  27.643  28.968  1.00  0.00     0.049 A 
ATOM     38  N   UNL A   1      41.337  29.053  31.314  1.00  0.00    -0.248 NA
ATOM     39  C   UNL A   1      39.589  30.594  31.274  1.00  0.00     0.031 C 
ATOM     40  C   UNL A   1      39.585  26.961  27.776  1.00  0.00     0.029 A 
ATOM     41  N   UNL A   1      41.255  26.962  29.262  1.00  0.00    -0.354 N 
ATOM     42  C   UNL A   1      41.571  30.039  32.264  1.00  0.00     0.074 A 
ATOM     43  C   UNL A   1      40.491  30.993  32.159  1.00  0.00     0.031 C 
ATOM     44  C   UNL A   1      40.419  25.961  27.445  1.00  0.00     0.029 A 
ATOM     45  C   UNL A   1      41.540  25.944  28.379  1.00  0.00     0.049 A 
ATOM     46  H   UNL A   1      41.827  27.181  30.033  1.00  0.00     0.167 HD
ATOM     47  C   UNL A   1      42.579  30.130  33.162  1.00  0.00     0.034 A 
ATOM     48  C   UNL A   1      42.589  25.100  28.322  1.00  0.00     0.034 A 
ATOM     49  C   UNL A   1      43.616  29.147  33.310  1.00  0.00     0.049 A 
ATOM     50  C   UNL A   1      43.654  25.182  29.382  1.00  0.00     0.074 A 
ATOM     51  C   UNL A   1      44.604  29.083  34.278  1.00  0.00     0.029 A 
ATOM     52  N   UNL A   1      43.812  28.069  32.466  1.00  0.00    -0.354 N 
ATOM     53  N   UNL A   1      43.744  26.006  30.398  1.00  0.00    -0.248 NA
ATOM     54  C   UNL A   1      44.740  24.194  29.315  1.00  0.00     0.031 C 
ATOM     55  C   UNL A   1      45.421  27.985  33.994  1.00  0.00     0.029 A 
ATOM     56  C   UNL A   1      44.917  27.343  32.875  1.00  0.00     0.049 A 
ATOM     57  H   UNL A   1      43.248  27.849  31.689  1.00  0.00     0.167 HD
ATOM     58  C   UNL A   1      44.872  25.612  31.108  1.00  0.00     0.074 A 
ATOM     59  C   UNL A   1      45.418  24.460  30.422  1.00  0.00     0.031 C 
ATOM     60  C   UNL A   1      45.417  26.165  32.219  1.00  0.00     0.034 A 
BRANCH  47  61
ATOM     61  C   UNL A   1      42.596  31.307  34.101  1.00  0.00     0.023 A 
ATOM     62  C   UNL A   1      43.343  32.455  33.772  1.00  0.00     0.012 A 
ATOM     63  C   UNL A   1      41.785  31.314  35.253  1.00  0.00     0.148 A 
ATOM     64  C   UNL A   1      43.300  33.586  34.587  1.00  0.00     0.002 A 
ATOM     65  C   UNL A   1      41.710  32.459  36.034  1.00  0.00     0.091 A 
ATOM     66  F   UNL A   1      41.097  30.203  35.556  1.00  0.00    -0.205 F 
ATOM     67  C   UNL A   1      42.473  33.593  35.708  1.00  0.00     0.022 A 
BRANCH  65  68
ATOM     68  S   UNL A   1      40.612  32.601  37.448  1.00  0.00     0.127 S 
ATOM     69  O   UNL A   1      40.396  34.047  37.509  1.00  0.00    -0.237 OA
ATOM     70  O   UNL A   1      39.449  31.830  37.009  1.00  0.00    -0.237 OA
ATOM     71  O   UNL A   1      41.332  32.033  38.579  1.00  0.00    -0.744 OA
ENDBRANCH  65  68
ENDBRANCH  47  61
BRANCH  48  72
ATOM     72  C   UNL A   1      42.670  24.071  27.245  1.00  0.00     0.023 A 
ATOM     73  C   UNL A   1      43.382  24.352  26.061  1.00  0.00     0.012 A 
ATOM     74  C   UNL A   1      42.036  22.822  27.382  1.00  0.00     0.148 A 
ATOM     75  C   UNL A   1      43.419  23.426  25.017  1.00  0.00     0.002 A 
ATOM     76  C   UNL A   1      42.128  21.881  26.363  1.00  0.00     0.091 A 
ATOM     77  F   UNL A   1      41.351  22.577  28.508  1.00  0.00    -0.205 F 
ATOM     78  C   UNL A   1      42.800  22.189  25.170  1.00  0.00     0.022 A 
BRANCH  76  79
ATOM     79  S   UNL A   1      41.474  20.218  26.536  1.00  0.00     0.127 S 
ATOM     80  O   UNL A   1      42.047  19.548  25.373  1.00  0.00    -0.237 OA
ATOM     81  O   UNL A   1      42.031  19.804  27.824  1.00  0.00    -0.237 OA
ATOM     82  O   UNL A   1      40.024  20.370  26.535  1.00  0.00    -0.744 OA
ENDBRANCH  76  79
ENDBRANCH  48  72
BRANCH  60  83
ATOM     83  C   UNL A   1      46.643  25.511  32.802  1.00  0.00     0.023 A 
ATOM     84  C   UNL A   1      47.925  25.961  32.431  1.00  0.00     0.012 A 
ATOM     85  C   UNL A   1      46.519  24.503  33.778  1.00  0.00     0.148 A 
ATOM     86  C   UNL A   1      49.066  25.392  32.996  1.00  0.00     0.002 A 
ATOM     87  C   UNL A   1      47.657  23.979  34.377  1.00  0.00     0.091 A 
ATOM     88  F   UNL A   1      45.289  24.077  34.105  1.00  0.00    -0.205 F 
ATOM     89  C   UNL A   1      48.932  24.412  33.977  1.00  0.00     0.022 A 
BRANCH  87  90
ATOM     90  S   UNL A   1      47.577  22.790  35.720  1.00  0.00     0.127 S 
ATOM     91  O   UNL A   1      48.992  22.532  35.975  1.00  0.00    -0.237 OA
ATOM     92  O   UNL A   1      46.897  23.551  36.768  1.00  0.00    -0.237 OA
ATOM     93  O   UNL A   1      46.818  21.656  35.209  1.00  0.00    -0.744 OA
ENDBRANCH  87  90
ENDBRANCH  60  83
ENDBRANCH  34  35
ENDBRANCH  26  29
ENDBRANCH  24  25
ENDBRANCH  23  24
ENDBRANCH   1  23
TORSDOF 17
ENDMDL
