MODEL 1
REMARK VINA RESULT:     -11.0      0.000      0.000
REMARK SMILES C[C@@H](Nc1cccc(Cl)c1)[C@@H](C)C(=O)NCCCCNC(=O)c1ccc(-c2c3nc(c(-c4cccc(S(=O)(=O)[O-])c4F)c4ccc([nH]4)c(-c4cccc(S(=O)(=O)[O-])c4F)c4nc(c(-c5cccc(S(=O)(=O)[O-])c5F)c5ccc2[nH]5)C=C4)C=C3)cc1
REMARK SMILES IDX 17 1 16 2 15 3 13 4 14 5 11 7 12 8 2 9 1 10 3 11 4 13 5 14
REMARK SMILES IDX 10 15 6 16 8 17 7 18 9 19 18 20 19 21 20 22 21 23 22 25
REMARK SMILES IDX 23 26 24 27 85 28 25 29 84 30 26 31 27 32 28 33 78 34 29 35
REMARK SMILES IDX 83 36 77 37 79 38 30 39 82 40 76 41 75 42 31 44 63 45 43 46
REMARK SMILES IDX 62 47 44 48 47 49 61 50 80 51 45 52 46 53 60 55 81 56 48 57
REMARK SMILES IDX 32 58 33 59 41 60 34 61 36 62 42 63 35 64 37 65 38 66 39 67
REMARK SMILES IDX 40 68 64 69 65 70 73 71 66 72 68 73 74 74 67 75 69 76 70 77
REMARK SMILES IDX 71 78 72 79 49 80 50 81 58 82 51 83 53 84 59 85 52 86 54 87
REMARK SMILES IDX 55 88 56 89 57 90
REMARK H PARENT 15 6 3 12 20 24 79 43 47 54
REMARK Flexibility Score: inf
ROOT
ATOM      1  C   UNL A   1      30.827  28.457  24.538  1.00  0.00     0.023 C 
ENDROOT
BRANCH   1   2
ATOM      2  C   UNL A   1      30.445  27.068  24.026  1.00  0.00     0.116 C 
BRANCH   2   3
ATOM      3  N   UNL A   1      30.138  26.138  25.093  1.00  0.00    -0.356 N 
ATOM      4  C   UNL A   1      30.888  25.186  25.708  1.00  0.00     0.224 C 
ATOM      5  O   UNL A   1      30.400  24.677  26.724  1.00  0.00    -0.275 OA
ATOM      6  H   UNL A   1      29.218  26.209  25.437  1.00  0.00     0.163 HD
BRANCH   4   7
ATOM      7  C   UNL A   1      32.302  24.807  25.271  1.00  0.00     0.097 C 
ATOM      8  C   UNL A   1      33.241  25.780  26.000  1.00  0.00     0.020 C 
BRANCH   7   9
ATOM      9  C   UNL A   1      32.537  24.675  23.743  1.00  0.00     0.088 C 
ATOM     10  C   UNL A   1      33.661  25.611  23.256  1.00  0.00     0.031 C 
BRANCH   9  11
ATOM     11  N   UNL A   1      32.885  23.340  23.226  1.00  0.00    -0.382 N 
ATOM     12  H   UNL A   1      32.620  23.165  22.295  1.00  0.00     0.160 HD
BRANCH  11  13
ATOM     13  C   UNL A   1      33.529  22.304  23.862  1.00  0.00     0.036 A 
ATOM     14  C   UNL A   1      34.872  22.345  24.230  1.00  0.00     0.026 A 
ATOM     15  C   UNL A   1      32.814  21.134  24.141  1.00  0.00     0.046 A 
ATOM     16  C   UNL A   1      35.517  21.228  24.771  1.00  0.00     0.004 A 
ATOM     17  C   UNL A   1      33.445  20.023  24.704  1.00  0.00     0.043 A 
ATOM     18  C   UNL A   1      34.802  20.057  25.000  1.00  0.00     0.020 A 
ATOM     19  Cl  UNL A   1      32.535  18.596  25.018  1.00  0.00    -0.084 Cl
ENDBRANCH  11  13
ENDBRANCH   9  11
ENDBRANCH   7   9
ENDBRANCH   4   7
ENDBRANCH   2   3
ENDBRANCH   1   2
BRANCH   1  20
ATOM     20  C   UNL A   1      32.246  28.915  24.206  1.00  0.00     0.023 C 
BRANCH  20  21
ATOM     21  C   UNL A   1      33.064  29.412  25.387  1.00  0.00     0.116 C 
BRANCH  21  22
ATOM     22  N   UNL A   1      32.623  30.705  25.886  1.00  0.00    -0.352 N 
ATOM     23  C   UNL A   1      33.150  31.464  26.904  1.00  0.00     0.251 C 
ATOM     24  H   UNL A   1      31.839  31.090  25.431  1.00  0.00     0.163 HD
ATOM     25  O   UNL A   1      32.583  32.487  27.260  1.00  0.00    -0.269 OA
BRANCH  23  26
ATOM     26  C   UNL A   1      34.387  31.016  27.580  1.00  0.00     0.039 A 
ATOM     27  C   UNL A   1      35.402  31.948  27.813  1.00  0.00     0.014 A 
ATOM     28  C   UNL A   1      34.540  29.692  27.997  1.00  0.00     0.014 A 
ATOM     29  C   UNL A   1      36.552  31.559  28.503  1.00  0.00     0.010 A 
ATOM     30  C   UNL A   1      35.643  29.330  28.762  1.00  0.00     0.010 A 
ATOM     31  C   UNL A   1      36.672  30.252  29.003  1.00  0.00    -0.014 A 
BRANCH  31  32
ATOM     32  C   UNL A   1      37.882  29.816  29.744  1.00  0.00     0.031 A 
ATOM     33  C   UNL A   1      38.153  30.363  31.121  1.00  0.00     0.074 A 
ATOM     34  C   UNL A   1      38.770  28.991  29.157  1.00  0.00     0.049 A 
ATOM     35  N   UNL A   1      39.176  30.149  31.907  1.00  0.00    -0.248 NA
ATOM     36  C   UNL A   1      37.160  31.299  31.676  1.00  0.00     0.031 C 
ATOM     37  C   UNL A   1      38.661  28.455  27.798  1.00  0.00     0.029 A 
ATOM     38  N   UNL A   1      39.957  28.479  29.620  1.00  0.00    -0.354 N 
ATOM     39  C   UNL A   1      38.970  30.950  33.024  1.00  0.00     0.074 A 
ATOM     40  C   UNL A   1      37.748  31.687  32.797  1.00  0.00     0.031 C 
ATOM     41  C   UNL A   1      39.729  27.683  27.542  1.00  0.00     0.029 A 
ATOM     42  C   UNL A   1      40.614  27.693  28.702  1.00  0.00     0.049 A 
ATOM     43  H   UNL A   1      40.303  28.656  30.523  1.00  0.00     0.167 HD
ATOM     44  C   UNL A   1      39.712  31.040  34.154  1.00  0.00     0.034 A 
ATOM     45  C   UNL A   1      41.800  27.057  28.786  1.00  0.00     0.034 A 
ATOM     46  C   UNL A   1      40.899  30.269  34.396  1.00  0.00     0.049 A 
ATOM     47  C   UNL A   1      42.583  27.138  30.070  1.00  0.00     0.074 A 
ATOM     48  C   UNL A   1      41.676  30.222  35.541  1.00  0.00     0.029 A 
ATOM     49  N   UNL A   1      41.488  29.414  33.477  1.00  0.00    -0.354 N 
ATOM     50  N   UNL A   1      42.293  27.782  31.175  1.00  0.00    -0.248 NA
ATOM     51  C   UNL A   1      43.835  26.372  30.134  1.00  0.00     0.031 C 
ATOM     52  C   UNL A   1      42.750  29.358  35.303  1.00  0.00     0.029 A 
ATOM     53  C   UNL A   1      42.620  28.838  34.025  1.00  0.00     0.049 A 
ATOM     54  H   UNL A   1      41.149  29.242  32.569  1.00  0.00     0.167 HD
ATOM     55  C   UNL A   1      43.301  27.463  32.078  1.00  0.00     0.074 A 
ATOM     56  C   UNL A   1      44.200  26.556  31.395  1.00  0.00     0.031 C 
ATOM     57  C   UNL A   1      43.472  27.891  33.353  1.00  0.00     0.034 A 
BRANCH  44  58
ATOM     58  C   UNL A   1      39.229  31.973  35.235  1.00  0.00     0.023 A 
ATOM     59  C   UNL A   1      38.246  31.536  36.148  1.00  0.00     0.012 A 
ATOM     60  C   UNL A   1      39.782  33.260  35.381  1.00  0.00     0.148 A 
ATOM     61  C   UNL A   1      37.792  32.377  37.162  1.00  0.00     0.002 A 
ATOM     62  C   UNL A   1      39.360  34.074  36.425  1.00  0.00     0.091 A 
ATOM     63  F   UNL A   1      40.701  33.667  34.493  1.00  0.00    -0.205 F 
ATOM     64  C   UNL A   1      38.357  33.641  37.306  1.00  0.00     0.022 A 
BRANCH  62  65
ATOM     65  S   UNL A   1      40.084  35.686  36.750  1.00  0.00     0.127 S 
ATOM     66  O   UNL A   1      39.652  36.445  35.577  1.00  0.00    -0.237 OA
ATOM     67  O   UNL A   1      39.427  36.071  38.000  1.00  0.00    -0.237 OA
ATOM     68  O   UNL A   1      41.519  35.470  36.858  1.00  0.00    -0.744 OA
ENDBRANCH  62  65
ENDBRANCH  44  58
BRANCH  45  69
ATOM     69  C   UNL A   1      42.289  26.232  27.645  1.00  0.00     0.023 A 
ATOM     70  C   UNL A   1      43.142  26.813  26.685  1.00  0.00     0.012 A 
ATOM     71  C   UNL A   1      41.928  24.878  27.512  1.00  0.00     0.148 A 
ATOM     72  C   UNL A   1      43.594  26.072  25.593  1.00  0.00     0.002 A 
ATOM     73  C   UNL A   1      42.427  24.130  26.452  1.00  0.00     0.091 A 
ATOM     74  F   UNL A   1      41.110  24.346  28.431  1.00  0.00    -0.205 F 
ATOM     75  C   UNL A   1      43.244  24.729  25.481  1.00  0.00     0.022 A 
BRANCH  73  76
ATOM     76  S   UNL A   1      42.136  22.365  26.296  1.00  0.00     0.127 S 
ATOM     77  O   UNL A   1      40.685  22.315  26.132  1.00  0.00    -0.237 OA
ATOM     78  O   UNL A   1      42.904  22.038  25.095  1.00  0.00    -0.237 OA
ATOM     79  O   UNL A   1      42.655  21.770  27.521  1.00  0.00    -0.744 OA
ENDBRANCH  73  76
ENDBRANCH  45  69
BRANCH  57  80
ATOM     80  C   UNL A   1      44.643  27.341  34.126  1.00  0.00     0.023 A 
ATOM     81  C   UNL A   1      45.876  28.022  34.122  1.00  0.00     0.012 A 
ATOM     82  C   UNL A   1      44.492  26.185  34.918  1.00  0.00     0.148 A 
ATOM     83  C   UNL A   1      46.952  27.540  34.868  1.00  0.00     0.002 A 
ATOM     84  C   UNL A   1      45.551  25.743  35.700  1.00  0.00     0.091 A 
ATOM     85  F   UNL A   1      43.316  25.542  34.894  1.00  0.00    -0.205 F 
ATOM     86  C   UNL A   1      46.785  26.410  35.666  1.00  0.00     0.022 A 
BRANCH  84  87
ATOM     87  S   UNL A   1      45.395  24.359  36.835  1.00  0.00     0.127 S 
ATOM     88  O   UNL A   1      44.357  24.838  37.748  1.00  0.00    -0.237 OA
ATOM     89  O   UNL A   1      44.973  23.277  35.947  1.00  0.00    -0.237 OA
ATOM     90  O   UNL A   1      46.712  24.176  37.428  1.00  0.00    -0.744 OA
ENDBRANCH  84  87
ENDBRANCH  57  80
ENDBRANCH  31  32
ENDBRANCH  23  26
ENDBRANCH  21  22
ENDBRANCH  20  21
ENDBRANCH   1  20
TORSDOF 17
ENDMDL
MODEL 2
REMARK VINA RESULT:     -10.9      1.884      7.993
REMARK SMILES C[C@@H](Nc1cccc(Cl)c1)[C@@H](C)C(=O)NCCCCNC(=O)c1ccc(-c2c3nc(c(-c4cccc(S(=O)(=O)[O-])c4F)c4ccc([nH]4)c(-c4cccc(S(=O)(=O)[O-])c4F)c4nc(c(-c5cccc(S(=O)(=O)[O-])c5F)c5ccc2[nH]5)C=C4)C=C3)cc1
REMARK SMILES IDX 17 1 16 2 15 3 13 4 14 5 11 7 12 8 2 9 1 10 3 11 4 13 5 14
REMARK SMILES IDX 10 15 6 16 8 17 7 18 9 19 18 20 19 21 20 22 21 23 22 25
REMARK SMILES IDX 23 26 24 27 85 28 25 29 84 30 26 31 27 32 28 33 78 34 29 35
REMARK SMILES IDX 83 36 77 37 79 38 30 39 82 40 76 41 75 42 31 44 63 45 43 46
REMARK SMILES IDX 62 47 44 48 47 49 61 50 80 51 45 52 46 53 60 55 81 56 48 57
REMARK SMILES IDX 32 58 33 59 41 60 34 61 36 62 42 63 35 64 37 65 38 66 39 67
REMARK SMILES IDX 40 68 64 69 65 70 73 71 66 72 68 73 74 74 67 75 69 76 70 77
REMARK SMILES IDX 71 78 72 79 49 80 50 81 58 82 51 83 53 84 59 85 52 86 54 87
REMARK SMILES IDX 55 88 56 89 57 90
REMARK H PARENT 15 6 3 12 20 24 79 43 47 54
REMARK Flexibility Score: inf
ROOT
ATOM      1  C   UNL A   1      31.752  27.070  26.326  1.00  0.00     0.023 C 
ENDROOT
BRANCH   1   2
ATOM      2  C   UNL A   1      30.899  25.818  26.120  1.00  0.00     0.116 C 
BRANCH   2   3
ATOM      3  N   UNL A   1      31.313  25.036  24.973  1.00  0.00    -0.356 N 
ATOM      4  C   UNL A   1      32.258  24.072  24.827  1.00  0.00     0.224 C 
ATOM      5  O   UNL A   1      32.246  23.451  23.758  1.00  0.00    -0.275 OA
ATOM      6  H   UNL A   1      30.817  25.241  24.147  1.00  0.00     0.163 HD
BRANCH   4   7
ATOM      7  C   UNL A   1      33.235  23.668  25.931  1.00  0.00     0.097 C 
ATOM      8  C   UNL A   1      34.449  24.598  25.776  1.00  0.00     0.020 C 
BRANCH   7   9
ATOM      9  C   UNL A   1      33.565  22.156  26.036  1.00  0.00     0.088 C 
ATOM     10  C   UNL A   1      34.020  21.769  27.458  1.00  0.00     0.031 C 
BRANCH   9  11
ATOM     11  N   UNL A   1      32.492  21.206  25.694  1.00  0.00    -0.382 N 
ATOM     12  H   UNL A   1      31.603  21.426  26.054  1.00  0.00     0.160 HD
BRANCH  11  13
ATOM     13  C   UNL A   1      32.556  20.057  24.941  1.00  0.00     0.036 A 
ATOM     14  C   UNL A   1      32.408  20.037  23.555  1.00  0.00     0.026 A 
ATOM     15  C   UNL A   1      32.762  18.835  25.590  1.00  0.00     0.046 A 
ATOM     16  C   UNL A   1      32.366  18.835  22.841  1.00  0.00     0.004 A 
ATOM     17  C   UNL A   1      32.747  17.633  24.881  1.00  0.00     0.043 A 
ATOM     18  C   UNL A   1      32.526  17.625  23.509  1.00  0.00     0.020 A 
ATOM     19  Cl  UNL A   1      32.988  16.147  25.718  1.00  0.00    -0.084 Cl
ENDBRANCH  11  13
ENDBRANCH   9  11
ENDBRANCH   7   9
ENDBRANCH   4   7
ENDBRANCH   2   3
ENDBRANCH   1   2
BRANCH   1  20
ATOM     20  C   UNL A   1      32.072  27.866  25.063  1.00  0.00     0.023 C 
BRANCH  20  21
ATOM     21  C   UNL A   1      33.017  29.041  25.254  1.00  0.00     0.116 C 
BRANCH  21  22
ATOM     22  N   UNL A   1      32.335  30.268  25.635  1.00  0.00    -0.352 N 
ATOM     23  C   UNL A   1      32.641  31.147  26.647  1.00  0.00     0.251 C 
ATOM     24  H   UNL A   1      31.547  30.502  25.093  1.00  0.00     0.163 HD
ATOM     25  O   UNL A   1      31.890  32.081  26.893  1.00  0.00    -0.269 OA
BRANCH  23  26
ATOM     26  C   UNL A   1      33.863  30.933  27.453  1.00  0.00     0.039 A 
ATOM     27  C   UNL A   1      34.110  29.662  27.977  1.00  0.00     0.014 A 
ATOM     28  C   UNL A   1      34.767  31.974  27.677  1.00  0.00     0.014 A 
ATOM     29  C   UNL A   1      35.288  29.426  28.689  1.00  0.00     0.010 A 
ATOM     30  C   UNL A   1      35.979  31.714  28.307  1.00  0.00     0.010 A 
ATOM     31  C   UNL A   1      36.242  30.444  28.841  1.00  0.00    -0.014 A 
BRANCH  31  32
ATOM     32  C   UNL A   1      37.504  30.215  29.589  1.00  0.00     0.031 A 
ATOM     33  C   UNL A   1      38.580  29.347  28.993  1.00  0.00     0.074 A 
ATOM     34  C   UNL A   1      37.653  30.724  30.828  1.00  0.00     0.049 A 
ATOM     35  N   UNL A   1      39.727  28.985  29.507  1.00  0.00    -0.248 NA
ATOM     36  C   UNL A   1      38.323  28.787  27.654  1.00  0.00     0.031 C 
ATOM     37  C   UNL A   1      36.652  31.515  31.547  1.00  0.00     0.029 A 
ATOM     38  N   UNL A   1      38.697  30.628  31.714  1.00  0.00    -0.354 N 
ATOM     39  C   UNL A   1      40.304  28.126  28.578  1.00  0.00     0.074 A 
ATOM     40  C   UNL A   1      39.365  27.988  27.489  1.00  0.00     0.031 C 
ATOM     41  C   UNL A   1      37.134  31.840  32.757  1.00  0.00     0.029 A 
ATOM     42  C   UNL A   1      38.462  31.256  32.914  1.00  0.00     0.049 A 
ATOM     43  H   UNL A   1      39.536  30.155  31.508  1.00  0.00     0.167 HD
ATOM     44  C   UNL A   1      41.521  27.532  28.611  1.00  0.00     0.034 A 
ATOM     45  C   UNL A   1      39.230  31.345  34.019  1.00  0.00     0.034 A 
ATOM     46  C   UNL A   1      42.471  27.711  29.673  1.00  0.00     0.049 A 
ATOM     47  C   UNL A   1      40.596  30.713  34.012  1.00  0.00     0.074 A 
ATOM     48  C   UNL A   1      43.764  27.225  29.763  1.00  0.00     0.029 A 
ATOM     49  N   UNL A   1      42.232  28.429  30.835  1.00  0.00    -0.354 N 
ATOM     50  N   UNL A   1      41.186  30.032  33.060  1.00  0.00    -0.248 NA
ATOM     51  C   UNL A   1      41.420  30.898  35.215  1.00  0.00     0.031 C 
ATOM     52  C   UNL A   1      44.296  27.627  30.992  1.00  0.00     0.029 A 
ATOM     53  C   UNL A   1      43.349  28.396  31.650  1.00  0.00     0.049 A 
ATOM     54  H   UNL A   1      41.391  28.895  31.048  1.00  0.00     0.167 HD
ATOM     55  C   UNL A   1      42.463  29.746  33.530  1.00  0.00     0.074 A 
ATOM     56  C   UNL A   1      42.565  30.342  34.846  1.00  0.00     0.031 C 
ATOM     57  C   UNL A   1      43.457  29.044  32.931  1.00  0.00     0.034 A 
BRANCH  44  58
ATOM     58  C   UNL A   1      41.912  26.671  27.437  1.00  0.00     0.023 A 
ATOM     59  C   UNL A   1      42.570  27.252  26.333  1.00  0.00     0.012 A 
ATOM     60  C   UNL A   1      41.675  25.283  27.446  1.00  0.00     0.148 A 
ATOM     61  C   UNL A   1      42.950  26.474  25.241  1.00  0.00     0.002 A 
ATOM     62  C   UNL A   1      42.101  24.506  26.376  1.00  0.00     0.091 A 
ATOM     63  F   UNL A   1      41.029  24.751  28.495  1.00  0.00    -0.205 F 
ATOM     64  C   UNL A   1      42.725  25.101  25.268  1.00  0.00     0.022 A 
BRANCH  62  65
ATOM     65  S   UNL A   1      41.935  22.718  26.350  1.00  0.00     0.127 S 
ATOM     66  O   UNL A   1      40.482  22.556  26.321  1.00  0.00    -0.237 OA
ATOM     67  O   UNL A   1      42.613  22.365  25.102  1.00  0.00    -0.237 OA
ATOM     68  O   UNL A   1      42.592  22.234  27.556  1.00  0.00    -0.744 OA
ENDBRANCH  62  65
ENDBRANCH  44  58
BRANCH  45  69
ATOM     69  C   UNL A   1      38.752  32.119  35.201  1.00  0.00     0.023 A 
ATOM     70  C   UNL A   1      38.787  33.528  35.167  1.00  0.00     0.012 A 
ATOM     71  C   UNL A   1      38.254  31.472  36.348  1.00  0.00     0.148 A 
ATOM     72  C   UNL A   1      38.370  34.277  36.267  1.00  0.00     0.002 A 
ATOM     73  C   UNL A   1      37.788  32.226  37.419  1.00  0.00     0.091 A 
ATOM     74  F   UNL A   1      38.237  30.132  36.363  1.00  0.00    -0.205 F 
ATOM     75  C   UNL A   1      37.863  33.626  37.389  1.00  0.00     0.022 A 
BRANCH  73  76
ATOM     76  S   UNL A   1      37.001  31.481  38.851  1.00  0.00     0.127 S 
ATOM     77  O   UNL A   1      37.993  31.721  39.896  1.00  0.00    -0.237 OA
ATOM     78  O   UNL A   1      35.777  32.274  38.968  1.00  0.00    -0.237 OA
ATOM     79  O   UNL A   1      36.781  30.085  38.498  1.00  0.00    -0.744 OA
ENDBRANCH  73  76
ENDBRANCH  45  69
BRANCH  57  80
ATOM     80  C   UNL A   1      44.770  28.927  33.661  1.00  0.00     0.023 A 
ATOM     81  C   UNL A   1      45.781  29.885  33.455  1.00  0.00     0.012 A 
ATOM     82  C   UNL A   1      44.968  27.905  34.610  1.00  0.00     0.148 A 
ATOM     83  C   UNL A   1      46.984  29.807  34.157  1.00  0.00     0.002 A 
ATOM     84  C   UNL A   1      46.146  27.865  35.344  1.00  0.00     0.091 A 
ATOM     85  F   UNL A   1      44.000  26.992  34.779  1.00  0.00    -0.205 F 
ATOM     86  C   UNL A   1      47.161  28.806  35.110  1.00  0.00     0.022 A 
BRANCH  84  87
ATOM     87  S   UNL A   1      46.417  26.675  36.663  1.00  0.00     0.127 S 
ATOM     88  O   UNL A   1      47.769  27.019  37.101  1.00  0.00    -0.237 OA
ATOM     89  O   UNL A   1      45.361  27.021  37.614  1.00  0.00    -0.237 OA
ATOM     90  O   UNL A   1      46.273  25.360  36.053  1.00  0.00    -0.744 OA
ENDBRANCH  84  87
ENDBRANCH  57  80
ENDBRANCH  31  32
ENDBRANCH  23  26
ENDBRANCH  21  22
ENDBRANCH  20  21
ENDBRANCH   1  20
TORSDOF 17
ENDMDL
MODEL 3
REMARK VINA RESULT:     -10.9      1.920      3.312
REMARK SMILES C[C@@H](Nc1cccc(Cl)c1)[C@@H](C)C(=O)NCCCCNC(=O)c1ccc(-c2c3nc(c(-c4cccc(S(=O)(=O)[O-])c4F)c4ccc([nH]4)c(-c4cccc(S(=O)(=O)[O-])c4F)c4nc(c(-c5cccc(S(=O)(=O)[O-])c5F)c5ccc2[nH]5)C=C4)C=C3)cc1
REMARK SMILES IDX 17 1 16 2 15 3 13 4 14 5 11 7 12 8 2 9 1 10 3 11 4 13 5 14
REMARK SMILES IDX 10 15 6 16 8 17 7 18 9 19 18 20 19 21 20 22 21 23 22 25
REMARK SMILES IDX 23 26 24 27 85 28 25 29 84 30 26 31 27 32 28 33 78 34 29 35
REMARK SMILES IDX 83 36 77 37 79 38 30 39 82 40 76 41 75 42 31 44 63 45 43 46
REMARK SMILES IDX 62 47 44 48 47 49 61 50 80 51 45 52 46 53 60 55 81 56 48 57
REMARK SMILES IDX 32 58 33 59 41 60 34 61 36 62 42 63 35 64 37 65 38 66 39 67
REMARK SMILES IDX 40 68 64 69 65 70 73 71 66 72 68 73 74 74 67 75 69 76 70 77
REMARK SMILES IDX 71 78 72 79 49 80 50 81 58 82 51 83 53 84 59 85 52 86 54 87
REMARK SMILES IDX 55 88 56 89 57 90
REMARK H PARENT 15 6 3 12 20 24 79 43 47 54
REMARK Flexibility Score: inf
ROOT
ATOM      1  C   UNL A   1      31.490  27.640  26.719  1.00  0.00     0.023 C 
ENDROOT
BRANCH   1   2
ATOM      2  C   UNL A   1      32.148  26.458  26.006  1.00  0.00     0.116 C 
BRANCH   2   3
ATOM      3  N   UNL A   1      31.225  25.720  25.167  1.00  0.00    -0.356 N 
ATOM      4  C   UNL A   1      31.178  25.529  23.823  1.00  0.00     0.224 C 
ATOM      5  O   UNL A   1      30.371  24.684  23.419  1.00  0.00    -0.275 OA
ATOM      6  H   UNL A   1      30.501  25.274  25.662  1.00  0.00     0.163 HD
BRANCH   4   7
ATOM      7  C   UNL A   1      32.119  26.216  22.835  1.00  0.00     0.097 C 
ATOM      8  C   UNL A   1      33.469  25.493  22.970  1.00  0.00     0.020 C 
BRANCH   7   9
ATOM      9  C   UNL A   1      32.185  27.765  22.912  1.00  0.00     0.088 C 
ATOM     10  C   UNL A   1      33.620  28.286  22.697  1.00  0.00     0.031 C 
BRANCH   9  11
ATOM     11  N   UNL A   1      31.344  28.522  21.967  1.00  0.00    -0.382 N 
ATOM     12  H   UNL A   1      31.729  28.652  21.071  1.00  0.00     0.160 HD
BRANCH  11  13
ATOM     13  C   UNL A   1      30.098  29.071  22.161  1.00  0.00     0.036 A 
ATOM     14  C   UNL A   1      29.766  30.374  21.793  1.00  0.00     0.026 A 
ATOM     15  C   UNL A   1      29.109  28.298  22.779  1.00  0.00     0.046 A 
ATOM     16  C   UNL A   1      28.523  30.930  22.111  1.00  0.00     0.004 A 
ATOM     17  C   UNL A   1      27.857  28.839  23.077  1.00  0.00     0.043 A 
ATOM     18  C   UNL A   1      27.566  30.162  22.767  1.00  0.00     0.020 A 
ATOM     19  Cl  UNL A   1      26.670  27.861  23.852  1.00  0.00    -0.084 Cl
ENDBRANCH  11  13
ENDBRANCH   9  11
ENDBRANCH   7   9
ENDBRANCH   4   7
ENDBRANCH   2   3
ENDBRANCH   1   2
BRANCH   1  20
ATOM     20  C   UNL A   1      31.499  28.961  25.953  1.00  0.00     0.023 C 
BRANCH  20  21
ATOM     21  C   UNL A   1      32.784  29.766  26.055  1.00  0.00     0.116 C 
BRANCH  21  22
ATOM     22  N   UNL A   1      32.558  31.166  26.376  1.00  0.00    -0.352 N 
ATOM     23  C   UNL A   1      33.274  31.987  27.215  1.00  0.00     0.251 C 
ATOM     24  H   UNL A   1      31.787  31.585  25.929  1.00  0.00     0.163 HD
ATOM     25  O   UNL A   1      32.875  33.120  27.448  1.00  0.00    -0.269 OA
BRANCH  23  26
ATOM     26  C   UNL A   1      34.507  31.477  27.855  1.00  0.00     0.039 A 
ATOM     27  C   UNL A   1      35.595  32.341  28.001  1.00  0.00     0.014 A 
ATOM     28  C   UNL A   1      34.585  30.163  28.321  1.00  0.00     0.014 A 
ATOM     29  C   UNL A   1      36.746  31.896  28.655  1.00  0.00     0.010 A 
ATOM     30  C   UNL A   1      35.694  29.752  29.051  1.00  0.00     0.010 A 
ATOM     31  C   UNL A   1      36.796  30.606  29.206  1.00  0.00    -0.014 A 
BRANCH  31  32
ATOM     32  C   UNL A   1      38.006  30.113  29.910  1.00  0.00     0.031 A 
ATOM     33  C   UNL A   1      38.307  30.592  31.306  1.00  0.00     0.074 A 
ATOM     34  C   UNL A   1      38.869  29.296  29.275  1.00  0.00     0.049 A 
ATOM     35  N   UNL A   1      39.334  30.322  32.068  1.00  0.00    -0.248 NA
ATOM     36  C   UNL A   1      37.340  31.523  31.916  1.00  0.00     0.031 C 
ATOM     37  C   UNL A   1      38.730  28.823  27.896  1.00  0.00     0.029 A 
ATOM     38  N   UNL A   1      40.050  28.739  29.699  1.00  0.00    -0.354 N 
ATOM     39  C   UNL A   1      39.160  31.077  33.222  1.00  0.00     0.074 A 
ATOM     40  C   UNL A   1      37.951  31.849  33.044  1.00  0.00     0.031 C 
ATOM     41  C   UNL A   1      39.779  28.041  27.592  1.00  0.00     0.029 A 
ATOM     42  C   UNL A   1      40.679  27.981  28.739  1.00  0.00     0.049 A 
ATOM     43  H   UNL A   1      40.412  28.869  30.605  1.00  0.00     0.167 HD
ATOM     44  C   UNL A   1      39.917  31.102  34.344  1.00  0.00     0.034 A 
ATOM     45  C   UNL A   1      41.852  27.318  28.779  1.00  0.00     0.034 A 
ATOM     46  C   UNL A   1      41.091  30.297  34.536  1.00  0.00     0.049 A 
ATOM     47  C   UNL A   1      42.652  27.326  30.054  1.00  0.00     0.074 A 
ATOM     48  C   UNL A   1      41.881  30.183  35.667  1.00  0.00     0.029 A 
ATOM     49  N   UNL A   1      41.650  29.472  33.573  1.00  0.00    -0.354 N 
ATOM     50  N   UNL A   1      42.390  27.926  31.190  1.00  0.00    -0.248 NA
ATOM     51  C   UNL A   1      43.889  26.532  30.067  1.00  0.00     0.031 C 
ATOM     52  C   UNL A   1      42.933  29.308  35.377  1.00  0.00     0.029 A 
ATOM     53  C   UNL A   1      42.776  28.848  34.079  1.00  0.00     0.049 A 
ATOM     54  H   UNL A   1      41.296  29.347  32.662  1.00  0.00     0.167 HD
ATOM     55  C   UNL A   1      43.403  27.547  32.064  1.00  0.00     0.074 A 
ATOM     56  C   UNL A   1      44.273  26.653  31.330  1.00  0.00     0.031 C 
ATOM     57  C   UNL A   1      43.600  27.915  33.355  1.00  0.00     0.034 A 
BRANCH  44  58
ATOM     58  C   UNL A   1      39.469  31.996  35.472  1.00  0.00     0.023 A 
ATOM     59  C   UNL A   1      38.557  31.507  36.432  1.00  0.00     0.012 A 
ATOM     60  C   UNL A   1      39.985  33.298  35.613  1.00  0.00     0.148 A 
ATOM     61  C   UNL A   1      38.136  32.312  37.489  1.00  0.00     0.002 A 
ATOM     62  C   UNL A   1      39.599  34.077  36.697  1.00  0.00     0.091 A 
ATOM     63  F   UNL A   1      40.835  33.755  34.681  1.00  0.00    -0.205 F 
ATOM     64  C   UNL A   1      38.665  33.592  37.627  1.00  0.00     0.022 A 
BRANCH  62  65
ATOM     65  S   UNL A   1      40.285  35.707  37.014  1.00  0.00     0.127 S 
ATOM     66  O   UNL A   1      39.861  35.943  38.393  1.00  0.00    -0.237 OA
ATOM     67  O   UNL A   1      41.720  35.472  36.849  1.00  0.00    -0.237 OA
ATOM     68  O   UNL A   1      39.696  36.593  36.021  1.00  0.00    -0.744 OA
ENDBRANCH  62  65
ENDBRANCH  44  58
BRANCH  45  69
ATOM     69  C   UNL A   1      42.308  26.534  27.596  1.00  0.00     0.023 A 
ATOM     70  C   UNL A   1      43.044  27.177  26.580  1.00  0.00     0.012 A 
ATOM     71  C   UNL A   1      42.032  25.159  27.476  1.00  0.00     0.148 A 
ATOM     72  C   UNL A   1      43.462  26.475  25.450  1.00  0.00     0.002 A 
ATOM     73  C   UNL A   1      42.500  24.452  26.375  1.00  0.00     0.091 A 
ATOM     74  F   UNL A   1      41.324  24.567  28.449  1.00  0.00    -0.205 F 
ATOM     75  C   UNL A   1      43.198  25.112  25.351  1.00  0.00     0.022 A 
BRANCH  73  76
ATOM     76  S   UNL A   1      42.320  22.672  26.223  1.00  0.00     0.127 S 
ATOM     77  O   UNL A   1      43.056  22.197  27.392  1.00  0.00    -0.237 OA
ATOM     78  O   UNL A   1      40.868  22.509  26.300  1.00  0.00    -0.237 OA
ATOM     79  O   UNL A   1      42.896  22.326  24.930  1.00  0.00    -0.744 OA
ENDBRANCH  73  76
ENDBRANCH  45  69
BRANCH  57  80
ATOM     80  C   UNL A   1      44.768  27.307  34.086  1.00  0.00     0.023 A 
ATOM     81  C   UNL A   1      46.020  27.951  34.078  1.00  0.00     0.012 A 
ATOM     82  C   UNL A   1      44.598  26.132  34.846  1.00  0.00     0.148 A 
ATOM     83  C   UNL A   1      47.096  27.415  34.787  1.00  0.00     0.002 A 
ATOM     84  C   UNL A   1      45.658  25.635  35.593  1.00  0.00     0.091 A 
ATOM     85  F   UNL A   1      43.403  25.525  34.827  1.00  0.00    -0.205 F 
ATOM     86  C   UNL A   1      46.911  26.266  35.554  1.00  0.00     0.022 A 
BRANCH  84  87
ATOM     87  S   UNL A   1      45.483  24.222  36.688  1.00  0.00     0.127 S 
ATOM     88  O   UNL A   1      46.839  24.088  37.221  1.00  0.00    -0.237 OA
ATOM     89  O   UNL A   1      44.494  24.700  37.654  1.00  0.00    -0.237 OA
ATOM     90  O   UNL A   1      45.028  23.120  35.853  1.00  0.00    -0.744 OA
ENDBRANCH  84  87
ENDBRANCH  57  80
ENDBRANCH  31  32
ENDBRANCH  23  26
ENDBRANCH  21  22
ENDBRANCH  20  21
ENDBRANCH   1  20
TORSDOF 17
ENDMDL
