MODEL 1
REMARK VINA RESULT:      -8.5      0.000      0.000
REMARK SMILES CC/C=C/C/C=C/C/C=C/C/C=C/CCSCCCC(=O)NCCCCNC(=O)c1ccc(-c2c3nc(c(-c4cccc(S(=O)(=O)[O-])c4F)c4ccc([nH]4)c(-c4cccc(S(=O)(=O)[O-])c4F)c4nc(c(-c5cccc(S(=O)(=O)[O-])c5F)c5ccc2[nH]5)C=C4)C=C3)cc1
REMARK SMILES IDX 17 1 16 2 15 3 14 4 13 5 12 6 11 7 10 8 9 9 8 10 7 11 6 12
REMARK SMILES IDX 5 13 4 14 3 15 2 16 1 17 18 18 19 19 20 20 21 21 22 22 23 24
REMARK SMILES IDX 24 25 25 26 26 27 27 28 28 29 29 31 30 32 31 33 92 34 32 35
REMARK SMILES IDX 91 36 33 37 34 38 35 39 85 40 36 41 90 42 84 43 86 44 37 45
REMARK SMILES IDX 89 46 83 47 82 48 38 50 70 51 50 52 69 53 51 54 54 55 68 56
REMARK SMILES IDX 87 57 52 58 53 59 67 61 88 62 55 63 39 64 40 65 48 66 41 67
REMARK SMILES IDX 43 68 49 69 42 70 44 71 45 72 46 73 47 74 71 75 72 76 80 77
REMARK SMILES IDX 73 78 75 79 81 80 74 81 76 82 77 83 78 84 79 85 56 86 57 87
REMARK SMILES IDX 65 88 58 89 60 90 66 91 59 92 61 93 62 94 63 95 64 96
REMARK H PARENT 22 23 27 30 86 49 54 60
REMARK Flexibility Score: inf
ROOT
ATOM      1  C   UNL A   1      47.027  18.055  44.034  1.00  0.00     0.070 C 
ENDROOT
BRANCH   1   2
ATOM      2  S   UNL A   1      48.109  18.169  42.537  1.00  0.00    -0.162 SA
BRANCH   2   3
ATOM      3  C   UNL A   1      47.646  16.905  41.270  1.00  0.00     0.073 C 
BRANCH   3   4
ATOM      4  C   UNL A   1      46.612  17.286  40.171  1.00  0.00     0.038 C 
BRANCH   4   5
ATOM      5  C   UNL A   1      45.459  16.337  39.989  1.00  0.00    -0.030 C 
ATOM      6  C   UNL A   1      44.146  16.549  40.192  1.00  0.00    -0.027 C 
BRANCH   6   7
ATOM      7  C   UNL A   1      43.085  15.606  39.651  1.00  0.00     0.054 C 
BRANCH   7   8
ATOM      8  C   UNL A   1      42.033  15.206  40.646  1.00  0.00    -0.027 C 
ATOM      9  C   UNL A   1      42.264  14.356  41.661  1.00  0.00    -0.027 C 
BRANCH   9  10
ATOM     10  C   UNL A   1      41.218  13.906  42.641  1.00  0.00     0.054 C 
BRANCH  10  11
ATOM     11  C   UNL A   1      41.290  12.413  42.760  1.00  0.00    -0.027 C 
ATOM     12  C   UNL A   1      41.973  11.756  43.709  1.00  0.00    -0.027 C 
BRANCH  12  13
ATOM     13  C   UNL A   1      42.235  10.280  43.660  1.00  0.00     0.054 C 
BRANCH  13  14
ATOM     14  C   UNL A   1      43.717  10.044  43.621  1.00  0.00    -0.027 C 
ATOM     15  C   UNL A   1      44.601  10.648  44.430  1.00  0.00    -0.031 C 
BRANCH  15  16
ATOM     16  C   UNL A   1      46.087  10.485  44.298  1.00  0.00     0.023 C 
ATOM     17  C   UNL A   1      46.770  11.843  44.240  1.00  0.00     0.008 C 
ENDBRANCH  15  16
ENDBRANCH  13  14
ENDBRANCH  12  13
ENDBRANCH  10  11
ENDBRANCH   9  10
ENDBRANCH   7   8
ENDBRANCH   6   7
ENDBRANCH   4   5
ENDBRANCH   3   4
ENDBRANCH   2   3
ENDBRANCH   1   2
BRANCH   1  18
ATOM     18  C   UNL A   1      45.578  18.510  44.170  1.00  0.00     0.021 C 
BRANCH  18  19
ATOM     19  C   UNL A   1      44.799  18.900  42.936  1.00  0.00     0.101 C 
BRANCH  19  20
ATOM     20  C   UNL A   1      44.502  20.372  42.694  1.00  0.00     0.220 C 
ATOM     21  O   UNL A   1      43.880  21.004  43.554  1.00  0.00    -0.275 OA
ATOM     22  N   UNL A   1      44.926  21.074  41.613  1.00  0.00    -0.356 N 
ATOM     23  H   UNL A   1      44.426  21.910  41.467  1.00  0.00     0.163 HD
BRANCH  22  24
ATOM     24  C   UNL A   1      45.966  20.841  40.628  1.00  0.00     0.116 C 
BRANCH  24  25
ATOM     25  C   UNL A   1      45.941  21.834  39.470  1.00  0.00     0.023 C 
BRANCH  25  26
ATOM     26  C   UNL A   1      45.490  23.225  39.926  1.00  0.00     0.023 C 
BRANCH  26  27
ATOM     27  C   UNL A   1      45.414  24.269  38.811  1.00  0.00     0.116 C 
BRANCH  27  28
ATOM     28  N   UNL A   1      44.068  24.778  38.605  1.00  0.00    -0.352 N 
ATOM     29  C   UNL A   1      43.528  25.402  37.500  1.00  0.00     0.251 C 
ATOM     30  H   UNL A   1      43.452  24.661  39.365  1.00  0.00     0.163 HD
ATOM     31  O   UNL A   1      42.418  25.909  37.560  1.00  0.00    -0.269 OA
BRANCH  29  32
ATOM     32  C   UNL A   1      44.314  25.477  36.247  1.00  0.00     0.039 A 
ATOM     33  C   UNL A   1      44.683  26.731  35.756  1.00  0.00     0.014 A 
ATOM     34  C   UNL A   1      44.701  24.318  35.572  1.00  0.00     0.014 A 
ATOM     35  C   UNL A   1      45.505  26.817  34.628  1.00  0.00     0.010 A 
ATOM     36  C   UNL A   1      45.589  24.403  34.503  1.00  0.00     0.010 A 
ATOM     37  C   UNL A   1      46.000  25.653  34.016  1.00  0.00    -0.014 A 
BRANCH  37  38
ATOM     38  C   UNL A   1      46.956  25.732  32.877  1.00  0.00     0.031 A 
ATOM     39  C   UNL A   1      46.472  25.579  31.460  1.00  0.00     0.074 A 
ATOM     40  C   UNL A   1      48.275  25.878  33.124  1.00  0.00     0.049 A 
ATOM     41  N   UNL A   1      47.161  25.598  30.347  1.00  0.00    -0.248 NA
ATOM     42  C   UNL A   1      45.031  25.350  31.265  1.00  0.00     0.031 C 
ATOM     43  C   UNL A   1      48.885  25.952  34.453  1.00  0.00     0.029 A 
ATOM     44  N   UNL A   1      49.344  25.970  32.265  1.00  0.00    -0.354 N 
ATOM     45  C   UNL A   1      46.245  25.361  29.328  1.00  0.00     0.074 A 
ATOM     46  C   UNL A   1      44.960  25.152  29.958  1.00  0.00     0.031 C 
ATOM     47  C   UNL A   1      50.215  26.089  34.323  1.00  0.00     0.029 A 
ATOM     48  C   UNL A   1      50.558  26.082  32.905  1.00  0.00     0.049 A 
ATOM     49  H   UNL A   1      49.251  25.955  31.286  1.00  0.00     0.167 HD
ATOM     50  C   UNL A   1      46.443  25.355  27.988  1.00  0.00     0.034 A 
ATOM     51  C   UNL A   1      51.808  26.163  32.405  1.00  0.00     0.034 A 
ATOM     52  C   UNL A   1      47.716  25.592  27.362  1.00  0.00     0.049 A 
ATOM     53  C   UNL A   1      51.997  26.178  30.912  1.00  0.00     0.074 A 
ATOM     54  C   UNL A   1      48.008  25.672  26.011  1.00  0.00     0.029 A 
ATOM     55  N   UNL A   1      48.910  25.780  28.040  1.00  0.00    -0.354 N 
ATOM     56  N   UNL A   1      51.096  26.106  29.963  1.00  0.00    -0.248 NA
ATOM     57  C   UNL A   1      53.375  26.324  30.419  1.00  0.00     0.031 C 
ATOM     58  C   UNL A   1      49.385  25.881  25.873  1.00  0.00     0.029 A 
ATOM     59  C   UNL A   1      49.943  25.969  27.138  1.00  0.00     0.049 A 
ATOM     60  H   UNL A   1      49.008  25.778  29.019  1.00  0.00     0.167 HD
ATOM     61  C   UNL A   1      51.790  26.239  28.766  1.00  0.00     0.074 A 
ATOM     62  C   UNL A   1      53.185  26.421  29.111  1.00  0.00     0.031 C 
ATOM     63  C   UNL A   1      51.319  26.201  27.495  1.00  0.00     0.034 A 
BRANCH  50  64
ATOM     64  C   UNL A   1      45.240  25.138  27.104  1.00  0.00     0.023 A 
ATOM     65  C   UNL A   1      44.979  23.850  26.593  1.00  0.00     0.012 A 
ATOM     66  C   UNL A   1      44.341  26.185  26.826  1.00  0.00     0.148 A 
ATOM     67  C   UNL A   1      43.867  23.614  25.786  1.00  0.00     0.002 A 
ATOM     68  C   UNL A   1      43.207  25.932  26.061  1.00  0.00     0.091 A 
ATOM     69  F   UNL A   1      44.612  27.407  27.305  1.00  0.00    -0.205 F 
ATOM     70  C   UNL A   1      42.976  24.653  25.529  1.00  0.00     0.022 A 
BRANCH  68  71
ATOM     71  S   UNL A   1      41.955  27.179  25.737  1.00  0.00     0.127 S 
ATOM     72  O   UNL A   1      42.521  27.873  24.581  1.00  0.00    -0.237 OA
ATOM     73  O   UNL A   1      40.778  26.361  25.441  1.00  0.00    -0.237 OA
ATOM     74  O   UNL A   1      41.855  27.974  26.952  1.00  0.00    -0.744 OA
ENDBRANCH  68  71
ENDBRANCH  50  64
BRANCH  51  75
ATOM     75  C   UNL A   1      52.977  26.293  33.323  1.00  0.00     0.023 A 
ATOM     76  C   UNL A   1      53.301  27.552  33.865  1.00  0.00     0.012 A 
ATOM     77  C   UNL A   1      53.769  25.179  33.658  1.00  0.00     0.148 A 
ATOM     78  C   UNL A   1      54.417  27.708  34.689  1.00  0.00     0.002 A 
ATOM     79  C   UNL A   1      54.844  25.329  34.526  1.00  0.00     0.091 A 
ATOM     80  F   UNL A   1      53.454  23.991  33.123  1.00  0.00    -0.205 F 
ATOM     81  C   UNL A   1      55.184  26.595  35.026  1.00  0.00     0.022 A 
BRANCH  79  82
ATOM     82  S   UNL A   1      55.805  23.931  35.117  1.00  0.00     0.127 S 
ATOM     83  O   UNL A   1      56.835  23.818  34.088  1.00  0.00    -0.237 OA
ATOM     84  O   UNL A   1      56.278  24.417  36.414  1.00  0.00    -0.237 OA
ATOM     85  O   UNL A   1      54.867  22.819  35.201  1.00  0.00    -0.744 OA
ENDBRANCH  79  82
ENDBRANCH  51  75
BRANCH  63  86
ATOM     86  C   UNL A   1      52.308  26.408  26.378  1.00  0.00     0.023 A 
ATOM     87  C   UNL A   1      52.974  25.304  25.809  1.00  0.00     0.012 A 
ATOM     88  C   UNL A   1      52.533  27.696  25.852  1.00  0.00     0.148 A 
ATOM     89  C   UNL A   1      53.878  25.483  24.763  1.00  0.00     0.002 A 
ATOM     90  C   UNL A   1      53.393  27.860  24.774  1.00  0.00     0.091 A 
ATOM     91  F   UNL A   1      51.905  28.737  26.417  1.00  0.00    -0.205 F 
ATOM     92  C   UNL A   1      54.079  26.757  24.237  1.00  0.00     0.022 A 
BRANCH  90  93
ATOM     93  S   UNL A   1      53.638  29.447  23.968  1.00  0.00     0.127 S 
ATOM     94  O   UNL A   1      54.895  29.228  23.256  1.00  0.00    -0.237 OA
ATOM     95  O   UNL A   1      52.458  29.542  23.108  1.00  0.00    -0.237 OA
ATOM     96  O   UNL A   1      53.689  30.436  25.036  1.00  0.00    -0.744 OA
ENDBRANCH  90  93
ENDBRANCH  63  86
ENDBRANCH  37  38
ENDBRANCH  29  32
ENDBRANCH  27  28
ENDBRANCH  26  27
ENDBRANCH  25  26
ENDBRANCH  24  25
ENDBRANCH  22  24
ENDBRANCH  19  20
ENDBRANCH  18  19
ENDBRANCH   1  18
TORSDOF 27
ENDMDL
MODEL 2
REMARK VINA RESULT:      -8.2     10.813     15.549
REMARK SMILES CC/C=C/C/C=C/C/C=C/C/C=C/CCSCCCC(=O)NCCCCNC(=O)c1ccc(-c2c3nc(c(-c4cccc(S(=O)(=O)[O-])c4F)c4ccc([nH]4)c(-c4cccc(S(=O)(=O)[O-])c4F)c4nc(c(-c5cccc(S(=O)(=O)[O-])c5F)c5ccc2[nH]5)C=C4)C=C3)cc1
REMARK SMILES IDX 17 1 16 2 15 3 14 4 13 5 12 6 11 7 10 8 9 9 8 10 7 11 6 12
REMARK SMILES IDX 5 13 4 14 3 15 2 16 1 17 18 18 19 19 20 20 21 21 22 22 23 24
REMARK SMILES IDX 24 25 25 26 26 27 27 28 28 29 29 31 30 32 31 33 92 34 32 35
REMARK SMILES IDX 91 36 33 37 34 38 35 39 85 40 36 41 90 42 84 43 86 44 37 45
REMARK SMILES IDX 89 46 83 47 82 48 38 50 70 51 50 52 69 53 51 54 54 55 68 56
REMARK SMILES IDX 87 57 52 58 53 59 67 61 88 62 55 63 39 64 40 65 48 66 41 67
REMARK SMILES IDX 43 68 49 69 42 70 44 71 45 72 46 73 47 74 71 75 72 76 80 77
REMARK SMILES IDX 73 78 75 79 81 80 74 81 76 82 77 83 78 84 79 85 56 86 57 87
REMARK SMILES IDX 65 88 58 89 60 90 66 91 59 92 61 93 62 94 63 95 64 96
REMARK H PARENT 22 23 27 30 86 49 54 60
REMARK Flexibility Score: inf
ROOT
ATOM      1  C   UNL A   1      37.684  22.212  25.417  1.00  0.00     0.070 C 
ENDROOT
BRANCH   1   2
ATOM      2  S   UNL A   1      35.919  21.833  25.018  1.00  0.00    -0.162 SA
BRANCH   2   3
ATOM      3  C   UNL A   1      34.826  22.068  26.491  1.00  0.00     0.073 C 
BRANCH   3   4
ATOM      4  C   UNL A   1      33.498  22.860  26.322  1.00  0.00     0.038 C 
BRANCH   4   5
ATOM      5  C   UNL A   1      33.634  24.347  26.131  1.00  0.00    -0.030 C 
ATOM      6  C   UNL A   1      33.888  25.038  25.005  1.00  0.00    -0.027 C 
BRANCH   6   7
ATOM      7  C   UNL A   1      33.666  26.537  24.912  1.00  0.00     0.054 C 
BRANCH   7   8
ATOM      8  C   UNL A   1      34.207  27.326  26.071  1.00  0.00    -0.027 C 
ATOM      9  C   UNL A   1      33.701  28.510  26.456  1.00  0.00    -0.027 C 
BRANCH   9  10
ATOM     10  C   UNL A   1      34.253  29.338  27.582  1.00  0.00     0.054 C 
BRANCH  10  11
ATOM     11  C   UNL A   1      35.742  29.428  27.419  1.00  0.00    -0.027 C 
ATOM     12  C   UNL A   1      36.601  29.710  28.409  1.00  0.00    -0.027 C 
BRANCH  12  13
ATOM     13  C   UNL A   1      38.046  30.039  28.174  1.00  0.00     0.054 C 
BRANCH  13  14
ATOM     14  C   UNL A   1      38.817  28.763  28.000  1.00  0.00    -0.027 C 
ATOM     15  C   UNL A   1      39.226  27.980  29.010  1.00  0.00    -0.031 C 
BRANCH  15  16
ATOM     16  C   UNL A   1      40.094  26.771  28.819  1.00  0.00     0.023 C 
ATOM     17  C   UNL A   1      39.257  25.577  28.385  1.00  0.00     0.008 C 
ENDBRANCH  15  16
ENDBRANCH  13  14
ENDBRANCH  12  13
ENDBRANCH  10  11
ENDBRANCH   9  10
ENDBRANCH   7   8
ENDBRANCH   6   7
ENDBRANCH   4   5
ENDBRANCH   3   4
ENDBRANCH   2   3
ENDBRANCH   1   2
BRANCH   1  18
ATOM     18  C   UNL A   1      38.789  21.226  25.783  1.00  0.00     0.021 C 
BRANCH  18  19
ATOM     19  C   UNL A   1      40.095  21.741  26.342  1.00  0.00     0.101 C 
BRANCH  19  20
ATOM     20  C   UNL A   1      41.133  20.737  26.819  1.00  0.00     0.220 C 
ATOM     21  O   UNL A   1      40.958  19.538  26.576  1.00  0.00    -0.275 OA
ATOM     22  N   UNL A   1      42.286  21.067  27.452  1.00  0.00    -0.356 N 
ATOM     23  H   UNL A   1      42.698  20.314  27.934  1.00  0.00     0.163 HD
BRANCH  22  24
ATOM     24  C   UNL A   1      43.036  22.305  27.561  1.00  0.00     0.116 C 
BRANCH  24  25
ATOM     25  C   UNL A   1      43.910  22.597  26.345  1.00  0.00     0.023 C 
BRANCH  25  26
ATOM     26  C   UNL A   1      44.713  23.889  26.522  1.00  0.00     0.023 C 
BRANCH  26  27
ATOM     27  C   UNL A   1      44.352  25.005  25.541  1.00  0.00     0.116 C 
BRANCH  27  28
ATOM     28  N   UNL A   1      42.929  25.058  25.245  1.00  0.00    -0.352 N 
ATOM     29  C   UNL A   1      42.004  26.027  25.570  1.00  0.00     0.251 C 
ATOM     30  H   UNL A   1      42.575  24.291  24.739  1.00  0.00     0.163 HD
ATOM     31  O   UNL A   1      40.813  25.831  25.378  1.00  0.00    -0.269 OA
BRANCH  29  32
ATOM     32  C   UNL A   1      42.459  27.297  26.180  1.00  0.00     0.039 A 
ATOM     33  C   UNL A   1      41.917  28.500  25.722  1.00  0.00     0.014 A 
ATOM     34  C   UNL A   1      43.400  27.300  27.213  1.00  0.00     0.014 A 
ATOM     35  C   UNL A   1      42.264  29.699  26.351  1.00  0.00     0.010 A 
ATOM     36  C   UNL A   1      43.677  28.483  27.893  1.00  0.00     0.010 A 
ATOM     37  C   UNL A   1      43.114  29.697  27.469  1.00  0.00    -0.014 A 
BRANCH  37  38
ATOM     38  C   UNL A   1      43.411  30.955  28.210  1.00  0.00     0.031 A 
ATOM     39  C   UNL A   1      44.634  31.768  27.877  1.00  0.00     0.074 A 
ATOM     40  C   UNL A   1      42.611  31.332  29.229  1.00  0.00     0.049 A 
ATOM     41  N   UNL A   1      45.062  32.874  28.428  1.00  0.00    -0.248 NA
ATOM     42  C   UNL A   1      45.503  31.261  26.803  1.00  0.00     0.031 C 
ATOM     43  C   UNL A   1      41.443  30.590  29.709  1.00  0.00     0.029 A 
ATOM     44  N   UNL A   1      42.670  32.426  30.059  1.00  0.00    -0.354 N 
ATOM     45  C   UNL A   1      46.258  33.182  27.787  1.00  0.00     0.074 A 
ATOM     46  C   UNL A   1      46.512  32.118  26.840  1.00  0.00     0.031 C 
ATOM     47  C   UNL A   1      40.890  31.252  30.738  1.00  0.00     0.029 A 
ATOM     48  C   UNL A   1      41.678  32.449  31.013  1.00  0.00     0.049 A 
ATOM     49  H   UNL A   1      43.357  33.125  29.979  1.00  0.00     0.167 HD
ATOM     50  C   UNL A   1      47.053  34.267  27.942  1.00  0.00     0.034 A 
ATOM     51  C   UNL A   1      41.434  33.332  32.003  1.00  0.00     0.034 A 
ATOM     52  C   UNL A   1      46.784  35.338  28.863  1.00  0.00     0.049 A 
ATOM     53  C   UNL A   1      42.321  34.541  32.137  1.00  0.00     0.074 A 
ATOM     54  C   UNL A   1      47.494  36.512  29.048  1.00  0.00     0.029 A 
ATOM     55  N   UNL A   1      45.727  35.365  29.760  1.00  0.00    -0.354 N 
ATOM     56  N   UNL A   1      43.359  34.889  31.417  1.00  0.00    -0.248 NA
ATOM     57  C   UNL A   1      41.978  35.500  33.198  1.00  0.00     0.031 C 
ATOM     58  C   UNL A   1      46.880  37.236  30.077  1.00  0.00     0.029 A 
ATOM     59  C   UNL A   1      45.768  36.530  30.505  1.00  0.00     0.049 A 
ATOM     60  H   UNL A   1      45.049  34.658  29.853  1.00  0.00     0.167 HD
ATOM     61  C   UNL A   1      43.768  36.123  31.909  1.00  0.00     0.074 A 
ATOM     62  C   UNL A   1      42.849  36.474  32.972  1.00  0.00     0.031 C 
ATOM     63  C   UNL A   1      44.817  36.892  31.525  1.00  0.00     0.034 A 
BRANCH  50  64
ATOM     64  C   UNL A   1      48.266  34.377  27.052  1.00  0.00     0.023 A 
ATOM     65  C   UNL A   1      48.168  35.074  25.829  1.00  0.00     0.012 A 
ATOM     66  C   UNL A   1      49.510  33.846  27.444  1.00  0.00     0.148 A 
ATOM     67  C   UNL A   1      49.275  35.205  24.993  1.00  0.00     0.002 A 
ATOM     68  C   UNL A   1      50.621  34.023  26.627  1.00  0.00     0.091 A 
ATOM     69  F   UNL A   1      49.582  33.172  28.600  1.00  0.00    -0.205 F 
ATOM     70  C   UNL A   1      50.503  34.689  25.397  1.00  0.00     0.022 A 
BRANCH  68  71
ATOM     71  S   UNL A   1      52.266  33.468  27.090  1.00  0.00     0.127 S 
ATOM     72  O   UNL A   1      53.054  33.879  25.928  1.00  0.00    -0.237 OA
ATOM     73  O   UNL A   1      52.521  34.244  28.304  1.00  0.00    -0.237 OA
ATOM     74  O   UNL A   1      52.164  32.031  27.296  1.00  0.00    -0.744 OA
ENDBRANCH  68  71
ENDBRANCH  50  64
BRANCH  51  75
ATOM     75  C   UNL A   1      40.269  33.137  32.914  1.00  0.00     0.023 A 
ATOM     76  C   UNL A   1      39.046  33.775  32.626  1.00  0.00     0.012 A 
ATOM     77  C   UNL A   1      40.365  32.327  34.061  1.00  0.00     0.148 A 
ATOM     78  C   UNL A   1      37.955  33.647  33.488  1.00  0.00     0.002 A 
ATOM     79  C   UNL A   1      39.258  32.155  34.882  1.00  0.00     0.091 A 
ATOM     80  F   UNL A   1      41.539  31.737  34.325  1.00  0.00    -0.205 F 
ATOM     81  C   UNL A   1      38.058  32.830  34.611  1.00  0.00     0.022 A 
BRANCH  79  82
ATOM     82  S   UNL A   1      39.261  31.019  36.275  1.00  0.00     0.127 S 
ATOM     83  O   UNL A   1      38.928  31.906  37.386  1.00  0.00    -0.237 OA
ATOM     84  O   UNL A   1      38.206  30.078  35.898  1.00  0.00    -0.237 OA
ATOM     85  O   UNL A   1      40.597  30.439  36.304  1.00  0.00    -0.744 OA
ENDBRANCH  79  82
ENDBRANCH  51  75
BRANCH  63  86
ATOM     86  C   UNL A   1      45.005  38.215  32.222  1.00  0.00     0.023 A 
ATOM     87  C   UNL A   1      45.874  38.315  33.327  1.00  0.00     0.012 A 
ATOM     88  C   UNL A   1      44.363  39.373  31.742  1.00  0.00     0.148 A 
ATOM     89  C   UNL A   1      46.068  39.537  33.968  1.00  0.00     0.002 A 
ATOM     90  C   UNL A   1      44.603  40.598  32.351  1.00  0.00     0.091 A 
ATOM     91  F   UNL A   1      43.526  39.256  30.700  1.00  0.00    -0.205 F 
ATOM     92  C   UNL A   1      45.443  40.680  33.474  1.00  0.00     0.022 A 
BRANCH  90  93
ATOM     93  S   UNL A   1      43.921  42.137  31.724  1.00  0.00     0.127 S 
ATOM     94  O   UNL A   1      44.056  43.016  32.884  1.00  0.00    -0.237 OA
ATOM     95  O   UNL A   1      44.826  42.447  30.616  1.00  0.00    -0.237 OA
ATOM     96  O   UNL A   1      42.554  41.837  31.322  1.00  0.00    -0.744 OA
ENDBRANCH  90  93
ENDBRANCH  63  86
ENDBRANCH  37  38
ENDBRANCH  29  32
ENDBRANCH  27  28
ENDBRANCH  26  27
ENDBRANCH  25  26
ENDBRANCH  24  25
ENDBRANCH  22  24
ENDBRANCH  19  20
ENDBRANCH  18  19
ENDBRANCH   1  18
TORSDOF 27
ENDMDL
MODEL 3
REMARK VINA RESULT:      -8.1      9.052     17.955
REMARK SMILES CC/C=C/C/C=C/C/C=C/C/C=C/CCSCCCC(=O)NCCCCNC(=O)c1ccc(-c2c3nc(c(-c4cccc(S(=O)(=O)[O-])c4F)c4ccc([nH]4)c(-c4cccc(S(=O)(=O)[O-])c4F)c4nc(c(-c5cccc(S(=O)(=O)[O-])c5F)c5ccc2[nH]5)C=C4)C=C3)cc1
REMARK SMILES IDX 17 1 16 2 15 3 14 4 13 5 12 6 11 7 10 8 9 9 8 10 7 11 6 12
REMARK SMILES IDX 5 13 4 14 3 15 2 16 1 17 18 18 19 19 20 20 21 21 22 22 23 24
REMARK SMILES IDX 24 25 25 26 26 27 27 28 28 29 29 31 30 32 31 33 92 34 32 35
REMARK SMILES IDX 91 36 33 37 34 38 35 39 85 40 36 41 90 42 84 43 86 44 37 45
REMARK SMILES IDX 89 46 83 47 82 48 38 50 70 51 50 52 69 53 51 54 54 55 68 56
REMARK SMILES IDX 87 57 52 58 53 59 67 61 88 62 55 63 39 64 40 65 48 66 41 67
REMARK SMILES IDX 43 68 49 69 42 70 44 71 45 72 46 73 47 74 71 75 72 76 80 77
REMARK SMILES IDX 73 78 75 79 81 80 74 81 76 82 77 83 78 84 79 85 56 86 57 87
REMARK SMILES IDX 65 88 58 89 60 90 66 91 59 92 61 93 62 94 63 95 64 96
REMARK H PARENT 22 23 27 30 86 49 54 60
REMARK Flexibility Score: inf
ROOT
ATOM      1  C   UNL A   1      38.270  34.361  30.869  1.00  0.00     0.070 C 
ENDROOT
BRANCH   1   2
ATOM      2  S   UNL A   1      39.834  33.588  30.256  1.00  0.00    -0.162 SA
BRANCH   2   3
ATOM      3  C   UNL A   1      40.981  34.853  29.546  1.00  0.00     0.073 C 
BRANCH   3   4
ATOM      4  C   UNL A   1      42.470  34.854  29.995  1.00  0.00     0.038 C 
BRANCH   4   5
ATOM      5  C   UNL A   1      43.148  36.197  30.034  1.00  0.00    -0.030 C 
ATOM      6  C   UNL A   1      43.806  36.844  29.056  1.00  0.00    -0.027 C 
BRANCH   6   7
ATOM      7  C   UNL A   1      44.142  38.322  29.153  1.00  0.00     0.054 C 
BRANCH   7   8
ATOM      8  C   UNL A   1      45.105  38.818  28.111  1.00  0.00    -0.027 C 
ATOM      9  C   UNL A   1      45.388  38.139  26.987  1.00  0.00    -0.027 C 
BRANCH   9  10
ATOM     10  C   UNL A   1      46.380  38.591  25.953  1.00  0.00     0.054 C 
BRANCH  10  11
ATOM     11  C   UNL A   1      46.009  39.978  25.515  1.00  0.00    -0.027 C 
ATOM     12  C   UNL A   1      46.886  40.912  25.119  1.00  0.00    -0.027 C 
BRANCH  12  13
ATOM     13  C   UNL A   1      46.519  42.354  24.929  1.00  0.00     0.054 C 
BRANCH  13  14
ATOM     14  C   UNL A   1      45.113  42.439  24.410  1.00  0.00    -0.027 C 
ATOM     15  C   UNL A   1      44.743  43.158  23.339  1.00  0.00    -0.031 C 
BRANCH  15  16
ATOM     16  C   UNL A   1      43.315  43.320  22.905  1.00  0.00     0.023 C 
ATOM     17  C   UNL A   1      42.404  42.417  23.722  1.00  0.00     0.008 C 
ENDBRANCH  15  16
ENDBRANCH  13  14
ENDBRANCH  12  13
ENDBRANCH  10  11
ENDBRANCH   9  10
ENDBRANCH   7   8
ENDBRANCH   6   7
ENDBRANCH   4   5
ENDBRANCH   3   4
ENDBRANCH   2   3
ENDBRANCH   1   2
BRANCH   1  18
ATOM     18  C   UNL A   1      36.838  33.980  30.504  1.00  0.00     0.021 C 
BRANCH  18  19
ATOM     19  C   UNL A   1      35.811  33.805  31.599  1.00  0.00     0.101 C 
BRANCH  19  20
ATOM     20  C   UNL A   1      35.042  35.025  32.082  1.00  0.00     0.220 C 
ATOM     21  O   UNL A   1      35.577  35.780  32.902  1.00  0.00    -0.275 OA
ATOM     22  N   UNL A   1      33.815  35.388  31.633  1.00  0.00    -0.356 N 
ATOM     23  H   UNL A   1      33.348  36.015  32.231  1.00  0.00     0.163 HD
BRANCH  22  24
ATOM     24  C   UNL A   1      33.052  35.038  30.449  1.00  0.00     0.116 C 
BRANCH  24  25
ATOM     25  C   UNL A   1      33.627  35.620  29.161  1.00  0.00     0.023 C 
BRANCH  25  26
ATOM     26  C   UNL A   1      33.963  34.523  28.145  1.00  0.00     0.023 C 
BRANCH  26  27
ATOM     27  C   UNL A   1      33.956  33.103  28.714  1.00  0.00     0.116 C 
BRANCH  27  28
ATOM     28  N   UNL A   1      33.543  32.106  27.739  1.00  0.00    -0.352 N 
ATOM     29  C   UNL A   1      34.189  30.958  27.335  1.00  0.00     0.251 C 
ATOM     30  H   UNL A   1      32.675  32.277  27.303  1.00  0.00     0.163 HD
ATOM     31  O   UNL A   1      33.768  30.316  26.384  1.00  0.00    -0.269 OA
BRANCH  29  32
ATOM     32  C   UNL A   1      35.413  30.520  28.044  1.00  0.00     0.039 A 
ATOM     33  C   UNL A   1      36.603  31.222  27.835  1.00  0.00     0.014 A 
ATOM     34  C   UNL A   1      35.384  29.437  28.925  1.00  0.00     0.014 A 
ATOM     35  C   UNL A   1      37.743  30.883  28.568  1.00  0.00     0.010 A 
ATOM     36  C   UNL A   1      36.495  29.157  29.715  1.00  0.00     0.010 A 
ATOM     37  C   UNL A   1      37.689  29.874  29.545  1.00  0.00    -0.014 A 
BRANCH  37  38
ATOM     38  C   UNL A   1      38.869  29.572  30.402  1.00  0.00     0.031 A 
ATOM     39  C   UNL A   1      39.012  30.211  31.758  1.00  0.00     0.074 A 
ATOM     40  C   UNL A   1      39.847  28.770  29.932  1.00  0.00     0.049 A 
ATOM     41  N   UNL A   1      39.979  30.084  32.631  1.00  0.00    -0.248 NA
ATOM     42  C   UNL A   1      37.945  31.134  32.180  1.00  0.00     0.031 C 
ATOM     43  C   UNL A   1      39.872  28.155  28.602  1.00  0.00     0.029 A 
ATOM     44  N   UNL A   1      41.019  28.349  30.512  1.00  0.00    -0.354 N 
ATOM     45  C   UNL A   1      39.650  30.923  33.690  1.00  0.00     0.074 A 
ATOM     46  C   UNL A   1      38.420  31.593  33.328  1.00  0.00     0.031 C 
ATOM     47  C   UNL A   1      40.994  27.429  28.473  1.00  0.00     0.029 A 
ATOM     48  C   UNL A   1      41.784  27.549  29.693  1.00  0.00     0.049 A 
ATOM     49  H   UNL A   1      41.287  28.597  31.425  1.00  0.00     0.167 HD
ATOM     50  C   UNL A   1      40.289  31.095  34.872  1.00  0.00     0.034 A 
ATOM     51  C   UNL A   1      42.989  26.980  29.901  1.00  0.00     0.034 A 
ATOM     52  C   UNL A   1      41.496  30.407  35.242  1.00  0.00     0.049 A 
ATOM     53  C   UNL A   1      43.665  27.168  31.232  1.00  0.00     0.074 A 
ATOM     54  C   UNL A   1      42.184  30.463  36.442  1.00  0.00     0.029 A 
ATOM     55  N   UNL A   1      42.200  29.544  34.417  1.00  0.00    -0.354 N 
ATOM     56  N   UNL A   1      43.259  27.845  32.278  1.00  0.00    -0.248 NA
ATOM     57  C   UNL A   1      44.951  26.481  31.426  1.00  0.00     0.031 C 
ATOM     58  C   UNL A   1      43.321  29.654  36.332  1.00  0.00     0.029 A 
ATOM     59  C   UNL A   1      43.318  29.065  35.077  1.00  0.00     0.049 A 
ATOM     60  H   UNL A   1      41.943  29.307  33.498  1.00  0.00     0.167 HD
ATOM     61  C   UNL A   1      44.214  27.634  33.265  1.00  0.00     0.074 A 
ATOM     62  C   UNL A   1      45.208  26.745  32.700  1.00  0.00     0.031 C 
ATOM     63  C   UNL A   1      44.273  28.140  34.522  1.00  0.00     0.034 A 
BRANCH  50  64
ATOM     64  C   UNL A   1      39.660  32.028  35.877  1.00  0.00     0.023 A 
ATOM     65  C   UNL A   1      38.678  31.534  36.762  1.00  0.00     0.012 A 
ATOM     66  C   UNL A   1      40.074  33.369  35.988  1.00  0.00     0.148 A 
ATOM     67  C   UNL A   1      38.090  32.367  37.712  1.00  0.00     0.002 A 
ATOM     68  C   UNL A   1      39.518  34.181  36.970  1.00  0.00     0.091 A 
ATOM     69  F   UNL A   1      40.995  33.827  35.129  1.00  0.00    -0.205 F 
ATOM     70  C   UNL A   1      38.517  33.687  37.822  1.00  0.00     0.022 A 
BRANCH  68  71
ATOM     71  S   UNL A   1      40.054  35.873  37.251  1.00  0.00     0.127 S 
ATOM     72  O   UNL A   1      39.682  36.514  35.989  1.00  0.00    -0.237 OA
ATOM     73  O   UNL A   1      39.237  36.267  38.398  1.00  0.00    -0.237 OA
ATOM     74  O   UNL A   1      41.484  35.804  37.515  1.00  0.00    -0.744 OA
ENDBRANCH  68  71
ENDBRANCH  50  64
BRANCH  51  75
ATOM     75  C   UNL A   1      43.612  26.131  28.843  1.00  0.00     0.023 A 
ATOM     76  C   UNL A   1      43.380  24.742  28.838  1.00  0.00     0.012 A 
ATOM     77  C   UNL A   1      44.432  26.692  27.846  1.00  0.00     0.148 A 
ATOM     78  C   UNL A   1      43.988  23.920  27.888  1.00  0.00     0.002 A 
ATOM     79  C   UNL A   1      44.987  25.877  26.867  1.00  0.00     0.091 A 
ATOM     80  F   UNL A   1      44.651  28.014  27.873  1.00  0.00    -0.205 F 
ATOM     81  C   UNL A   1      44.785  24.489  26.897  1.00  0.00     0.022 A 
BRANCH  79  82
ATOM     82  S   UNL A   1      45.917  26.540  25.479  1.00  0.00     0.127 S 
ATOM     83  O   UNL A   1      44.968  27.492  24.911  1.00  0.00    -0.237 OA
ATOM     84  O   UNL A   1      47.070  27.142  26.150  1.00  0.00    -0.237 OA
ATOM     85  O   UNL A   1      46.243  25.392  24.643  1.00  0.00    -0.744 OA
ENDBRANCH  79  82
ENDBRANCH  51  75
BRANCH  63  86
ATOM     86  C   UNL A   1      45.422  27.708  35.395  1.00  0.00     0.023 A 
ATOM     87  C   UNL A   1      46.656  28.385  35.325  1.00  0.00     0.012 A 
ATOM     88  C   UNL A   1      45.258  26.666  36.330  1.00  0.00     0.148 A 
ATOM     89  C   UNL A   1      47.721  28.005  36.141  1.00  0.00     0.002 A 
ATOM     90  C   UNL A   1      46.305  26.329  37.178  1.00  0.00     0.091 A 
ATOM     91  F   UNL A   1      44.083  26.022  36.370  1.00  0.00    -0.205 F 
ATOM     92  C   UNL A   1      47.543  26.987  37.075  1.00  0.00     0.022 A 
BRANCH  90  93
ATOM     93  S   UNL A   1      46.136  25.099  38.476  1.00  0.00     0.127 S 
ATOM     94  O   UNL A   1      47.143  25.543  39.439  1.00  0.00    -0.237 OA
ATOM     95  O   UNL A   1      44.752  25.294  38.908  1.00  0.00    -0.237 OA
ATOM     96  O   UNL A   1      46.398  23.812  37.848  1.00  0.00    -0.744 OA
ENDBRANCH  90  93
ENDBRANCH  63  86
ENDBRANCH  37  38
ENDBRANCH  29  32
ENDBRANCH  27  28
ENDBRANCH  26  27
ENDBRANCH  25  26
ENDBRANCH  24  25
ENDBRANCH  22  24
ENDBRANCH  19  20
ENDBRANCH  18  19
ENDBRANCH   1  18
TORSDOF 27
ENDMDL
