MODEL 1
REMARK VINA RESULT:     -12.4      0.000      0.000
REMARK SMILES O=C(NCCCCNC(=O)c1ccc(CNc2nc3ccccc3o2)o1)c1ccc(-c2c3nc(c(-c4cccc(S(=O)(=O)[O-])c4F)c4ccc([nH]4)c(-c4cccc(S(=O)(=O)[O-])c4F)c4nc(c(-c5cccc(S(=O)(=O)[O-])c5F)c5ccc2[nH]5)C=C4)C=C3)cc1
REMARK SMILES IDX 5 1 4 2 3 3 1 4 2 5 27 7 28 8 89 9 29 10 88 11 30 12 31 13
REMARK SMILES IDX 32 14 82 15 33 16 87 17 81 18 83 19 34 20 86 21 80 22 79 23
REMARK SMILES IDX 35 25 67 26 47 27 66 28 48 29 51 30 65 31 84 32 49 33 50 34
REMARK SMILES IDX 64 36 85 37 52 38 36 39 37 40 45 41 38 42 40 43 46 44 39 45
REMARK SMILES IDX 41 46 42 47 43 48 44 49 68 50 69 51 77 52 70 53 72 54 78 55
REMARK SMILES IDX 71 56 73 57 74 58 75 59 76 60 53 61 54 62 62 63 55 64 57 65
REMARK SMILES IDX 63 66 56 67 58 68 59 69 60 70 61 71 6 72 7 73 8 74 9 75
REMARK SMILES IDX 10 77 11 78 12 79 26 80 13 81 14 82 15 83 16 84 17 86 18 87
REMARK SMILES IDX 25 88 19 89 24 90 20 91 23 92 21 93 22 94
REMARK H PARENT 3 6 83 24 51 35 8 76 16 85
REMARK Flexibility Score: inf
ROOT
ATOM      1  C   UNL A   1      35.635  22.933  25.772  1.00  0.00     0.023 C 
ENDROOT
BRANCH   1   2
ATOM      2  C   UNL A   1      36.883  22.779  24.915  1.00  0.00     0.116 C 
BRANCH   2   3
ATOM      3  N   UNL A   1      37.653  21.582  25.223  1.00  0.00    -0.352 N 
ATOM      4  O   UNL A   1      39.418  20.399  25.985  1.00  0.00    -0.269 OA
ATOM      5  C   UNL A   1      38.841  21.479  25.913  1.00  0.00     0.251 C 
ATOM      6  H   UNL A   1      37.274  20.734  24.895  1.00  0.00     0.163 HD
BRANCH   5   7
ATOM      7  C   UNL A   1      39.427  22.692  26.526  1.00  0.00     0.039 A 
ATOM      8  C   UNL A   1      39.001  23.957  26.120  1.00  0.00     0.014 A 
ATOM      9  C   UNL A   1      40.445  22.564  27.474  1.00  0.00     0.014 A 
ATOM     10  C   UNL A   1      39.710  25.080  26.523  1.00  0.00     0.010 A 
ATOM     11  C   UNL A   1      41.090  23.709  27.959  1.00  0.00     0.010 A 
ATOM     12  C   UNL A   1      40.756  24.974  27.456  1.00  0.00    -0.014 A 
BRANCH  12  13
ATOM     13  C   UNL A   1      41.416  26.221  27.925  1.00  0.00     0.031 A 
ATOM     14  C   UNL A   1      42.848  26.539  27.592  1.00  0.00     0.074 A 
ATOM     15  C   UNL A   1      40.673  27.105  28.621  1.00  0.00     0.049 A 
ATOM     16  N   UNL A   1      43.522  27.634  27.843  1.00  0.00    -0.248 NA
ATOM     17  C   UNL A   1      43.632  25.503  26.902  1.00  0.00     0.031 C 
ATOM     18  C   UNL A   1      39.292  26.879  29.057  1.00  0.00     0.029 A 
ATOM     19  N   UNL A   1      40.957  28.371  29.065  1.00  0.00    -0.354 N 
ATOM     20  C   UNL A   1      44.811  27.411  27.372  1.00  0.00     0.074 A 
ATOM     21  C   UNL A   1      44.831  26.069  26.831  1.00  0.00     0.031 C 
ATOM     22  C   UNL A   1      38.833  27.983  29.660  1.00  0.00     0.029 A 
ATOM     23  C   UNL A   1      39.898  28.977  29.700  1.00  0.00     0.049 A 
ATOM     24  H   UNL A   1      41.832  28.803  28.941  1.00  0.00     0.167 HD
ATOM     25  C   UNL A   1      45.871  28.255  27.371  1.00  0.00     0.034 A 
ATOM     26  C   UNL A   1      39.792  30.198  30.258  1.00  0.00     0.034 A 
ATOM     27  C   UNL A   1      45.836  29.603  27.880  1.00  0.00     0.049 A 
ATOM     28  C   UNL A   1      40.963  31.132  30.183  1.00  0.00     0.074 A 
ATOM     29  C   UNL A   1      46.849  30.547  27.890  1.00  0.00     0.029 A 
ATOM     30  N   UNL A   1      44.730  30.202  28.465  1.00  0.00    -0.354 N 
ATOM     31  N   UNL A   1      42.133  30.940  29.625  1.00  0.00    -0.248 NA
ATOM     32  C   UNL A   1      40.792  32.459  30.788  1.00  0.00     0.031 C 
ATOM     33  C   UNL A   1      46.356  31.714  28.487  1.00  0.00     0.029 A 
ATOM     34  C   UNL A   1      45.033  31.501  28.837  1.00  0.00     0.049 A 
ATOM     35  H   UNL A   1      43.856  29.767  28.596  1.00  0.00     0.167 HD
ATOM     36  C   UNL A   1      42.838  32.123  29.806  1.00  0.00     0.074 A 
ATOM     37  C   UNL A   1      41.943  33.042  30.483  1.00  0.00     0.031 C 
ATOM     38  C   UNL A   1      44.119  32.413  29.473  1.00  0.00     0.034 A 
BRANCH  25  39
ATOM     39  C   UNL A   1      47.157  27.774  26.746  1.00  0.00     0.023 A 
ATOM     40  C   UNL A   1      48.134  27.169  27.563  1.00  0.00     0.012 A 
ATOM     41  C   UNL A   1      47.362  27.833  25.354  1.00  0.00     0.148 A 
ATOM     42  C   UNL A   1      49.304  26.651  27.009  1.00  0.00     0.002 A 
ATOM     43  C   UNL A   1      48.515  27.281  24.803  1.00  0.00     0.091 A 
ATOM     44  F   UNL A   1      46.430  28.425  24.594  1.00  0.00    -0.205 F 
ATOM     45  C   UNL A   1      49.489  26.697  25.630  1.00  0.00     0.022 A 
BRANCH  43  46
ATOM     46  S   UNL A   1      48.815  27.223  23.032  1.00  0.00     0.127 S 
ATOM     47  O   UNL A   1      50.274  27.322  22.978  1.00  0.00    -0.237 OA
ATOM     48  O   UNL A   1      48.280  25.911  22.669  1.00  0.00    -0.237 OA
ATOM     49  O   UNL A   1      48.092  28.352  22.465  1.00  0.00    -0.744 OA
ENDBRANCH  43  46
ENDBRANCH  25  39
BRANCH  26  50
ATOM     50  C   UNL A   1      38.505  30.608  30.888  1.00  0.00     0.023 A 
ATOM     51  C   UNL A   1      38.312  30.418  32.269  1.00  0.00     0.012 A 
ATOM     52  C   UNL A   1      37.500  31.243  30.134  1.00  0.00     0.148 A 
ATOM     53  C   UNL A   1      37.129  30.834  32.883  1.00  0.00     0.002 A 
ATOM     54  C   UNL A   1      36.355  31.714  30.763  1.00  0.00     0.091 A 
ATOM     55  F   UNL A   1      37.690  31.395  28.815  1.00  0.00    -0.205 F 
ATOM     56  C   UNL A   1      36.159  31.496  32.134  1.00  0.00     0.022 A 
BRANCH  54  57
ATOM     57  S   UNL A   1      35.153  32.721  29.888  1.00  0.00     0.127 S 
ATOM     58  O   UNL A   1      34.647  31.786  28.888  1.00  0.00    -0.237 OA
ATOM     59  O   UNL A   1      34.204  33.068  30.947  1.00  0.00    -0.237 OA
ATOM     60  O   UNL A   1      35.912  33.859  29.381  1.00  0.00    -0.744 OA
ENDBRANCH  54  57
ENDBRANCH  26  50
BRANCH  38  61
ATOM     61  C   UNL A   1      44.628  33.781  29.846  1.00  0.00     0.023 A 
ATOM     62  C   UNL A   1      45.267  33.964  31.089  1.00  0.00     0.012 A 
ATOM     63  C   UNL A   1      44.505  34.869  28.963  1.00  0.00     0.148 A 
ATOM     64  C   UNL A   1      45.742  35.220  31.463  1.00  0.00     0.002 A 
ATOM     65  C   UNL A   1      45.019  36.109  29.324  1.00  0.00     0.091 A 
ATOM     66  F   UNL A   1      43.872  34.682  27.794  1.00  0.00    -0.205 F 
ATOM     67  C   UNL A   1      45.627  36.289  30.577  1.00  0.00     0.022 A 
BRANCH  65  68
ATOM     68  S   UNL A   1      44.983  37.517  28.209  1.00  0.00     0.127 S 
ATOM     69  O   UNL A   1      45.739  37.013  27.066  1.00  0.00    -0.237 OA
ATOM     70  O   UNL A   1      43.549  37.690  27.966  1.00  0.00    -0.237 OA
ATOM     71  O   UNL A   1      45.601  38.614  28.942  1.00  0.00    -0.744 OA
ENDBRANCH  65  68
ENDBRANCH  38  61
ENDBRANCH  12  13
ENDBRANCH   5   7
ENDBRANCH   2   3
ENDBRANCH   1   2
BRANCH   1  72
ATOM     72  C   UNL A   1      35.351  21.771  26.721  1.00  0.00     0.023 C 
BRANCH  72  73
ATOM     73  C   UNL A   1      33.872  21.535  27.018  1.00  0.00     0.116 C 
BRANCH  73  74
ATOM     74  N   UNL A   1      33.390  20.292  26.442  1.00  0.00    -0.349 N 
ATOM     75  C   UNL A   1      32.683  20.109  25.277  1.00  0.00     0.286 C 
ATOM     76  H   UNL A   1      33.597  19.476  26.951  1.00  0.00     0.163 HD
ATOM     77  O   UNL A   1      32.185  19.002  25.070  1.00  0.00    -0.266 OA
BRANCH  75  78
ATOM     78  C   UNL A   1      32.564  21.223  24.366  1.00  0.00     0.191 A 
ATOM     79  C   UNL A   1      33.320  21.625  23.278  1.00  0.00     0.056 A 
ATOM     80  O   UNL A   1      31.527  22.091  24.542  1.00  0.00    -0.454 OA
ATOM     81  C   UNL A   1      32.737  22.822  22.795  1.00  0.00     0.048 A 
ATOM     82  C   UNL A   1      31.643  23.067  23.596  1.00  0.00     0.124 A 
BRANCH  82  83
ATOM     83  C   UNL A   1      30.571  24.101  23.604  1.00  0.00     0.193 C 
BRANCH  83  84
ATOM     84  N   UNL A   1      30.262  24.545  24.944  1.00  0.00    -0.332 N 
ATOM     85  H   UNL A   1      29.777  23.939  25.550  1.00  0.00     0.165 HD
BRANCH  84  86
ATOM     86  C   UNL A   1      30.618  25.755  25.385  1.00  0.00     0.296 A 
ATOM     87  N   UNL A   1      30.855  26.092  26.632  1.00  0.00    -0.194 NA
ATOM     88  O   UNL A   1      30.769  26.763  24.471  1.00  0.00    -0.424 OA
ATOM     89  C   UNL A   1      31.253  27.397  26.543  1.00  0.00     0.111 A 
ATOM     90  C   UNL A   1      31.182  27.822  25.226  1.00  0.00     0.156 A 
ATOM     91  C   UNL A   1      31.693  28.292  27.525  1.00  0.00     0.032 A 
ATOM     92  C   UNL A   1      31.496  29.103  24.791  1.00  0.00     0.049 A 
ATOM     93  C   UNL A   1      32.033  29.593  27.126  1.00  0.00     0.003 A 
ATOM     94  C   UNL A   1      31.929  29.990  25.785  1.00  0.00     0.004 A 
ENDBRANCH  84  86
ENDBRANCH  83  84
ENDBRANCH  82  83
ENDBRANCH  75  78
ENDBRANCH  73  74
ENDBRANCH  72  73
ENDBRANCH   1  72
TORSDOF 17
ENDMDL
MODEL 2
REMARK VINA RESULT:     -12.3      5.261     10.568
REMARK SMILES O=C(NCCCCNC(=O)c1ccc(CNc2nc3ccccc3o2)o1)c1ccc(-c2c3nc(c(-c4cccc(S(=O)(=O)[O-])c4F)c4ccc([nH]4)c(-c4cccc(S(=O)(=O)[O-])c4F)c4nc(c(-c5cccc(S(=O)(=O)[O-])c5F)c5ccc2[nH]5)C=C4)C=C3)cc1
REMARK SMILES IDX 5 1 4 2 3 3 1 4 2 5 27 7 28 8 89 9 29 10 88 11 30 12 31 13
REMARK SMILES IDX 32 14 82 15 33 16 87 17 81 18 83 19 34 20 86 21 80 22 79 23
REMARK SMILES IDX 35 25 67 26 47 27 66 28 48 29 51 30 65 31 84 32 49 33 50 34
REMARK SMILES IDX 64 36 85 37 52 38 36 39 37 40 45 41 38 42 40 43 46 44 39 45
REMARK SMILES IDX 41 46 42 47 43 48 44 49 68 50 69 51 77 52 70 53 72 54 78 55
REMARK SMILES IDX 71 56 73 57 74 58 75 59 76 60 53 61 54 62 62 63 55 64 57 65
REMARK SMILES IDX 63 66 56 67 58 68 59 69 60 70 61 71 6 72 7 73 8 74 9 75
REMARK SMILES IDX 10 77 11 78 12 79 26 80 13 81 14 82 15 83 16 84 17 86 18 87
REMARK SMILES IDX 25 88 19 89 24 90 20 91 23 92 21 93 22 94
REMARK H PARENT 3 6 83 24 51 35 8 76 16 85
REMARK Flexibility Score: inf
ROOT
ATOM      1  C   UNL A   1      31.672  28.568  25.455  1.00  0.00     0.023 C 
ENDROOT
BRANCH   1   2
ATOM      2  C   UNL A   1      32.810  29.523  25.784  1.00  0.00     0.116 C 
BRANCH   2   3
ATOM      3  N   UNL A   1      32.357  30.845  26.194  1.00  0.00    -0.352 N 
ATOM      4  O   UNL A   1      32.370  32.752  27.401  1.00  0.00    -0.269 OA
ATOM      5  C   UNL A   1      32.948  31.718  27.080  1.00  0.00     0.251 C 
ATOM      6  H   UNL A   1      31.518  31.156  25.782  1.00  0.00     0.163 HD
BRANCH   5   7
ATOM      7  C   UNL A   1      34.261  31.372  27.668  1.00  0.00     0.039 A 
ATOM      8  C   UNL A   1      34.528  30.060  28.059  1.00  0.00     0.014 A 
ATOM      9  C   UNL A   1      35.210  32.376  27.878  1.00  0.00     0.014 A 
ATOM     10  C   UNL A   1      35.659  29.788  28.816  1.00  0.00     0.010 A 
ATOM     11  C   UNL A   1      36.401  32.075  28.551  1.00  0.00     0.010 A 
ATOM     12  C   UNL A   1      36.617  30.788  29.063  1.00  0.00    -0.014 A 
BRANCH  12  13
ATOM     13  C   UNL A   1      37.856  30.417  29.797  1.00  0.00     0.031 A 
ATOM     14  C   UNL A   1      38.100  30.846  31.217  1.00  0.00     0.074 A 
ATOM     15  C   UNL A   1      38.747  29.624  29.169  1.00  0.00     0.049 A 
ATOM     16  N   UNL A   1      39.083  30.510  32.016  1.00  0.00    -0.248 NA
ATOM     17  C   UNL A   1      37.134  31.776  31.823  1.00  0.00     0.031 C 
ATOM     18  C   UNL A   1      38.649  29.195  27.770  1.00  0.00     0.029 A 
ATOM     19  N   UNL A   1      39.893  29.021  29.619  1.00  0.00    -0.354 N 
ATOM     20  C   UNL A   1      38.873  31.205  33.201  1.00  0.00     0.074 A 
ATOM     21  C   UNL A   1      37.675  31.995  33.015  1.00  0.00     0.031 C 
ATOM     22  C   UNL A   1      39.659  28.362  27.492  1.00  0.00     0.029 A 
ATOM     23  C   UNL A   1      40.505  28.234  28.672  1.00  0.00     0.049 A 
ATOM     24  H   UNL A   1      40.243  29.139  30.531  1.00  0.00     0.167 HD
ATOM     25  C   UNL A   1      39.600  31.169  34.344  1.00  0.00     0.034 A 
ATOM     26  C   UNL A   1      41.627  27.492  28.738  1.00  0.00     0.034 A 
ATOM     27  C   UNL A   1      40.773  30.354  34.536  1.00  0.00     0.049 A 
ATOM     28  C   UNL A   1      42.373  27.423  30.037  1.00  0.00     0.074 A 
ATOM     29  C   UNL A   1      41.556  30.224  35.670  1.00  0.00     0.029 A 
ATOM     30  N   UNL A   1      41.331  29.528  33.572  1.00  0.00    -0.354 N 
ATOM     31  N   UNL A   1      42.087  27.996  31.181  1.00  0.00    -0.248 NA
ATOM     32  C   UNL A   1      43.579  26.586  30.066  1.00  0.00     0.031 C 
ATOM     33  C   UNL A   1      42.590  29.322  35.390  1.00  0.00     0.029 A 
ATOM     34  C   UNL A   1      42.445  28.883  34.084  1.00  0.00     0.049 A 
ATOM     35  H   UNL A   1      40.986  29.416  32.657  1.00  0.00     0.167 HD
ATOM     36  C   UNL A   1      43.073  27.585  32.068  1.00  0.00     0.074 A 
ATOM     37  C   UNL A   1      43.936  26.675  31.340  1.00  0.00     0.031 C 
ATOM     38  C   UNL A   1      43.268  27.952  33.358  1.00  0.00     0.034 A 
BRANCH  25  39
ATOM     39  C   UNL A   1      39.119  31.994  35.513  1.00  0.00     0.023 A 
ATOM     40  C   UNL A   1      39.295  33.392  35.487  1.00  0.00     0.012 A 
ATOM     41  C   UNL A   1      38.419  31.407  36.585  1.00  0.00     0.148 A 
ATOM     42  C   UNL A   1      38.801  34.192  36.517  1.00  0.00     0.002 A 
ATOM     43  C   UNL A   1      37.897  32.214  37.591  1.00  0.00     0.091 A 
ATOM     44  F   UNL A   1      38.275  30.074  36.602  1.00  0.00    -0.205 F 
ATOM     45  C   UNL A   1      38.094  33.605  37.562  1.00  0.00     0.022 A 
BRANCH  43  46
ATOM     46  S   UNL A   1      36.908  31.564  38.944  1.00  0.00     0.127 S 
ATOM     47  O   UNL A   1      37.875  31.562  40.041  1.00  0.00    -0.237 OA
ATOM     48  O   UNL A   1      35.851  32.570  39.066  1.00  0.00    -0.237 OA
ATOM     49  O   UNL A   1      36.450  30.252  38.513  1.00  0.00    -0.744 OA
ENDBRANCH  43  46
ENDBRANCH  25  39
BRANCH  26  50
ATOM     50  C   UNL A   1      42.070  26.723  27.542  1.00  0.00     0.023 A 
ATOM     51  C   UNL A   1      42.849  27.354  26.554  1.00  0.00     0.012 A 
ATOM     52  C   UNL A   1      41.776  25.352  27.413  1.00  0.00     0.148 A 
ATOM     53  C   UNL A   1      43.308  26.637  25.447  1.00  0.00     0.002 A 
ATOM     54  C   UNL A   1      42.292  24.629  26.344  1.00  0.00     0.091 A 
ATOM     55  F   UNL A   1      41.014  24.771  28.351  1.00  0.00    -0.205 F 
ATOM     56  C   UNL A   1      43.043  25.273  25.351  1.00  0.00     0.022 A 
BRANCH  54  57
ATOM     57  S   UNL A   1      42.130  22.843  26.258  1.00  0.00     0.127 S 
ATOM     58  O   UNL A   1      40.681  22.669  26.287  1.00  0.00    -0.237 OA
ATOM     59  O   UNL A   1      42.764  22.533  24.975  1.00  0.00    -0.237 OA
ATOM     60  O   UNL A   1      42.862  22.341  27.414  1.00  0.00    -0.744 OA
ENDBRANCH  54  57
ENDBRANCH  26  50
BRANCH  38  61
ATOM     61  C   UNL A   1      44.467  27.370  34.059  1.00  0.00     0.023 A 
ATOM     62  C   UNL A   1      45.709  28.032  33.966  1.00  0.00     0.012 A 
ATOM     63  C   UNL A   1      44.363  26.198  34.830  1.00  0.00     0.148 A 
ATOM     64  C   UNL A   1      46.837  27.513  34.599  1.00  0.00     0.002 A 
ATOM     65  C   UNL A   1      45.483  25.710  35.494  1.00  0.00     0.091 A 
ATOM     66  F   UNL A   1      43.179  25.568  34.887  1.00  0.00    -0.205 F 
ATOM     67  C   UNL A   1      46.722  26.359  35.370  1.00  0.00     0.022 A 
BRANCH  65  68
ATOM     68  S   UNL A   1      45.402  24.275  36.571  1.00  0.00     0.127 S 
ATOM     69  O   UNL A   1      44.509  24.744  37.628  1.00  0.00    -0.237 OA
ATOM     70  O   UNL A   1      44.825  23.254  35.693  1.00  0.00    -0.237 OA
ATOM     71  O   UNL A   1      46.776  24.009  36.975  1.00  0.00    -0.744 OA
ENDBRANCH  65  68
ENDBRANCH  38  61
ENDBRANCH  12  13
ENDBRANCH   5   7
ENDBRANCH   2   3
ENDBRANCH   1   2
BRANCH   1  72
ATOM     72  C   UNL A   1      30.841  28.944  24.230  1.00  0.00     0.023 C 
BRANCH  72  73
ATOM     73  C   UNL A   1      31.025  28.023  23.026  1.00  0.00     0.116 C 
BRANCH  73  74
ATOM     74  N   UNL A   1      32.219  28.347  22.267  1.00  0.00    -0.349 N 
ATOM     75  C   UNL A   1      33.432  27.700  22.265  1.00  0.00     0.286 C 
ATOM     76  H   UNL A   1      32.150  29.132  21.676  1.00  0.00     0.163 HD
ATOM     77  O   UNL A   1      34.383  28.255  21.714  1.00  0.00    -0.266 OA
BRANCH  75  78
ATOM     78  C   UNL A   1      33.521  26.412  22.909  1.00  0.00     0.191 A 
ATOM     79  C   UNL A   1      33.964  26.021  24.161  1.00  0.00     0.056 A 
ATOM     80  O   UNL A   1      33.100  25.314  22.217  1.00  0.00    -0.454 OA
ATOM     81  C   UNL A   1      33.846  24.611  24.217  1.00  0.00     0.048 A 
ATOM     82  C   UNL A   1      33.312  24.223  23.007  1.00  0.00     0.124 A 
BRANCH  82  83
ATOM     83  C   UNL A   1      32.879  22.919  22.433  1.00  0.00     0.193 C 
BRANCH  83  84
ATOM     84  N   UNL A   1      32.287  22.060  23.434  1.00  0.00    -0.332 N 
ATOM     85  H   UNL A   1      31.586  22.423  24.021  1.00  0.00     0.165 HD
BRANCH  84  86
ATOM     86  C   UNL A   1      32.666  20.788  23.582  1.00  0.00     0.296 A 
ATOM     87  N   UNL A   1      32.110  19.739  23.021  1.00  0.00    -0.194 NA
ATOM     88  O   UNL A   1      33.743  20.517  24.382  1.00  0.00    -0.424 OA
ATOM     89  C   UNL A   1      32.904  18.700  23.421  1.00  0.00     0.111 A 
ATOM     90  C   UNL A   1      33.893  19.165  24.272  1.00  0.00     0.156 A 
ATOM     91  C   UNL A   1      32.860  17.337  23.108  1.00  0.00     0.032 A 
ATOM     92  C   UNL A   1      34.856  18.367  24.876  1.00  0.00     0.049 A 
ATOM     93  C   UNL A   1      33.822  16.496  23.687  1.00  0.00     0.003 A 
ATOM     94  C   UNL A   1      34.796  17.003  24.560  1.00  0.00     0.004 A 
ENDBRANCH  84  86
ENDBRANCH  83  84
ENDBRANCH  82  83
ENDBRANCH  75  78
ENDBRANCH  73  74
ENDBRANCH  72  73
ENDBRANCH   1  72
TORSDOF 17
ENDMDL
MODEL 3
REMARK VINA RESULT:     -12.3      1.249      1.592
REMARK SMILES O=C(NCCCCNC(=O)c1ccc(CNc2nc3ccccc3o2)o1)c1ccc(-c2c3nc(c(-c4cccc(S(=O)(=O)[O-])c4F)c4ccc([nH]4)c(-c4cccc(S(=O)(=O)[O-])c4F)c4nc(c(-c5cccc(S(=O)(=O)[O-])c5F)c5ccc2[nH]5)C=C4)C=C3)cc1
REMARK SMILES IDX 5 1 4 2 3 3 1 4 2 5 27 7 28 8 89 9 29 10 88 11 30 12 31 13
REMARK SMILES IDX 32 14 82 15 33 16 87 17 81 18 83 19 34 20 86 21 80 22 79 23
REMARK SMILES IDX 35 25 67 26 47 27 66 28 48 29 51 30 65 31 84 32 49 33 50 34
REMARK SMILES IDX 64 36 85 37 52 38 36 39 37 40 45 41 38 42 40 43 46 44 39 45
REMARK SMILES IDX 41 46 42 47 43 48 44 49 68 50 69 51 77 52 70 53 72 54 78 55
REMARK SMILES IDX 71 56 73 57 74 58 75 59 76 60 53 61 54 62 62 63 55 64 57 65
REMARK SMILES IDX 63 66 56 67 58 68 59 69 60 70 61 71 6 72 7 73 8 74 9 75
REMARK SMILES IDX 10 77 11 78 12 79 26 80 13 81 14 82 15 83 16 84 17 86 18 87
REMARK SMILES IDX 25 88 19 89 24 90 20 91 23 92 21 93 22 94
REMARK H PARENT 3 6 83 24 51 35 8 76 16 85
REMARK Flexibility Score: inf
ROOT
ATOM      1  C   UNL A   1      35.343  22.895  25.669  1.00  0.00     0.023 C 
ENDROOT
BRANCH   1   2
ATOM      2  C   UNL A   1      36.565  22.684  24.787  1.00  0.00     0.116 C 
BRANCH   2   3
ATOM      3  N   UNL A   1      37.280  21.448  25.073  1.00  0.00    -0.352 N 
ATOM      4  O   UNL A   1      38.995  20.174  25.799  1.00  0.00    -0.269 OA
ATOM      5  C   UNL A   1      38.471  21.281  25.744  1.00  0.00     0.251 C 
ATOM      6  H   UNL A   1      36.855  20.623  24.744  1.00  0.00     0.163 HD
BRANCH   5   7
ATOM      7  C   UNL A   1      39.125  22.458  26.359  1.00  0.00     0.039 A 
ATOM      8  C   UNL A   1      38.675  23.744  26.058  1.00  0.00     0.014 A 
ATOM      9  C   UNL A   1      40.227  22.277  27.199  1.00  0.00     0.014 A 
ATOM     10  C   UNL A   1      39.431  24.842  26.447  1.00  0.00     0.010 A 
ATOM     11  C   UNL A   1      40.926  23.393  27.677  1.00  0.00     0.010 A 
ATOM     12  C   UNL A   1      40.559  24.683  27.271  1.00  0.00    -0.014 A 
BRANCH  12  13
ATOM     13  C   UNL A   1      41.273  25.901  27.736  1.00  0.00     0.031 A 
ATOM     14  C   UNL A   1      42.703  26.180  27.360  1.00  0.00     0.074 A 
ATOM     15  C   UNL A   1      40.582  26.797  28.470  1.00  0.00     0.049 A 
ATOM     16  N   UNL A   1      43.419  27.250  27.605  1.00  0.00    -0.248 NA
ATOM     17  C   UNL A   1      43.431  25.132  26.628  1.00  0.00     0.031 C 
ATOM     18  C   UNL A   1      39.210  26.606  28.949  1.00  0.00     0.029 A 
ATOM     19  N   UNL A   1      40.920  28.045  28.923  1.00  0.00    -0.354 N 
ATOM     20  C   UNL A   1      44.684  26.994  27.087  1.00  0.00     0.074 A 
ATOM     21  C   UNL A   1      44.644  25.661  26.525  1.00  0.00     0.031 C 
ATOM     22  C   UNL A   1      38.806  27.714  29.583  1.00  0.00     0.029 A 
ATOM     23  C   UNL A   1      39.903  28.674  29.602  1.00  0.00     0.049 A 
ATOM     24  H   UNL A   1      41.804  28.452  28.777  1.00  0.00     0.167 HD
ATOM     25  C   UNL A   1      45.769  27.806  27.063  1.00  0.00     0.034 A 
ATOM     26  C   UNL A   1      39.853  29.888  30.183  1.00  0.00     0.034 A 
ATOM     27  C   UNL A   1      45.793  29.145  27.593  1.00  0.00     0.049 A 
ATOM     28  C   UNL A   1      41.050  30.787  30.082  1.00  0.00     0.074 A 
ATOM     29  C   UNL A   1      46.835  30.057  27.584  1.00  0.00     0.029 A 
ATOM     30  N   UNL A   1      44.727  29.768  28.225  1.00  0.00    -0.354 N 
ATOM     31  N   UNL A   1      42.195  30.568  29.483  1.00  0.00    -0.248 NA
ATOM     32  C   UNL A   1      40.941  32.108  30.713  1.00  0.00     0.031 C 
ATOM     33  C   UNL A   1      46.400  31.229  28.214  1.00  0.00     0.029 A 
ATOM     34  C   UNL A   1      45.083  31.051  28.606  1.00  0.00     0.049 A 
ATOM     35  H   UNL A   1      43.845  29.359  28.379  1.00  0.00     0.167 HD
ATOM     36  C   UNL A   1      42.942  31.726  29.658  1.00  0.00     0.074 A 
ATOM     37  C   UNL A   1      42.099  32.660  30.378  1.00  0.00     0.031 C 
ATOM     38  C   UNL A   1      44.220  31.981  29.287  1.00  0.00     0.034 A 
BRANCH  25  39
ATOM     39  C   UNL A   1      47.018  27.295  26.388  1.00  0.00     0.023 A 
ATOM     40  C   UNL A   1      47.267  27.645  25.046  1.00  0.00     0.012 A 
ATOM     41  C   UNL A   1      47.982  26.552  27.097  1.00  0.00     0.148 A 
ATOM     42  C   UNL A   1      48.444  27.248  24.412  1.00  0.00     0.002 A 
ATOM     43  C   UNL A   1      49.171  26.190  26.471  1.00  0.00     0.091 A 
ATOM     44  F   UNL A   1      47.722  26.213  28.368  1.00  0.00    -0.205 F 
ATOM     45  C   UNL A   1      49.399  26.531  25.127  1.00  0.00     0.022 A 
BRANCH  43  46
ATOM     46  S   UNL A   1      50.497  25.328  27.323  1.00  0.00     0.127 S 
ATOM     47  O   UNL A   1      49.792  24.169  27.869  1.00  0.00    -0.237 OA
ATOM     48  O   UNL A   1      51.420  25.019  26.230  1.00  0.00    -0.237 OA
ATOM     49  O   UNL A   1      51.016  26.265  28.309  1.00  0.00    -0.744 OA
ENDBRANCH  43  46
ENDBRANCH  25  39
BRANCH  26  50
ATOM     50  C   UNL A   1      38.602  30.327  30.861  1.00  0.00     0.023 A 
ATOM     51  C   UNL A   1      38.447  30.117  32.244  1.00  0.00     0.012 A 
ATOM     52  C   UNL A   1      37.595  31.009  30.153  1.00  0.00     0.148 A 
ATOM     53  C   UNL A   1      37.298  30.559  32.904  1.00  0.00     0.002 A 
ATOM     54  C   UNL A   1      36.487  31.506  30.828  1.00  0.00     0.091 A 
ATOM     55  F   UNL A   1      37.747  31.181  28.832  1.00  0.00    -0.205 F 
ATOM     56  C   UNL A   1      36.327  31.267  32.200  1.00  0.00     0.022 A 
BRANCH  54  57
ATOM     57  S   UNL A   1      35.292  32.568  30.011  1.00  0.00     0.127 S 
ATOM     58  O   UNL A   1      36.132  33.667  29.547  1.00  0.00    -0.237 OA
ATOM     59  O   UNL A   1      34.771  31.699  28.954  1.00  0.00    -0.237 OA
ATOM     60  O   UNL A   1      34.312  32.896  31.040  1.00  0.00    -0.744 OA
ENDBRANCH  54  57
ENDBRANCH  26  50
BRANCH  38  61
ATOM     61  C   UNL A   1      44.783  33.326  29.662  1.00  0.00     0.023 A 
ATOM     62  C   UNL A   1      45.469  33.469  30.886  1.00  0.00     0.012 A 
ATOM     63  C   UNL A   1      44.666  34.432  28.801  1.00  0.00     0.148 A 
ATOM     64  C   UNL A   1      45.995  34.703  31.263  1.00  0.00     0.002 A 
ATOM     65  C   UNL A   1      45.231  35.649  29.164  1.00  0.00     0.091 A 
ATOM     66  F   UNL A   1      43.989  34.283  27.652  1.00  0.00    -0.205 F 
ATOM     67  C   UNL A   1      45.885  35.790  30.398  1.00  0.00     0.022 A 
BRANCH  65  68
ATOM     68  S   UNL A   1      45.202  37.076  28.072  1.00  0.00     0.127 S 
ATOM     69  O   UNL A   1      45.500  38.166  28.998  1.00  0.00    -0.237 OA
ATOM     70  O   UNL A   1      46.276  36.769  27.124  1.00  0.00    -0.237 OA
ATOM     71  O   UNL A   1      43.870  37.092  27.482  1.00  0.00    -0.744 OA
ENDBRANCH  65  68
ENDBRANCH  38  61
ENDBRANCH  12  13
ENDBRANCH   5   7
ENDBRANCH   2   3
ENDBRANCH   1   2
BRANCH   1  72
ATOM     72  C   UNL A   1      35.139  21.846  26.759  1.00  0.00     0.023 C 
BRANCH  72  73
ATOM     73  C   UNL A   1      33.680  21.533  27.080  1.00  0.00     0.116 C 
BRANCH  73  74
ATOM     74  N   UNL A   1      33.258  20.262  26.520  1.00  0.00    -0.349 N 
ATOM     75  C   UNL A   1      32.606  20.027  25.332  1.00  0.00     0.286 C 
ATOM     76  H   UNL A   1      33.466  19.466  27.060  1.00  0.00     0.163 HD
ATOM     77  O   UNL A   1      32.147  18.901  25.136  1.00  0.00    -0.266 OA
BRANCH  75  78
ATOM     78  C   UNL A   1      32.495  21.111  24.386  1.00  0.00     0.191 A 
ATOM     79  C   UNL A   1      33.212  21.435  23.247  1.00  0.00     0.056 A 
ATOM     80  O   UNL A   1      31.512  22.037  24.580  1.00  0.00    -0.454 OA
ATOM     81  C   UNL A   1      32.665  22.642  22.748  1.00  0.00     0.048 A 
ATOM     82  C   UNL A   1      31.627  22.971  23.593  1.00  0.00     0.124 A 
BRANCH  82  83
ATOM     83  C   UNL A   1      30.609  24.058  23.614  1.00  0.00     0.193 C 
BRANCH  83  84
ATOM     84  N   UNL A   1      30.300  24.479  24.961  1.00  0.00    -0.332 N 
ATOM     85  H   UNL A   1      29.819  23.861  25.558  1.00  0.00     0.165 HD
BRANCH  84  86
ATOM     86  C   UNL A   1      30.650  25.684  25.420  1.00  0.00     0.296 A 
ATOM     87  N   UNL A   1      30.940  25.990  26.664  1.00  0.00    -0.194 NA
ATOM     88  O   UNL A   1      30.738  26.720  24.531  1.00  0.00    -0.424 OA
ATOM     89  C   UNL A   1      31.306  27.306  26.595  1.00  0.00     0.111 A 
ATOM     90  C   UNL A   1      31.163  27.767  25.297  1.00  0.00     0.156 A 
ATOM     91  C   UNL A   1      31.773  28.183  27.581  1.00  0.00     0.032 A 
ATOM     92  C   UNL A   1      31.429  29.066  24.885  1.00  0.00     0.049 A 
ATOM     93  C   UNL A   1      32.065  29.501  27.206  1.00  0.00     0.003 A 
ATOM     94  C   UNL A   1      31.889  29.934  25.884  1.00  0.00     0.004 A 
ENDBRANCH  84  86
ENDBRANCH  83  84
ENDBRANCH  82  83
ENDBRANCH  75  78
ENDBRANCH  73  74
ENDBRANCH  72  73
ENDBRANCH   1  72
TORSDOF 17
ENDMDL
