MODEL 1
REMARK VINA RESULT:     -11.1      0.000      0.000
REMARK SMILES Cc1c(C[NH2+]CC(=O)NCCCCNC(=O)c2ccc(-c3c4nc(c(-c5cccc(S(=O)(=O)[O-])c5F)c5ccc([nH]5)c(-c5cccc(S(=O)(=O)[O-])c5F)c5nc(c(-c6cccc(S(=O)(=O)[O-])c6F)c6ccc3[nH]6)C=C5)C=C4)cc2)cnn1C
REMARK SMILES IDX 11 1 10 2 9 3 7 4 8 5 6 7 5 8 4 11 3 12 1 13 2 14 82 15
REMARK SMILES IDX 80 16 81 17 83 18 12 19 13 20 14 21 15 22 16 24 17 25 18 26
REMARK SMILES IDX 79 27 19 28 78 29 20 30 21 31 22 32 72 33 23 34 77 35 71 36
REMARK SMILES IDX 73 37 24 38 76 39 70 40 69 41 25 43 57 44 37 45 56 46 38 47
REMARK SMILES IDX 41 48 55 49 74 50 39 51 40 52 54 54 75 55 42 56 26 57 27 58
REMARK SMILES IDX 35 59 28 60 30 61 36 62 29 63 31 64 32 65 33 66 34 67 58 68
REMARK SMILES IDX 59 69 67 70 60 71 62 72 68 73 61 74 63 75 64 76 65 77 66 78
REMARK SMILES IDX 43 79 44 80 52 81 45 82 47 83 53 84 46 85 48 86 49 87 50 88
REMARK SMILES IDX 51 89
REMARK H PARENT 9 6 5 9 5 10 14 23 73 42 41 53
REMARK Flexibility Score: inf
ROOT
ATOM      1  C   UNL A   1      33.886  28.260  25.294  1.00  0.00     0.023 C 
ENDROOT
BRANCH   1   2
ATOM      2  C   UNL A   1      33.394  26.922  24.723  1.00  0.00     0.116 C 
BRANCH   2   3
ATOM      3  N   UNL A   1      32.904  26.029  25.764  1.00  0.00    -0.351 N 
ATOM      4  C   UNL A   1      31.697  25.395  25.905  1.00  0.00     0.275 C 
ATOM      5  O   UNL A   1      31.492  24.759  26.941  1.00  0.00    -0.269 OA
ATOM      6  H   UNL A   1      33.548  25.849  26.487  1.00  0.00     0.163 HD
BRANCH   4   7
ATOM      7  C   UNL A   1      30.604  25.501  24.821  1.00  0.00     0.362 C 
BRANCH   7   8
ATOM      8  N   UNL A   1      30.028  26.871  24.688  1.00  0.00    -0.335 N 
ATOM      9  H   UNL A   1      29.623  27.161  25.578  1.00  0.00     0.347 HD
ATOM     10  H   UNL A   1      30.759  27.532  24.426  1.00  0.00     0.347 HD
BRANCH   8  11
ATOM     11  C   UNL A   1      28.995  26.845  23.666  1.00  0.00     0.301 C 
BRANCH  11  12
ATOM     12  C   UNL A   1      28.556  28.154  23.134  1.00  0.00     0.047 A 
ATOM     13  C   UNL A   1      30.711  29.293  22.226  1.00  0.00     0.067 C 
ATOM     14  C   UNL A   1      29.277  29.206  22.594  1.00  0.00     0.044 A 
ATOM     15  N   UNL A   1      28.394  30.258  22.524  1.00  0.00    -0.272 N 
ATOM     16  C   UNL A   1      27.249  28.675  23.299  1.00  0.00     0.145 A 
ATOM     17  N   UNL A   1      27.148  29.943  22.911  1.00  0.00    -0.181 NA
ATOM     18  C   UNL A   1      28.678  31.631  22.182  1.00  0.00     0.174 C 
ENDBRANCH  11  12
ENDBRANCH   8  11
ENDBRANCH   7   8
ENDBRANCH   4   7
ENDBRANCH   2   3
ENDBRANCH   1   2
BRANCH   1  19
ATOM     19  C   UNL A   1      32.863  29.383  25.313  1.00  0.00     0.023 C 
BRANCH  19  20
ATOM     20  C   UNL A   1      32.419  29.792  26.702  1.00  0.00     0.116 C 
BRANCH  20  21
ATOM     21  N   UNL A   1      32.328  31.237  26.883  1.00  0.00    -0.352 N 
ATOM     22  C   UNL A   1      33.251  32.091  27.445  1.00  0.00     0.251 C 
ATOM     23  H   UNL A   1      31.497  31.657  26.562  1.00  0.00     0.163 HD
ATOM     24  O   UNL A   1      32.991  33.275  27.605  1.00  0.00    -0.269 OA
BRANCH  22  25
ATOM     25  C   UNL A   1      34.546  31.535  27.887  1.00  0.00     0.039 A 
ATOM     26  C   UNL A   1      35.649  32.383  28.003  1.00  0.00     0.014 A 
ATOM     27  C   UNL A   1      34.631  30.199  28.283  1.00  0.00     0.014 A 
ATOM     28  C   UNL A   1      36.818  31.906  28.598  1.00  0.00     0.010 A 
ATOM     29  C   UNL A   1      35.748  29.765  28.978  1.00  0.00     0.010 A 
ATOM     30  C   UNL A   1      36.860  30.607  29.130  1.00  0.00    -0.014 A 
BRANCH  30  31
ATOM     31  C   UNL A   1      38.053  30.087  29.840  1.00  0.00     0.031 A 
ATOM     32  C   UNL A   1      38.336  30.538  31.247  1.00  0.00     0.074 A 
ATOM     33  C   UNL A   1      38.938  29.307  29.185  1.00  0.00     0.049 A 
ATOM     34  N   UNL A   1      39.365  30.274  32.008  1.00  0.00    -0.248 NA
ATOM     35  C   UNL A   1      37.355  31.449  31.865  1.00  0.00     0.031 C 
ATOM     36  C   UNL A   1      38.825  28.881  27.789  1.00  0.00     0.029 A 
ATOM     37  N   UNL A   1      40.120  28.753  29.606  1.00  0.00    -0.354 N 
ATOM     38  C   UNL A   1      39.185  31.028  33.160  1.00  0.00     0.074 A 
ATOM     39  C   UNL A   1      37.973  31.795  32.983  1.00  0.00     0.031 C 
ATOM     40  C   UNL A   1      39.881  28.111  27.476  1.00  0.00     0.029 A 
ATOM     41  C   UNL A   1      40.757  28.011  28.638  1.00  0.00     0.049 A 
ATOM     42  H   UNL A   1      40.479  28.875  30.514  1.00  0.00     0.167 HD
ATOM     43  C   UNL A   1      39.937  31.050  34.286  1.00  0.00     0.034 A 
ATOM     44  C   UNL A   1      41.913  27.321  28.690  1.00  0.00     0.034 A 
ATOM     45  C   UNL A   1      41.088  30.217  34.490  1.00  0.00     0.049 A 
ATOM     46  C   UNL A   1      42.688  27.294  29.980  1.00  0.00     0.074 A 
ATOM     47  C   UNL A   1      41.841  30.057  35.638  1.00  0.00     0.029 A 
ATOM     48  N   UNL A   1      41.649  29.399  33.522  1.00  0.00    -0.354 N 
ATOM     49  N   UNL A   1      42.406  27.870  31.123  1.00  0.00    -0.248 NA
ATOM     50  C   UNL A   1      43.921  26.494  29.998  1.00  0.00     0.031 C 
ATOM     51  C   UNL A   1      42.869  29.147  35.358  1.00  0.00     0.029 A 
ATOM     52  C   UNL A   1      42.746  28.735  34.041  1.00  0.00     0.049 A 
ATOM     53  H   UNL A   1      41.317  29.305  32.600  1.00  0.00     0.167 HD
ATOM     54  C   UNL A   1      43.403  27.474  32.007  1.00  0.00     0.074 A 
ATOM     55  C   UNL A   1      44.288  26.595  31.269  1.00  0.00     0.031 C 
ATOM     56  C   UNL A   1      43.580  27.818  33.307  1.00  0.00     0.034 A 
BRANCH  43  57
ATOM     57  C   UNL A   1      39.488  31.956  35.401  1.00  0.00     0.023 A 
ATOM     58  C   UNL A   1      39.854  33.319  35.382  1.00  0.00     0.012 A 
ATOM     59  C   UNL A   1      38.693  31.470  36.456  1.00  0.00     0.148 A 
ATOM     60  C   UNL A   1      39.478  34.171  36.417  1.00  0.00     0.002 A 
ATOM     61  C   UNL A   1      38.282  32.338  37.463  1.00  0.00     0.091 A 
ATOM     62  F   UNL A   1      38.378  30.168  36.477  1.00  0.00    -0.205 F 
ATOM     63  C   UNL A   1      38.684  33.684  37.452  1.00  0.00     0.022 A 
BRANCH  61  64
ATOM     64  S   UNL A   1      37.195  31.815  38.792  1.00  0.00     0.127 S 
ATOM     65  O   UNL A   1      36.912  30.431  38.416  1.00  0.00    -0.237 OA
ATOM     66  O   UNL A   1      38.049  31.962  39.972  1.00  0.00    -0.237 OA
ATOM     67  O   UNL A   1      36.059  32.726  38.755  1.00  0.00    -0.744 OA
ENDBRANCH  61  64
ENDBRANCH  43  57
BRANCH  44  68
ATOM     68  C   UNL A   1      42.344  26.505  27.519  1.00  0.00     0.023 A 
ATOM     69  C   UNL A   1      43.118  27.117  26.513  1.00  0.00     0.012 A 
ATOM     70  C   UNL A   1      42.041  25.134  27.414  1.00  0.00     0.148 A 
ATOM     71  C   UNL A   1      43.560  26.387  25.410  1.00  0.00     0.002 A 
ATOM     72  C   UNL A   1      42.525  24.401  26.335  1.00  0.00     0.091 A 
ATOM     73  F   UNL A   1      41.297  24.572  28.377  1.00  0.00    -0.205 F 
ATOM     74  C   UNL A   1      43.273  25.028  25.326  1.00  0.00     0.022 A 
BRANCH  72  75
ATOM     75  S   UNL A   1      42.310  22.622  26.200  1.00  0.00     0.127 S 
ATOM     76  O   UNL A   1      43.024  22.145  27.382  1.00  0.00    -0.237 OA
ATOM     77  O   UNL A   1      40.854  22.489  26.264  1.00  0.00    -0.237 OA
ATOM     78  O   UNL A   1      42.893  22.252  24.918  1.00  0.00    -0.744 OA
ENDBRANCH  72  75
ENDBRANCH  44  68
BRANCH  56  79
ATOM     79  C   UNL A   1      44.757  27.223  34.032  1.00  0.00     0.023 A 
ATOM     80  C   UNL A   1      45.974  27.932  34.082  1.00  0.00     0.012 A 
ATOM     81  C   UNL A   1      44.629  26.012  34.738  1.00  0.00     0.148 A 
ATOM     82  C   UNL A   1      47.055  27.428  34.803  1.00  0.00     0.002 A 
ATOM     83  C   UNL A   1      45.696  25.539  35.492  1.00  0.00     0.091 A 
ATOM     84  F   UNL A   1      43.468  25.344  34.661  1.00  0.00    -0.205 F 
ATOM     85  C   UNL A   1      46.913  26.241  35.518  1.00  0.00     0.022 A 
BRANCH  83  86
ATOM     86  S   UNL A   1      45.567  24.073  36.521  1.00  0.00     0.127 S 
ATOM     87  O   UNL A   1      46.965  23.826  36.868  1.00  0.00    -0.237 OA
ATOM     88  O   UNL A   1      44.736  24.540  37.631  1.00  0.00    -0.237 OA
ATOM     89  O   UNL A   1      44.938  23.057  35.688  1.00  0.00    -0.744 OA
ENDBRANCH  83  86
ENDBRANCH  56  79
ENDBRANCH  30  31
ENDBRANCH  22  25
ENDBRANCH  20  21
ENDBRANCH  19  20
ENDBRANCH   1  19
TORSDOF 17
ENDMDL
MODEL 2
REMARK VINA RESULT:     -10.9      5.803      8.165
REMARK SMILES Cc1c(C[NH2+]CC(=O)NCCCCNC(=O)c2ccc(-c3c4nc(c(-c5cccc(S(=O)(=O)[O-])c5F)c5ccc([nH]5)c(-c5cccc(S(=O)(=O)[O-])c5F)c5nc(c(-c6cccc(S(=O)(=O)[O-])c6F)c6ccc3[nH]6)C=C5)C=C4)cc2)cnn1C
REMARK SMILES IDX 11 1 10 2 9 3 7 4 8 5 6 7 5 8 4 11 3 12 1 13 2 14 82 15
REMARK SMILES IDX 80 16 81 17 83 18 12 19 13 20 14 21 15 22 16 24 17 25 18 26
REMARK SMILES IDX 79 27 19 28 78 29 20 30 21 31 22 32 72 33 23 34 77 35 71 36
REMARK SMILES IDX 73 37 24 38 76 39 70 40 69 41 25 43 57 44 37 45 56 46 38 47
REMARK SMILES IDX 41 48 55 49 74 50 39 51 40 52 54 54 75 55 42 56 26 57 27 58
REMARK SMILES IDX 35 59 28 60 30 61 36 62 29 63 31 64 32 65 33 66 34 67 58 68
REMARK SMILES IDX 59 69 67 70 60 71 62 72 68 73 61 74 63 75 64 76 65 77 66 78
REMARK SMILES IDX 43 79 44 80 52 81 45 82 47 83 53 84 46 85 48 86 49 87 50 88
REMARK SMILES IDX 51 89
REMARK H PARENT 9 6 5 9 5 10 14 23 73 42 41 53
REMARK Flexibility Score: inf
ROOT
ATOM      1  C   UNL A   1      35.323  24.006  24.589  1.00  0.00     0.023 C 
ENDROOT
BRANCH   1   2
ATOM      2  C   UNL A   1      34.290  25.133  24.448  1.00  0.00     0.116 C 
BRANCH   2   3
ATOM      3  N   UNL A   1      34.030  25.467  23.054  1.00  0.00    -0.351 N 
ATOM      4  C   UNL A   1      33.199  24.884  22.134  1.00  0.00     0.275 C 
ATOM      5  O   UNL A   1      33.232  25.302  20.974  1.00  0.00    -0.269 OA
ATOM      6  H   UNL A   1      34.535  26.242  22.718  1.00  0.00     0.163 HD
BRANCH   4   7
ATOM      7  C   UNL A   1      32.274  23.710  22.518  1.00  0.00     0.362 C 
BRANCH   7   8
ATOM      8  N   UNL A   1      32.864  22.369  22.233  1.00  0.00    -0.335 N 
ATOM      9  H   UNL A   1      33.102  22.302  21.244  1.00  0.00     0.347 HD
ATOM     10  H   UNL A   1      33.709  22.237  22.788  1.00  0.00     0.347 HD
BRANCH   8  11
ATOM     11  C   UNL A   1      31.885  21.349  22.571  1.00  0.00     0.301 C 
BRANCH  11  12
ATOM     12  C   UNL A   1      32.289  20.354  23.589  1.00  0.00     0.047 A 
ATOM     13  C   UNL A   1      32.528  18.104  22.305  1.00  0.00     0.067 C 
ATOM     14  C   UNL A   1      32.493  18.987  23.496  1.00  0.00     0.044 A 
ATOM     15  N   UNL A   1      32.586  18.542  24.793  1.00  0.00    -0.272 N 
ATOM     16  C   UNL A   1      32.327  20.619  24.980  1.00  0.00     0.145 A 
ATOM     17  N   UNL A   1      32.526  19.524  25.707  1.00  0.00    -0.181 NA
ATOM     18  C   UNL A   1      32.642  17.177  25.259  1.00  0.00     0.174 C 
ENDBRANCH  11  12
ENDBRANCH   8  11
ENDBRANCH   7   8
ENDBRANCH   4   7
ENDBRANCH   2   3
ENDBRANCH   1   2
BRANCH   1  19
ATOM     19  C   UNL A   1      34.892  22.819  25.434  1.00  0.00     0.023 C 
BRANCH  19  20
ATOM     20  C   UNL A   1      35.935  22.359  26.432  1.00  0.00     0.116 C 
BRANCH  20  21
ATOM     21  N   UNL A   1      36.883  21.396  25.881  1.00  0.00    -0.352 N 
ATOM     22  C   UNL A   1      38.258  21.478  25.830  1.00  0.00     0.251 C 
ATOM     23  H   UNL A   1      36.489  20.581  25.494  1.00  0.00     0.163 HD
ATOM     24  O   UNL A   1      38.914  20.622  25.254  1.00  0.00    -0.269 OA
BRANCH  22  25
ATOM     25  C   UNL A   1      38.916  22.645  26.453  1.00  0.00     0.039 A 
ATOM     26  C   UNL A   1      40.042  22.445  27.253  1.00  0.00     0.014 A 
ATOM     27  C   UNL A   1      38.475  23.934  26.154  1.00  0.00     0.014 A 
ATOM     28  C   UNL A   1      40.777  23.550  27.686  1.00  0.00     0.010 A 
ATOM     29  C   UNL A   1      39.271  25.020  26.485  1.00  0.00     0.010 A 
ATOM     30  C   UNL A   1      40.421  24.843  27.266  1.00  0.00    -0.014 A 
BRANCH  30  31
ATOM     31  C   UNL A   1      41.219  26.036  27.638  1.00  0.00     0.031 A 
ATOM     32  C   UNL A   1      40.593  27.116  28.477  1.00  0.00     0.074 A 
ATOM     33  C   UNL A   1      42.456  26.203  27.128  1.00  0.00     0.049 A 
ATOM     34  N   UNL A   1      41.085  28.272  28.837  1.00  0.00    -0.248 NA
ATOM     35  C   UNL A   1      39.210  26.888  28.934  1.00  0.00     0.031 C 
ATOM     36  C   UNL A   1      43.135  25.274  26.222  1.00  0.00     0.029 A 
ATOM     37  N   UNL A   1      43.354  27.229  27.283  1.00  0.00    -0.354 N 
ATOM     38  C   UNL A   1      40.058  28.928  29.504  1.00  0.00     0.074 A 
ATOM     39  C   UNL A   1      38.902  28.062  29.463  1.00  0.00     0.031 C 
ATOM     40  C   UNL A   1      44.353  25.759  25.924  1.00  0.00     0.029 A 
ATOM     41  C   UNL A   1      44.529  27.043  26.593  1.00  0.00     0.049 A 
ATOM     42  H   UNL A   1      43.174  28.023  27.836  1.00  0.00     0.167 HD
ATOM     43  C   UNL A   1      40.084  30.125  30.134  1.00  0.00     0.034 A 
ATOM     44  C   UNL A   1      45.628  27.820  26.518  1.00  0.00     0.034 A 
ATOM     45  C   UNL A   1      41.262  30.938  30.250  1.00  0.00     0.049 A 
ATOM     46  C   UNL A   1      45.663  29.108  27.296  1.00  0.00     0.074 A 
ATOM     47  C   UNL A   1      41.439  32.099  30.979  1.00  0.00     0.029 A 
ATOM     48  N   UNL A   1      42.468  30.670  29.621  1.00  0.00    -0.354 N 
ATOM     49  N   UNL A   1      44.744  29.627  28.073  1.00  0.00    -0.248 NA
ATOM     50  C   UNL A   1      46.899  29.899  27.215  1.00  0.00     0.031 C 
ATOM     51  C   UNL A   1      42.752  32.540  30.781  1.00  0.00     0.029 A 
ATOM     52  C   UNL A   1      43.394  31.647  29.937  1.00  0.00     0.049 A 
ATOM     53  H   UNL A   1      42.640  29.898  29.035  1.00  0.00     0.167 HD
ATOM     54  C   UNL A   1      45.301  30.785  28.603  1.00  0.00     0.074 A 
ATOM     55  C   UNL A   1      46.645  30.882  28.070  1.00  0.00     0.031 C 
ATOM     56  C   UNL A   1      44.746  31.694  29.443  1.00  0.00     0.034 A 
BRANCH  43  57
ATOM     57  C   UNL A   1      38.816  30.585  30.802  1.00  0.00     0.023 A 
ATOM     58  C   UNL A   1      38.633  30.359  32.183  1.00  0.00     0.012 A 
ATOM     59  C   UNL A   1      37.814  31.256  30.075  1.00  0.00     0.148 A 
ATOM     60  C   UNL A   1      37.456  30.747  32.819  1.00  0.00     0.002 A 
ATOM     61  C   UNL A   1      36.661  31.682  30.727  1.00  0.00     0.091 A 
ATOM     62  F   UNL A   1      37.987  31.437  28.759  1.00  0.00    -0.205 F 
ATOM     63  C   UNL A   1      36.475  31.417  32.093  1.00  0.00     0.022 A 
BRANCH  61  64
ATOM     64  S   UNL A   1      35.380  32.620  29.888  1.00  0.00     0.127 S 
ATOM     65  O   UNL A   1      34.404  32.813  30.960  1.00  0.00    -0.237 OA
ATOM     66  O   UNL A   1      36.093  33.835  29.489  1.00  0.00    -0.237 OA
ATOM     67  O   UNL A   1      34.943  31.786  28.777  1.00  0.00    -0.744 OA
ENDBRANCH  61  64
ENDBRANCH  43  57
BRANCH  44  68
ATOM     68  C   UNL A   1      46.826  27.342  25.771  1.00  0.00     0.023 A 
ATOM     69  C   UNL A   1      47.707  26.443  26.405  1.00  0.00     0.012 A 
ATOM     70  C   UNL A   1      47.075  27.724  24.439  1.00  0.00     0.148 A 
ATOM     71  C   UNL A   1      48.830  25.954  25.736  1.00  0.00     0.002 A 
ATOM     72  C   UNL A   1      48.170  27.196  23.763  1.00  0.00     0.091 A 
ATOM     73  F   UNL A   1      46.229  28.586  23.857  1.00  0.00    -0.205 F 
ATOM     74  C   UNL A   1      49.055  26.322  24.413  1.00  0.00     0.022 A 
BRANCH  72  75
ATOM     75  S   UNL A   1      48.476  27.515  22.020  1.00  0.00     0.127 S 
ATOM     76  O   UNL A   1      49.694  28.318  22.074  1.00  0.00    -0.237 OA
ATOM     77  O   UNL A   1      48.653  26.161  21.493  1.00  0.00    -0.237 OA
ATOM     78  O   UNL A   1      47.288  28.200  21.532  1.00  0.00    -0.744 OA
ENDBRANCH  72  75
ENDBRANCH  44  68
BRANCH  56  79
ATOM     79  C   UNL A   1      45.596  32.862  29.867  1.00  0.00     0.023 A 
ATOM     80  C   UNL A   1      46.406  32.752  31.015  1.00  0.00     0.012 A 
ATOM     81  C   UNL A   1      45.660  34.028  29.081  1.00  0.00     0.148 A 
ATOM     82  C   UNL A   1      47.248  33.797  31.388  1.00  0.00     0.002 A 
ATOM     83  C   UNL A   1      46.536  35.047  29.433  1.00  0.00     0.091 A 
ATOM     84  F   UNL A   1      44.867  34.119  28.004  1.00  0.00    -0.205 F 
ATOM     85  C   UNL A   1      47.324  34.938  30.592  1.00  0.00     0.022 A 
BRANCH  83  86
ATOM     86  S   UNL A   1      46.770  36.505  28.410  1.00  0.00     0.127 S 
ATOM     87  O   UNL A   1      47.791  37.235  29.159  1.00  0.00    -0.237 OA
ATOM     88  O   UNL A   1      47.232  35.932  27.146  1.00  0.00    -0.237 OA
ATOM     89  O   UNL A   1      45.465  37.150  28.335  1.00  0.00    -0.744 OA
ENDBRANCH  83  86
ENDBRANCH  56  79
ENDBRANCH  30  31
ENDBRANCH  22  25
ENDBRANCH  20  21
ENDBRANCH  19  20
ENDBRANCH   1  19
TORSDOF 17
ENDMDL
MODEL 3
REMARK VINA RESULT:     -10.8      5.483     10.570
REMARK SMILES Cc1c(C[NH2+]CC(=O)NCCCCNC(=O)c2ccc(-c3c4nc(c(-c5cccc(S(=O)(=O)[O-])c5F)c5ccc([nH]5)c(-c5cccc(S(=O)(=O)[O-])c5F)c5nc(c(-c6cccc(S(=O)(=O)[O-])c6F)c6ccc3[nH]6)C=C5)C=C4)cc2)cnn1C
REMARK SMILES IDX 11 1 10 2 9 3 7 4 8 5 6 7 5 8 4 11 3 12 1 13 2 14 82 15
REMARK SMILES IDX 80 16 81 17 83 18 12 19 13 20 14 21 15 22 16 24 17 25 18 26
REMARK SMILES IDX 79 27 19 28 78 29 20 30 21 31 22 32 72 33 23 34 77 35 71 36
REMARK SMILES IDX 73 37 24 38 76 39 70 40 69 41 25 43 57 44 37 45 56 46 38 47
REMARK SMILES IDX 41 48 55 49 74 50 39 51 40 52 54 54 75 55 42 56 26 57 27 58
REMARK SMILES IDX 35 59 28 60 30 61 36 62 29 63 31 64 32 65 33 66 34 67 58 68
REMARK SMILES IDX 59 69 67 70 60 71 62 72 68 73 61 74 63 75 64 76 65 77 66 78
REMARK SMILES IDX 43 79 44 80 52 81 45 82 47 83 53 84 46 85 48 86 49 87 50 88
REMARK SMILES IDX 51 89
REMARK H PARENT 9 6 5 9 5 10 14 23 73 42 41 53
REMARK Flexibility Score: inf
ROOT
ATOM      1  C   UNL A   1      34.973  20.314  25.023  1.00  0.00     0.023 C 
ENDROOT
BRANCH   1   2
ATOM      2  C   UNL A   1      33.478  20.541  25.290  1.00  0.00     0.116 C 
BRANCH   2   3
ATOM      3  N   UNL A   1      33.229  21.020  26.643  1.00  0.00    -0.351 N 
ATOM      4  C   UNL A   1      32.983  22.284  27.114  1.00  0.00     0.275 C 
ATOM      5  O   UNL A   1      32.899  22.443  28.334  1.00  0.00    -0.269 OA
ATOM      6  H   UNL A   1      33.238  20.320  27.334  1.00  0.00     0.163 HD
BRANCH   4   7
ATOM      7  C   UNL A   1      32.853  23.486  26.155  1.00  0.00     0.362 C 
BRANCH   7   8
ATOM      8  N   UNL A   1      31.709  24.387  26.481  1.00  0.00    -0.335 N 
ATOM      9  H   UNL A   1      30.891  24.116  25.936  1.00  0.00     0.347 HD
ATOM     10  H   UNL A   1      31.484  24.317  27.474  1.00  0.00     0.347 HD
BRANCH   8  11
ATOM     11  C   UNL A   1      32.084  25.753  26.155  1.00  0.00     0.301 C 
BRANCH  11  12
ATOM     12  C   UNL A   1      32.344  26.046  24.728  1.00  0.00     0.047 A 
ATOM     13  C   UNL A   1      30.563  24.688  23.405  1.00  0.00     0.067 C 
ATOM     14  C   UNL A   1      31.757  25.552  23.575  1.00  0.00     0.044 A 
ATOM     15  N   UNL A   1      32.568  25.962  22.545  1.00  0.00    -0.272 N 
ATOM     16  C   UNL A   1      33.467  26.772  24.263  1.00  0.00     0.145 A 
ATOM     17  N   UNL A   1      33.591  26.737  22.940  1.00  0.00    -0.181 NA
ATOM     18  C   UNL A   1      32.494  25.585  21.154  1.00  0.00     0.174 C 
ENDBRANCH  11  12
ENDBRANCH   8  11
ENDBRANCH   7   8
ENDBRANCH   4   7
ENDBRANCH   2   3
ENDBRANCH   1   2
BRANCH   1  19
ATOM     19  C   UNL A   1      35.768  21.551  24.641  1.00  0.00     0.023 C 
BRANCH  19  20
ATOM     20  C   UNL A   1      36.867  21.907  25.621  1.00  0.00     0.116 C 
BRANCH  20  21
ATOM     21  N   UNL A   1      37.930  20.909  25.692  1.00  0.00    -0.352 N 
ATOM     22  C   UNL A   1      39.227  21.067  26.131  1.00  0.00     0.251 C 
ATOM     23  H   UNL A   1      37.690  20.006  25.384  1.00  0.00     0.163 HD
ATOM     24  O   UNL A   1      40.031  20.150  26.047  1.00  0.00    -0.269 OA
BRANCH  22  25
ATOM     25  C   UNL A   1      39.633  22.383  26.667  1.00  0.00     0.039 A 
ATOM     26  C   UNL A   1      40.647  22.445  27.624  1.00  0.00     0.014 A 
ATOM     27  C   UNL A   1      39.079  23.550  26.139  1.00  0.00     0.014 A 
ATOM     28  C   UNL A   1      41.164  23.689  27.991  1.00  0.00     0.010 A 
ATOM     29  C   UNL A   1      39.673  24.771  26.417  1.00  0.00     0.010 A 
ATOM     30  C   UNL A   1      40.710  24.857  27.356  1.00  0.00    -0.014 A 
BRANCH  30  31
ATOM     31  C   UNL A   1      41.286  26.189  27.659  1.00  0.00     0.031 A 
ATOM     32  C   UNL A   1      42.685  26.513  27.211  1.00  0.00     0.074 A 
ATOM     33  C   UNL A   1      40.601  27.058  28.431  1.00  0.00     0.049 A 
ATOM     34  N   UNL A   1      43.402  27.580  27.448  1.00  0.00    -0.248 NA
ATOM     35  C   UNL A   1      43.391  25.480  26.432  1.00  0.00     0.031 C 
ATOM     36  C   UNL A   1      39.277  26.820  29.010  1.00  0.00     0.029 A 
ATOM     37  N   UNL A   1      40.939  28.309  28.882  1.00  0.00    -0.354 N 
ATOM     38  C   UNL A   1      44.654  27.321  26.904  1.00  0.00     0.074 A 
ATOM     39  C   UNL A   1      44.615  25.981  26.363  1.00  0.00     0.031 C 
ATOM     40  C   UNL A   1      38.903  27.901  29.715  1.00  0.00     0.029 A 
ATOM     41  C   UNL A   1      39.970  28.895  29.663  1.00  0.00     0.049 A 
ATOM     42  H   UNL A   1      41.794  28.746  28.666  1.00  0.00     0.167 HD
ATOM     43  C   UNL A   1      45.728  28.139  26.821  1.00  0.00     0.034 A 
ATOM     44  C   UNL A   1      39.945  30.103  30.260  1.00  0.00     0.034 A 
ATOM     45  C   UNL A   1      45.730  29.500  27.278  1.00  0.00     0.049 A 
ATOM     46  C   UNL A   1      41.120  31.027  30.083  1.00  0.00     0.074 A 
ATOM     47  C   UNL A   1      46.712  30.460  27.123  1.00  0.00     0.029 A 
ATOM     48  N   UNL A   1      44.692  30.096  27.978  1.00  0.00    -0.354 N 
ATOM     49  N   UNL A   1      42.227  30.833  29.408  1.00  0.00    -0.248 NA
ATOM     50  C   UNL A   1      41.027  32.348  30.719  1.00  0.00     0.031 C 
ATOM     51  C   UNL A   1      46.271  31.636  27.741  1.00  0.00     0.029 A 
ATOM     52  C   UNL A   1      45.010  31.410  28.270  1.00  0.00     0.049 A 
ATOM     53  H   UNL A   1      43.851  29.650  28.230  1.00  0.00     0.167 HD
ATOM     54  C   UNL A   1      42.947  32.018  29.506  1.00  0.00     0.074 A 
ATOM     55  C   UNL A   1      42.141  32.930  30.293  1.00  0.00     0.031 C 
ATOM     56  C   UNL A   1      44.170  32.320  29.004  1.00  0.00     0.034 A 
BRANCH  43  57
ATOM     57  C   UNL A   1      46.962  27.597  26.150  1.00  0.00     0.023 A 
ATOM     58  C   UNL A   1      47.892  26.847  26.901  1.00  0.00     0.012 A 
ATOM     59  C   UNL A   1      47.196  27.810  24.778  1.00  0.00     0.148 A 
ATOM     60  C   UNL A   1      49.056  26.361  26.312  1.00  0.00     0.002 A 
ATOM     61  C   UNL A   1      48.339  27.282  24.186  1.00  0.00     0.091 A 
ATOM     62  F   UNL A   1      46.320  28.550  24.084  1.00  0.00    -0.205 F 
ATOM     63  C   UNL A   1      49.275  26.569  24.953  1.00  0.00     0.022 A 
BRANCH  61  64
ATOM     64  S   UNL A   1      48.662  27.435  22.426  1.00  0.00     0.127 S 
ATOM     65  O   UNL A   1      47.530  28.250  21.987  1.00  0.00    -0.237 OA
ATOM     66  O   UNL A   1      49.953  28.124  22.404  1.00  0.00    -0.237 OA
ATOM     67  O   UNL A   1      48.698  26.073  21.912  1.00  0.00    -0.744 OA
ENDBRANCH  61  64
ENDBRANCH  43  57
BRANCH  44  68
ATOM     68  C   UNL A   1      38.719  30.550  30.980  1.00  0.00     0.023 A 
ATOM     69  C   UNL A   1      38.640  30.351  32.373  1.00  0.00     0.012 A 
ATOM     70  C   UNL A   1      37.663  31.204  30.318  1.00  0.00     0.148 A 
ATOM     71  C   UNL A   1      37.520  30.772  33.091  1.00  0.00     0.002 A 
ATOM     72  C   UNL A   1      36.571  31.663  31.048  1.00  0.00     0.091 A 
ATOM     73  F   UNL A   1      37.753  31.376  28.992  1.00  0.00    -0.205 F 
ATOM     74  C   UNL A   1      36.491  31.437  32.430  1.00  0.00     0.022 A 
BRANCH  72  75
ATOM     75  S   UNL A   1      35.252  32.635  30.306  1.00  0.00     0.127 S 
ATOM     76  O   UNL A   1      35.975  33.819  29.850  1.00  0.00    -0.237 OA
ATOM     77  O   UNL A   1      34.787  31.747  29.240  1.00  0.00    -0.237 OA
ATOM     78  O   UNL A   1      34.284  32.858  31.370  1.00  0.00    -0.744 OA
ENDBRANCH  72  75
ENDBRANCH  44  68
BRANCH  56  79
ATOM     79  C   UNL A   1      44.707  33.702  29.260  1.00  0.00     0.023 A 
ATOM     80  C   UNL A   1      45.431  33.959  30.441  1.00  0.00     0.012 A 
ATOM     81  C   UNL A   1      44.573  34.717  28.293  1.00  0.00     0.148 A 
ATOM     82  C   UNL A   1      45.993  35.215  30.666  1.00  0.00     0.002 A 
ATOM     83  C   UNL A   1      45.175  35.951  28.504  1.00  0.00     0.091 A 
ATOM     84  F   UNL A   1      43.864  34.457  27.185  1.00  0.00    -0.205 F 
ATOM     85  C   UNL A   1      45.876  36.205  29.694  1.00  0.00     0.022 A 
BRANCH  83  86
ATOM     86  S   UNL A   1      45.160  37.249  27.261  1.00  0.00     0.127 S 
ATOM     87  O   UNL A   1      46.077  36.712  26.258  1.00  0.00    -0.237 OA
ATOM     88  O   UNL A   1      43.755  37.276  26.853  1.00  0.00    -0.237 OA
ATOM     89  O   UNL A   1      45.610  38.456  27.942  1.00  0.00    -0.744 OA
ENDBRANCH  83  86
ENDBRANCH  56  79
ENDBRANCH  30  31
ENDBRANCH  22  25
ENDBRANCH  20  21
ENDBRANCH  19  20
ENDBRANCH   1  19
TORSDOF 17
ENDMDL
