MODEL 1
REMARK VINA RESULT:     -12.3      0.000      0.000
REMARK SMILES Cc1ccc(S(=O)(=O)n2cc(C(=O)C(=O)N[C@H](Cc3c[nH]c4ccccc34)C(=O)NCC(=O)NCCCCNC(=O)c3ccc(-c4c5nc(c(-c6cccc(S(=O)(=O)[O-])c6F)c6ccc([nH]6)c(-c6cccc(S(=O)(=O)[O-])c6F)c6nc(c(-c7cccc(S(=O)(=O)[O-])c7F)c7ccc4[nH]7)C=C6)C=C5)cc3)c3ccccc32)cc1
REMARK SMILES IDX 32 1 33 2 34 3 31 5 30 6 28 7 29 8 17 10 16 11 14 12 15 13
REMARK SMILES IDX 12 15 13 16 11 17 9 18 10 19 110 20 105 21 109 22 106 23
REMARK SMILES IDX 108 24 107 25 6 26 7 27 8 28 5 29 1 30 2 31 3 32 112 33 4 34
REMARK SMILES IDX 111 35 18 36 19 37 20 38 27 39 21 40 22 41 26 42 23 44 25 45
REMARK SMILES IDX 24 46 35 47 36 48 37 49 38 50 39 51 40 52 41 54 42 55 43 56
REMARK SMILES IDX 104 57 44 58 103 59 45 60 46 61 47 62 97 63 48 64 102 65
REMARK SMILES IDX 96 66 98 67 49 68 101 69 95 70 94 71 50 73 82 74 62 75 81 76
REMARK SMILES IDX 63 77 66 78 80 79 99 80 64 81 65 82 79 84 100 85 67 86 51 87
REMARK SMILES IDX 52 88 60 89 53 90 55 91 61 92 54 93 56 94 57 95 58 96 59 97
REMARK SMILES IDX 83 98 84 99 92 100 85 101 87 102 93 103 86 104 88 105 89 106
REMARK SMILES IDX 90 107 91 108 68 109 69 110 77 111 70 112 72 113 78 114
REMARK SMILES IDX 71 115 73 116 74 117 75 118 76 119
REMARK H PARENT 34 4 30 9 16 14 21 43 39 53 98 72 66 83
REMARK Flexibility Score: inf
ROOT
ATOM      1  C   UNL A   1      32.487  24.687  25.725  1.00  0.00     0.239 C 
ATOM      2  O   UNL A   1      31.290  24.379  25.745  1.00  0.00    -0.273 OA
ATOM      3  N   UNL A   1      33.367  23.741  25.293  1.00  0.00    -0.355 N 
ATOM      4  H   UNL A   1      32.981  22.842  25.173  1.00  0.00     0.163 HD
ENDROOT
BRANCH   1   5
ATOM      5  C   UNL A   1      32.900  26.133  26.054  1.00  0.00     0.216 C 
BRANCH   5   6
ATOM      6  N   UNL A   1      32.107  26.821  27.044  1.00  0.00    -0.345 N 
ATOM      7  C   UNL A   1      31.720  28.101  27.223  1.00  0.00     0.243 C 
ATOM      8  O   UNL A   1      30.880  28.232  28.128  1.00  0.00    -0.273 OA
ATOM      9  H   UNL A   1      31.773  26.221  27.749  1.00  0.00     0.164 HD
BRANCH   7  10
ATOM     10  C   UNL A   1      32.221  29.369  26.458  1.00  0.00     0.176 C 
BRANCH  10  11
ATOM     11  N   UNL A   1      32.858  30.508  27.200  1.00  0.00    -0.337 N 
ATOM     12  C   UNL A   1      34.086  30.710  27.822  1.00  0.00     0.293 C 
ATOM     13  O   UNL A   1      34.279  31.751  28.440  1.00  0.00    -0.265 OA
ATOM     14  H   UNL A   1      32.271  31.296  27.260  1.00  0.00     0.164 HD
BRANCH  12  15
ATOM     15  C   UNL A   1      35.202  29.671  27.693  1.00  0.00     0.252 C 
ATOM     16  O   UNL A   1      34.847  28.606  27.184  1.00  0.00    -0.283 OA
BRANCH  15  17
ATOM     17  C   UNL A   1      36.607  29.839  28.099  1.00  0.00     0.054 A 
ATOM     18  N   UNL A   1      38.840  30.025  28.356  1.00  0.00    -0.240 N 
ATOM     19  C   UNL A   1      37.814  29.884  27.402  1.00  0.00     0.117 A 
ATOM     20  C   UNL A   1      38.247  30.547  29.500  1.00  0.00     0.065 A 
ATOM     21  C   UNL A   1      36.976  29.981  29.477  1.00  0.00     0.012 A 
ATOM     22  C   UNL A   1      38.762  31.176  30.640  1.00  0.00     0.028 A 
ATOM     23  C   UNL A   1      36.333  29.741  30.701  1.00  0.00     0.011 A 
ATOM     24  C   UNL A   1      38.048  30.998  31.833  1.00  0.00     0.002 A 
ATOM     25  C   UNL A   1      36.896  30.218  31.879  1.00  0.00     0.001 A 
BRANCH  18  26
ATOM     26  S   UNL A   1      39.920  28.631  28.666  1.00  0.00     0.268 S 
ATOM     27  O   UNL A   1      39.716  27.741  27.536  1.00  0.00    -0.201 OA
ATOM     28  O   UNL A   1      39.629  28.201  30.022  1.00  0.00    -0.201 OA
BRANCH  26  29
ATOM     29  C   UNL A   1      41.636  29.089  28.652  1.00  0.00     0.088 A 
ATOM     30  C   UNL A   1      45.382  31.189  28.210  1.00  0.00     0.044 C 
ATOM     31  C   UNL A   1      44.093  30.438  28.386  1.00  0.00    -0.051 A 
ATOM     32  C   UNL A   1      43.459  29.910  27.261  1.00  0.00     0.005 A 
ATOM     33  C   UNL A   1      43.507  30.249  29.649  1.00  0.00     0.005 A 
ATOM     34  C   UNL A   1      42.241  29.242  27.391  1.00  0.00     0.022 A 
ATOM     35  C   UNL A   1      42.273  29.588  29.788  1.00  0.00     0.022 A 
ENDBRANCH  26  29
ENDBRANCH  18  26
ENDBRANCH  15  17
ENDBRANCH  12  15
ENDBRANCH  10  11
BRANCH  10  36
ATOM     36  C   UNL A   1      31.495  29.767  25.133  1.00  0.00     0.072 C 
BRANCH  36  37
ATOM     37  C   UNL A   1      31.094  28.711  24.130  1.00  0.00    -0.020 A 
ATOM     38  C   UNL A   1      29.785  28.396  23.800  1.00  0.00     0.087 A 
ATOM     39  C   UNL A   1      31.921  27.925  23.249  1.00  0.00     0.003 A 
ATOM     40  N   UNL A   1      29.789  27.438  22.824  1.00  0.00    -0.361 N 
ATOM     41  C   UNL A   1      31.079  27.088  22.511  1.00  0.00     0.046 A 
ATOM     42  C   UNL A   1      33.308  27.826  23.007  1.00  0.00     0.010 A 
ATOM     43  H   UNL A   1      28.985  27.055  22.405  1.00  0.00     0.166 HD
ATOM     44  C   UNL A   1      31.546  26.112  21.622  1.00  0.00     0.026 A 
ATOM     45  C   UNL A   1      33.796  26.863  22.110  1.00  0.00     0.001 A 
ATOM     46  C   UNL A   1      32.926  26.007  21.442  1.00  0.00     0.002 A 
ENDBRANCH  36  37
ENDBRANCH  10  36
ENDBRANCH   7  10
ENDBRANCH   5   6
ENDBRANCH   1   5
BRANCH   3  47
ATOM     47  C   UNL A   1      34.784  23.841  24.980  1.00  0.00     0.116 C 
BRANCH  47  48
ATOM     48  C   UNL A   1      35.670  23.173  26.030  1.00  0.00     0.023 C 
BRANCH  48  49
ATOM     49  C   UNL A   1      36.998  22.614  25.511  1.00  0.00     0.023 C 
BRANCH  49  50
ATOM     50  C   UNL A   1      38.251  23.368  25.929  1.00  0.00     0.116 C 
BRANCH  50  51
ATOM     51  N   UNL A   1      39.027  22.751  26.983  1.00  0.00    -0.352 N 
ATOM     52  C   UNL A   1      40.406  22.596  26.768  1.00  0.00     0.251 C 
ATOM     53  H   UNL A   1      38.604  22.450  27.820  1.00  0.00     0.163 HD
ATOM     54  O   UNL A   1      40.914  21.892  25.905  1.00  0.00    -0.269 OA
BRANCH  52  55
ATOM     55  C   UNL A   1      41.165  23.588  27.551  1.00  0.00     0.039 A 
ATOM     56  C   UNL A   1      41.434  24.877  27.090  1.00  0.00     0.014 A 
ATOM     57  C   UNL A   1      41.870  23.032  28.622  1.00  0.00     0.014 A 
ATOM     58  C   UNL A   1      42.542  25.559  27.611  1.00  0.00     0.010 A 
ATOM     59  C   UNL A   1      42.997  23.665  29.073  1.00  0.00     0.010 A 
ATOM     60  C   UNL A   1      43.362  24.907  28.534  1.00  0.00    -0.014 A 
BRANCH  60  61
ATOM     61  C   UNL A   1      44.696  25.327  28.944  1.00  0.00     0.031 A 
ATOM     62  C   UNL A   1      45.867  25.010  28.098  1.00  0.00     0.074 A 
ATOM     63  C   UNL A   1      44.737  26.385  29.785  1.00  0.00     0.049 A 
ATOM     64  N   UNL A   1      47.069  25.410  28.344  1.00  0.00    -0.248 NA
ATOM     65  C   UNL A   1      45.774  24.174  26.903  1.00  0.00     0.031 C 
ATOM     66  C   UNL A   1      45.736  27.447  29.820  1.00  0.00     0.029 A 
ATOM     67  N   UNL A   1      43.982  26.584  30.947  1.00  0.00    -0.354 N 
ATOM     68  C   UNL A   1      47.801  25.210  27.194  1.00  0.00     0.074 A 
ATOM     69  C   UNL A   1      47.011  24.296  26.411  1.00  0.00     0.031 C 
ATOM     70  C   UNL A   1      45.730  27.998  31.041  1.00  0.00     0.029 A 
ATOM     71  C   UNL A   1      44.859  27.185  31.870  1.00  0.00     0.049 A 
ATOM     72  H   UNL A   1      43.036  26.353  31.089  1.00  0.00     0.167 HD
ATOM     73  C   UNL A   1      48.899  25.985  26.976  1.00  0.00     0.034 A 
ATOM     74  C   UNL A   1      45.214  26.613  33.055  1.00  0.00     0.034 A 
ATOM     75  C   UNL A   1      49.295  26.691  28.205  1.00  0.00     0.049 A 
ATOM     76  C   UNL A   1      46.710  26.391  33.207  1.00  0.00     0.074 A 
ATOM     77  C   UNL A   1      49.247  28.010  28.623  1.00  0.00     0.029 A 
ATOM     78  N   UNL A   1      49.635  25.941  29.326  1.00  0.00    -0.354 N 
ATOM     79  N   UNL A   1      47.597  26.683  32.295  1.00  0.00    -0.248 NA
ATOM     80  C   UNL A   1      47.326  25.783  34.386  1.00  0.00     0.031 C 
ATOM     81  C   UNL A   1      49.437  28.027  30.035  1.00  0.00     0.029 A 
ATOM     82  C   UNL A   1      49.638  26.726  30.466  1.00  0.00     0.049 A 
ATOM     83  H   UNL A   1      49.845  24.979  29.312  1.00  0.00     0.167 HD
ATOM     84  C   UNL A   1      48.820  26.174  32.651  1.00  0.00     0.074 A 
ATOM     85  C   UNL A   1      48.618  25.716  34.015  1.00  0.00     0.031 C 
ATOM     86  C   UNL A   1      49.865  26.101  31.767  1.00  0.00     0.034 A 
BRANCH  73  87
ATOM     87  C   UNL A   1      49.530  26.290  25.620  1.00  0.00     0.023 A 
ATOM     88  C   UNL A   1      50.943  26.257  25.545  1.00  0.00     0.012 A 
ATOM     89  C   UNL A   1      48.866  26.724  24.445  1.00  0.00     0.148 A 
ATOM     90  C   UNL A   1      51.649  26.660  24.402  1.00  0.00     0.002 A 
ATOM     91  C   UNL A   1      49.568  27.073  23.286  1.00  0.00     0.091 A 
ATOM     92  F   UNL A   1      47.544  26.888  24.437  1.00  0.00    -0.205 F 
ATOM     93  C   UNL A   1      50.962  27.061  23.267  1.00  0.00     0.022 A 
BRANCH  91  94
ATOM     94  S   UNL A   1      48.736  27.569  21.763  1.00  0.00     0.127 S 
ATOM     95  O   UNL A   1      49.767  28.366  21.099  1.00  0.00    -0.237 OA
ATOM     96  O   UNL A   1      48.455  26.282  21.126  1.00  0.00    -0.237 OA
ATOM     97  O   UNL A   1      47.547  28.312  22.166  1.00  0.00    -0.744 OA
ENDBRANCH  91  94
ENDBRANCH  73  87
BRANCH  74  98
ATOM     98  C   UNL A   1      44.132  25.799  33.678  1.00  0.00     0.023 A 
ATOM     99  C   UNL A   1      44.288  24.394  33.610  1.00  0.00     0.012 A 
ATOM    100  C   UNL A   1      43.257  26.343  34.637  1.00  0.00     0.148 A 
ATOM    101  C   UNL A   1      43.663  23.555  34.533  1.00  0.00     0.002 A 
ATOM    102  C   UNL A   1      42.659  25.499  35.574  1.00  0.00     0.091 A 
ATOM    103  F   UNL A   1      43.131  27.674  34.699  1.00  0.00    -0.205 F 
ATOM    104  C   UNL A   1      42.871  24.110  35.531  1.00  0.00     0.022 A 
BRANCH 102 105
ATOM    105  S   UNL A   1      41.764  26.116  37.007  1.00  0.00     0.127 S 
ATOM    106  O   UNL A   1      41.003  24.937  37.411  1.00  0.00    -0.237 OA
ATOM    107  O   UNL A   1      42.861  26.485  37.902  1.00  0.00    -0.237 OA
ATOM    108  O   UNL A   1      40.984  27.243  36.519  1.00  0.00    -0.744 OA
ENDBRANCH 102 105
ENDBRANCH  74  98
BRANCH  86 109
ATOM    109  C   UNL A   1      51.180  25.374  32.003  1.00  0.00     0.023 A 
ATOM    110  C   UNL A   1      52.428  26.027  31.970  1.00  0.00     0.012 A 
ATOM    111  C   UNL A   1      51.186  24.020  32.433  1.00  0.00     0.148 A 
ATOM    112  C   UNL A   1      53.620  25.366  32.296  1.00  0.00     0.002 A 
ATOM    113  C   UNL A   1      52.361  23.400  32.857  1.00  0.00     0.091 A 
ATOM    114  F   UNL A   1      50.047  23.311  32.424  1.00  0.00    -0.205 F 
ATOM    115  C   UNL A   1      53.586  24.061  32.764  1.00  0.00     0.022 A 
BRANCH 113 116
ATOM    116  S   UNL A   1      52.293  21.803  33.683  1.00  0.00     0.127 S 
ATOM    117  O   UNL A   1      53.684  21.597  34.079  1.00  0.00    -0.237 OA
ATOM    118  O   UNL A   1      51.376  22.052  34.797  1.00  0.00    -0.237 OA
ATOM    119  O   UNL A   1      51.764  20.897  32.671  1.00  0.00    -0.744 OA
ENDBRANCH 113 116
ENDBRANCH  86 109
ENDBRANCH  60  61
ENDBRANCH  52  55
ENDBRANCH  50  51
ENDBRANCH  49  50
ENDBRANCH  48  49
ENDBRANCH  47  48
ENDBRANCH   3  47
TORSDOF 23
ENDMDL
MODEL 2
REMARK VINA RESULT:     -12.1      1.443      2.115
REMARK SMILES Cc1ccc(S(=O)(=O)n2cc(C(=O)C(=O)N[C@H](Cc3c[nH]c4ccccc34)C(=O)NCC(=O)NCCCCNC(=O)c3ccc(-c4c5nc(c(-c6cccc(S(=O)(=O)[O-])c6F)c6ccc([nH]6)c(-c6cccc(S(=O)(=O)[O-])c6F)c6nc(c(-c7cccc(S(=O)(=O)[O-])c7F)c7ccc4[nH]7)C=C6)C=C5)cc3)c3ccccc32)cc1
REMARK SMILES IDX 32 1 33 2 34 3 31 5 30 6 28 7 29 8 17 10 16 11 14 12 15 13
REMARK SMILES IDX 12 15 13 16 11 17 9 18 10 19 110 20 105 21 109 22 106 23
REMARK SMILES IDX 108 24 107 25 6 26 7 27 8 28 5 29 1 30 2 31 3 32 112 33 4 34
REMARK SMILES IDX 111 35 18 36 19 37 20 38 27 39 21 40 22 41 26 42 23 44 25 45
REMARK SMILES IDX 24 46 35 47 36 48 37 49 38 50 39 51 40 52 41 54 42 55 43 56
REMARK SMILES IDX 104 57 44 58 103 59 45 60 46 61 47 62 97 63 48 64 102 65
REMARK SMILES IDX 96 66 98 67 49 68 101 69 95 70 94 71 50 73 82 74 62 75 81 76
REMARK SMILES IDX 63 77 66 78 80 79 99 80 64 81 65 82 79 84 100 85 67 86 51 87
REMARK SMILES IDX 52 88 60 89 53 90 55 91 61 92 54 93 56 94 57 95 58 96 59 97
REMARK SMILES IDX 83 98 84 99 92 100 85 101 87 102 93 103 86 104 88 105 89 106
REMARK SMILES IDX 90 107 91 108 68 109 69 110 77 111 70 112 72 113 78 114
REMARK SMILES IDX 71 115 73 116 74 117 75 118 76 119
REMARK H PARENT 34 4 30 9 16 14 21 43 39 53 98 72 66 83
REMARK Flexibility Score: inf
ROOT
ATOM      1  C   UNL A   1      32.408  23.628  26.685  1.00  0.00     0.239 C 
ATOM      2  O   UNL A   1      31.358  23.381  27.289  1.00  0.00    -0.273 OA
ATOM      3  N   UNL A   1      33.066  22.575  26.122  1.00  0.00    -0.355 N 
ATOM      4  H   UNL A   1      32.718  21.689  26.375  1.00  0.00     0.163 HD
ENDROOT
BRANCH   1   5
ATOM      5  C   UNL A   1      32.839  25.092  26.488  1.00  0.00     0.216 C 
BRANCH   5   6
ATOM      6  N   UNL A   1      32.150  26.080  27.282  1.00  0.00    -0.345 N 
ATOM      7  C   UNL A   1      32.243  27.420  27.415  1.00  0.00     0.243 C 
ATOM      8  O   UNL A   1      31.322  27.906  28.092  1.00  0.00    -0.273 OA
ATOM      9  H   UNL A   1      31.455  25.689  27.858  1.00  0.00     0.164 HD
BRANCH   7  10
ATOM     10  C   UNL A   1      33.354  28.363  26.850  1.00  0.00     0.176 C 
BRANCH  10  11
ATOM     11  N   UNL A   1      33.480  29.776  27.342  1.00  0.00    -0.337 N 
ATOM     12  C   UNL A   1      34.510  30.539  27.882  1.00  0.00     0.293 C 
ATOM     13  O   UNL A   1      34.268  31.673  28.282  1.00  0.00    -0.265 OA
ATOM     14  H   UNL A   1      32.639  30.281  27.262  1.00  0.00     0.164 HD
BRANCH  12  15
ATOM     15  C   UNL A   1      35.939  29.992  27.930  1.00  0.00     0.252 C 
ATOM     16  O   UNL A   1      36.473  29.872  26.826  1.00  0.00    -0.283 OA
BRANCH  15  17
ATOM     17  C   UNL A   1      36.698  29.628  29.137  1.00  0.00     0.054 A 
ATOM     18  N   UNL A   1      37.566  29.216  31.179  1.00  0.00    -0.240 N 
ATOM     19  C   UNL A   1      36.411  29.654  30.502  1.00  0.00     0.117 A 
ATOM     20  C   UNL A   1      38.312  28.491  30.257  1.00  0.00     0.065 A 
ATOM     21  C   UNL A   1      38.044  29.142  29.057  1.00  0.00     0.012 A 
ATOM     22  C   UNL A   1      39.365  27.576  30.389  1.00  0.00     0.028 A 
ATOM     23  C   UNL A   1      39.035  29.140  28.063  1.00  0.00     0.011 A 
ATOM     24  C   UNL A   1      40.291  27.527  29.338  1.00  0.00     0.002 A 
ATOM     25  C   UNL A   1      40.174  28.360  28.229  1.00  0.00     0.001 A 
BRANCH  18  26
ATOM     26  S   UNL A   1      38.520  30.414  32.107  1.00  0.00     0.268 S 
ATOM     27  O   UNL A   1      38.491  29.935  33.477  1.00  0.00    -0.201 OA
ATOM     28  O   UNL A   1      37.975  31.713  31.753  1.00  0.00    -0.201 OA
BRANCH  26  29
ATOM     29  C   UNL A   1      40.227  30.446  31.613  1.00  0.00     0.088 A 
ATOM     30  C   UNL A   1      44.350  31.542  30.949  1.00  0.00     0.044 C 
ATOM     31  C   UNL A   1      42.924  31.129  31.176  1.00  0.00    -0.051 A 
ATOM     32  C   UNL A   1      41.919  31.715  30.404  1.00  0.00     0.005 A 
ATOM     33  C   UNL A   1      42.569  30.169  32.140  1.00  0.00     0.005 A 
ATOM     34  C   UNL A   1      40.583  31.378  30.621  1.00  0.00     0.022 A 
ATOM     35  C   UNL A   1      41.223  29.833  32.373  1.00  0.00     0.022 A 
ENDBRANCH  26  29
ENDBRANCH  18  26
ENDBRANCH  15  17
ENDBRANCH  12  15
ENDBRANCH  10  11
BRANCH  10  36
ATOM     36  C   UNL A   1      33.852  28.126  25.389  1.00  0.00     0.072 C 
BRANCH  36  37
ATOM     37  C   UNL A   1      33.004  28.548  24.211  1.00  0.00    -0.020 A 
ATOM     38  C   UNL A   1      33.473  29.266  23.121  1.00  0.00     0.087 A 
ATOM     39  C   UNL A   1      31.634  28.220  23.904  1.00  0.00     0.003 A 
ATOM     40  N   UNL A   1      32.455  29.428  22.222  1.00  0.00    -0.361 N 
ATOM     41  C   UNL A   1      31.305  28.852  22.703  1.00  0.00     0.046 A 
ATOM     42  C   UNL A   1      30.627  27.458  24.534  1.00  0.00     0.010 A 
ATOM     43  H   UNL A   1      32.535  29.889  21.356  1.00  0.00     0.166 HD
ATOM     44  C   UNL A   1      30.019  28.834  22.147  1.00  0.00     0.026 A 
ATOM     45  C   UNL A   1      29.335  27.416  23.987  1.00  0.00     0.001 A 
ATOM     46  C   UNL A   1      29.033  28.111  22.819  1.00  0.00     0.002 A 
ENDBRANCH  36  37
ENDBRANCH  10  36
ENDBRANCH   7  10
ENDBRANCH   5   6
ENDBRANCH   1   5
BRANCH   3  47
ATOM     47  C   UNL A   1      34.198  22.547  25.210  1.00  0.00     0.116 C 
BRANCH  47  48
ATOM     48  C   UNL A   1      35.540  22.464  25.936  1.00  0.00     0.023 C 
BRANCH  48  49
ATOM     49  C   UNL A   1      36.667  23.310  25.335  1.00  0.00     0.023 C 
BRANCH  49  50
ATOM     50  C   UNL A   1      38.046  23.120  25.947  1.00  0.00     0.116 C 
BRANCH  50  51
ATOM     51  N   UNL A   1      38.820  24.329  26.126  1.00  0.00    -0.352 N 
ATOM     52  C   UNL A   1      39.332  24.588  27.408  1.00  0.00     0.251 C 
ATOM     53  H   UNL A   1      38.982  24.948  25.377  1.00  0.00     0.163 HD
ATOM     54  O   UNL A   1      38.661  24.802  28.409  1.00  0.00    -0.269 OA
BRANCH  52  55
ATOM     55  C   UNL A   1      40.781  24.318  27.449  1.00  0.00     0.039 A 
ATOM     56  C   UNL A   1      41.371  23.470  28.386  1.00  0.00     0.014 A 
ATOM     57  C   UNL A   1      41.539  25.228  26.707  1.00  0.00     0.014 A 
ATOM     58  C   UNL A   1      42.724  23.651  28.699  1.00  0.00     0.010 A 
ATOM     59  C   UNL A   1      42.839  25.457  27.069  1.00  0.00     0.010 A 
ATOM     60  C   UNL A   1      43.419  24.704  28.099  1.00  0.00    -0.014 A 
BRANCH  60  61
ATOM     61  C   UNL A   1      44.713  25.228  28.518  1.00  0.00     0.031 A 
ATOM     62  C   UNL A   1      45.919  24.969  27.700  1.00  0.00     0.074 A 
ATOM     63  C   UNL A   1      44.665  26.311  29.327  1.00  0.00     0.049 A 
ATOM     64  N   UNL A   1      47.085  25.460  27.954  1.00  0.00    -0.248 NA
ATOM     65  C   UNL A   1      45.906  24.094  26.531  1.00  0.00     0.031 C 
ATOM     66  C   UNL A   1      45.586  27.440  29.345  1.00  0.00     0.029 A 
ATOM     67  N   UNL A   1      43.877  26.490  30.469  1.00  0.00    -0.354 N 
ATOM     68  C   UNL A   1      47.850  25.278  26.823  1.00  0.00     0.074 A 
ATOM     69  C   UNL A   1      47.140  24.289  26.055  1.00  0.00     0.031 C 
ATOM     70  C   UNL A   1      45.520  28.025  30.549  1.00  0.00     0.029 A 
ATOM     71  C   UNL A   1      44.692  27.178  31.387  1.00  0.00     0.049 A 
ATOM     72  H   UNL A   1      42.946  26.197  30.603  1.00  0.00     0.167 HD
ATOM     73  C   UNL A   1      48.896  26.121  26.599  1.00  0.00     0.034 A 
ATOM     74  C   UNL A   1      45.065  26.668  32.596  1.00  0.00     0.034 A 
ATOM     75  C   UNL A   1      49.219  26.889  27.812  1.00  0.00     0.049 A 
ATOM     76  C   UNL A   1      46.570  26.555  32.778  1.00  0.00     0.074 A 
ATOM     77  C   UNL A   1      49.072  28.213  28.189  1.00  0.00     0.029 A 
ATOM     78  N   UNL A   1      49.590  26.197  28.961  1.00  0.00    -0.354 N 
ATOM     79  N   UNL A   1      47.451  26.882  31.872  1.00  0.00    -0.248 NA
ATOM     80  C   UNL A   1      47.204  26.027  33.985  1.00  0.00     0.031 C 
ATOM     81  C   UNL A   1      49.233  28.285  29.603  1.00  0.00     0.029 A 
ATOM     82  C   UNL A   1      49.517  27.014  30.077  1.00  0.00     0.049 A 
ATOM     83  H   UNL A   1      49.866  25.253  28.980  1.00  0.00     0.167 HD
ATOM     84  C   UNL A   1      48.700  26.470  32.264  1.00  0.00     0.074 A 
ATOM     85  C   UNL A   1      48.505  26.040  33.637  1.00  0.00     0.031 C 
ATOM     86  C   UNL A   1      49.763  26.445  31.399  1.00  0.00     0.034 A 
BRANCH  73  87
ATOM     87  C   UNL A   1      49.528  26.430  25.245  1.00  0.00     0.023 A 
ATOM     88  C   UNL A   1      50.941  26.384  25.169  1.00  0.00     0.012 A 
ATOM     89  C   UNL A   1      48.868  26.879  24.073  1.00  0.00     0.148 A 
ATOM     90  C   UNL A   1      51.651  26.788  24.028  1.00  0.00     0.002 A 
ATOM     91  C   UNL A   1      49.572  27.229  22.917  1.00  0.00     0.091 A 
ATOM     92  F   UNL A   1      47.548  27.056  24.068  1.00  0.00    -0.205 F 
ATOM     93  C   UNL A   1      50.967  27.204  22.897  1.00  0.00     0.022 A 
BRANCH  91  94
ATOM     94  S   UNL A   1      48.744  27.745  21.398  1.00  0.00     0.127 S 
ATOM     95  O   UNL A   1      49.845  28.337  20.637  1.00  0.00    -0.237 OA
ATOM     96  O   UNL A   1      48.249  26.476  20.866  1.00  0.00    -0.237 OA
ATOM     97  O   UNL A   1      47.698  28.680  21.796  1.00  0.00    -0.744 OA
ENDBRANCH  91  94
ENDBRANCH  73  87
BRANCH  74  98
ATOM     98  C   UNL A   1      44.031  25.798  33.225  1.00  0.00     0.023 A 
ATOM     99  C   UNL A   1      44.209  24.403  33.072  1.00  0.00     0.012 A 
ATOM    100  C   UNL A   1      43.196  26.270  34.255  1.00  0.00     0.148 A 
ATOM    101  C   UNL A   1      43.647  23.501  33.977  1.00  0.00     0.002 A 
ATOM    102  C   UNL A   1      42.662  25.364  35.172  1.00  0.00     0.091 A 
ATOM    103  F   UNL A   1      43.048  27.594  34.397  1.00  0.00    -0.205 F 
ATOM    104  C   UNL A   1      42.897  23.985  35.042  1.00  0.00     0.022 A 
BRANCH 102 105
ATOM    105  S   UNL A   1      41.829  25.884  36.680  1.00  0.00     0.127 S 
ATOM    106  O   UNL A   1      42.958  26.117  37.577  1.00  0.00    -0.237 OA
ATOM    107  O   UNL A   1      41.132  27.089  36.230  1.00  0.00    -0.237 OA
ATOM    108  O   UNL A   1      40.949  24.781  37.035  1.00  0.00    -0.744 OA
ENDBRANCH 102 105
ENDBRANCH  74  98
BRANCH  86 109
ATOM    109  C   UNL A   1      51.121  25.819  31.679  1.00  0.00     0.023 A 
ATOM    110  C   UNL A   1      52.320  26.558  31.650  1.00  0.00     0.012 A 
ATOM    111  C   UNL A   1      51.213  24.481  32.146  1.00  0.00     0.148 A 
ATOM    112  C   UNL A   1      53.549  25.992  32.015  1.00  0.00     0.002 A 
ATOM    113  C   UNL A   1      52.421  23.957  32.608  1.00  0.00     0.091 A 
ATOM    114  F   UNL A   1      50.127  23.693  32.136  1.00  0.00    -0.205 F 
ATOM    115  C   UNL A   1      53.597  24.700  32.519  1.00  0.00     0.022 A 
BRANCH 113 116
ATOM    116  S   UNL A   1      52.448  22.381  33.477  1.00  0.00     0.127 S 
ATOM    117  O   UNL A   1      51.127  22.345  34.098  1.00  0.00    -0.237 OA
ATOM    118  O   UNL A   1      52.636  21.415  32.392  1.00  0.00    -0.237 OA
ATOM    119  O   UNL A   1      53.588  22.488  34.379  1.00  0.00    -0.744 OA
ENDBRANCH 113 116
ENDBRANCH  86 109
ENDBRANCH  60  61
ENDBRANCH  52  55
ENDBRANCH  50  51
ENDBRANCH  49  50
ENDBRANCH  48  49
ENDBRANCH  47  48
ENDBRANCH   3  47
TORSDOF 23
ENDMDL
MODEL 3
REMARK VINA RESULT:     -12.1      4.642     10.541
REMARK SMILES Cc1ccc(S(=O)(=O)n2cc(C(=O)C(=O)N[C@H](Cc3c[nH]c4ccccc34)C(=O)NCC(=O)NCCCCNC(=O)c3ccc(-c4c5nc(c(-c6cccc(S(=O)(=O)[O-])c6F)c6ccc([nH]6)c(-c6cccc(S(=O)(=O)[O-])c6F)c6nc(c(-c7cccc(S(=O)(=O)[O-])c7F)c7ccc4[nH]7)C=C6)C=C5)cc3)c3ccccc32)cc1
REMARK SMILES IDX 32 1 33 2 34 3 31 5 30 6 28 7 29 8 17 10 16 11 14 12 15 13
REMARK SMILES IDX 12 15 13 16 11 17 9 18 10 19 110 20 105 21 109 22 106 23
REMARK SMILES IDX 108 24 107 25 6 26 7 27 8 28 5 29 1 30 2 31 3 32 112 33 4 34
REMARK SMILES IDX 111 35 18 36 19 37 20 38 27 39 21 40 22 41 26 42 23 44 25 45
REMARK SMILES IDX 24 46 35 47 36 48 37 49 38 50 39 51 40 52 41 54 42 55 43 56
REMARK SMILES IDX 104 57 44 58 103 59 45 60 46 61 47 62 97 63 48 64 102 65
REMARK SMILES IDX 96 66 98 67 49 68 101 69 95 70 94 71 50 73 82 74 62 75 81 76
REMARK SMILES IDX 63 77 66 78 80 79 99 80 64 81 65 82 79 84 100 85 67 86 51 87
REMARK SMILES IDX 52 88 60 89 53 90 55 91 61 92 54 93 56 94 57 95 58 96 59 97
REMARK SMILES IDX 83 98 84 99 92 100 85 101 87 102 93 103 86 104 88 105 89 106
REMARK SMILES IDX 90 107 91 108 68 109 69 110 77 111 70 112 72 113 78 114
REMARK SMILES IDX 71 115 73 116 74 117 75 118 76 119
REMARK H PARENT 34 4 30 9 16 14 21 43 39 53 98 72 66 83
REMARK Flexibility Score: inf
ROOT
ATOM      1  C   UNL A   1      37.047  21.527  24.953  1.00  0.00     0.239 C 
ATOM      2  O   UNL A   1      36.209  20.667  24.657  1.00  0.00    -0.273 OA
ATOM      3  N   UNL A   1      38.079  21.143  25.756  1.00  0.00    -0.355 N 
ATOM      4  H   UNL A   1      37.984  20.244  26.147  1.00  0.00     0.163 HD
ENDROOT
BRANCH   1   5
ATOM      5  C   UNL A   1      36.957  22.921  24.308  1.00  0.00     0.216 C 
BRANCH   5   6
ATOM      6  N   UNL A   1      36.017  23.072  23.223  1.00  0.00    -0.345 N 
ATOM      7  C   UNL A   1      34.674  23.185  23.142  1.00  0.00     0.243 C 
ATOM      8  O   UNL A   1      34.280  23.478  22.002  1.00  0.00    -0.273 OA
ATOM      9  H   UNL A   1      36.454  23.097  22.341  1.00  0.00     0.164 HD
BRANCH   7  10
ATOM     10  C   UNL A   1      33.626  22.969  24.281  1.00  0.00     0.176 C 
BRANCH  10  11
ATOM     11  N   UNL A   1      34.070  22.778  25.702  1.00  0.00    -0.337 N 
ATOM     12  C   UNL A   1      33.504  23.024  26.949  1.00  0.00     0.293 C 
ATOM     13  O   UNL A   1      34.176  22.837  27.958  1.00  0.00    -0.265 OA
ATOM     14  H   UNL A   1      34.970  22.385  25.768  1.00  0.00     0.164 HD
BRANCH  12  15
ATOM     15  C   UNL A   1      32.045  23.473  27.065  1.00  0.00     0.252 C 
ATOM     16  O   UNL A   1      31.350  22.753  27.784  1.00  0.00    -0.283 OA
BRANCH  15  17
ATOM     17  C   UNL A   1      31.437  24.650  26.426  1.00  0.00     0.054 A 
ATOM     18  N   UNL A   1      30.208  26.226  25.378  1.00  0.00    -0.240 N 
ATOM     19  C   UNL A   1      30.175  24.915  25.893  1.00  0.00     0.117 A 
ATOM     20  C   UNL A   1      31.254  26.877  26.022  1.00  0.00     0.065 A 
ATOM     21  C   UNL A   1      32.181  25.858  26.218  1.00  0.00     0.012 A 
ATOM     22  C   UNL A   1      31.590  28.228  26.171  1.00  0.00     0.028 A 
ATOM     23  C   UNL A   1      33.544  26.193  26.238  1.00  0.00     0.011 A 
ATOM     24  C   UNL A   1      32.954  28.528  26.283  1.00  0.00     0.002 A 
ATOM     25  C   UNL A   1      33.923  27.530  26.230  1.00  0.00     0.001 A 
BRANCH  18  26
ATOM     26  S   UNL A   1      30.194  26.449  23.602  1.00  0.00     0.268 S 
ATOM     27  O   UNL A   1      29.304  25.415  23.101  1.00  0.00    -0.201 OA
ATOM     28  O   UNL A   1      31.587  26.500  23.199  1.00  0.00    -0.201 OA
BRANCH  26  29
ATOM     29  C   UNL A   1      29.486  28.007  23.122  1.00  0.00     0.088 A 
ATOM     30  C   UNL A   1      27.558  31.870  23.085  1.00  0.00     0.044 C 
ATOM     31  C   UNL A   1      28.244  30.533  23.070  1.00  0.00    -0.051 A 
ATOM     32  C   UNL A   1      27.473  29.376  23.191  1.00  0.00     0.005 A 
ATOM     33  C   UNL A   1      29.638  30.411  22.934  1.00  0.00     0.005 A 
ATOM     34  C   UNL A   1      28.087  28.124  23.219  1.00  0.00     0.022 A 
ATOM     35  C   UNL A   1      30.266  29.153  22.973  1.00  0.00     0.022 A 
ENDBRANCH  26  29
ENDBRANCH  18  26
ENDBRANCH  15  17
ENDBRANCH  12  15
ENDBRANCH  10  11
BRANCH  10  36
ATOM     36  C   UNL A   1      32.268  22.288  23.916  1.00  0.00     0.072 C 
BRANCH  36  37
ATOM     37  C   UNL A   1      32.240  20.884  23.357  1.00  0.00    -0.020 A 
ATOM     38  C   UNL A   1      31.986  20.571  22.031  1.00  0.00     0.087 A 
ATOM     39  C   UNL A   1      32.569  19.636  23.999  1.00  0.00     0.003 A 
ATOM     40  N   UNL A   1      32.090  19.217  21.865  1.00  0.00    -0.361 N 
ATOM     41  C   UNL A   1      32.385  18.616  23.063  1.00  0.00     0.046 A 
ATOM     42  C   UNL A   1      32.994  19.262  25.292  1.00  0.00     0.010 A 
ATOM     43  H   UNL A   1      31.972  18.742  21.011  1.00  0.00     0.166 HD
ATOM     44  C   UNL A   1      32.519  17.255  23.367  1.00  0.00     0.026 A 
ATOM     45  C   UNL A   1      33.147  17.904  25.614  1.00  0.00     0.001 A 
ATOM     46  C   UNL A   1      32.894  16.916  24.668  1.00  0.00     0.002 A 
ENDBRANCH  36  37
ENDBRANCH  10  36
ENDBRANCH   7  10
ENDBRANCH   5   6
ENDBRANCH   1   5
BRANCH   3  47
ATOM     47  C   UNL A   1      39.298  21.843  26.127  1.00  0.00     0.116 C 
BRANCH  47  48
ATOM     48  C   UNL A   1      40.438  20.894  26.489  1.00  0.00     0.023 C 
BRANCH  48  49
ATOM     49  C   UNL A   1      41.763  21.150  25.764  1.00  0.00     0.023 C 
BRANCH  49  50
ATOM     50  C   UNL A   1      43.020  20.684  26.482  1.00  0.00     0.116 C 
BRANCH  50  51
ATOM     51  N   UNL A   1      43.937  21.731  26.877  1.00  0.00    -0.352 N 
ATOM     52  C   UNL A   1      44.272  22.698  25.916  1.00  0.00     0.251 C 
ATOM     53  H   UNL A   1      44.313  21.765  27.787  1.00  0.00     0.163 HD
ATOM     54  O   UNL A   1      44.879  22.481  24.875  1.00  0.00    -0.269 OA
BRANCH  52  55
ATOM     55  C   UNL A   1      43.576  23.967  26.196  1.00  0.00     0.039 A 
ATOM     56  C   UNL A   1      43.615  25.063  25.333  1.00  0.00     0.014 A 
ATOM     57  C   UNL A   1      43.170  24.098  27.527  1.00  0.00     0.014 A 
ATOM     58  C   UNL A   1      43.395  26.341  25.861  1.00  0.00     0.010 A 
ATOM     59  C   UNL A   1      43.032  25.352  28.057  1.00  0.00     0.010 A 
ATOM     60  C   UNL A   1      43.193  26.477  27.236  1.00  0.00    -0.014 A 
BRANCH  60  61
ATOM     61  C   UNL A   1      43.252  27.721  27.994  1.00  0.00     0.031 A 
ATOM     62  C   UNL A   1      42.055  28.584  28.099  1.00  0.00     0.074 A 
ATOM     63  C   UNL A   1      44.208  27.773  28.950  1.00  0.00     0.049 A 
ATOM     64  N   UNL A   1      41.995  29.658  28.812  1.00  0.00    -0.248 NA
ATOM     65  C   UNL A   1      40.820  28.311  27.367  1.00  0.00     0.031 C 
ATOM     66  C   UNL A   1      44.120  28.425  30.250  1.00  0.00     0.029 A 
ATOM     67  N   UNL A   1      45.557  27.422  28.829  1.00  0.00    -0.354 N 
ATOM     68  C   UNL A   1      40.663  29.990  28.924  1.00  0.00     0.074 A 
ATOM     69  C   UNL A   1      40.010  29.241  27.882  1.00  0.00     0.031 C 
ATOM     70  C   UNL A   1      45.362  28.688  30.680  1.00  0.00     0.029 A 
ATOM     71  C   UNL A   1      46.264  28.375  29.587  1.00  0.00     0.049 A 
ATOM     72  H   UNL A   1      45.934  26.667  28.322  1.00  0.00     0.167 HD
ATOM     73  C   UNL A   1      40.261  30.722  29.999  1.00  0.00     0.034 A 
ATOM     74  C   UNL A   1      47.177  29.236  29.053  1.00  0.00     0.034 A 
ATOM     75  C   UNL A   1      41.417  31.314  30.693  1.00  0.00     0.049 A 
ATOM     76  C   UNL A   1      46.837  30.703  29.265  1.00  0.00     0.074 A 
ATOM     77  C   UNL A   1      42.044  31.078  31.904  1.00  0.00     0.029 A 
ATOM     78  N   UNL A   1      42.244  32.184  29.990  1.00  0.00    -0.354 N 
ATOM     79  N   UNL A   1      45.765  31.132  29.873  1.00  0.00    -0.248 NA
ATOM     80  C   UNL A   1      47.660  31.807  28.774  1.00  0.00     0.031 C 
ATOM     81  C   UNL A   1      43.319  31.715  31.866  1.00  0.00     0.029 A 
ATOM     82  C   UNL A   1      43.446  32.368  30.651  1.00  0.00     0.049 A 
ATOM     83  H   UNL A   1      42.007  32.611  29.135  1.00  0.00     0.167 HD
ATOM     84  C   UNL A   1      45.650  32.491  29.717  1.00  0.00     0.074 A 
ATOM     85  C   UNL A   1      46.916  32.875  29.116  1.00  0.00     0.031 C 
ATOM     86  C   UNL A   1      44.496  33.165  30.021  1.00  0.00     0.034 A 
BRANCH  73  87
ATOM     87  C   UNL A   1      38.850  30.768  30.579  1.00  0.00     0.023 A 
ATOM     88  C   UNL A   1      38.509  29.770  31.522  1.00  0.00     0.012 A 
ATOM     89  C   UNL A   1      37.792  31.628  30.191  1.00  0.00     0.148 A 
ATOM     90  C   UNL A   1      37.206  29.611  32.018  1.00  0.00     0.002 A 
ATOM     91  C   UNL A   1      36.506  31.506  30.727  1.00  0.00     0.091 A 
ATOM     92  F   UNL A   1      37.977  32.539  29.236  1.00  0.00    -0.205 F 
ATOM     93  C   UNL A   1      36.204  30.484  31.627  1.00  0.00     0.022 A 
BRANCH  91  94
ATOM     94  S   UNL A   1      35.164  32.631  30.288  1.00  0.00     0.127 S 
ATOM     95  O   UNL A   1      35.872  33.901  30.127  1.00  0.00    -0.237 OA
ATOM     96  O   UNL A   1      34.663  32.050  29.042  1.00  0.00    -0.237 OA
ATOM     97  O   UNL A   1      34.214  32.591  31.394  1.00  0.00    -0.744 OA
ENDBRANCH  91  94
ENDBRANCH  73  87
BRANCH  74  98
ATOM     98  C   UNL A   1      47.948  28.664  27.914  1.00  0.00     0.023 A 
ATOM     99  C   UNL A   1      48.906  27.675  28.240  1.00  0.00     0.012 A 
ATOM    100  C   UNL A   1      47.482  28.751  26.588  1.00  0.00     0.148 A 
ATOM    101  C   UNL A   1      49.321  26.735  27.295  1.00  0.00     0.002 A 
ATOM    102  C   UNL A   1      47.881  27.790  25.658  1.00  0.00     0.091 A 
ATOM    103  F   UNL A   1      46.565  29.683  26.298  1.00  0.00    -0.205 F 
ATOM    104  C   UNL A   1      48.788  26.777  26.014  1.00  0.00     0.022 A 
BRANCH 102 105
ATOM    105  S   UNL A   1      47.126  27.639  24.032  1.00  0.00     0.127 S 
ATOM    106  O   UNL A   1      46.051  26.685  24.291  1.00  0.00    -0.237 OA
ATOM    107  O   UNL A   1      46.690  29.014  23.782  1.00  0.00    -0.237 OA
ATOM    108  O   UNL A   1      48.190  27.179  23.153  1.00  0.00    -0.744 OA
ENDBRANCH 102 105
ENDBRANCH  74  98
BRANCH  86 109
ATOM    109  C   UNL A   1      44.204  34.621  29.693  1.00  0.00     0.023 A 
ATOM    110  C   UNL A   1      43.277  35.008  28.706  1.00  0.00     0.012 A 
ATOM    111  C   UNL A   1      44.745  35.661  30.496  1.00  0.00     0.148 A 
ATOM    112  C   UNL A   1      42.940  36.351  28.491  1.00  0.00     0.002 A 
ATOM    113  C   UNL A   1      44.326  36.983  30.347  1.00  0.00     0.091 A 
ATOM    114  F   UNL A   1      45.686  35.379  31.410  1.00  0.00    -0.205 F 
ATOM    115  C   UNL A   1      43.444  37.337  29.326  1.00  0.00     0.022 A 
BRANCH 113 116
ATOM    116  S   UNL A   1      44.787  38.220  31.569  1.00  0.00     0.127 S 
ATOM    117  O   UNL A   1      46.019  38.769  31.008  1.00  0.00    -0.237 OA
ATOM    118  O   UNL A   1      43.647  39.140  31.546  1.00  0.00    -0.237 OA
ATOM    119  O   UNL A   1      44.917  37.469  32.811  1.00  0.00    -0.744 OA
ENDBRANCH 113 116
ENDBRANCH  86 109
ENDBRANCH  60  61
ENDBRANCH  52  55
ENDBRANCH  50  51
ENDBRANCH  49  50
ENDBRANCH  48  49
ENDBRANCH  47  48
ENDBRANCH   3  47
TORSDOF 23
ENDMDL
