MODEL 1
REMARK VINA RESULT:     -12.5      0.000      0.000
REMARK SMILES O=C(NCCCCNC(=O)[C@@H]1CCCC[C@H]1C(=O)Nc1ccc(NC(=O)c2ccco2)cc1)c1ccc(-c2c3nc(c(-c4cccc(S(=O)(=O)[O-])c4F)c4ccc([nH]4)c(-c4cccc(S(=O)(=O)[O-])c4F)c4nc(c(-c5cccc(S(=O)(=O)[O-])c5F)c5ccc2[nH]5)C=C4)C=C3)cc1
REMARK SMILES IDX 6 1 5 2 4 3 3 4 1 5 2 6 34 8 35 9 96 10 36 11 95 12 37 13
REMARK SMILES IDX 38 14 39 15 89 16 40 17 94 18 88 19 90 20 41 21 93 22 87 23
REMARK SMILES IDX 86 24 42 26 74 27 54 28 73 29 55 30 58 31 72 32 91 33 56 34
REMARK SMILES IDX 57 35 71 37 92 38 59 39 43 40 44 41 52 42 45 43 47 44 53 45
REMARK SMILES IDX 46 46 48 47 49 48 50 49 51 50 75 51 76 52 84 53 77 54 79 55
REMARK SMILES IDX 85 56 78 57 80 58 81 59 82 60 83 61 60 62 61 63 69 64 62 65
REMARK SMILES IDX 64 66 70 67 63 68 65 69 66 70 67 71 68 72 7 73 8 74 9 75
REMARK SMILES IDX 10 77 11 78 12 79 16 80 13 81 15 82 14 83 17 84 18 85 19 86
REMARK SMILES IDX 20 88 21 89 33 90 22 91 32 92 23 93 24 94 25 95 26 97 27 98
REMARK SMILES IDX 28 99 31 100 29 101 30 102
REMARK H PARENT 3 7 90 25 58 36 8 76 19 87 24 96
REMARK Flexibility Score: inf
ROOT
ATOM      1  C   UNL A   1      31.398  30.465  26.147  1.00  0.00     0.023 C 
ENDROOT
BRANCH   1   2
ATOM      2  C   UNL A   1      31.280  31.951  26.497  1.00  0.00     0.023 C 
BRANCH   2   3
ATOM      3  C   UNL A   1      32.584  32.622  26.903  1.00  0.00     0.116 C 
BRANCH   3   4
ATOM      4  N   UNL A   1      32.397  33.847  27.668  1.00  0.00    -0.352 N 
ATOM      5  O   UNL A   1      32.876  35.360  29.277  1.00  0.00    -0.269 OA
ATOM      6  C   UNL A   1      33.199  34.348  28.666  1.00  0.00     0.251 C 
ATOM      7  H   UNL A   1      31.600  34.380  27.443  1.00  0.00     0.163 HD
BRANCH   6   8
ATOM      8  C   UNL A   1      34.424  33.605  29.013  1.00  0.00     0.039 A 
ATOM      9  C   UNL A   1      34.328  32.354  29.627  1.00  0.00     0.014 A 
ATOM     10  C   UNL A   1      35.665  34.213  28.819  1.00  0.00     0.014 A 
ATOM     11  C   UNL A   1      35.460  31.787  30.194  1.00  0.00     0.010 A 
ATOM     12  C   UNL A   1      36.813  33.600  29.320  1.00  0.00     0.010 A 
ATOM     13  C   UNL A   1      36.713  32.408  30.055  1.00  0.00    -0.014 A 
BRANCH  13  14
ATOM     14  C   UNL A   1      37.904  31.777  30.675  1.00  0.00     0.031 A 
ATOM     15  C   UNL A   1      38.276  32.055  32.106  1.00  0.00     0.074 A 
ATOM     16  C   UNL A   1      38.637  30.923  29.935  1.00  0.00     0.049 A 
ATOM     17  N   UNL A   1      39.250  31.542  32.813  1.00  0.00    -0.248 NA
ATOM     18  C   UNL A   1      37.461  33.038  32.838  1.00  0.00     0.031 C 
ATOM     19  C   UNL A   1      38.391  30.612  28.525  1.00  0.00     0.029 A 
ATOM     20  N   UNL A   1      39.721  30.152  30.263  1.00  0.00    -0.354 N 
ATOM     21  C   UNL A   1      39.200  32.174  34.050  1.00  0.00     0.074 A 
ATOM     22  C   UNL A   1      38.097  33.110  34.000  1.00  0.00     0.031 C 
ATOM     23  C   UNL A   1      39.272  29.686  28.120  1.00  0.00     0.029 A 
ATOM     24  C   UNL A   1      40.169  29.369  29.226  1.00  0.00     0.049 A 
ATOM     25  H   UNL A   1      40.138  30.158  31.154  1.00  0.00     0.167 HD
ATOM     26  C   UNL A   1      39.990  31.980  35.133  1.00  0.00     0.034 A 
ATOM     27  C   UNL A   1      41.187  28.490  29.170  1.00  0.00     0.034 A 
ATOM     28  C   UNL A   1      41.046  31.003  35.196  1.00  0.00     0.049 A 
ATOM     29  C   UNL A   1      42.000  28.245  30.408  1.00  0.00     0.074 A 
ATOM     30  C   UNL A   1      41.859  30.682  36.268  1.00  0.00     0.029 A 
ATOM     31  N   UNL A   1      41.431  30.185  34.144  1.00  0.00    -0.354 N 
ATOM     32  N   UNL A   1      41.856  28.763  31.604  1.00  0.00    -0.248 NA
ATOM     33  C   UNL A   1      43.097  27.275  30.299  1.00  0.00     0.031 C 
ATOM     34  C   UNL A   1      42.739  29.673  35.863  1.00  0.00     0.029 A 
ATOM     35  C   UNL A   1      42.470  29.360  34.541  1.00  0.00     0.049 A 
ATOM     36  H   UNL A   1      41.025  30.191  33.247  1.00  0.00     0.167 HD
ATOM     37  C   UNL A   1      42.827  28.165  32.396  1.00  0.00     0.074 A 
ATOM     38  C   UNL A   1      43.535  27.225  31.549  1.00  0.00     0.031 C 
ATOM     39  C   UNL A   1      43.121  28.390  33.700  1.00  0.00     0.034 A 
BRANCH  26  40
ATOM     40  C   UNL A   1      39.719  32.806  36.362  1.00  0.00     0.023 A 
ATOM     41  C   UNL A   1      40.340  34.063  36.506  1.00  0.00     0.012 A 
ATOM     42  C   UNL A   1      38.798  32.375  37.338  1.00  0.00     0.148 A 
ATOM     43  C   UNL A   1      40.066  34.869  37.611  1.00  0.00     0.002 A 
ATOM     44  C   UNL A   1      38.504  33.199  38.420  1.00  0.00     0.091 A 
ATOM     45  F   UNL A   1      38.237  31.165  37.201  1.00  0.00    -0.205 F 
ATOM     46  C   UNL A   1      39.141  34.442  38.562  1.00  0.00     0.022 A 
BRANCH  44  47
ATOM     47  S   UNL A   1      37.272  32.760  39.654  1.00  0.00     0.127 S 
ATOM     48  O   UNL A   1      37.796  31.491  40.155  1.00  0.00    -0.237 OA
ATOM     49  O   UNL A   1      37.365  33.873  40.600  1.00  0.00    -0.237 OA
ATOM     50  O   UNL A   1      36.007  32.684  38.937  1.00  0.00    -0.744 OA
ENDBRANCH  44  47
ENDBRANCH  26  40
BRANCH  27  51
ATOM     51  C   UNL A   1      41.428  27.725  27.916  1.00  0.00     0.023 A 
ATOM     52  C   UNL A   1      41.948  28.392  26.791  1.00  0.00     0.012 A 
ATOM     53  C   UNL A   1      41.214  26.335  27.853  1.00  0.00     0.148 A 
ATOM     54  C   UNL A   1      42.236  27.691  25.619  1.00  0.00     0.002 A 
ATOM     55  C   UNL A   1      41.558  25.634  26.703  1.00  0.00     0.091 A 
ATOM     56  F   UNL A   1      40.699  25.720  28.927  1.00  0.00    -0.205 F 
ATOM     57  C   UNL A   1      42.056  26.311  25.580  1.00  0.00     0.022 A 
BRANCH  55  58
ATOM     58  S   UNL A   1      41.500  23.839  26.638  1.00  0.00     0.127 S 
ATOM     59  O   UNL A   1      40.065  23.588  26.556  1.00  0.00    -0.237 OA
ATOM     60  O   UNL A   1      42.249  23.549  25.415  1.00  0.00    -0.237 OA
ATOM     61  O   UNL A   1      42.162  23.392  27.857  1.00  0.00    -0.744 OA
ENDBRANCH  55  58
ENDBRANCH  27  51
BRANCH  39  62
ATOM     62  C   UNL A   1      44.246  27.590  34.299  1.00  0.00     0.023 A 
ATOM     63  C   UNL A   1      45.565  28.079  34.215  1.00  0.00     0.012 A 
ATOM     64  C   UNL A   1      43.993  26.392  34.993  1.00  0.00     0.148 A 
ATOM     65  C   UNL A   1      46.620  27.369  34.787  1.00  0.00     0.002 A 
ATOM     66  C   UNL A   1      45.045  25.711  35.596  1.00  0.00     0.091 A 
ATOM     67  F   UNL A   1      42.736  25.929  35.040  1.00  0.00    -0.205 F 
ATOM     68  C   UNL A   1      46.359  26.193  35.487  1.00  0.00     0.022 A 
BRANCH  66  69
ATOM     69  S   UNL A   1      44.771  24.237  36.585  1.00  0.00     0.127 S 
ATOM     70  O   UNL A   1      44.040  23.382  35.652  1.00  0.00    -0.237 OA
ATOM     71  O   UNL A   1      46.134  23.792  36.881  1.00  0.00    -0.237 OA
ATOM     72  O   UNL A   1      44.023  24.686  37.753  1.00  0.00    -0.744 OA
ENDBRANCH  66  69
ENDBRANCH  39  62
ENDBRANCH  13  14
ENDBRANCH   6   8
ENDBRANCH   3   4
ENDBRANCH   2   3
ENDBRANCH   1   2
BRANCH   1  73
ATOM     73  C   UNL A   1      32.129  29.628  27.196  1.00  0.00     0.116 C 
BRANCH  73  74
ATOM     74  N   UNL A   1      31.534  28.320  27.317  1.00  0.00    -0.356 N 
ATOM     75  C   UNL A   1      31.427  27.269  26.476  1.00  0.00     0.223 C 
ATOM     76  H   UNL A   1      31.120  28.160  28.196  1.00  0.00     0.163 HD
ATOM     77  O   UNL A   1      30.769  26.330  26.938  1.00  0.00    -0.275 OA
BRANCH  75  78
ATOM     78  C   UNL A   1      32.175  27.117  25.134  1.00  0.00     0.091 C 
ATOM     79  C   UNL A   1      33.378  28.030  24.844  1.00  0.00     0.014 C 
ATOM     80  C   UNL A   1      31.154  27.212  23.966  1.00  0.00     0.091 C 
ATOM     81  C   UNL A   1      34.006  27.749  23.480  1.00  0.00     0.001 C 
ATOM     82  C   UNL A   1      31.791  27.047  22.574  1.00  0.00     0.014 C 
ATOM     83  C   UNL A   1      32.993  27.959  22.372  1.00  0.00     0.001 C 
BRANCH  80  84
ATOM     84  C   UNL A   1      29.839  26.400  24.005  1.00  0.00     0.228 C 
ATOM     85  O   UNL A   1      28.773  26.991  23.776  1.00  0.00    -0.274 OA
ATOM     86  N   UNL A   1      29.766  25.036  24.050  1.00  0.00    -0.326 N 
ATOM     87  H   UNL A   1      28.852  24.675  24.001  1.00  0.00     0.169 HD
BRANCH  86  88
ATOM     88  C   UNL A   1      30.763  24.070  24.154  1.00  0.00     0.041 A 
ATOM     89  C   UNL A   1      31.135  23.646  25.425  1.00  0.00     0.028 A 
ATOM     90  C   UNL A   1      31.434  23.553  23.058  1.00  0.00     0.028 A 
ATOM     91  C   UNL A   1      31.994  22.553  25.574  1.00  0.00     0.028 A 
ATOM     92  C   UNL A   1      32.260  22.434  23.201  1.00  0.00     0.028 A 
ATOM     93  C   UNL A   1      32.477  21.868  24.461  1.00  0.00     0.041 A 
BRANCH  93  94
ATOM     94  N   UNL A   1      33.154  20.636  24.486  1.00  0.00    -0.319 N 
ATOM     95  C   UNL A   1      34.476  20.280  24.670  1.00  0.00     0.291 C 
ATOM     96  H   UNL A   1      32.560  19.864  24.343  1.00  0.00     0.170 HD
ATOM     97  O   UNL A   1      34.736  19.075  24.672  1.00  0.00    -0.265 OA
BRANCH  95  98
ATOM     98  C   UNL A   1      35.486  21.282  24.880  1.00  0.00     0.191 A 
ATOM     99  C   UNL A   1      36.412  21.870  24.035  1.00  0.00     0.056 A 
ATOM    100  O   UNL A   1      35.622  21.804  26.138  1.00  0.00    -0.459 OA
ATOM    101  C   UNL A   1      37.177  22.758  24.832  1.00  0.00     0.043 A 
ATOM    102  C   UNL A   1      36.649  22.688  26.100  1.00  0.00     0.196 A 
ENDBRANCH  95  98
ENDBRANCH  93  94
ENDBRANCH  86  88
ENDBRANCH  80  84
ENDBRANCH  75  78
ENDBRANCH  73  74
ENDBRANCH   1  73
TORSDOF 18
ENDMDL
MODEL 2
REMARK VINA RESULT:     -12.4      3.116      5.280
REMARK SMILES O=C(NCCCCNC(=O)[C@@H]1CCCC[C@H]1C(=O)Nc1ccc(NC(=O)c2ccco2)cc1)c1ccc(-c2c3nc(c(-c4cccc(S(=O)(=O)[O-])c4F)c4ccc([nH]4)c(-c4cccc(S(=O)(=O)[O-])c4F)c4nc(c(-c5cccc(S(=O)(=O)[O-])c5F)c5ccc2[nH]5)C=C4)C=C3)cc1
REMARK SMILES IDX 6 1 5 2 4 3 3 4 1 5 2 6 34 8 35 9 96 10 36 11 95 12 37 13
REMARK SMILES IDX 38 14 39 15 89 16 40 17 94 18 88 19 90 20 41 21 93 22 87 23
REMARK SMILES IDX 86 24 42 26 74 27 54 28 73 29 55 30 58 31 72 32 91 33 56 34
REMARK SMILES IDX 57 35 71 37 92 38 59 39 43 40 44 41 52 42 45 43 47 44 53 45
REMARK SMILES IDX 46 46 48 47 49 48 50 49 51 50 75 51 76 52 84 53 77 54 79 55
REMARK SMILES IDX 85 56 78 57 80 58 81 59 82 60 83 61 60 62 61 63 69 64 62 65
REMARK SMILES IDX 64 66 70 67 63 68 65 69 66 70 67 71 68 72 7 73 8 74 9 75
REMARK SMILES IDX 10 77 11 78 12 79 16 80 13 81 15 82 14 83 17 84 18 85 19 86
REMARK SMILES IDX 20 88 21 89 33 90 22 91 32 92 23 93 24 94 25 95 26 97 27 98
REMARK SMILES IDX 28 99 31 100 29 101 30 102
REMARK H PARENT 3 7 90 25 58 36 8 76 19 87 24 96
REMARK Flexibility Score: inf
ROOT
ATOM      1  C   UNL A   1      31.626  27.074  26.968  1.00  0.00     0.023 C 
ENDROOT
BRANCH   1   2
ATOM      2  C   UNL A   1      32.348  28.178  27.747  1.00  0.00     0.023 C 
BRANCH   2   3
ATOM      3  C   UNL A   1      33.455  28.889  26.980  1.00  0.00     0.116 C 
BRANCH   3   4
ATOM      4  N   UNL A   1      33.519  30.320  27.243  1.00  0.00    -0.352 N 
ATOM      5  O   UNL A   1      34.436  32.223  28.044  1.00  0.00    -0.269 OA
ATOM      6  C   UNL A   1      34.552  31.025  27.815  1.00  0.00     0.251 C 
ATOM      7  H   UNL A   1      32.729  30.845  26.979  1.00  0.00     0.163 HD
BRANCH   6   8
ATOM      8  C   UNL A   1      35.771  30.288  28.194  1.00  0.00     0.039 A 
ATOM      9  C   UNL A   1      35.852  29.674  29.445  1.00  0.00     0.014 A 
ATOM     10  C   UNL A   1      36.871  30.310  27.335  1.00  0.00     0.014 A 
ATOM     11  C   UNL A   1      37.082  29.223  29.903  1.00  0.00     0.010 A 
ATOM     12  C   UNL A   1      38.088  29.782  27.768  1.00  0.00     0.010 A 
ATOM     13  C   UNL A   1      38.215  29.281  29.073  1.00  0.00    -0.014 A 
BRANCH  13  14
ATOM     14  C   UNL A   1      39.516  28.793  29.593  1.00  0.00     0.031 A 
ATOM     15  C   UNL A   1      40.115  29.362  30.850  1.00  0.00     0.074 A 
ATOM     16  C   UNL A   1      40.143  27.804  28.928  1.00  0.00     0.049 A 
ATOM     17  N   UNL A   1      41.213  29.008  31.467  1.00  0.00    -0.248 NA
ATOM     18  C   UNL A   1      39.401  30.476  31.495  1.00  0.00     0.031 C 
ATOM     19  C   UNL A   1      39.673  27.206  27.676  1.00  0.00     0.029 A 
ATOM     20  N   UNL A   1      41.294  27.118  29.213  1.00  0.00    -0.354 N 
ATOM     21  C   UNL A   1      41.350  29.883  32.538  1.00  0.00     0.074 A 
ATOM     22  C   UNL A   1      40.221  30.788  32.489  1.00  0.00     0.031 C 
ATOM     23  C   UNL A   1      40.505  26.216  27.322  1.00  0.00     0.029 A 
ATOM     24  C   UNL A   1      41.588  26.137  28.297  1.00  0.00     0.049 A 
ATOM     25  H   UNL A   1      41.856  27.310  29.998  1.00  0.00     0.167 HD
ATOM     26  C   UNL A   1      42.319  29.918  33.484  1.00  0.00     0.034 A 
ATOM     27  C   UNL A   1      42.613  25.266  28.246  1.00  0.00     0.034 A 
ATOM     28  C   UNL A   1      43.405  28.977  33.561  1.00  0.00     0.049 A 
ATOM     29  C   UNL A   1      43.633  25.284  29.348  1.00  0.00     0.074 A 
ATOM     30  C   UNL A   1      44.399  28.885  34.518  1.00  0.00     0.029 A 
ATOM     31  N   UNL A   1      43.635  27.958  32.648  1.00  0.00    -0.354 N 
ATOM     32  N   UNL A   1      43.674  26.039  30.419  1.00  0.00    -0.248 NA
ATOM     33  C   UNL A   1      44.730  24.312  29.251  1.00  0.00     0.031 C 
ATOM     34  C   UNL A   1      45.234  27.814  34.182  1.00  0.00     0.029 A 
ATOM     35  C   UNL A   1      44.756  27.233  33.019  1.00  0.00     0.049 A 
ATOM     36  H   UNL A   1      43.084  27.777  31.854  1.00  0.00     0.167 HD
ATOM     37  C   UNL A   1      44.787  25.619  31.136  1.00  0.00     0.074 A 
ATOM     38  C   UNL A   1      45.374  24.523  30.390  1.00  0.00     0.031 C 
ATOM     39  C   UNL A   1      45.290  26.110  32.295  1.00  0.00     0.034 A 
BRANCH  26  40
ATOM     40  C   UNL A   1      42.230  30.982  34.546  1.00  0.00     0.023 A 
ATOM     41  C   UNL A   1      41.590  30.693  35.767  1.00  0.00     0.012 A 
ATOM     42  C   UNL A   1      42.840  32.240  34.366  1.00  0.00     0.148 A 
ATOM     43  C   UNL A   1      41.538  31.645  36.786  1.00  0.00     0.002 A 
ATOM     44  C   UNL A   1      42.814  33.172  35.399  1.00  0.00     0.091 A 
ATOM     45  F   UNL A   1      43.421  32.509  33.188  1.00  0.00    -0.205 F 
ATOM     46  C   UNL A   1      42.159  32.879  36.606  1.00  0.00     0.022 A 
BRANCH  44  47
ATOM     47  S   UNL A   1      43.650  34.759  35.280  1.00  0.00     0.127 S 
ATOM     48  O   UNL A   1      42.878  35.421  34.230  1.00  0.00    -0.237 OA
ATOM     49  O   UNL A   1      43.459  35.316  36.620  1.00  0.00    -0.237 OA
ATOM     50  O   UNL A   1      45.035  34.451  34.950  1.00  0.00    -0.744 OA
ENDBRANCH  44  47
ENDBRANCH  26  40
BRANCH  27  51
ATOM     51  C   UNL A   1      42.665  24.257  27.153  1.00  0.00     0.023 A 
ATOM     52  C   UNL A   1      43.424  24.529  26.000  1.00  0.00     0.012 A 
ATOM     53  C   UNL A   1      42.030  23.006  27.279  1.00  0.00     0.148 A 
ATOM     54  C   UNL A   1      43.537  23.580  24.983  1.00  0.00     0.002 A 
ATOM     55  C   UNL A   1      42.194  22.045  26.289  1.00  0.00     0.091 A 
ATOM     56  F   UNL A   1      41.294  22.773  28.374  1.00  0.00    -0.205 F 
ATOM     57  C   UNL A   1      42.936  22.333  25.134  1.00  0.00     0.022 A 
BRANCH  55  58
ATOM     58  S   UNL A   1      41.580  20.368  26.490  1.00  0.00     0.127 S 
ATOM     59  O   UNL A   1      40.136  20.566  26.411  1.00  0.00    -0.237 OA
ATOM     60  O   UNL A   1      42.173  19.682  25.341  1.00  0.00    -0.237 OA
ATOM     61  O   UNL A   1      42.099  19.923  27.777  1.00  0.00    -0.744 OA
ENDBRANCH  55  58
ENDBRANCH  27  51
BRANCH  39  62
ATOM     62  C   UNL A   1      46.528  25.452  32.840  1.00  0.00     0.023 A 
ATOM     63  C   UNL A   1      47.795  25.947  32.472  1.00  0.00     0.012 A 
ATOM     64  C   UNL A   1      46.439  24.389  33.759  1.00  0.00     0.148 A 
ATOM     65  C   UNL A   1      48.956  25.372  32.987  1.00  0.00     0.002 A 
ATOM     66  C   UNL A   1      47.601  23.848  34.299  1.00  0.00     0.091 A 
ATOM     67  F   UNL A   1      45.226  23.915  34.078  1.00  0.00    -0.205 F 
ATOM     68  C   UNL A   1      48.859  24.331  33.908  1.00  0.00     0.022 A 
BRANCH  66  69
ATOM     69  S   UNL A   1      47.547  22.565  35.555  1.00  0.00     0.127 S 
ATOM     70  O   UNL A   1      46.818  21.502  34.867  1.00  0.00    -0.237 OA
ATOM     71  O   UNL A   1      48.965  22.282  35.784  1.00  0.00    -0.237 OA
ATOM     72  O   UNL A   1      46.867  23.166  36.696  1.00  0.00    -0.744 OA
ENDBRANCH  66  69
ENDBRANCH  39  62
ENDBRANCH  13  14
ENDBRANCH   6   8
ENDBRANCH   3   4
ENDBRANCH   2   3
ENDBRANCH   1   2
BRANCH   1  73
ATOM     73  C   UNL A   1      32.547  25.981  26.428  1.00  0.00     0.116 C 
BRANCH  73  74
ATOM     74  N   UNL A   1      31.849  24.723  26.329  1.00  0.00    -0.356 N 
ATOM     75  C   UNL A   1      32.178  23.519  25.815  1.00  0.00     0.223 C 
ATOM     76  H   UNL A   1      30.945  24.748  26.718  1.00  0.00     0.163 HD
ATOM     77  O   UNL A   1      31.261  22.692  25.862  1.00  0.00    -0.275 OA
BRANCH  75  78
ATOM     78  C   UNL A   1      33.591  23.096  25.361  1.00  0.00     0.091 C 
ATOM     79  C   UNL A   1      34.806  23.549  26.187  1.00  0.00     0.014 C 
ATOM     80  C   UNL A   1      33.792  23.498  23.872  1.00  0.00     0.091 C 
ATOM     81  C   UNL A   1      36.126  23.043  25.606  1.00  0.00     0.001 C 
ATOM     82  C   UNL A   1      35.167  23.097  23.305  1.00  0.00     0.014 C 
ATOM     83  C   UNL A   1      36.318  23.552  24.192  1.00  0.00     0.001 C 
BRANCH  80  84
ATOM     84  C   UNL A   1      32.711  23.171  22.819  1.00  0.00     0.228 C 
ATOM     85  O   UNL A   1      32.576  21.992  22.457  1.00  0.00    -0.274 OA
ATOM     86  N   UNL A   1      31.733  24.034  22.410  1.00  0.00    -0.326 N 
ATOM     87  H   UNL A   1      31.082  23.646  21.783  1.00  0.00     0.169 HD
BRANCH  86  88
ATOM     88  C   UNL A   1      31.501  25.369  22.731  1.00  0.00     0.041 A 
ATOM     89  C   UNL A   1      30.274  25.706  23.289  1.00  0.00     0.028 A 
ATOM     90  C   UNL A   1      32.413  26.379  22.472  1.00  0.00     0.028 A 
ATOM     91  C   UNL A   1      30.065  26.992  23.795  1.00  0.00     0.028 A 
ATOM     92  C   UNL A   1      32.224  27.654  23.013  1.00  0.00     0.028 A 
ATOM     93  C   UNL A   1      31.079  27.947  23.759  1.00  0.00     0.041 A 
BRANCH  93  94
ATOM     94  N   UNL A   1      31.066  29.183  24.430  1.00  0.00    -0.319 N 
ATOM     95  C   UNL A   1      30.362  30.357  24.246  1.00  0.00     0.291 C 
ATOM     96  H   UNL A   1      31.689  29.218  25.191  1.00  0.00     0.170 HD
ATOM     97  O   UNL A   1      30.565  31.264  25.056  1.00  0.00    -0.265 OA
BRANCH  95  98
ATOM     98  C   UNL A   1      29.414  30.487  23.171  1.00  0.00     0.191 A 
ATOM     99  C   UNL A   1      29.415  30.035  21.863  1.00  0.00     0.056 A 
ATOM    100  O   UNL A   1      28.262  31.185  23.412  1.00  0.00    -0.459 OA
ATOM    101  C   UNL A   1      28.225  30.523  21.268  1.00  0.00     0.043 A 
ATOM    102  C   UNL A   1      27.555  31.207  22.255  1.00  0.00     0.196 A 
ENDBRANCH  95  98
ENDBRANCH  93  94
ENDBRANCH  86  88
ENDBRANCH  80  84
ENDBRANCH  75  78
ENDBRANCH  73  74
ENDBRANCH   1  73
TORSDOF 18
ENDMDL
MODEL 3
REMARK VINA RESULT:     -12.4      4.953     10.682
REMARK SMILES O=C(NCCCCNC(=O)[C@@H]1CCCC[C@H]1C(=O)Nc1ccc(NC(=O)c2ccco2)cc1)c1ccc(-c2c3nc(c(-c4cccc(S(=O)(=O)[O-])c4F)c4ccc([nH]4)c(-c4cccc(S(=O)(=O)[O-])c4F)c4nc(c(-c5cccc(S(=O)(=O)[O-])c5F)c5ccc2[nH]5)C=C4)C=C3)cc1
REMARK SMILES IDX 6 1 5 2 4 3 3 4 1 5 2 6 34 8 35 9 96 10 36 11 95 12 37 13
REMARK SMILES IDX 38 14 39 15 89 16 40 17 94 18 88 19 90 20 41 21 93 22 87 23
REMARK SMILES IDX 86 24 42 26 74 27 54 28 73 29 55 30 58 31 72 32 91 33 56 34
REMARK SMILES IDX 57 35 71 37 92 38 59 39 43 40 44 41 52 42 45 43 47 44 53 45
REMARK SMILES IDX 46 46 48 47 49 48 50 49 51 50 75 51 76 52 84 53 77 54 79 55
REMARK SMILES IDX 85 56 78 57 80 58 81 59 82 60 83 61 60 62 61 63 69 64 62 65
REMARK SMILES IDX 64 66 70 67 63 68 65 69 66 70 67 71 68 72 7 73 8 74 9 75
REMARK SMILES IDX 10 77 11 78 12 79 16 80 13 81 15 82 14 83 17 84 18 85 19 86
REMARK SMILES IDX 20 88 21 89 33 90 22 91 32 92 23 93 24 94 25 95 26 97 27 98
REMARK SMILES IDX 28 99 31 100 29 101 30 102
REMARK H PARENT 3 7 90 25 58 36 8 76 19 87 24 96
REMARK Flexibility Score: inf
ROOT
ATOM      1  C   UNL A   1      34.641  21.268  26.344  1.00  0.00     0.023 C 
ENDROOT
BRANCH   1   2
ATOM      2  C   UNL A   1      35.527  20.861  25.162  1.00  0.00     0.023 C 
BRANCH   2   3
ATOM      3  C   UNL A   1      36.960  21.369  25.227  1.00  0.00     0.116 C 
BRANCH   3   4
ATOM      4  N   UNL A   1      37.953  20.307  25.305  1.00  0.00    -0.352 N 
ATOM      5  O   UNL A   1      39.978  19.416  25.766  1.00  0.00    -0.269 OA
ATOM      6  C   UNL A   1      39.220  20.376  25.836  1.00  0.00     0.251 C 
ATOM      7  H   UNL A   1      37.686  19.436  24.933  1.00  0.00     0.163 HD
BRANCH   6   8
ATOM      8  C   UNL A   1      39.653  21.650  26.438  1.00  0.00     0.039 A 
ATOM      9  C   UNL A   1      39.106  22.854  25.989  1.00  0.00     0.014 A 
ATOM     10  C   UNL A   1      40.686  21.640  27.376  1.00  0.00     0.014 A 
ATOM     11  C   UNL A   1      39.704  24.050  26.356  1.00  0.00     0.010 A 
ATOM     12  C   UNL A   1      41.232  22.850  27.806  1.00  0.00     0.010 A 
ATOM     13  C   UNL A   1      40.779  24.061  27.261  1.00  0.00    -0.014 A 
BRANCH  13  14
ATOM     14  C   UNL A   1      41.398  25.357  27.632  1.00  0.00     0.031 A 
ATOM     15  C   UNL A   1      42.797  25.704  27.201  1.00  0.00     0.074 A 
ATOM     16  C   UNL A   1      40.668  26.237  28.344  1.00  0.00     0.049 A 
ATOM     17  N   UNL A   1      43.462  26.814  27.394  1.00  0.00    -0.248 NA
ATOM     18  C   UNL A   1      43.554  24.674  26.471  1.00  0.00     0.031 C 
ATOM     19  C   UNL A   1      39.316  25.990  28.849  1.00  0.00     0.029 A 
ATOM     20  N   UNL A   1      40.948  27.514  28.753  1.00  0.00    -0.354 N 
ATOM     21  C   UNL A   1      44.726  26.602  26.858  1.00  0.00     0.074 A 
ATOM     22  C   UNL A   1      44.739  25.254  26.330  1.00  0.00     0.031 C 
ATOM     23  C   UNL A   1      38.868  27.093  29.465  1.00  0.00     0.029 A 
ATOM     24  C   UNL A   1      39.914  28.109  29.435  1.00  0.00     0.049 A 
ATOM     25  H   UNL A   1      41.806  27.962  28.576  1.00  0.00     0.167 HD
ATOM     26  C   UNL A   1      45.775  27.457  26.797  1.00  0.00     0.034 A 
ATOM     27  C   UNL A   1      39.815  29.338  29.976  1.00  0.00     0.034 A 
ATOM     28  C   UNL A   1      45.735  28.816  27.269  1.00  0.00     0.049 A 
ATOM     29  C   UNL A   1      40.969  30.288  29.830  1.00  0.00     0.074 A 
ATOM     30  C   UNL A   1      46.721  29.784  27.193  1.00  0.00     0.029 A 
ATOM     31  N   UNL A   1      44.648  29.402  27.900  1.00  0.00    -0.354 N 
ATOM     32  N   UNL A   1      42.110  30.108  29.209  1.00  0.00    -0.248 NA
ATOM     33  C   UNL A   1      40.812  31.618  30.432  1.00  0.00     0.031 C 
ATOM     34  C   UNL A   1      46.233  30.954  27.782  1.00  0.00     0.029 A 
ATOM     35  C   UNL A   1      44.939  30.719  28.219  1.00  0.00     0.049 A 
ATOM     36  H   UNL A   1      43.797  28.950  28.094  1.00  0.00     0.167 HD
ATOM     37  C   UNL A   1      42.798  31.309  29.325  1.00  0.00     0.074 A 
ATOM     38  C   UNL A   1      41.932  32.217  30.051  1.00  0.00     0.031 C 
ATOM     39  C   UNL A   1      44.042  31.624  28.890  1.00  0.00     0.034 A 
BRANCH  26  40
ATOM     40  C   UNL A   1      47.048  26.969  26.156  1.00  0.00     0.023 A 
ATOM     41  C   UNL A   1      47.278  27.221  24.789  1.00  0.00     0.012 A 
ATOM     42  C   UNL A   1      48.044  26.327  26.918  1.00  0.00     0.148 A 
ATOM     43  C   UNL A   1      48.470  26.823  24.184  1.00  0.00     0.002 A 
ATOM     44  C   UNL A   1      49.245  25.964  26.316  1.00  0.00     0.091 A 
ATOM     45  F   UNL A   1      47.798  26.070  28.211  1.00  0.00    -0.205 F 
ATOM     46  C   UNL A   1      49.457  26.205  24.949  1.00  0.00     0.022 A 
BRANCH  44  47
ATOM     47  S   UNL A   1      50.599  25.228  27.242  1.00  0.00     0.127 S 
ATOM     48  O   UNL A   1      51.516  24.847  26.169  1.00  0.00    -0.237 OA
ATOM     49  O   UNL A   1      51.059  26.346  28.068  1.00  0.00    -0.237 OA
ATOM     50  O   UNL A   1      50.010  24.128  27.993  1.00  0.00    -0.744 OA
ENDBRANCH  44  47
ENDBRANCH  26  40
BRANCH  27  51
ATOM     51  C   UNL A   1      38.542  29.754  30.625  1.00  0.00     0.023 A 
ATOM     52  C   UNL A   1      38.316  29.420  31.974  1.00  0.00     0.012 A 
ATOM     53  C   UNL A   1      37.591  30.535  29.943  1.00  0.00     0.148 A 
ATOM     54  C   UNL A   1      37.158  29.843  32.627  1.00  0.00     0.002 A 
ATOM     55  C   UNL A   1      36.468  31.002  30.615  1.00  0.00     0.091 A 
ATOM     56  F   UNL A   1      37.812  30.825  28.653  1.00  0.00    -0.205 F 
ATOM     57  C   UNL A   1      36.241  30.646  31.953  1.00  0.00     0.022 A 
BRANCH  55  58
ATOM     58  S   UNL A   1      35.329  32.166  29.857  1.00  0.00     0.127 S 
ATOM     59  O   UNL A   1      34.434  32.477  30.967  1.00  0.00    -0.237 OA
ATOM     60  O   UNL A   1      36.220  33.256  29.457  1.00  0.00    -0.237 OA
ATOM     61  O   UNL A   1      34.735  31.446  28.737  1.00  0.00    -0.744 OA
ENDBRANCH  55  58
ENDBRANCH  27  51
BRANCH  39  62
ATOM     62  C   UNL A   1      44.536  33.017  29.170  1.00  0.00     0.023 A 
ATOM     63  C   UNL A   1      45.132  33.304  30.414  1.00  0.00     0.012 A 
ATOM     64  C   UNL A   1      44.466  34.021  28.186  1.00  0.00     0.148 A 
ATOM     65  C   UNL A   1      45.623  34.581  30.685  1.00  0.00     0.002 A 
ATOM     66  C   UNL A   1      44.995  35.280  28.449  1.00  0.00     0.091 A 
ATOM     67  F   UNL A   1      43.872  33.737  27.017  1.00  0.00    -0.205 F 
ATOM     68  C   UNL A   1      45.565  35.564  29.700  1.00  0.00     0.022 A 
BRANCH  66  69
ATOM     69  S   UNL A   1      45.031  36.568  27.197  1.00  0.00     0.127 S 
ATOM     70  O   UNL A   1      43.609  36.757  26.921  1.00  0.00    -0.237 OA
ATOM     71  O   UNL A   1      45.669  37.681  27.903  1.00  0.00    -0.237 OA
ATOM     72  O   UNL A   1      45.824  36.023  26.103  1.00  0.00    -0.744 OA
ENDBRANCH  66  69
ENDBRANCH  39  62
ENDBRANCH  13  14
ENDBRANCH   6   8
ENDBRANCH   3   4
ENDBRANCH   2   3
ENDBRANCH   1   2
BRANCH   1  73
ATOM     73  C   UNL A   1      33.142  21.195  26.060  1.00  0.00     0.116 C 
BRANCH  73  74
ATOM     74  N   UNL A   1      32.425  22.191  26.819  1.00  0.00    -0.356 N 
ATOM     75  C   UNL A   1      31.997  23.439  26.538  1.00  0.00     0.223 C 
ATOM     76  H   UNL A   1      32.202  21.897  27.732  1.00  0.00     0.163 HD
ATOM     77  O   UNL A   1      31.468  24.010  27.498  1.00  0.00    -0.275 OA
BRANCH  75  78
ATOM     78  C   UNL A   1      31.976  24.083  25.135  1.00  0.00     0.091 C 
ATOM     79  C   UNL A   1      31.181  23.397  24.012  1.00  0.00     0.014 C 
ATOM     80  C   UNL A   1      33.437  24.331  24.664  1.00  0.00     0.091 C 
ATOM     81  C   UNL A   1      31.259  24.163  22.692  1.00  0.00     0.001 C 
ATOM     82  C   UNL A   1      33.534  24.998  23.279  1.00  0.00     0.014 C 
ATOM     83  C   UNL A   1      32.697  24.283  22.228  1.00  0.00     0.001 C 
BRANCH  80  84
ATOM     84  C   UNL A   1      34.461  25.001  25.607  1.00  0.00     0.228 C 
ATOM     85  O   UNL A   1      35.483  24.369  25.914  1.00  0.00    -0.274 OA
ATOM     86  N   UNL A   1      34.452  26.322  25.957  1.00  0.00    -0.326 N 
ATOM     87  H   UNL A   1      35.215  26.603  26.512  1.00  0.00     0.169 HD
BRANCH  86  88
ATOM     88  C   UNL A   1      33.546  27.339  25.665  1.00  0.00     0.041 A 
ATOM     89  C   UNL A   1      32.439  27.488  26.491  1.00  0.00     0.028 A 
ATOM     90  C   UNL A   1      33.671  28.171  24.564  1.00  0.00     0.028 A 
ATOM     91  C   UNL A   1      31.605  28.602  26.350  1.00  0.00     0.028 A 
ATOM     92  C   UNL A   1      32.865  29.307  24.445  1.00  0.00     0.028 A 
ATOM     93  C   UNL A   1      31.875  29.579  25.394  1.00  0.00     0.041 A 
BRANCH  93  94
ATOM     94  N   UNL A   1      31.252  30.836  25.308  1.00  0.00    -0.319 N 
ATOM     95  C   UNL A   1      30.178  31.318  24.586  1.00  0.00     0.291 C 
ATOM     96  H   UNL A   1      31.669  31.517  25.885  1.00  0.00     0.170 HD
ATOM     97  O   UNL A   1      29.858  32.494  24.775  1.00  0.00    -0.265 OA
BRANCH  95  98
ATOM     98  C   UNL A   1      29.456  30.463  23.681  1.00  0.00     0.191 A 
ATOM     99  C   UNL A   1      28.108  30.327  23.395  1.00  0.00     0.056 A 
ATOM    100  O   UNL A   1      30.175  29.580  22.921  1.00  0.00    -0.459 OA
ATOM    101  C   UNL A   1      28.001  29.278  22.448  1.00  0.00     0.043 A 
ATOM    102  C   UNL A   1      29.287  28.866  22.186  1.00  0.00     0.196 A 
ENDBRANCH  95  98
ENDBRANCH  93  94
ENDBRANCH  86  88
ENDBRANCH  80  84
ENDBRANCH  75  78
ENDBRANCH  73  74
ENDBRANCH   1  73
TORSDOF 18
ENDMDL
