MODEL 1
REMARK VINA RESULT:     -12.4      0.000      0.000
REMARK SMILES CC[C@@H](C(=O)NCCCCNC(=O)c1ccc(-c2c3nc(c(-c4cccc(S(=O)(=O)[O-])c4F)c4ccc([nH]4)c(-c4cccc(S(=O)(=O)[O-])c4F)c4nc(c(-c5cccc(S(=O)(=O)[O-])c5F)c5ccc2[nH]5)C=C4)C=C3)cc1)N1C(=O)/C(=C/C(C)=C/c2ccccc2)SC1=S
REMARK SMILES IDX 8 1 7 2 6 3 4 4 5 5 3 7 2 8 1 9 77 10 78 11 92 12 79 13
REMARK SMILES IDX 80 14 91 15 93 16 81 17 82 18 83 19 84 20 85 21 86 22 90 23
REMARK SMILES IDX 87 24 89 25 88 26 9 27 10 28 11 29 12 30 13 32 14 33 15 34
REMARK SMILES IDX 76 35 16 36 75 37 17 38 18 39 19 40 69 41 20 42 74 43 68 44
REMARK SMILES IDX 70 45 21 46 73 47 67 48 66 49 22 51 54 52 34 53 53 54 35 55
REMARK SMILES IDX 38 56 52 57 71 58 36 59 37 60 51 62 72 63 39 64 23 65 24 66
REMARK SMILES IDX 32 67 25 68 27 69 33 70 26 71 28 72 29 73 30 74 31 75 55 76
REMARK SMILES IDX 56 77 64 78 57 79 59 80 65 81 58 82 60 83 61 84 62 85 63 86
REMARK SMILES IDX 40 87 41 88 49 89 42 90 44 91 50 92 43 93 45 94 46 95 47 96
REMARK SMILES IDX 48 97
REMARK H PARENT 6 6 11 31 70 50 38 61
REMARK Flexibility Score: inf
ROOT
ATOM      1  C   UNL A   1      32.414  28.321  26.927  1.00  0.00     0.023 C 
ENDROOT
BRANCH   1   2
ATOM      2  C   UNL A   1      31.441  27.152  26.802  1.00  0.00     0.116 C 
BRANCH   2   3
ATOM      3  N   UNL A   1      30.706  27.196  25.557  1.00  0.00    -0.354 N 
ATOM      4  C   UNL A   1      31.135  27.043  24.274  1.00  0.00     0.243 C 
ATOM      5  O   UNL A   1      30.257  26.935  23.412  1.00  0.00    -0.273 OA
ATOM      6  H   UNL A   1      29.741  27.363  25.654  1.00  0.00     0.163 HD
BRANCH   4   7
ATOM      7  C   UNL A   1      32.647  26.946  23.929  1.00  0.00     0.181 C 
BRANCH   7   8
ATOM      8  C   UNL A   1      33.134  27.817  22.751  1.00  0.00     0.032 C 
ATOM      9  C   UNL A   1      34.416  28.602  23.002  1.00  0.00     0.006 C 
ENDBRANCH   7   8
BRANCH   7  10
ATOM     10  N   UNL A   1      32.915  25.508  23.667  1.00  0.00    -0.280 N 
ATOM     11  C   UNL A   1      33.299  24.691  24.725  1.00  0.00     0.266 C 
ATOM     12  C   UNL A   1      32.881  24.912  22.425  1.00  0.00     0.149 C 
ATOM     13  O   UNL A   1      33.339  25.006  25.907  1.00  0.00    -0.268 OA
ATOM     14  C   UNL A   1      33.573  23.311  24.248  1.00  0.00     0.080 C 
ATOM     15  S   UNL A   1      33.404  23.236  22.545  1.00  0.00    -0.054 SA
ATOM     16  S   UNL A   1      32.375  25.568  20.976  1.00  0.00    -0.052 S 
ATOM     17  C   UNL A   1      33.852  22.336  25.126  1.00  0.00     0.024 C 
BRANCH  17  18
ATOM     18  C   UNL A   1      34.061  20.908  24.907  1.00  0.00    -0.049 C 
ATOM     19  C   UNL A   1      35.501  20.473  25.020  1.00  0.00     0.044 C 
ATOM     20  C   UNL A   1      33.028  20.063  24.726  1.00  0.00     0.011 C 
BRANCH  20  21
ATOM     21  C   UNL A   1      33.084  18.603  24.608  1.00  0.00    -0.025 A 
ATOM     22  C   UNL A   1      32.829  17.817  25.738  1.00  0.00     0.008 A 
ATOM     23  C   UNL A   1      33.501  17.987  23.424  1.00  0.00     0.008 A 
ATOM     24  C   UNL A   1      32.989  16.431  25.683  1.00  0.00     0.001 A 
ATOM     25  C   UNL A   1      33.661  16.601  23.370  1.00  0.00     0.001 A 
ATOM     26  C   UNL A   1      33.409  15.825  24.500  1.00  0.00     0.000 A 
ENDBRANCH  20  21
ENDBRANCH  17  18
ENDBRANCH   7  10
ENDBRANCH   4   7
ENDBRANCH   2   3
ENDBRANCH   1   2
BRANCH   1  27
ATOM     27  C   UNL A   1      31.773  29.705  26.925  1.00  0.00     0.023 C 
BRANCH  27  28
ATOM     28  C   UNL A   1      32.592  30.802  26.261  1.00  0.00     0.116 C 
BRANCH  28  29
ATOM     29  N   UNL A   1      32.297  32.138  26.769  1.00  0.00    -0.352 N 
ATOM     30  C   UNL A   1      33.065  32.911  27.613  1.00  0.00     0.251 C 
ATOM     31  H   UNL A   1      31.446  32.534  26.475  1.00  0.00     0.163 HD
ATOM     32  O   UNL A   1      32.649  33.984  28.036  1.00  0.00    -0.269 OA
BRANCH  30  33
ATOM     33  C   UNL A   1      34.385  32.396  28.026  1.00  0.00     0.039 A 
ATOM     34  C   UNL A   1      35.494  33.243  27.978  1.00  0.00     0.014 A 
ATOM     35  C   UNL A   1      34.484  31.116  28.574  1.00  0.00     0.014 A 
ATOM     36  C   UNL A   1      36.693  32.835  28.569  1.00  0.00     0.010 A 
ATOM     37  C   UNL A   1      35.650  30.749  29.232  1.00  0.00     0.010 A 
ATOM     38  C   UNL A   1      36.763  31.605  29.243  1.00  0.00    -0.014 A 
BRANCH  38  39
ATOM     39  C   UNL A   1      37.976  31.172  29.980  1.00  0.00     0.031 A 
ATOM     40  C   UNL A   1      38.884  30.147  29.360  1.00  0.00     0.074 A 
ATOM     41  C   UNL A   1      38.177  31.578  31.250  1.00  0.00     0.049 A 
ATOM     42  N   UNL A   1      39.871  29.482  29.900  1.00  0.00    -0.248 NA
ATOM     43  C   UNL A   1      38.616  29.789  27.956  1.00  0.00     0.031 C 
ATOM     44  C   UNL A   1      37.325  32.512  31.990  1.00  0.00     0.029 A 
ATOM     45  N   UNL A   1      39.143  31.222  32.159  1.00  0.00    -0.354 N 
ATOM     46  C   UNL A   1      40.295  28.584  28.928  1.00  0.00     0.074 A 
ATOM     47  C   UNL A   1      39.445  28.773  27.773  1.00  0.00     0.031 C 
ATOM     48  C   UNL A   1      37.802  32.651  33.238  1.00  0.00     0.029 A 
ATOM     49  C   UNL A   1      38.970  31.792  33.401  1.00  0.00     0.049 A 
ATOM     50  H   UNL A   1      39.889  30.616  31.945  1.00  0.00     0.167 HD
ATOM     51  C   UNL A   1      41.318  27.700  28.980  1.00  0.00     0.034 A 
ATOM     52  C   UNL A   1      39.668  31.629  34.543  1.00  0.00     0.034 A 
ATOM     53  C   UNL A   1      42.213  27.578  30.098  1.00  0.00     0.049 A 
ATOM     54  C   UNL A   1      40.853  30.701  34.548  1.00  0.00     0.074 A 
ATOM     55  C   UNL A   1      43.343  26.790  30.211  1.00  0.00     0.029 A 
ATOM     56  N   UNL A   1      42.085  28.274  31.289  1.00  0.00    -0.354 N 
ATOM     57  N   UNL A   1      41.327  29.966  33.572  1.00  0.00    -0.248 NA
ATOM     58  C   UNL A   1      41.621  30.603  35.799  1.00  0.00     0.031 C 
ATOM     59  C   UNL A   1      43.902  27.012  31.474  1.00  0.00     0.029 A 
ATOM     60  C   UNL A   1      43.120  27.941  32.142  1.00  0.00     0.049 A 
ATOM     61  H   UNL A   1      41.363  28.910  31.497  1.00  0.00     0.167 HD
ATOM     62  C   UNL A   1      42.466  29.349  34.076  1.00  0.00     0.074 A 
ATOM     63  C   UNL A   1      42.620  29.808  35.442  1.00  0.00     0.031 C 
ATOM     64  C   UNL A   1      43.300  28.469  33.470  1.00  0.00     0.034 A 
BRANCH  51  65
ATOM     65  C   UNL A   1      41.568  26.849  27.766  1.00  0.00     0.023 A 
ATOM     66  C   UNL A   1      42.195  27.419  26.639  1.00  0.00     0.012 A 
ATOM     67  C   UNL A   1      41.227  25.483  27.750  1.00  0.00     0.148 A 
ATOM     68  C   UNL A   1      42.446  26.653  25.502  1.00  0.00     0.002 A 
ATOM     69  C   UNL A   1      41.519  24.715  26.628  1.00  0.00     0.091 A 
ATOM     70  F   UNL A   1      40.607  24.964  28.820  1.00  0.00    -0.205 F 
ATOM     71  C   UNL A   1      42.117  25.301  25.501  1.00  0.00     0.022 A 
BRANCH  69  72
ATOM     72  S   UNL A   1      41.201  22.948  26.560  1.00  0.00     0.127 S 
ATOM     73  O   UNL A   1      39.751  22.916  26.372  1.00  0.00    -0.237 OA
ATOM     74  O   UNL A   1      41.977  22.537  25.389  1.00  0.00    -0.237 OA
ATOM     75  O   UNL A   1      41.684  22.409  27.823  1.00  0.00    -0.744 OA
ENDBRANCH  69  72
ENDBRANCH  51  65
BRANCH  52  76
ATOM     76  C   UNL A   1      39.311  32.422  35.754  1.00  0.00     0.023 A 
ATOM     77  C   UNL A   1      39.797  33.740  35.874  1.00  0.00     0.012 A 
ATOM     78  C   UNL A   1      38.477  31.904  36.764  1.00  0.00     0.148 A 
ATOM     79  C   UNL A   1      39.481  34.518  36.988  1.00  0.00     0.002 A 
ATOM     80  C   UNL A   1      38.127  32.702  37.848  1.00  0.00     0.091 A 
ATOM     81  F   UNL A   1      38.038  30.644  36.643  1.00  0.00    -0.205 F 
ATOM     82  C   UNL A   1      38.639  34.004  37.970  1.00  0.00     0.022 A 
BRANCH  80  83
ATOM     83  S   UNL A   1      36.945  32.166  39.092  1.00  0.00     0.127 S 
ATOM     84  O   UNL A   1      37.116  30.716  39.063  1.00  0.00    -0.237 OA
ATOM     85  O   UNL A   1      37.451  32.821  40.299  1.00  0.00    -0.237 OA
ATOM     86  O   UNL A   1      35.654  32.666  38.638  1.00  0.00    -0.744 OA
ENDBRANCH  80  83
ENDBRANCH  52  76
BRANCH  64  87
ATOM     87  C   UNL A   1      44.487  27.970  34.248  1.00  0.00     0.023 A 
ATOM     88  C   UNL A   1      45.685  28.707  34.235  1.00  0.00     0.012 A 
ATOM     89  C   UNL A   1      44.372  26.839  35.081  1.00  0.00     0.148 A 
ATOM     90  C   UNL A   1      46.761  28.317  35.033  1.00  0.00     0.002 A 
ATOM     91  C   UNL A   1      45.432  26.482  35.905  1.00  0.00     0.091 A 
ATOM     92  F   UNL A   1      43.225  26.144  35.060  1.00  0.00    -0.205 F 
ATOM     93  C   UNL A   1      46.630  27.216  35.878  1.00  0.00     0.022 A 
BRANCH  91  94
ATOM     94  S   UNL A   1      45.319  25.138  37.091  1.00  0.00     0.127 S 
ATOM     95  O   UNL A   1      44.229  25.593  37.953  1.00  0.00    -0.237 OA
ATOM     96  O   UNL A   1      44.987  23.996  36.237  1.00  0.00    -0.237 OA
ATOM     97  O   UNL A   1      46.626  25.055  37.728  1.00  0.00    -0.744 OA
ENDBRANCH  91  94
ENDBRANCH  64  87
ENDBRANCH  38  39
ENDBRANCH  30  33
ENDBRANCH  28  29
ENDBRANCH  27  28
ENDBRANCH   1  27
TORSDOF 18
ENDMDL
MODEL 2
REMARK VINA RESULT:     -12.1      2.251      2.753
REMARK SMILES CC[C@@H](C(=O)NCCCCNC(=O)c1ccc(-c2c3nc(c(-c4cccc(S(=O)(=O)[O-])c4F)c4ccc([nH]4)c(-c4cccc(S(=O)(=O)[O-])c4F)c4nc(c(-c5cccc(S(=O)(=O)[O-])c5F)c5ccc2[nH]5)C=C4)C=C3)cc1)N1C(=O)/C(=C/C(C)=C/c2ccccc2)SC1=S
REMARK SMILES IDX 8 1 7 2 6 3 4 4 5 5 3 7 2 8 1 9 77 10 78 11 92 12 79 13
REMARK SMILES IDX 80 14 91 15 93 16 81 17 82 18 83 19 84 20 85 21 86 22 90 23
REMARK SMILES IDX 87 24 89 25 88 26 9 27 10 28 11 29 12 30 13 32 14 33 15 34
REMARK SMILES IDX 76 35 16 36 75 37 17 38 18 39 19 40 69 41 20 42 74 43 68 44
REMARK SMILES IDX 70 45 21 46 73 47 67 48 66 49 22 51 54 52 34 53 53 54 35 55
REMARK SMILES IDX 38 56 52 57 71 58 36 59 37 60 51 62 72 63 39 64 23 65 24 66
REMARK SMILES IDX 32 67 25 68 27 69 33 70 26 71 28 72 29 73 30 74 31 75 55 76
REMARK SMILES IDX 56 77 64 78 57 79 59 80 65 81 58 82 60 83 61 84 62 85 63 86
REMARK SMILES IDX 40 87 41 88 49 89 42 90 44 91 50 92 43 93 45 94 46 95 47 96
REMARK SMILES IDX 48 97
REMARK H PARENT 6 6 11 31 70 50 38 61
REMARK Flexibility Score: inf
ROOT
ATOM      1  C   UNL A   1      31.480  30.847  26.105  1.00  0.00     0.023 C 
ENDROOT
BRANCH   1   2
ATOM      2  C   UNL A   1      31.451  29.785  25.009  1.00  0.00     0.116 C 
BRANCH   2   3
ATOM      3  N   UNL A   1      32.598  28.908  25.080  1.00  0.00    -0.354 N 
ATOM      4  C   UNL A   1      32.785  27.657  24.575  1.00  0.00     0.243 C 
ATOM      5  O   UNL A   1      33.938  27.215  24.619  1.00  0.00    -0.273 OA
ATOM      6  H   UNL A   1      33.367  29.274  25.573  1.00  0.00     0.163 HD
BRANCH   4   7
ATOM      7  C   UNL A   1      31.620  26.862  23.923  1.00  0.00     0.181 C 
BRANCH   7   8
ATOM      8  C   UNL A   1      30.297  26.816  24.718  1.00  0.00     0.032 C 
ATOM      9  C   UNL A   1      29.068  26.398  23.921  1.00  0.00     0.006 C 
ENDBRANCH   7   8
BRANCH   7  10
ATOM     10  N   UNL A   1      32.143  25.490  23.690  1.00  0.00    -0.280 N 
ATOM     11  C   UNL A   1      32.279  24.629  24.774  1.00  0.00     0.266 C 
ATOM     12  C   UNL A   1      32.578  25.007  22.476  1.00  0.00     0.149 C 
ATOM     13  O   UNL A   1      31.905  24.841  25.920  1.00  0.00    -0.268 OA
ATOM     14  C   UNL A   1      32.867  23.335  24.343  1.00  0.00     0.080 C 
ATOM     15  S   UNL A   1      33.251  23.393  22.675  1.00  0.00    -0.054 SA
ATOM     16  S   UNL A   1      32.470  25.729  20.975  1.00  0.00    -0.052 S 
ATOM     17  C   UNL A   1      32.982  22.322  25.215  1.00  0.00     0.024 C 
BRANCH  17  18
ATOM     18  C   UNL A   1      33.433  20.950  25.005  1.00  0.00    -0.049 C 
ATOM     19  C   UNL A   1      34.914  20.751  25.215  1.00  0.00     0.044 C 
ATOM     20  C   UNL A   1      32.566  19.952  24.750  1.00  0.00     0.011 C 
BRANCH  20  21
ATOM     21  C   UNL A   1      32.866  18.522  24.630  1.00  0.00    -0.025 A 
ATOM     22  C   UNL A   1      32.621  17.680  25.720  1.00  0.00     0.008 A 
ATOM     23  C   UNL A   1      33.498  18.007  23.494  1.00  0.00     0.008 A 
ATOM     24  C   UNL A   1      33.004  16.338  25.674  1.00  0.00     0.001 A 
ATOM     25  C   UNL A   1      33.881  16.665  23.449  1.00  0.00     0.001 A 
ATOM     26  C   UNL A   1      33.638  15.833  24.541  1.00  0.00     0.000 A 
ENDBRANCH  20  21
ENDBRANCH  17  18
ENDBRANCH   7  10
ENDBRANCH   4   7
ENDBRANCH   2   3
ENDBRANCH   1   2
BRANCH   1  27
ATOM     27  C   UNL A   1      32.553  30.652  27.172  1.00  0.00     0.023 C 
BRANCH  27  28
ATOM     28  C   UNL A   1      33.569  31.778  27.288  1.00  0.00     0.116 C 
BRANCH  28  29
ATOM     29  N   UNL A   1      32.963  33.090  27.490  1.00  0.00    -0.352 N 
ATOM     30  C   UNL A   1      33.291  34.038  28.434  1.00  0.00     0.251 C 
ATOM     31  H   UNL A   1      32.230  33.327  26.877  1.00  0.00     0.163 HD
ATOM     32  O   UNL A   1      32.633  35.067  28.550  1.00  0.00    -0.269 OA
BRANCH  30  33
ATOM     33  C   UNL A   1      34.431  33.767  29.331  1.00  0.00     0.039 A 
ATOM     34  C   UNL A   1      34.245  32.946  30.446  1.00  0.00     0.014 A 
ATOM     35  C   UNL A   1      35.703  34.230  28.988  1.00  0.00     0.014 A 
ATOM     36  C   UNL A   1      35.358  32.511  31.170  1.00  0.00     0.010 A 
ATOM     37  C   UNL A   1      36.810  33.730  29.659  1.00  0.00     0.010 A 
ATOM     38  C   UNL A   1      36.651  32.861  30.750  1.00  0.00    -0.014 A 
BRANCH  38  39
ATOM     39  C   UNL A   1      37.871  32.338  31.416  1.00  0.00     0.031 A 
ATOM     40  C   UNL A   1      38.639  31.221  30.766  1.00  0.00     0.074 A 
ATOM     41  C   UNL A   1      38.195  32.753  32.657  1.00  0.00     0.049 A 
ATOM     42  N   UNL A   1      39.598  30.482  31.257  1.00  0.00    -0.248 NA
ATOM     43  C   UNL A   1      38.242  30.856  29.395  1.00  0.00     0.031 C 
ATOM     44  C   UNL A   1      37.483  33.778  33.425  1.00  0.00     0.029 A 
ATOM     45  N   UNL A   1      39.188  32.333  33.508  1.00  0.00    -0.354 N 
ATOM     46  C   UNL A   1      39.872  29.527  30.286  1.00  0.00     0.074 A 
ATOM     47  C   UNL A   1      38.963  29.765  29.186  1.00  0.00     0.031 C 
ATOM     48  C   UNL A   1      38.057  33.902  34.633  1.00  0.00     0.029 A 
ATOM     49  C   UNL A   1      39.153  32.946  34.741  1.00  0.00     0.049 A 
ATOM     50  H   UNL A   1      39.860  31.658  33.261  1.00  0.00     0.167 HD
ATOM     51  C   UNL A   1      40.815  28.557  30.295  1.00  0.00     0.034 A 
ATOM     52  C   UNL A   1      39.913  32.747  35.838  1.00  0.00     0.034 A 
ATOM     53  C   UNL A   1      41.772  28.381  31.351  1.00  0.00     0.049 A 
ATOM     54  C   UNL A   1      41.010  31.717  35.790  1.00  0.00     0.074 A 
ATOM     55  C   UNL A   1      42.834  27.498  31.411  1.00  0.00     0.029 A 
ATOM     56  N   UNL A   1      41.790  29.113  32.528  1.00  0.00    -0.354 N 
ATOM     57  N   UNL A   1      41.347  30.920  34.806  1.00  0.00    -0.248 NA
ATOM     58  C   UNL A   1      41.851  31.580  36.988  1.00  0.00     0.031 C 
ATOM     59  C   UNL A   1      43.498  27.698  32.626  1.00  0.00     0.029 A 
ATOM     60  C   UNL A   1      42.850  28.709  33.318  1.00  0.00     0.049 A 
ATOM     61  H   UNL A   1      41.143  29.816  32.766  1.00  0.00     0.167 HD
ATOM     62  C   UNL A   1      42.460  30.215  35.250  1.00  0.00     0.074 A 
ATOM     63  C   UNL A   1      42.750  30.690  36.587  1.00  0.00     0.031 C 
ATOM     64  C   UNL A   1      43.168  29.250  34.614  1.00  0.00     0.034 A 
BRANCH  51  65
ATOM     65  C   UNL A   1      40.903  27.658  29.092  1.00  0.00     0.023 A 
ATOM     66  C   UNL A   1      40.088  26.509  29.027  1.00  0.00     0.012 A 
ATOM     67  C   UNL A   1      41.749  27.967  28.010  1.00  0.00     0.148 A 
ATOM     68  C   UNL A   1      40.142  25.662  27.922  1.00  0.00     0.002 A 
ATOM     69  C   UNL A   1      41.765  27.140  26.893  1.00  0.00     0.091 A 
ATOM     70  F   UNL A   1      42.536  29.049  28.100  1.00  0.00    -0.205 F 
ATOM     71  C   UNL A   1      40.972  25.983  26.852  1.00  0.00     0.022 A 
BRANCH  69  72
ATOM     72  S   UNL A   1      42.747  27.511  25.434  1.00  0.00     0.127 S 
ATOM     73  O   UNL A   1      42.467  26.352  24.587  1.00  0.00    -0.237 OA
ATOM     74  O   UNL A   1      42.150  28.764  24.968  1.00  0.00    -0.237 OA
ATOM     75  O   UNL A   1      44.120  27.634  25.899  1.00  0.00    -0.744 OA
ENDBRANCH  69  72
ENDBRANCH  51  65
BRANCH  52  76
ATOM     76  C   UNL A   1      39.713  33.598  37.046  1.00  0.00     0.023 A 
ATOM     77  C   UNL A   1      38.712  33.244  37.972  1.00  0.00     0.012 A 
ATOM     78  C   UNL A   1      40.519  34.724  37.305  1.00  0.00     0.148 A 
ATOM     79  C   UNL A   1      38.497  34.009  39.119  1.00  0.00     0.002 A 
ATOM     80  C   UNL A   1      40.332  35.454  38.474  1.00  0.00     0.091 A 
ATOM     81  F   UNL A   1      41.456  35.056  36.406  1.00  0.00    -0.205 F 
ATOM     82  C   UNL A   1      39.313  35.108  39.375  1.00  0.00     0.022 A 
BRANCH  80  83
ATOM     83  S   UNL A   1      41.421  36.804  38.945  1.00  0.00     0.127 S 
ATOM     84  O   UNL A   1      42.082  37.113  37.680  1.00  0.00    -0.237 OA
ATOM     85  O   UNL A   1      40.471  37.817  39.407  1.00  0.00    -0.237 OA
ATOM     86  O   UNL A   1      42.273  36.264  39.997  1.00  0.00    -0.744 OA
ENDBRANCH  80  83
ENDBRANCH  52  76
BRANCH  64  87
ATOM     87  C   UNL A   1      44.358  28.664  35.324  1.00  0.00     0.023 A 
ATOM     88  C   UNL A   1      45.635  29.214  35.107  1.00  0.00     0.012 A 
ATOM     89  C   UNL A   1      44.189  27.653  36.290  1.00  0.00     0.148 A 
ATOM     90  C   UNL A   1      46.733  28.754  35.835  1.00  0.00     0.002 A 
ATOM     91  C   UNL A   1      45.278  27.231  37.041  1.00  0.00     0.091 A 
ATOM     92  F   UNL A   1      42.965  27.134  36.465  1.00  0.00    -0.205 F 
ATOM     93  C   UNL A   1      46.553  27.776  36.811  1.00  0.00     0.022 A 
BRANCH  91  94
ATOM     94  S   UNL A   1      45.122  26.045  38.382  1.00  0.00     0.127 S 
ATOM     95  O   UNL A   1      44.091  26.667  39.211  1.00  0.00    -0.237 OA
ATOM     96  O   UNL A   1      44.693  24.835  37.679  1.00  0.00    -0.237 OA
ATOM     97  O   UNL A   1      46.442  25.953  38.990  1.00  0.00    -0.744 OA
ENDBRANCH  91  94
ENDBRANCH  64  87
ENDBRANCH  38  39
ENDBRANCH  30  33
ENDBRANCH  28  29
ENDBRANCH  27  28
ENDBRANCH   1  27
TORSDOF 18
ENDMDL
MODEL 3
REMARK VINA RESULT:     -11.9      1.867      4.801
REMARK SMILES CC[C@@H](C(=O)NCCCCNC(=O)c1ccc(-c2c3nc(c(-c4cccc(S(=O)(=O)[O-])c4F)c4ccc([nH]4)c(-c4cccc(S(=O)(=O)[O-])c4F)c4nc(c(-c5cccc(S(=O)(=O)[O-])c5F)c5ccc2[nH]5)C=C4)C=C3)cc1)N1C(=O)/C(=C/C(C)=C/c2ccccc2)SC1=S
REMARK SMILES IDX 8 1 7 2 6 3 4 4 5 5 3 7 2 8 1 9 77 10 78 11 92 12 79 13
REMARK SMILES IDX 80 14 91 15 93 16 81 17 82 18 83 19 84 20 85 21 86 22 90 23
REMARK SMILES IDX 87 24 89 25 88 26 9 27 10 28 11 29 12 30 13 32 14 33 15 34
REMARK SMILES IDX 76 35 16 36 75 37 17 38 18 39 19 40 69 41 20 42 74 43 68 44
REMARK SMILES IDX 70 45 21 46 73 47 67 48 66 49 22 51 54 52 34 53 53 54 35 55
REMARK SMILES IDX 38 56 52 57 71 58 36 59 37 60 51 62 72 63 39 64 23 65 24 66
REMARK SMILES IDX 32 67 25 68 27 69 33 70 26 71 28 72 29 73 30 74 31 75 55 76
REMARK SMILES IDX 56 77 64 78 57 79 59 80 65 81 58 82 60 83 61 84 62 85 63 86
REMARK SMILES IDX 40 87 41 88 49 89 42 90 44 91 50 92 43 93 45 94 46 95 47 96
REMARK SMILES IDX 48 97
REMARK H PARENT 6 6 11 31 70 50 38 61
REMARK Flexibility Score: inf
ROOT
ATOM      1  C   UNL A   1      33.771  26.677  25.494  1.00  0.00     0.023 C 
ENDROOT
BRANCH   1   2
ATOM      2  C   UNL A   1      33.399  25.353  26.156  1.00  0.00     0.116 C 
BRANCH   2   3
ATOM      3  N   UNL A   1      34.226  24.265  25.681  1.00  0.00    -0.354 N 
ATOM      4  C   UNL A   1      33.897  23.157  24.961  1.00  0.00     0.243 C 
ATOM      5  O   UNL A   1      34.839  22.488  24.525  1.00  0.00    -0.273 OA
ATOM      6  H   UNL A   1      35.178  24.337  25.917  1.00  0.00     0.163 HD
BRANCH   4   7
ATOM      7  C   UNL A   1      32.417  22.797  24.654  1.00  0.00     0.181 C 
BRANCH   7   8
ATOM      8  C   UNL A   1      32.186  21.523  23.813  1.00  0.00     0.032 C 
ATOM      9  C   UNL A   1      32.708  20.230  24.424  1.00  0.00     0.006 C 
ENDBRANCH   7   8
BRANCH   7  10
ATOM     10  N   UNL A   1      31.838  23.988  23.978  1.00  0.00    -0.280 N 
ATOM     11  C   UNL A   1      30.782  24.659  24.585  1.00  0.00     0.266 C 
ATOM     12  C   UNL A   1      32.220  24.456  22.741  1.00  0.00     0.149 C 
ATOM     13  O   UNL A   1      30.329  24.440  25.701  1.00  0.00    -0.268 OA
ATOM     14  C   UNL A   1      30.312  25.778  23.729  1.00  0.00     0.080 C 
ATOM     15  S   UNL A   1      31.182  25.790  22.253  1.00  0.00    -0.054 SA
ATOM     16  S   UNL A   1      33.499  23.953  21.792  1.00  0.00    -0.052 S 
ATOM     17  C   UNL A   1      29.371  26.623  24.177  1.00  0.00     0.024 C 
BRANCH  17  18
ATOM     18  C   UNL A   1      28.826  27.830  23.565  1.00  0.00    -0.049 C 
ATOM     19  C   UNL A   1      27.321  27.842  23.464  1.00  0.00     0.044 C 
ATOM     20  C   UNL A   1      29.614  28.868  23.226  1.00  0.00     0.011 C 
BRANCH  20  21
ATOM     21  C   UNL A   1      29.193  30.174  22.712  1.00  0.00    -0.025 A 
ATOM     22  C   UNL A   1      29.072  31.249  23.599  1.00  0.00     0.008 A 
ATOM     23  C   UNL A   1      28.798  30.335  21.380  1.00  0.00     0.008 A 
ATOM     24  C   UNL A   1      28.561  32.472  23.159  1.00  0.00     0.001 A 
ATOM     25  C   UNL A   1      28.288  31.558  20.941  1.00  0.00     0.001 A 
ATOM     26  C   UNL A   1      28.165  32.625  21.831  1.00  0.00     0.000 A 
ENDBRANCH  20  21
ENDBRANCH  17  18
ENDBRANCH   7  10
ENDBRANCH   4   7
ENDBRANCH   2   3
ENDBRANCH   1   2
BRANCH   1  27
ATOM     27  C   UNL A   1      32.749  27.797  25.661  1.00  0.00     0.023 C 
BRANCH  27  28
ATOM     28  C   UNL A   1      33.223  29.181  25.241  1.00  0.00     0.116 C 
BRANCH  28  29
ATOM     29  N   UNL A   1      32.531  30.267  25.926  1.00  0.00    -0.352 N 
ATOM     30  C   UNL A   1      32.993  31.041  26.968  1.00  0.00     0.251 C 
ATOM     31  H   UNL A   1      31.622  30.470  25.606  1.00  0.00     0.163 HD
ATOM     32  O   UNL A   1      32.264  31.864  27.513  1.00  0.00    -0.269 OA
BRANCH  30  33
ATOM     33  C   UNL A   1      34.375  30.828  27.438  1.00  0.00     0.039 A 
ATOM     34  C   UNL A   1      35.218  31.930  27.603  1.00  0.00     0.014 A 
ATOM     35  C   UNL A   1      34.782  29.551  27.827  1.00  0.00     0.014 A 
ATOM     36  C   UNL A   1      36.446  31.761  28.250  1.00  0.00     0.010 A 
ATOM     37  C   UNL A   1      35.962  29.403  28.542  1.00  0.00     0.010 A 
ATOM     38  C   UNL A   1      36.802  30.506  28.767  1.00  0.00    -0.014 A 
BRANCH  38  39
ATOM     39  C   UNL A   1      38.041  30.296  29.558  1.00  0.00     0.031 A 
ATOM     40  C   UNL A   1      39.106  29.379  29.022  1.00  0.00     0.074 A 
ATOM     41  C   UNL A   1      38.142  30.798  30.805  1.00  0.00     0.049 A 
ATOM     42  N   UNL A   1      40.160  28.896  29.624  1.00  0.00    -0.248 NA
ATOM     43  C   UNL A   1      38.936  28.907  27.637  1.00  0.00     0.031 C 
ATOM     44  C   UNL A   1      37.142  31.640  31.466  1.00  0.00     0.029 A 
ATOM     45  N   UNL A   1      39.120  30.638  31.756  1.00  0.00    -0.354 N 
ATOM     46  C   UNL A   1      40.739  28.015  28.719  1.00  0.00     0.074 A 
ATOM     47  C   UNL A   1      39.907  28.013  27.535  1.00  0.00     0.031 C 
ATOM     48  C   UNL A   1      37.554  31.917  32.714  1.00  0.00     0.029 A 
ATOM     49  C   UNL A   1      38.828  31.247  32.956  1.00  0.00     0.049 A 
ATOM     50  H   UNL A   1      39.951  30.136  31.596  1.00  0.00     0.167 HD
ATOM     51  C   UNL A   1      41.876  27.293  28.848  1.00  0.00     0.034 A 
ATOM     52  C   UNL A   1      39.505  31.252  34.122  1.00  0.00     0.034 A 
ATOM     53  C   UNL A   1      42.743  27.366  29.991  1.00  0.00     0.049 A 
ATOM     54  C   UNL A   1      40.811  30.507  34.211  1.00  0.00     0.074 A 
ATOM     55  C   UNL A   1      43.970  26.758  30.179  1.00  0.00     0.029 A 
ATOM     56  N   UNL A   1      42.480  28.103  31.135  1.00  0.00    -0.354 N 
ATOM     57  N   UNL A   1      41.416  29.794  33.292  1.00  0.00    -0.248 NA
ATOM     58  C   UNL A   1      41.545  30.593  35.483  1.00  0.00     0.031 C 
ATOM     59  C   UNL A   1      44.452  27.130  31.438  1.00  0.00     0.029 A 
ATOM     60  C   UNL A   1      43.525  27.973  32.030  1.00  0.00     0.049 A 
ATOM     61  H   UNL A   1      41.668  28.639  31.287  1.00  0.00     0.167 HD
ATOM     62  C   UNL A   1      42.615  29.379  33.859  1.00  0.00     0.074 A 
ATOM     63  C   UNL A   1      42.659  29.932  35.197  1.00  0.00     0.031 C 
ATOM     64  C   UNL A   1      43.585  28.596  33.327  1.00  0.00     0.034 A 
BRANCH  51  65
ATOM     65  C   UNL A   1      42.283  26.419  27.694  1.00  0.00     0.023 A 
ATOM     66  C   UNL A   1      43.125  26.945  26.692  1.00  0.00     0.012 A 
ATOM     67  C   UNL A   1      41.875  25.074  27.618  1.00  0.00     0.148 A 
ATOM     68  C   UNL A   1      43.525  26.156  25.615  1.00  0.00     0.002 A 
ATOM     69  C   UNL A   1      42.313  24.282  26.563  1.00  0.00     0.091 A 
ATOM     70  F   UNL A   1      41.053  24.598  28.565  1.00  0.00    -0.205 F 
ATOM     71  C   UNL A   1      43.127  24.824  25.556  1.00  0.00     0.022 A 
BRANCH  69  72
ATOM     72  S   UNL A   1      41.914  22.534  26.440  1.00  0.00     0.127 S 
ATOM     73  O   UNL A   1      42.475  22.015  27.687  1.00  0.00    -0.237 OA
ATOM     74  O   UNL A   1      40.452  22.552  26.390  1.00  0.00    -0.237 OA
ATOM     75  O   UNL A   1      42.554  22.066  25.219  1.00  0.00    -0.744 OA
ENDBRANCH  69  72
ENDBRANCH  51  65
BRANCH  52  76
ATOM     76  C   UNL A   1      39.001  32.053  35.274  1.00  0.00     0.023 A 
ATOM     77  C   UNL A   1      39.072  33.459  35.210  1.00  0.00     0.012 A 
ATOM     78  C   UNL A   1      38.427  31.446  36.408  1.00  0.00     0.148 A 
ATOM     79  C   UNL A   1      38.605  34.246  36.264  1.00  0.00     0.002 A 
ATOM     80  C   UNL A   1      37.919  32.238  37.433  1.00  0.00     0.091 A 
ATOM     81  F   UNL A   1      38.382  30.108  36.459  1.00  0.00    -0.205 F 
ATOM     82  C   UNL A   1      38.020  33.637  37.370  1.00  0.00     0.022 A 
BRANCH  80  83
ATOM     83  S   UNL A   1      37.034  31.540  38.833  1.00  0.00     0.127 S 
ATOM     84  O   UNL A   1      35.830  32.365  38.868  1.00  0.00    -0.237 OA
ATOM     85  O   UNL A   1      36.821  30.157  38.404  1.00  0.00    -0.237 OA
ATOM     86  O   UNL A   1      37.937  31.680  39.969  1.00  0.00    -0.744 OA
ENDBRANCH  80  83
ENDBRANCH  52  76
BRANCH  64  87
ATOM     87  C   UNL A   1      44.806  28.319  34.160  1.00  0.00     0.023 A 
ATOM     88  C   UNL A   1      45.889  29.217  34.125  1.00  0.00     0.012 A 
ATOM     89  C   UNL A   1      44.826  27.237  35.063  1.00  0.00     0.148 A 
ATOM     90  C   UNL A   1      46.984  29.034  34.970  1.00  0.00     0.002 A 
ATOM     91  C   UNL A   1      45.899  27.086  35.931  1.00  0.00     0.091 A 
ATOM     92  F   UNL A   1      43.789  26.387  35.064  1.00  0.00    -0.205 F 
ATOM     93  C   UNL A   1      46.983  27.979  35.881  1.00  0.00     0.022 A 
BRANCH  91  94
ATOM     94  S   UNL A   1      45.941  25.815  37.200  1.00  0.00     0.127 S 
ATOM     95  O   UNL A   1      47.267  25.235  36.996  1.00  0.00    -0.237 OA
ATOM     96  O   UNL A   1      45.798  26.597  38.429  1.00  0.00    -0.237 OA
ATOM     97  O   UNL A   1      44.821  24.929  36.916  1.00  0.00    -0.744 OA
ENDBRANCH  91  94
ENDBRANCH  64  87
ENDBRANCH  38  39
ENDBRANCH  30  33
ENDBRANCH  28  29
ENDBRANCH  27  28
ENDBRANCH   1  27
TORSDOF 18
ENDMDL
