MODEL 1
REMARK VINA RESULT:     -11.6      0.000      0.000
REMARK SMILES COc1ccc(-n2ncc(C(=O)NCCCCNC(=O)c3ccc(-c4c5nc(c(-c6cccc(S(=O)(=O)[O-])c6F)c6ccc([nH]6)c(-c6cccc(S(=O)(=O)[O-])c6F)c6nc(c(-c7cccc(S(=O)(=O)[O-])c7F)c7ccc4[nH]7)C=C6)C=C5)cc3)n2)nn1
REMARK SMILES IDX 16 1 15 2 14 3 13 4 11 5 12 6 10 8 7 9 8 10 84 11 9 12 6 13
REMARK SMILES IDX 3 14 4 15 86 16 5 17 85 18 2 19 1 20 17 21 18 22 19 23 20 25
REMARK SMILES IDX 21 26 22 27 83 28 23 29 82 30 24 31 25 32 26 33 76 34 27 35
REMARK SMILES IDX 81 36 75 37 77 38 28 39 80 40 74 41 73 42 29 44 61 45 41 46
REMARK SMILES IDX 60 47 42 48 45 49 59 50 78 51 43 52 44 53 58 55 79 56 46 57
REMARK SMILES IDX 30 58 31 59 39 60 32 61 34 62 40 63 33 64 35 65 36 66 37 67
REMARK SMILES IDX 38 68 62 69 63 70 71 71 64 72 66 73 72 74 65 75 67 76 68 77
REMARK SMILES IDX 69 78 70 79 47 80 48 81 56 82 49 83 51 84 57 85 50 86 52 87
REMARK SMILES IDX 53 88 54 89 55 90
REMARK H PARENT 13 7 18 24 77 43 45 54
REMARK Flexibility Score: inf
ROOT
ATOM      1  C   UNL A   1      34.636  34.617  27.926  1.00  0.00     0.023 C 
ENDROOT
BRANCH   1   2
ATOM      2  C   UNL A   1      34.206  35.966  28.519  1.00  0.00     0.023 C 
BRANCH   2   3
ATOM      3  C   UNL A   1      33.054  35.911  29.526  1.00  0.00     0.116 C 
BRANCH   3   4
ATOM      4  N   UNL A   1      33.126  36.984  30.499  1.00  0.00    -0.351 N 
ATOM      5  C   UNL A   1      33.402  37.010  31.849  1.00  0.00     0.273 C 
ATOM      6  O   UNL A   1      33.105  38.050  32.440  1.00  0.00    -0.267 OA
ATOM      7  H   UNL A   1      32.939  37.873  30.118  1.00  0.00     0.163 HD
BRANCH   5   8
ATOM      8  C   UNL A   1      34.018  35.872  32.551  1.00  0.00     0.170 A 
ATOM      9  N   UNL A   1      35.546  34.608  33.311  1.00  0.00    -0.130 N 
ATOM     10  N   UNL A   1      34.440  33.818  33.403  1.00  0.00    -0.154 NA
ATOM     11  N   UNL A   1      35.312  35.896  32.950  1.00  0.00    -0.141 NA
ATOM     12  C   UNL A   1      33.506  34.597  32.855  1.00  0.00     0.172 A 
BRANCH   9  13
ATOM     13  C   UNL A   1      36.841  34.082  33.599  1.00  0.00     0.196 A 
ATOM     14  C   UNL A   1      39.274  33.037  34.217  1.00  0.00     0.233 A 
ATOM     15  C   UNL A   1      38.283  32.172  33.801  1.00  0.00     0.074 A 
ATOM     16  N   UNL A   1      39.074  34.366  34.325  1.00  0.00    -0.110 NA
ATOM     17  C   UNL A   1      37.039  32.706  33.484  1.00  0.00     0.058 A 
ATOM     18  N   UNL A   1      37.847  34.901  33.991  1.00  0.00    -0.125 NA
BRANCH  14  19
ATOM     19  O   UNL A   1      40.489  32.557  34.633  1.00  0.00    -0.480 OA
ATOM     20  C   UNL A   1      40.314  31.701  35.758  1.00  0.00     0.280 C 
ENDBRANCH  14  19
ENDBRANCH   9  13
ENDBRANCH   5   8
ENDBRANCH   3   4
ENDBRANCH   2   3
ENDBRANCH   1   2
BRANCH   1  21
ATOM     21  C   UNL A   1      34.537  33.439  28.889  1.00  0.00     0.116 C 
BRANCH  21  22
ATOM     22  N   UNL A   1      33.845  32.286  28.309  1.00  0.00    -0.352 N 
ATOM     23  C   UNL A   1      34.399  31.102  27.856  1.00  0.00     0.251 C 
ATOM     24  H   UNL A   1      32.867  32.364  28.230  1.00  0.00     0.163 HD
ATOM     25  O   UNL A   1      33.802  30.383  27.072  1.00  0.00    -0.269 OA
BRANCH  23  26
ATOM     26  C   UNL A   1      35.729  30.716  28.360  1.00  0.00     0.039 A 
ATOM     27  C   UNL A   1      36.068  29.375  28.573  1.00  0.00     0.014 A 
ATOM     28  C   UNL A   1      36.648  31.736  28.586  1.00  0.00     0.014 A 
ATOM     29  C   UNL A   1      37.376  29.057  28.934  1.00  0.00     0.010 A 
ATOM     30  C   UNL A   1      37.961  31.417  28.814  1.00  0.00     0.010 A 
ATOM     31  C   UNL A   1      38.319  30.086  29.035  1.00  0.00    -0.014 A 
BRANCH  31  32
ATOM     32  C   UNL A   1      39.740  29.804  29.222  1.00  0.00     0.031 A 
ATOM     33  C   UNL A   1      40.185  29.754  30.646  1.00  0.00     0.074 A 
ATOM     34  C   UNL A   1      40.463  29.308  28.193  1.00  0.00     0.049 A 
ATOM     35  N   UNL A   1      41.154  30.408  31.198  1.00  0.00    -0.248 NA
ATOM     36  C   UNL A   1      39.378  28.982  31.609  1.00  0.00     0.031 C 
ATOM     37  C   UNL A   1      39.987  29.060  26.823  1.00  0.00     0.029 A 
ATOM     38  N   UNL A   1      41.688  28.710  28.195  1.00  0.00    -0.354 N 
ATOM     39  C   UNL A   1      41.230  29.938  32.510  1.00  0.00     0.074 A 
ATOM     40  C   UNL A   1      39.992  29.255  32.762  1.00  0.00     0.031 C 
ATOM     41  C   UNL A   1      40.764  28.123  26.243  1.00  0.00     0.029 A 
ATOM     42  C   UNL A   1      41.864  27.814  27.136  1.00  0.00     0.049 A 
ATOM     43  H   UNL A   1      42.379  28.890  28.873  1.00  0.00     0.167 HD
ATOM     44  C   UNL A   1      42.416  29.902  33.182  1.00  0.00     0.034 A 
ATOM     45  C   UNL A   1      42.789  26.826  27.038  1.00  0.00     0.034 A 
ATOM     46  C   UNL A   1      43.407  30.718  32.526  1.00  0.00     0.049 A 
ATOM     47  C   UNL A   1      43.873  27.146  27.995  1.00  0.00     0.074 A 
ATOM     48  C   UNL A   1      43.484  32.043  32.149  1.00  0.00     0.029 A 
ATOM     49  N   UNL A   1      44.373  30.060  31.803  1.00  0.00    -0.354 N 
ATOM     50  N   UNL A   1      44.651  28.184  27.866  1.00  0.00    -0.248 NA
ATOM     51  C   UNL A   1      43.793  26.584  29.332  1.00  0.00     0.031 C 
ATOM     52  C   UNL A   1      44.138  32.022  30.883  1.00  0.00     0.029 A 
ATOM     53  C   UNL A   1      44.500  30.703  30.603  1.00  0.00     0.049 A 
ATOM     54  H   UNL A   1      44.881  29.269  32.096  1.00  0.00     0.167 HD
ATOM     55  C   UNL A   1      44.747  28.692  29.154  1.00  0.00     0.074 A 
ATOM     56  C   UNL A   1      44.313  27.601  30.027  1.00  0.00     0.031 C 
ATOM     57  C   UNL A   1      44.859  30.036  29.371  1.00  0.00     0.034 A 
BRANCH  44  58
ATOM     58  C   UNL A   1      42.827  28.842  34.188  1.00  0.00     0.023 A 
ATOM     59  C   UNL A   1      43.337  29.298  35.427  1.00  0.00     0.012 A 
ATOM     60  C   UNL A   1      43.023  27.474  33.889  1.00  0.00     0.148 A 
ATOM     61  C   UNL A   1      44.077  28.466  36.274  1.00  0.00     0.002 A 
ATOM     62  C   UNL A   1      43.693  26.631  34.770  1.00  0.00     0.091 A 
ATOM     63  F   UNL A   1      42.685  26.989  32.693  1.00  0.00    -0.205 F 
ATOM     64  C   UNL A   1      44.255  27.129  35.946  1.00  0.00     0.022 A 
BRANCH  62  65
ATOM     65  S   UNL A   1      43.915  24.883  34.410  1.00  0.00     0.127 S 
ATOM     66  O   UNL A   1      42.568  24.368  34.631  1.00  0.00    -0.237 OA
ATOM     67  O   UNL A   1      44.347  24.919  33.012  1.00  0.00    -0.237 OA
ATOM     68  O   UNL A   1      44.940  24.421  35.338  1.00  0.00    -0.744 OA
ENDBRANCH  62  65
ENDBRANCH  44  58
BRANCH  45  69
ATOM     69  C   UNL A   1      42.691  25.510  26.359  1.00  0.00     0.023 A 
ATOM     70  C   UNL A   1      43.664  25.131  25.412  1.00  0.00     0.012 A 
ATOM     71  C   UNL A   1      41.793  24.518  26.814  1.00  0.00     0.148 A 
ATOM     72  C   UNL A   1      43.754  23.807  24.956  1.00  0.00     0.002 A 
ATOM     73  C   UNL A   1      41.872  23.210  26.344  1.00  0.00     0.091 A 
ATOM     74  F   UNL A   1      40.921  24.826  27.784  1.00  0.00    -0.205 F 
ATOM     75  C   UNL A   1      42.860  22.847  25.423  1.00  0.00     0.022 A 
BRANCH  73  76
ATOM     76  S   UNL A   1      40.752  21.930  26.928  1.00  0.00     0.127 S 
ATOM     77  O   UNL A   1      41.153  20.777  26.121  1.00  0.00    -0.237 OA
ATOM     78  O   UNL A   1      41.102  21.844  28.342  1.00  0.00    -0.237 OA
ATOM     79  O   UNL A   1      39.408  22.417  26.637  1.00  0.00    -0.744 OA
ENDBRANCH  73  76
ENDBRANCH  45  69
BRANCH  57  80
ATOM     80  C   UNL A   1      45.106  30.936  28.184  1.00  0.00     0.023 A 
ATOM     81  C   UNL A   1      44.055  31.520  27.444  1.00  0.00     0.012 A 
ATOM     82  C   UNL A   1      46.420  31.364  27.937  1.00  0.00     0.148 A 
ATOM     83  C   UNL A   1      44.308  32.489  26.471  1.00  0.00     0.002 A 
ATOM     84  C   UNL A   1      46.664  32.365  27.006  1.00  0.00     0.091 A 
ATOM     85  F   UNL A   1      47.411  30.807  28.650  1.00  0.00    -0.205 F 
ATOM     86  C   UNL A   1      45.613  32.924  26.263  1.00  0.00     0.022 A 
BRANCH  84  87
ATOM     87  S   UNL A   1      48.303  33.062  26.797  1.00  0.00     0.127 S 
ATOM     88  O   UNL A   1      48.096  34.006  25.702  1.00  0.00    -0.237 OA
ATOM     89  O   UNL A   1      48.552  33.682  28.100  1.00  0.00    -0.237 OA
ATOM     90  O   UNL A   1      49.181  31.935  26.500  1.00  0.00    -0.744 OA
ENDBRANCH  84  87
ENDBRANCH  57  80
ENDBRANCH  31  32
ENDBRANCH  23  26
ENDBRANCH  21  22
ENDBRANCH   1  21
TORSDOF 16
ENDMDL
MODEL 2
REMARK VINA RESULT:     -11.6      4.355      9.567
REMARK SMILES COc1ccc(-n2ncc(C(=O)NCCCCNC(=O)c3ccc(-c4c5nc(c(-c6cccc(S(=O)(=O)[O-])c6F)c6ccc([nH]6)c(-c6cccc(S(=O)(=O)[O-])c6F)c6nc(c(-c7cccc(S(=O)(=O)[O-])c7F)c7ccc4[nH]7)C=C6)C=C5)cc3)n2)nn1
REMARK SMILES IDX 16 1 15 2 14 3 13 4 11 5 12 6 10 8 7 9 8 10 84 11 9 12 6 13
REMARK SMILES IDX 3 14 4 15 86 16 5 17 85 18 2 19 1 20 17 21 18 22 19 23 20 25
REMARK SMILES IDX 21 26 22 27 83 28 23 29 82 30 24 31 25 32 26 33 76 34 27 35
REMARK SMILES IDX 81 36 75 37 77 38 28 39 80 40 74 41 73 42 29 44 61 45 41 46
REMARK SMILES IDX 60 47 42 48 45 49 59 50 78 51 43 52 44 53 58 55 79 56 46 57
REMARK SMILES IDX 30 58 31 59 39 60 32 61 34 62 40 63 33 64 35 65 36 66 37 67
REMARK SMILES IDX 38 68 62 69 63 70 71 71 64 72 66 73 72 74 65 75 67 76 68 77
REMARK SMILES IDX 69 78 70 79 47 80 48 81 56 82 49 83 51 84 57 85 50 86 52 87
REMARK SMILES IDX 53 88 54 89 55 90
REMARK H PARENT 13 7 18 24 77 43 45 54
REMARK Flexibility Score: inf
ROOT
ATOM      1  C   UNL A   1      31.421  31.863  26.289  1.00  0.00     0.023 C 
ENDROOT
BRANCH   1   2
ATOM      2  C   UNL A   1      31.457  30.338  26.120  1.00  0.00     0.023 C 
BRANCH   2   3
ATOM      3  C   UNL A   1      32.849  29.725  25.941  1.00  0.00     0.116 C 
BRANCH   3   4
ATOM      4  N   UNL A   1      33.270  29.718  24.553  1.00  0.00    -0.351 N 
ATOM      5  C   UNL A   1      33.390  28.718  23.613  1.00  0.00     0.273 C 
ATOM      6  O   UNL A   1      34.045  28.999  22.607  1.00  0.00    -0.267 OA
ATOM      7  H   UNL A   1      33.521  30.609  24.214  1.00  0.00     0.163 HD
BRANCH   5   8
ATOM      8  C   UNL A   1      32.775  27.392  23.788  1.00  0.00     0.170 A 
ATOM      9  N   UNL A   1      32.647  25.289  24.050  1.00  0.00    -0.130 N 
ATOM     10  N   UNL A   1      31.380  25.614  23.666  1.00  0.00    -0.154 NA
ATOM     11  N   UNL A   1      33.471  26.342  24.283  1.00  0.00    -0.141 NA
ATOM     12  C   UNL A   1      31.496  26.921  23.434  1.00  0.00     0.172 A 
BRANCH   9  13
ATOM     13  C   UNL A   1      33.033  23.923  24.201  1.00  0.00     0.196 A 
ATOM     14  C   UNL A   1      33.683  21.299  24.488  1.00  0.00     0.233 A 
ATOM     15  C   UNL A   1      33.068  21.690  23.317  1.00  0.00     0.074 A 
ATOM     16  N   UNL A   1      33.967  22.166  25.480  1.00  0.00    -0.110 NA
ATOM     17  C   UNL A   1      32.736  23.031  23.169  1.00  0.00     0.058 A 
ATOM     18  N   UNL A   1      33.658  23.503  25.327  1.00  0.00    -0.125 NA
BRANCH  14  19
ATOM     19  O   UNL A   1      33.947  19.974  24.729  1.00  0.00    -0.480 OA
ATOM     20  C   UNL A   1      32.840  19.371  25.392  1.00  0.00     0.280 C 
ENDBRANCH  14  19
ENDBRANCH   9  13
ENDBRANCH   5   8
ENDBRANCH   3   4
ENDBRANCH   2   3
ENDBRANCH   1   2
BRANCH   1  21
ATOM     21  C   UNL A   1      32.419  32.416  27.301  1.00  0.00     0.116 C 
BRANCH  21  22
ATOM     22  N   UNL A   1      32.287  33.861  27.500  1.00  0.00    -0.352 N 
ATOM     23  C   UNL A   1      32.981  34.662  28.389  1.00  0.00     0.251 C 
ATOM     24  H   UNL A   1      31.624  34.317  26.933  1.00  0.00     0.163 HD
ATOM     25  O   UNL A   1      32.548  35.750  28.731  1.00  0.00    -0.269 OA
BRANCH  23  26
ATOM     26  C   UNL A   1      34.273  34.177  28.905  1.00  0.00     0.039 A 
ATOM     27  C   UNL A   1      34.410  33.729  30.224  1.00  0.00     0.014 A 
ATOM     28  C   UNL A   1      35.347  34.150  28.021  1.00  0.00     0.014 A 
ATOM     29  C   UNL A   1      35.621  33.169  30.626  1.00  0.00     0.010 A 
ATOM     30  C   UNL A   1      36.490  33.484  28.374  1.00  0.00     0.010 A 
ATOM     31  C   UNL A   1      36.649  33.035  29.687  1.00  0.00    -0.014 A 
BRANCH  31  32
ATOM     32  C   UNL A   1      37.868  32.289  29.989  1.00  0.00     0.031 A 
ATOM     33  C   UNL A   1      37.883  30.884  29.482  1.00  0.00     0.074 A 
ATOM     34  C   UNL A   1      38.976  32.954  30.387  1.00  0.00     0.049 A 
ATOM     35  N   UNL A   1      38.119  29.803  30.150  1.00  0.00    -0.248 NA
ATOM     36  C   UNL A   1      37.458  30.633  28.093  1.00  0.00     0.031 C 
ATOM     37  C   UNL A   1      39.096  34.401  30.623  1.00  0.00     0.029 A 
ATOM     38  N   UNL A   1      40.272  32.535  30.445  1.00  0.00    -0.354 N 
ATOM     39  C   UNL A   1      38.117  28.770  29.212  1.00  0.00     0.074 A 
ATOM     40  C   UNL A   1      37.486  29.300  28.035  1.00  0.00     0.031 C 
ATOM     41  C   UNL A   1      40.387  34.770  30.495  1.00  0.00     0.029 A 
ATOM     42  C   UNL A   1      41.194  33.579  30.312  1.00  0.00     0.049 A 
ATOM     43  H   UNL A   1      40.534  31.594  30.567  1.00  0.00     0.167 HD
ATOM     44  C   UNL A   1      38.889  27.659  29.380  1.00  0.00     0.034 A 
ATOM     45  C   UNL A   1      42.506  33.481  29.984  1.00  0.00     0.034 A 
ATOM     46  C   UNL A   1      39.354  27.554  30.741  1.00  0.00     0.049 A 
ATOM     47  C   UNL A   1      42.921  32.086  30.255  1.00  0.00     0.074 A 
ATOM     48  C   UNL A   1      38.745  27.507  31.978  1.00  0.00     0.029 A 
ATOM     49  N   UNL A   1      40.667  27.886  30.976  1.00  0.00    -0.354 N 
ATOM     50  N   UNL A   1      42.960  31.575  31.454  1.00  0.00    -0.248 NA
ATOM     51  C   UNL A   1      42.847  31.127  29.167  1.00  0.00     0.031 C 
ATOM     52  C   UNL A   1      39.585  28.286  32.826  1.00  0.00     0.029 A 
ATOM     53  C   UNL A   1      40.698  28.687  32.084  1.00  0.00     0.049 A 
ATOM     54  H   UNL A   1      41.444  27.600  30.444  1.00  0.00     0.167 HD
ATOM     55  C   UNL A   1      42.416  30.308  31.295  1.00  0.00     0.074 A 
ATOM     56  C   UNL A   1      42.488  30.040  29.859  1.00  0.00     0.031 C 
ATOM     57  C   UNL A   1      41.673  29.735  32.288  1.00  0.00     0.034 A 
BRANCH  44  58
ATOM     58  C   UNL A   1      39.567  26.879  28.268  1.00  0.00     0.023 A 
ATOM     59  C   UNL A   1      39.381  25.476  28.265  1.00  0.00     0.012 A 
ATOM     60  C   UNL A   1      40.587  27.383  27.429  1.00  0.00     0.148 A 
ATOM     61  C   UNL A   1      40.220  24.619  27.544  1.00  0.00     0.002 A 
ATOM     62  C   UNL A   1      41.371  26.534  26.654  1.00  0.00     0.091 A 
ATOM     63  F   UNL A   1      40.912  28.677  27.464  1.00  0.00    -0.205 F 
ATOM     64  C   UNL A   1      41.218  25.150  26.735  1.00  0.00     0.022 A 
BRANCH  62  65
ATOM     65  S   UNL A   1      42.648  27.173  25.561  1.00  0.00     0.127 S 
ATOM     66  O   UNL A   1      43.678  27.565  26.517  1.00  0.00    -0.237 OA
ATOM     67  O   UNL A   1      42.964  25.996  24.751  1.00  0.00    -0.237 OA
ATOM     68  O   UNL A   1      42.018  28.256  24.817  1.00  0.00    -0.744 OA
ENDBRANCH  62  65
ENDBRANCH  44  58
BRANCH  45  69
ATOM     69  C   UNL A   1      43.362  34.434  29.234  1.00  0.00     0.023 A 
ATOM     70  C   UNL A   1      43.904  35.560  29.884  1.00  0.00     0.012 A 
ATOM     71  C   UNL A   1      43.857  34.114  27.948  1.00  0.00     0.148 A 
ATOM     72  C   UNL A   1      44.918  36.324  29.288  1.00  0.00     0.002 A 
ATOM     73  C   UNL A   1      44.849  34.885  27.351  1.00  0.00     0.091 A 
ATOM     74  F   UNL A   1      43.430  32.995  27.348  1.00  0.00    -0.205 F 
ATOM     75  C   UNL A   1      45.393  35.985  28.023  1.00  0.00     0.022 A 
BRANCH  73  76
ATOM     76  S   UNL A   1      45.507  34.481  25.726  1.00  0.00     0.127 S 
ATOM     77  O   UNL A   1      46.440  35.582  25.488  1.00  0.00    -0.237 OA
ATOM     78  O   UNL A   1      46.132  33.185  25.968  1.00  0.00    -0.237 OA
ATOM     79  O   UNL A   1      44.359  34.473  24.826  1.00  0.00    -0.744 OA
ENDBRANCH  73  76
ENDBRANCH  45  69
BRANCH  57  80
ATOM     80  C   UNL A   1      41.645  30.405  33.641  1.00  0.00     0.023 A 
ATOM     81  C   UNL A   1      42.698  30.274  34.572  1.00  0.00     0.012 A 
ATOM     82  C   UNL A   1      40.635  31.346  33.896  1.00  0.00     0.148 A 
ATOM     83  C   UNL A   1      42.734  31.047  35.735  1.00  0.00     0.002 A 
ATOM     84  C   UNL A   1      40.700  32.150  35.027  1.00  0.00     0.091 A 
ATOM     85  F   UNL A   1      39.642  31.465  33.002  1.00  0.00    -0.205 F 
ATOM     86  C   UNL A   1      41.742  31.997  35.955  1.00  0.00     0.022 A 
BRANCH  84  87
ATOM     87  S   UNL A   1      39.530  33.482  35.290  1.00  0.00     0.127 S 
ATOM     88  O   UNL A   1      39.980  34.038  36.563  1.00  0.00    -0.237 OA
ATOM     89  O   UNL A   1      39.765  34.344  34.129  1.00  0.00    -0.237 OA
ATOM     90  O   UNL A   1      38.211  32.859  35.305  1.00  0.00    -0.744 OA
ENDBRANCH  84  87
ENDBRANCH  57  80
ENDBRANCH  31  32
ENDBRANCH  23  26
ENDBRANCH  21  22
ENDBRANCH   1  21
TORSDOF 16
ENDMDL
MODEL 3
REMARK VINA RESULT:     -11.5      2.797      4.651
REMARK SMILES COc1ccc(-n2ncc(C(=O)NCCCCNC(=O)c3ccc(-c4c5nc(c(-c6cccc(S(=O)(=O)[O-])c6F)c6ccc([nH]6)c(-c6cccc(S(=O)(=O)[O-])c6F)c6nc(c(-c7cccc(S(=O)(=O)[O-])c7F)c7ccc4[nH]7)C=C6)C=C5)cc3)n2)nn1
REMARK SMILES IDX 16 1 15 2 14 3 13 4 11 5 12 6 10 8 7 9 8 10 84 11 9 12 6 13
REMARK SMILES IDX 3 14 4 15 86 16 5 17 85 18 2 19 1 20 17 21 18 22 19 23 20 25
REMARK SMILES IDX 21 26 22 27 83 28 23 29 82 30 24 31 25 32 26 33 76 34 27 35
REMARK SMILES IDX 81 36 75 37 77 38 28 39 80 40 74 41 73 42 29 44 61 45 41 46
REMARK SMILES IDX 60 47 42 48 45 49 59 50 78 51 43 52 44 53 58 55 79 56 46 57
REMARK SMILES IDX 30 58 31 59 39 60 32 61 34 62 40 63 33 64 35 65 36 66 37 67
REMARK SMILES IDX 38 68 62 69 63 70 71 71 64 72 66 73 72 74 65 75 67 76 68 77
REMARK SMILES IDX 69 78 70 79 47 80 48 81 56 82 49 83 51 84 57 85 50 86 52 87
REMARK SMILES IDX 53 88 54 89 55 90
REMARK H PARENT 13 7 18 24 77 43 45 54
REMARK Flexibility Score: inf
ROOT
ATOM      1  C   UNL A   1      35.867  33.339  33.106  1.00  0.00     0.023 C 
ENDROOT
BRANCH   1   2
ATOM      2  C   UNL A   1      35.229  34.527  32.372  1.00  0.00     0.023 C 
BRANCH   2   3
ATOM      3  C   UNL A   1      33.703  34.618  32.461  1.00  0.00     0.116 C 
BRANCH   3   4
ATOM      4  N   UNL A   1      33.197  35.867  31.924  1.00  0.00    -0.351 N 
ATOM      5  C   UNL A   1      33.172  36.402  30.654  1.00  0.00     0.273 C 
ATOM      6  O   UNL A   1      32.922  37.606  30.581  1.00  0.00    -0.267 OA
ATOM      7  H   UNL A   1      32.789  36.451  32.605  1.00  0.00     0.163 HD
BRANCH   5   8
ATOM      8  C   UNL A   1      33.422  35.590  29.451  1.00  0.00     0.170 A 
ATOM      9  N   UNL A   1      33.291  33.950  28.109  1.00  0.00    -0.130 N 
ATOM     10  N   UNL A   1      34.392  34.613  27.655  1.00  0.00    -0.154 NA
ATOM     11  N   UNL A   1      32.593  34.584  29.085  1.00  0.00    -0.141 NA
ATOM     12  C   UNL A   1      34.504  35.594  28.551  1.00  0.00     0.172 A 
BRANCH   9  13
ATOM     13  C   UNL A   1      32.925  32.687  27.555  1.00  0.00     0.196 A 
ATOM     14  C   UNL A   1      32.154  30.278  26.555  1.00  0.00     0.233 A 
ATOM     15  C   UNL A   1      31.348  31.371  26.310  1.00  0.00     0.074 A 
ATOM     16  N   UNL A   1      33.296  30.368  27.266  1.00  0.00    -0.110 NA
ATOM     17  C   UNL A   1      31.742  32.602  26.820  1.00  0.00     0.058 A 
ATOM     18  N   UNL A   1      33.700  31.594  27.757  1.00  0.00    -0.125 NA
BRANCH  14  19
ATOM     19  O   UNL A   1      31.769  29.023  26.158  1.00  0.00    -0.480 OA
ATOM     20  C   UNL A   1      32.034  28.851  24.769  1.00  0.00     0.280 C 
ENDBRANCH  14  19
ENDBRANCH   9  13
ENDBRANCH   5   8
ENDBRANCH   3   4
ENDBRANCH   2   3
ENDBRANCH   1   2
BRANCH   1  21
ATOM     21  C   UNL A   1      36.079  32.098  32.245  1.00  0.00     0.116 C 
BRANCH  21  22
ATOM     22  N   UNL A   1      35.917  32.363  30.814  1.00  0.00    -0.352 N 
ATOM     23  C   UNL A   1      36.843  32.171  29.804  1.00  0.00     0.251 C 
ATOM     24  H   UNL A   1      35.044  32.723  30.537  1.00  0.00     0.163 HD
ATOM     25  O   UNL A   1      36.747  32.755  28.739  1.00  0.00    -0.269 OA
BRANCH  23  26
ATOM     26  C   UNL A   1      37.948  31.225  30.041  1.00  0.00     0.039 A 
ATOM     27  C   UNL A   1      37.728  29.844  30.090  1.00  0.00     0.014 A 
ATOM     28  C   UNL A   1      39.226  31.756  30.184  1.00  0.00     0.014 A 
ATOM     29  C   UNL A   1      38.823  28.988  30.196  1.00  0.00     0.010 A 
ATOM     30  C   UNL A   1      40.308  30.916  30.158  1.00  0.00     0.010 A 
ATOM     31  C   UNL A   1      40.110  29.535  30.211  1.00  0.00    -0.014 A 
BRANCH  31  32
ATOM     32  C   UNL A   1      41.300  28.692  30.130  1.00  0.00     0.031 A 
ATOM     33  C   UNL A   1      42.076  28.580  31.401  1.00  0.00     0.074 A 
ATOM     34  C   UNL A   1      41.449  27.846  29.085  1.00  0.00     0.049 A 
ATOM     35  N   UNL A   1      43.336  28.804  31.583  1.00  0.00    -0.248 NA
ATOM     36  C   UNL A   1      41.342  28.314  32.652  1.00  0.00     0.031 C 
ATOM     37  C   UNL A   1      40.546  27.708  27.931  1.00  0.00     0.029 A 
ATOM     38  N   UNL A   1      42.292  26.786  28.933  1.00  0.00    -0.354 N 
ATOM     39  C   UNL A   1      43.593  28.463  32.912  1.00  0.00     0.074 A 
ATOM     40  C   UNL A   1      42.314  28.397  33.562  1.00  0.00     0.031 C 
ATOM     41  C   UNL A   1      40.699  26.482  27.390  1.00  0.00     0.029 A 
ATOM     42  C   UNL A   1      41.797  25.812  28.059  1.00  0.00     0.049 A 
ATOM     43  H   UNL A   1      43.160  26.712  29.391  1.00  0.00     0.167 HD
ATOM     44  C   UNL A   1      44.810  27.983  33.297  1.00  0.00     0.034 A 
ATOM     45  C   UNL A   1      42.196  24.520  27.956  1.00  0.00     0.034 A 
ATOM     46  C   UNL A   1      45.809  28.237  32.289  1.00  0.00     0.049 A 
ATOM     47  C   UNL A   1      43.543  24.429  28.565  1.00  0.00     0.074 A 
ATOM     48  C   UNL A   1      46.284  29.364  31.650  1.00  0.00     0.029 A 
ATOM     49  N   UNL A   1      46.195  27.170  31.514  1.00  0.00    -0.354 N 
ATOM     50  N   UNL A   1      44.591  25.020  28.064  1.00  0.00    -0.248 NA
ATOM     51  C   UNL A   1      43.635  24.073  29.970  1.00  0.00     0.031 C 
ATOM     52  C   UNL A   1      46.488  28.956  30.300  1.00  0.00     0.029 A 
ATOM     53  C   UNL A   1      46.214  27.590  30.213  1.00  0.00     0.049 A 
ATOM     54  H   UNL A   1      46.417  26.267  31.837  1.00  0.00     0.167 HD
ATOM     55  C   UNL A   1      45.239  25.548  29.172  1.00  0.00     0.074 A 
ATOM     56  C   UNL A   1      44.684  24.827  30.317  1.00  0.00     0.031 C 
ATOM     57  C   UNL A   1      45.921  26.730  29.089  1.00  0.00     0.034 A 
BRANCH  44  58
ATOM     58  C   UNL A   1      45.046  26.940  34.375  1.00  0.00     0.023 A 
ATOM     59  C   UNL A   1      46.013  27.246  35.361  1.00  0.00     0.012 A 
ATOM     60  C   UNL A   1      44.611  25.596  34.312  1.00  0.00     0.148 A 
ATOM     61  C   UNL A   1      46.582  26.258  36.173  1.00  0.00     0.002 A 
ATOM     62  C   UNL A   1      45.123  24.630  35.172  1.00  0.00     0.091 A 
ATOM     63  F   UNL A   1      43.796  25.195  33.334  1.00  0.00    -0.205 F 
ATOM     64  C   UNL A   1      46.135  24.947  36.079  1.00  0.00     0.022 A 
BRANCH  62  65
ATOM     65  S   UNL A   1      44.550  22.927  35.118  1.00  0.00     0.127 S 
ATOM     66  O   UNL A   1      45.153  22.457  33.875  1.00  0.00    -0.237 OA
ATOM     67  O   UNL A   1      45.134  22.376  36.341  1.00  0.00    -0.237 OA
ATOM     68  O   UNL A   1      43.094  23.004  35.136  1.00  0.00    -0.744 OA
ENDBRANCH  62  65
ENDBRANCH  44  58
BRANCH  45  69
ATOM     69  C   UNL A   1      41.407  23.318  27.589  1.00  0.00     0.023 A 
ATOM     70  C   UNL A   1      40.030  23.434  27.316  1.00  0.00     0.012 A 
ATOM     71  C   UNL A   1      42.044  22.099  27.258  1.00  0.00     0.148 A 
ATOM     72  C   UNL A   1      39.319  22.384  26.714  1.00  0.00     0.002 A 
ATOM     73  C   UNL A   1      41.332  21.053  26.678  1.00  0.00     0.091 A 
ATOM     74  F   UNL A   1      43.370  21.995  27.416  1.00  0.00    -0.205 F 
ATOM     75  C   UNL A   1      39.970  21.196  26.393  1.00  0.00     0.022 A 
BRANCH  73  76
ATOM     76  S   UNL A   1      42.129  19.505  26.231  1.00  0.00     0.127 S 
ATOM     77  O   UNL A   1      43.219  19.957  25.366  1.00  0.00    -0.237 OA
ATOM     78  O   UNL A   1      42.547  18.993  27.532  1.00  0.00    -0.237 OA
ATOM     79  O   UNL A   1      41.111  18.721  25.539  1.00  0.00    -0.744 OA
ENDBRANCH  73  76
ENDBRANCH  45  69
BRANCH  57  80
ATOM     80  C   UNL A   1      46.149  27.331  27.722  1.00  0.00     0.023 A 
ATOM     81  C   UNL A   1      45.340  28.367  27.207  1.00  0.00     0.012 A 
ATOM     82  C   UNL A   1      47.323  26.988  27.033  1.00  0.00     0.148 A 
ATOM     83  C   UNL A   1      45.682  29.029  26.025  1.00  0.00     0.002 A 
ATOM     84  C   UNL A   1      47.687  27.683  25.887  1.00  0.00     0.091 A 
ATOM     85  F   UNL A   1      48.086  26.005  27.535  1.00  0.00    -0.205 F 
ATOM     86  C   UNL A   1      46.865  28.698  25.373  1.00  0.00     0.022 A 
BRANCH  84  87
ATOM     87  S   UNL A   1      49.265  27.394  25.087  1.00  0.00     0.127 S 
ATOM     88  O   UNL A   1      49.095  28.094  23.816  1.00  0.00    -0.237 OA
ATOM     89  O   UNL A   1      50.209  28.026  26.012  1.00  0.00    -0.237 OA
ATOM     90  O   UNL A   1      49.408  25.946  24.995  1.00  0.00    -0.744 OA
ENDBRANCH  84  87
ENDBRANCH  57  80
ENDBRANCH  31  32
ENDBRANCH  23  26
ENDBRANCH  21  22
ENDBRANCH   1  21
TORSDOF 16
ENDMDL
