MODEL 1
REMARK VINA RESULT:     -12.9      0.000      0.000
REMARK SMILES O=C(NCCCCNC(=O)c1ccc(-c2c3nc(c(-c4cccc(S(=O)(=O)[O-])c4F)c4ccc([nH]4)c(-c4cccc(S(=O)(=O)[O-])c4F)c4nc(c(-c5cccc(S(=O)(=O)[O-])c5F)c5ccc2[nH]5)C=C4)C=C3)cc1)C1=Cc2c(ccc(Cl)c2Cl)O[C@H]1C(F)(F)F
REMARK SMILES IDX 6 1 5 2 4 3 3 4 1 5 2 6 74 8 75 9 85 10 76 11 84 12 77 13
REMARK SMILES IDX 82 14 78 15 80 16 83 17 79 18 81 19 86 20 87 21 88 22 89 23
REMARK SMILES IDX 7 24 8 25 9 26 10 28 11 29 12 30 73 31 13 32 72 33 14 34
REMARK SMILES IDX 15 35 16 36 66 37 17 38 71 39 65 40 67 41 18 42 70 43 64 44
REMARK SMILES IDX 63 45 19 47 51 48 31 49 50 50 32 51 35 52 49 53 68 54 33 55
REMARK SMILES IDX 34 56 48 58 69 59 36 60 20 61 21 62 29 63 22 64 24 65 30 66
REMARK SMILES IDX 23 67 25 68 26 69 27 70 28 71 52 72 53 73 61 74 54 75 56 76
REMARK SMILES IDX 62 77 55 78 57 79 58 80 59 81 60 82 37 83 38 84 46 85 39 86
REMARK SMILES IDX 41 87 47 88 40 89 42 90 43 91 44 92 45 93
REMARK H PARENT 3 7 8 27 67 46 35 57
REMARK Flexibility Score: inf
ROOT
ATOM      1  C   UNL A   1      31.428  29.929  25.357  1.00  0.00     0.023 C 
ENDROOT
BRANCH   1   2
ATOM      2  C   UNL A   1      31.768  28.997  24.198  1.00  0.00     0.023 C 
BRANCH   2   3
ATOM      3  C   UNL A   1      33.210  28.513  24.127  1.00  0.00     0.116 C 
BRANCH   3   4
ATOM      4  N   UNL A   1      33.505  27.547  23.081  1.00  0.00    -0.352 N 
ATOM      5  O   UNL A   1      33.934  25.496  22.221  1.00  0.00    -0.270 OA
ATOM      6  C   UNL A   1      33.615  26.182  23.186  1.00  0.00     0.251 C 
ATOM      7  H   UNL A   1      33.643  27.920  22.180  1.00  0.00     0.163 HD
BRANCH   6   8
ATOM      8  C   UNL A   1      33.395  25.521  24.506  1.00  0.00     0.067 C 
ATOM      9  C   UNL A   1      34.507  25.049  25.089  1.00  0.00     0.027 C 
ATOM     10  C   UNL A   1      32.061  24.848  24.660  1.00  0.00     0.314 C 
ATOM     11  C   UNL A   1      34.568  23.585  25.204  1.00  0.00     0.037 A 
ATOM     12  O   UNL A   1      32.139  23.427  24.978  1.00  0.00    -0.475 OA
ATOM     13  C   UNL A   1      33.381  22.854  25.065  1.00  0.00     0.129 A 
ATOM     14  C   UNL A   1      35.810  22.916  25.214  1.00  0.00     0.070 A 
ATOM     15  C   UNL A   1      33.426  21.471  24.900  1.00  0.00     0.049 A 
ATOM     16  C   UNL A   1      35.846  21.531  25.013  1.00  0.00     0.060 A 
ATOM     17  Cl  UNL A   1      37.283  23.826  25.376  1.00  0.00    -0.082 Cl
ATOM     18  C   UNL A   1      34.656  20.816  24.844  1.00  0.00     0.026 A 
ATOM     19  Cl  UNL A   1      37.328  20.648  24.906  1.00  0.00    -0.083 Cl
BRANCH  10  20
ATOM     20  C   UNL A   1      31.189  25.581  25.704  1.00  0.00     0.429 C 
ATOM     21  F   UNL A   1      30.584  24.747  26.580  1.00  0.00    -0.167 F 
ATOM     22  F   UNL A   1      31.933  26.451  26.432  1.00  0.00    -0.167 F 
ATOM     23  F   UNL A   1      30.200  26.306  25.121  1.00  0.00    -0.167 F 
ENDBRANCH  10  20
ENDBRANCH   6   8
ENDBRANCH   3   4
ENDBRANCH   2   3
ENDBRANCH   1   2
BRANCH   1  24
ATOM     24  C   UNL A   1      32.560  30.267  26.328  1.00  0.00     0.116 C 
BRANCH  24  25
ATOM     25  N   UNL A   1      32.513  31.615  26.881  1.00  0.00    -0.352 N 
ATOM     26  C   UNL A   1      33.483  32.304  27.586  1.00  0.00     0.251 C 
ATOM     27  H   UNL A   1      31.671  32.104  26.733  1.00  0.00     0.163 HD
ATOM     28  O   UNL A   1      33.251  33.429  28.002  1.00  0.00    -0.269 OA
BRANCH  26  29
ATOM     29  C   UNL A   1      34.774  31.640  27.894  1.00  0.00     0.039 A 
ATOM     30  C   UNL A   1      35.923  32.429  28.003  1.00  0.00     0.014 A 
ATOM     31  C   UNL A   1      34.836  30.272  28.165  1.00  0.00     0.014 A 
ATOM     32  C   UNL A   1      37.101  31.870  28.511  1.00  0.00     0.010 A 
ATOM     33  C   UNL A   1      35.984  29.737  28.743  1.00  0.00     0.010 A 
ATOM     34  C   UNL A   1      37.119  30.537  28.952  1.00  0.00    -0.014 A 
BRANCH  34  35
ATOM     35  C   UNL A   1      38.274  29.987  29.714  1.00  0.00     0.031 A 
ATOM     36  C   UNL A   1      38.580  30.470  31.104  1.00  0.00     0.074 A 
ATOM     37  C   UNL A   1      39.127  29.143  29.098  1.00  0.00     0.049 A 
ATOM     38  N   UNL A   1      39.587  30.158  31.879  1.00  0.00    -0.248 NA
ATOM     39  C   UNL A   1      37.655  31.455  31.686  1.00  0.00     0.031 C 
ATOM     40  C   UNL A   1      39.005  28.677  27.714  1.00  0.00     0.029 A 
ATOM     41  N   UNL A   1      40.284  28.551  29.542  1.00  0.00    -0.354 N 
ATOM     42  C   UNL A   1      39.440  30.934  33.022  1.00  0.00     0.074 A 
ATOM     43  C   UNL A   1      38.263  31.753  32.827  1.00  0.00     0.031 C 
ATOM     44  C   UNL A   1      40.040  27.872  27.425  1.00  0.00     0.029 A 
ATOM     45  C   UNL A   1      40.913  27.781  28.590  1.00  0.00     0.049 A 
ATOM     46  H   UNL A   1      40.632  28.667  30.455  1.00  0.00     0.167 HD
ATOM     47  C   UNL A   1      40.195  30.942  34.148  1.00  0.00     0.034 A 
ATOM     48  C   UNL A   1      42.063  27.079  28.645  1.00  0.00     0.034 A 
ATOM     49  C   UNL A   1      41.331  30.088  34.366  1.00  0.00     0.049 A 
ATOM     50  C   UNL A   1      42.842  27.046  29.931  1.00  0.00     0.074 A 
ATOM     51  C   UNL A   1      42.093  29.947  35.513  1.00  0.00     0.029 A 
ATOM     52  N   UNL A   1      41.870  29.230  33.421  1.00  0.00    -0.354 N 
ATOM     53  N   UNL A   1      42.581  27.645  31.066  1.00  0.00    -0.248 NA
ATOM     54  C   UNL A   1      44.052  26.210  29.957  1.00  0.00     0.031 C 
ATOM     55  C   UNL A   1      43.098  29.006  35.258  1.00  0.00     0.029 A 
ATOM     56  C   UNL A   1      42.956  28.557  33.954  1.00  0.00     0.049 A 
ATOM     57  H   UNL A   1      41.530  29.116  32.504  1.00  0.00     0.167 HD
ATOM     58  C   UNL A   1      43.573  27.236  31.951  1.00  0.00     0.074 A 
ATOM     59  C   UNL A   1      44.429  26.320  31.225  1.00  0.00     0.031 C 
ATOM     60  C   UNL A   1      43.765  27.602  33.243  1.00  0.00     0.034 A 
BRANCH  47  61
ATOM     61  C   UNL A   1      39.766  31.858  35.262  1.00  0.00     0.023 A 
ATOM     62  C   UNL A   1      40.211  33.197  35.261  1.00  0.00     0.012 A 
ATOM     63  C   UNL A   1      38.897  31.421  36.278  1.00  0.00     0.148 A 
ATOM     64  C   UNL A   1      39.829  34.075  36.274  1.00  0.00     0.002 A 
ATOM     65  C   UNL A   1      38.489  32.313  37.265  1.00  0.00     0.091 A 
ATOM     66  F   UNL A   1      38.502  30.139  36.280  1.00  0.00    -0.205 F 
ATOM     67  C   UNL A   1      38.961  33.636  37.270  1.00  0.00     0.022 A 
BRANCH  65  68
ATOM     68  S   UNL A   1      37.315  31.854  38.545  1.00  0.00     0.127 S 
ATOM     69  O   UNL A   1      38.096  32.083  39.760  1.00  0.00    -0.237 OA
ATOM     70  O   UNL A   1      36.227  32.809  38.332  1.00  0.00    -0.237 OA
ATOM     71  O   UNL A   1      36.959  30.467  38.274  1.00  0.00    -0.744 OA
ENDBRANCH  65  68
ENDBRANCH  47  61
BRANCH  48  72
ATOM     72  C   UNL A   1      42.492  26.272  27.467  1.00  0.00     0.023 A 
ATOM     73  C   UNL A   1      43.342  26.858  26.510  1.00  0.00     0.012 A 
ATOM     74  C   UNL A   1      42.113  24.925  27.316  1.00  0.00     0.148 A 
ATOM     75  C   UNL A   1      43.787  26.126  25.410  1.00  0.00     0.002 A 
ATOM     76  C   UNL A   1      42.601  24.184  26.245  1.00  0.00     0.091 A 
ATOM     77  F   UNL A   1      41.293  24.388  28.231  1.00  0.00    -0.205 F 
ATOM     78  C   UNL A   1      43.428  24.786  25.283  1.00  0.00     0.022 A 
BRANCH  76  79
ATOM     79  S   UNL A   1      42.299  22.420  26.077  1.00  0.00     0.127 S 
ATOM     80  O   UNL A   1      43.016  22.109  24.844  1.00  0.00    -0.237 OA
ATOM     81  O   UNL A   1      42.910  21.889  27.297  1.00  0.00    -0.237 OA
ATOM     82  O   UNL A   1      40.850  22.277  26.026  1.00  0.00    -0.744 OA
ENDBRANCH  76  79
ENDBRANCH  48  72
BRANCH  60  83
ATOM     83  C   UNL A   1      44.935  26.999  33.972  1.00  0.00     0.023 A 
ATOM     84  C   UNL A   1      46.187  27.643  33.930  1.00  0.00     0.012 A 
ATOM     85  C   UNL A   1      44.777  25.847  34.768  1.00  0.00     0.148 A 
ATOM     86  C   UNL A   1      47.269  27.137  34.649  1.00  0.00     0.002 A 
ATOM     87  C   UNL A   1      45.849  25.372  35.515  1.00  0.00     0.091 A 
ATOM     88  F   UNL A   1      43.584  25.233  34.777  1.00  0.00    -0.205 F 
ATOM     89  C   UNL A   1      47.097  26.011  35.450  1.00  0.00     0.022 A 
BRANCH  87  90
ATOM     90  S   UNL A   1      45.688  23.981  36.640  1.00  0.00     0.127 S 
ATOM     91  O   UNL A   1      44.713  24.488  37.605  1.00  0.00    -0.237 OA
ATOM     92  O   UNL A   1      45.184  22.923  35.765  1.00  0.00    -0.237 OA
ATOM     93  O   UNL A   1      47.025  23.739  37.164  1.00  0.00    -0.744 OA
ENDBRANCH  87  90
ENDBRANCH  60  83
ENDBRANCH  34  35
ENDBRANCH  26  29
ENDBRANCH  24  25
ENDBRANCH   1  24
TORSDOF 15
ENDMDL
MODEL 2
REMARK VINA RESULT:     -12.9      1.446      1.819
REMARK SMILES O=C(NCCCCNC(=O)c1ccc(-c2c3nc(c(-c4cccc(S(=O)(=O)[O-])c4F)c4ccc([nH]4)c(-c4cccc(S(=O)(=O)[O-])c4F)c4nc(c(-c5cccc(S(=O)(=O)[O-])c5F)c5ccc2[nH]5)C=C4)C=C3)cc1)C1=Cc2c(ccc(Cl)c2Cl)O[C@H]1C(F)(F)F
REMARK SMILES IDX 6 1 5 2 4 3 3 4 1 5 2 6 74 8 75 9 85 10 76 11 84 12 77 13
REMARK SMILES IDX 82 14 78 15 80 16 83 17 79 18 81 19 86 20 87 21 88 22 89 23
REMARK SMILES IDX 7 24 8 25 9 26 10 28 11 29 12 30 73 31 13 32 72 33 14 34
REMARK SMILES IDX 15 35 16 36 66 37 17 38 71 39 65 40 67 41 18 42 70 43 64 44
REMARK SMILES IDX 63 45 19 47 51 48 31 49 50 50 32 51 35 52 49 53 68 54 33 55
REMARK SMILES IDX 34 56 48 58 69 59 36 60 20 61 21 62 29 63 22 64 24 65 30 66
REMARK SMILES IDX 23 67 25 68 26 69 27 70 28 71 52 72 53 73 61 74 54 75 56 76
REMARK SMILES IDX 62 77 55 78 57 79 58 80 59 81 60 82 37 83 38 84 46 85 39 86
REMARK SMILES IDX 41 87 47 88 40 89 42 90 43 91 44 92 45 93
REMARK H PARENT 3 7 8 27 67 46 35 57
REMARK Flexibility Score: inf
ROOT
ATOM      1  C   UNL A   1      31.782  29.641  25.278  1.00  0.00     0.023 C 
ENDROOT
BRANCH   1   2
ATOM      2  C   UNL A   1      32.839  29.267  24.244  1.00  0.00     0.023 C 
BRANCH   2   3
ATOM      3  C   UNL A   1      32.344  29.092  22.814  1.00  0.00     0.116 C 
BRANCH   3   4
ATOM      4  N   UNL A   1      33.056  28.110  22.011  1.00  0.00    -0.352 N 
ATOM      5  O   UNL A   1      33.835  26.054  21.471  1.00  0.00    -0.270 OA
ATOM      6  C   UNL A   1      33.140  26.752  22.200  1.00  0.00     0.251 C 
ATOM      7  H   UNL A   1      33.541  28.465  21.230  1.00  0.00     0.163 HD
BRANCH   6   8
ATOM      8  C   UNL A   1      32.416  26.118  23.340  1.00  0.00     0.067 C 
ATOM      9  C   UNL A   1      33.208  25.552  24.262  1.00  0.00     0.027 C 
ATOM     10  C   UNL A   1      31.062  25.564  22.998  1.00  0.00     0.314 C 
ATOM     11  C   UNL A   1      33.104  24.089  24.351  1.00  0.00     0.037 A 
ATOM     12  O   UNL A   1      30.905  24.143  23.284  1.00  0.00    -0.475 OA
ATOM     13  C   UNL A   1      31.985  23.464  23.785  1.00  0.00     0.129 A 
ATOM     14  C   UNL A   1      34.204  23.314  24.777  1.00  0.00     0.070 A 
ATOM     15  C   UNL A   1      31.970  22.082  23.607  1.00  0.00     0.049 A 
ATOM     16  C   UNL A   1      34.193  21.930  24.564  1.00  0.00     0.060 A 
ATOM     17  Cl  UNL A   1      35.595  24.093  25.470  1.00  0.00    -0.082 Cl
ATOM     18  C   UNL A   1      33.083  21.321  23.969  1.00  0.00     0.026 A 
ATOM     19  Cl  UNL A   1      35.539  20.921  24.957  1.00  0.00    -0.083 Cl
BRANCH  10  20
ATOM     20  C   UNL A   1      29.942  26.374  23.690  1.00  0.00     0.429 C 
ATOM     21  F   UNL A   1      30.249  26.743  24.955  1.00  0.00    -0.167 F 
ATOM     22  F   UNL A   1      29.669  27.510  23.000  1.00  0.00    -0.167 F 
ATOM     23  F   UNL A   1      28.782  25.675  23.766  1.00  0.00    -0.167 F 
ENDBRANCH  10  20
ENDBRANCH   6   8
ENDBRANCH   3   4
ENDBRANCH   2   3
ENDBRANCH   1   2
BRANCH   1  24
ATOM     24  C   UNL A   1      32.282  30.011  26.675  1.00  0.00     0.116 C 
BRANCH  24  25
ATOM     25  N   UNL A   1      32.270  31.438  26.974  1.00  0.00    -0.352 N 
ATOM     26  C   UNL A   1      33.283  32.234  27.476  1.00  0.00     0.251 C 
ATOM     27  H   UNL A   1      31.419  31.901  26.792  1.00  0.00     0.163 HD
ATOM     28  O   UNL A   1      33.078  33.419  27.692  1.00  0.00    -0.269 OA
BRANCH  26  29
ATOM     29  C   UNL A   1      34.592  31.624  27.817  1.00  0.00     0.039 A 
ATOM     30  C   UNL A   1      35.690  32.464  28.018  1.00  0.00     0.014 A 
ATOM     31  C   UNL A   1      34.714  30.249  28.029  1.00  0.00     0.014 A 
ATOM     32  C   UNL A   1      36.872  31.943  28.558  1.00  0.00     0.010 A 
ATOM     33  C   UNL A   1      35.861  29.747  28.639  1.00  0.00     0.010 A 
ATOM     34  C   UNL A   1      36.940  30.593  28.939  1.00  0.00    -0.014 A 
BRANCH  34  35
ATOM     35  C   UNL A   1      38.086  30.068  29.732  1.00  0.00     0.031 A 
ATOM     36  C   UNL A   1      38.334  30.543  31.136  1.00  0.00     0.074 A 
ATOM     37  C   UNL A   1      38.983  29.256  29.134  1.00  0.00     0.049 A 
ATOM     38  N   UNL A   1      39.324  30.250  31.940  1.00  0.00    -0.248 NA
ATOM     39  C   UNL A   1      37.362  31.494  31.699  1.00  0.00     0.031 C 
ATOM     40  C   UNL A   1      38.918  28.804  27.741  1.00  0.00     0.029 A 
ATOM     41  N   UNL A   1      40.142  28.693  29.608  1.00  0.00    -0.354 N 
ATOM     42  C   UNL A   1      39.118  31.008  33.086  1.00  0.00     0.074 A 
ATOM     43  C   UNL A   1      37.924  31.795  32.862  1.00  0.00     0.031 C 
ATOM     44  C   UNL A   1      39.985  28.033  27.477  1.00  0.00     0.029 A 
ATOM     45  C   UNL A   1      40.823  27.953  28.669  1.00  0.00     0.049 A 
ATOM     46  H   UNL A   1      40.457  28.808  30.533  1.00  0.00     0.167 HD
ATOM     47  C   UNL A   1      39.837  31.025  34.235  1.00  0.00     0.034 A 
ATOM     48  C   UNL A   1      41.990  27.283  28.753  1.00  0.00     0.034 A 
ATOM     49  C   UNL A   1      40.989  30.201  34.480  1.00  0.00     0.049 A 
ATOM     50  C   UNL A   1      42.729  27.257  30.063  1.00  0.00     0.074 A 
ATOM     51  C   UNL A   1      41.718  30.068  35.649  1.00  0.00     0.029 A 
ATOM     52  N   UNL A   1      41.583  29.370  33.543  1.00  0.00    -0.354 N 
ATOM     53  N   UNL A   1      42.414  27.835  31.195  1.00  0.00    -0.248 NA
ATOM     54  C   UNL A   1      43.961  26.456  30.119  1.00  0.00     0.031 C 
ATOM     55  C   UNL A   1      42.758  29.160  35.416  1.00  0.00     0.029 A 
ATOM     56  C   UNL A   1      42.671  28.723  34.104  1.00  0.00     0.049 A 
ATOM     57  H   UNL A   1      41.276  29.257  32.615  1.00  0.00     0.167 HD
ATOM     58  C   UNL A   1      43.389  27.444  32.107  1.00  0.00     0.074 A 
ATOM     59  C   UNL A   1      44.294  26.562  31.399  1.00  0.00     0.031 C 
ATOM     60  C   UNL A   1      43.530  27.800  33.408  1.00  0.00     0.034 A 
BRANCH  47  61
ATOM     61  C   UNL A   1      39.346  31.914  35.345  1.00  0.00     0.023 A 
ATOM     62  C   UNL A   1      38.414  31.405  36.274  1.00  0.00     0.012 A 
ATOM     63  C   UNL A   1      39.828  33.227  35.501  1.00  0.00     0.148 A 
ATOM     64  C   UNL A   1      37.942  32.199  37.318  1.00  0.00     0.002 A 
ATOM     65  C   UNL A   1      39.381  34.001  36.568  1.00  0.00     0.091 A 
ATOM     66  F   UNL A   1      40.693  33.707  34.596  1.00  0.00    -0.205 F 
ATOM     67  C   UNL A   1      38.432  33.492  37.470  1.00  0.00     0.022 A 
BRANCH  65  68
ATOM     68  S   UNL A   1      40.013  35.653  36.883  1.00  0.00     0.127 S 
ATOM     69  O   UNL A   1      41.452  35.410  36.965  1.00  0.00    -0.237 OA
ATOM     70  O   UNL A   1      39.587  36.386  35.690  1.00  0.00    -0.237 OA
ATOM     71  O   UNL A   1      39.373  36.090  38.116  1.00  0.00    -0.744 OA
ENDBRANCH  65  68
ENDBRANCH  47  61
BRANCH  48  72
ATOM     72  C   UNL A   1      42.480  26.503  27.580  1.00  0.00     0.023 A 
ATOM     73  C   UNL A   1      43.341  27.126  26.656  1.00  0.00     0.012 A 
ATOM     74  C   UNL A   1      42.147  25.147  27.403  1.00  0.00     0.148 A 
ATOM     75  C   UNL A   1      43.842  26.420  25.563  1.00  0.00     0.002 A 
ATOM     76  C   UNL A   1      42.690  24.434  26.340  1.00  0.00     0.091 A 
ATOM     77  F   UNL A   1      41.315  24.575  28.286  1.00  0.00    -0.205 F 
ATOM     78  C   UNL A   1      43.528  25.072  25.411  1.00  0.00     0.022 A 
BRANCH  76  79
ATOM     79  S   UNL A   1      42.447  22.664  26.145  1.00  0.00     0.127 S 
ATOM     80  O   UNL A   1      43.089  22.139  27.347  1.00  0.00    -0.237 OA
ATOM     81  O   UNL A   1      40.987  22.557  26.129  1.00  0.00    -0.237 OA
ATOM     82  O   UNL A   1      43.083  22.321  24.880  1.00  0.00    -0.744 OA
ENDBRANCH  76  79
ENDBRANCH  48  72
BRANCH  60  83
ATOM     83  C   UNL A   1      44.692  27.222  34.169  1.00  0.00     0.023 A 
ATOM     84  C   UNL A   1      45.935  27.887  34.149  1.00  0.00     0.012 A 
ATOM     85  C   UNL A   1      44.536  26.073  34.968  1.00  0.00     0.148 A 
ATOM     86  C   UNL A   1      47.008  27.405  34.896  1.00  0.00     0.002 A 
ATOM     87  C   UNL A   1      45.599  25.621  35.743  1.00  0.00     0.091 A 
ATOM     88  F   UNL A   1      43.354  25.439  34.956  1.00  0.00    -0.205 F 
ATOM     89  C   UNL A   1      46.837  26.282  35.702  1.00  0.00     0.022 A 
BRANCH  87  90
ATOM     90  S   UNL A   1      45.436  24.236  36.874  1.00  0.00     0.127 S 
ATOM     91  O   UNL A   1      46.771  24.175  37.467  1.00  0.00    -0.237 OA
ATOM     92  O   UNL A   1      44.386  24.693  37.784  1.00  0.00    -0.237 OA
ATOM     93  O   UNL A   1      45.059  23.095  36.051  1.00  0.00    -0.744 OA
ENDBRANCH  87  90
ENDBRANCH  60  83
ENDBRANCH  34  35
ENDBRANCH  26  29
ENDBRANCH  24  25
ENDBRANCH   1  24
TORSDOF 15
ENDMDL
MODEL 3
REMARK VINA RESULT:     -12.9      5.257     10.192
REMARK SMILES O=C(NCCCCNC(=O)c1ccc(-c2c3nc(c(-c4cccc(S(=O)(=O)[O-])c4F)c4ccc([nH]4)c(-c4cccc(S(=O)(=O)[O-])c4F)c4nc(c(-c5cccc(S(=O)(=O)[O-])c5F)c5ccc2[nH]5)C=C4)C=C3)cc1)C1=Cc2c(ccc(Cl)c2Cl)O[C@H]1C(F)(F)F
REMARK SMILES IDX 6 1 5 2 4 3 3 4 1 5 2 6 74 8 75 9 85 10 76 11 84 12 77 13
REMARK SMILES IDX 82 14 78 15 80 16 83 17 79 18 81 19 86 20 87 21 88 22 89 23
REMARK SMILES IDX 7 24 8 25 9 26 10 28 11 29 12 30 73 31 13 32 72 33 14 34
REMARK SMILES IDX 15 35 16 36 66 37 17 38 71 39 65 40 67 41 18 42 70 43 64 44
REMARK SMILES IDX 63 45 19 47 51 48 31 49 50 50 32 51 35 52 49 53 68 54 33 55
REMARK SMILES IDX 34 56 48 58 69 59 36 60 20 61 21 62 29 63 22 64 24 65 30 66
REMARK SMILES IDX 23 67 25 68 26 69 27 70 28 71 52 72 53 73 61 74 54 75 56 76
REMARK SMILES IDX 62 77 55 78 57 79 58 80 59 81 60 82 37 83 38 84 46 85 39 86
REMARK SMILES IDX 41 87 47 88 40 89 42 90 43 91 44 92 45 93
REMARK H PARENT 3 7 8 27 67 46 35 57
REMARK Flexibility Score: inf
ROOT
ATOM      1  C   UNL A   1      35.627  20.838  25.002  1.00  0.00     0.023 C 
ENDROOT
BRANCH   1   2
ATOM      2  C   UNL A   1      34.443  21.072  25.935  1.00  0.00     0.023 C 
BRANCH   2   3
ATOM      3  C   UNL A   1      34.492  22.341  26.775  1.00  0.00     0.116 C 
BRANCH   3   4
ATOM      4  N   UNL A   1      33.206  22.881  27.186  1.00  0.00    -0.352 N 
ATOM      5  O   UNL A   1      31.466  24.329  27.157  1.00  0.00    -0.270 OA
ATOM      6  C   UNL A   1      32.520  23.948  26.660  1.00  0.00     0.251 C 
ATOM      7  H   UNL A   1      32.770  22.420  27.940  1.00  0.00     0.163 HD
BRANCH   6   8
ATOM      8  C   UNL A   1      33.087  24.692  25.498  1.00  0.00     0.067 C 
ATOM      9  C   UNL A   1      33.597  25.896  25.797  1.00  0.00     0.027 C 
ATOM     10  C   UNL A   1      32.422  24.407  24.181  1.00  0.00     0.314 C 
ATOM     11  C   UNL A   1      32.870  27.034  25.219  1.00  0.00     0.037 A 
ATOM     12  O   UNL A   1      31.879  25.586  23.516  1.00  0.00    -0.475 OA
ATOM     13  C   UNL A   1      31.991  26.794  24.154  1.00  0.00     0.129 A 
ATOM     14  C   UNL A   1      32.867  28.289  25.865  1.00  0.00     0.070 A 
ATOM     15  C   UNL A   1      31.089  27.778  23.755  1.00  0.00     0.049 A 
ATOM     16  C   UNL A   1      31.934  29.259  25.478  1.00  0.00     0.060 A 
ATOM     17  Cl  UNL A   1      33.951  28.581  27.193  1.00  0.00    -0.082 Cl
ATOM     18  C   UNL A   1      31.042  28.996  24.434  1.00  0.00     0.026 A 
ATOM     19  Cl  UNL A   1      31.792  30.781  26.284  1.00  0.00    -0.083 Cl
BRANCH  10  20
ATOM     20  C   UNL A   1      33.378  23.652  23.231  1.00  0.00     0.429 C 
ATOM     21  F   UNL A   1      34.679  23.746  23.589  1.00  0.00    -0.167 F 
ATOM     22  F   UNL A   1      33.073  22.330  23.188  1.00  0.00    -0.167 F 
ATOM     23  F   UNL A   1      33.297  24.113  21.957  1.00  0.00    -0.167 F 
ENDBRANCH  10  20
ENDBRANCH   6   8
ENDBRANCH   3   4
ENDBRANCH   2   3
ENDBRANCH   1   2
BRANCH   1  24
ATOM     24  C   UNL A   1      36.942  21.526  25.366  1.00  0.00     0.116 C 
BRANCH  24  25
ATOM     25  N   UNL A   1      38.097  20.640  25.453  1.00  0.00    -0.352 N 
ATOM     26  C   UNL A   1      39.335  20.872  26.023  1.00  0.00     0.251 C 
ATOM     27  H   UNL A   1      37.978  19.750  25.048  1.00  0.00     0.163 HD
ATOM     28  O   UNL A   1      40.200  20.011  25.974  1.00  0.00    -0.269 OA
BRANCH  26  29
ATOM     29  C   UNL A   1      39.626  22.196  26.627  1.00  0.00     0.039 A 
ATOM     30  C   UNL A   1      40.618  22.281  27.608  1.00  0.00     0.014 A 
ATOM     31  C   UNL A   1      38.997  23.354  26.165  1.00  0.00     0.014 A 
ATOM     32  C   UNL A   1      41.070  23.536  28.029  1.00  0.00     0.010 A 
ATOM     33  C   UNL A   1      39.502  24.601  26.527  1.00  0.00     0.010 A 
ATOM     34  C   UNL A   1      40.564  24.706  27.438  1.00  0.00    -0.014 A 
BRANCH  34  35
ATOM     35  C   UNL A   1      41.189  26.034  27.686  1.00  0.00     0.031 A 
ATOM     36  C   UNL A   1      42.599  26.315  27.251  1.00  0.00     0.074 A 
ATOM     37  C   UNL A   1      40.524  26.946  28.426  1.00  0.00     0.049 A 
ATOM     38  N   UNL A   1      43.324  27.386  27.453  1.00  0.00    -0.248 NA
ATOM     39  C   UNL A   1      43.298  25.245  26.521  1.00  0.00     0.031 C 
ATOM     40  C   UNL A   1      39.190  26.759  29.001  1.00  0.00     0.029 A 
ATOM     41  N   UNL A   1      40.891  28.200  28.849  1.00  0.00    -0.354 N 
ATOM     42  C   UNL A   1      44.574  27.106  26.914  1.00  0.00     0.074 A 
ATOM     43  C   UNL A   1      44.517  25.754  26.400  1.00  0.00     0.031 C 
ATOM     44  C   UNL A   1      38.851  27.856  29.697  1.00  0.00     0.029 A 
ATOM     45  C   UNL A   1      39.948  28.815  29.640  1.00  0.00     0.049 A 
ATOM     46  H   UNL A   1      41.748  28.619  28.610  1.00  0.00     0.167 HD
ATOM     47  C   UNL A   1      45.660  27.910  26.822  1.00  0.00     0.034 A 
ATOM     48  C   UNL A   1      39.960  30.017  30.252  1.00  0.00     0.034 A 
ATOM     49  C   UNL A   1      45.699  29.272  27.281  1.00  0.00     0.049 A 
ATOM     50  C   UNL A   1      41.150  30.920  30.071  1.00  0.00     0.074 A 
ATOM     51  C   UNL A   1      46.717  30.200  27.136  1.00  0.00     0.029 A 
ATOM     52  N   UNL A   1      44.679  29.904  27.973  1.00  0.00    -0.354 N 
ATOM     53  N   UNL A   1      42.251  30.704  29.396  1.00  0.00    -0.248 NA
ATOM     54  C   UNL A   1      41.082  32.247  30.703  1.00  0.00     0.031 C 
ATOM     55  C   UNL A   1      46.312  31.392  27.747  1.00  0.00     0.029 A 
ATOM     56  C   UNL A   1      45.040  31.208  28.266  1.00  0.00     0.049 A 
ATOM     57  H   UNL A   1      43.822  29.487  28.221  1.00  0.00     0.167 HD
ATOM     58  C   UNL A   1      42.995  31.876  29.494  1.00  0.00     0.074 A 
ATOM     59  C   UNL A   1      42.208  32.806  30.277  1.00  0.00     0.031 C 
ATOM     60  C   UNL A   1      44.226  32.147  28.994  1.00  0.00     0.034 A 
BRANCH  47  61
ATOM     61  C   UNL A   1      46.876  27.354  26.131  1.00  0.00     0.023 A 
ATOM     62  C   UNL A   1      47.003  27.507  24.735  1.00  0.00     0.012 A 
ATOM     63  C   UNL A   1      47.908  26.725  26.852  1.00  0.00     0.148 A 
ATOM     64  C   UNL A   1      48.118  27.010  24.062  1.00  0.00     0.002 A 
ATOM     65  C   UNL A   1      49.035  26.265  26.180  1.00  0.00     0.091 A 
ATOM     66  F   UNL A   1      47.762  26.565  28.176  1.00  0.00    -0.205 F 
ATOM     67  C   UNL A   1      49.137  26.398  24.785  1.00  0.00     0.022 A 
BRANCH  65  68
ATOM     68  S   UNL A   1      50.430  25.529  27.041  1.00  0.00     0.127 S 
ATOM     69  O   UNL A   1      49.801  24.386  27.701  1.00  0.00    -0.237 OA
ATOM     70  O   UNL A   1      51.329  25.178  25.940  1.00  0.00    -0.237 OA
ATOM     71  O   UNL A   1      50.941  26.569  27.924  1.00  0.00    -0.744 OA
ENDBRANCH  65  68
ENDBRANCH  47  61
BRANCH  48  72
ATOM     72  C   UNL A   1      38.761  30.470  31.014  1.00  0.00     0.023 A 
ATOM     73  C   UNL A   1      38.722  30.270  32.407  1.00  0.00     0.012 A 
ATOM     74  C   UNL A   1      37.694  31.139  30.385  1.00  0.00     0.148 A 
ATOM     75  C   UNL A   1      37.630  30.706  33.158  1.00  0.00     0.002 A 
ATOM     76  C   UNL A   1      36.632  31.617  31.146  1.00  0.00     0.091 A 
ATOM     77  F   UNL A   1      37.745  31.309  29.056  1.00  0.00    -0.205 F 
ATOM     78  C   UNL A   1      36.591  31.389  32.530  1.00  0.00     0.022 A 
BRANCH  76  79
ATOM     79  S   UNL A   1      35.321  32.624  30.441  1.00  0.00     0.127 S 
ATOM     80  O   UNL A   1      36.052  33.817  30.023  1.00  0.00    -0.237 OA
ATOM     81  O   UNL A   1      34.843  31.778  29.345  1.00  0.00    -0.237 OA
ATOM     82  O   UNL A   1      34.354  32.811  31.514  1.00  0.00    -0.744 OA
ENDBRANCH  76  79
ENDBRANCH  48  72
BRANCH  60  83
ATOM     83  C   UNL A   1      44.801  33.512  29.256  1.00  0.00     0.023 A 
ATOM     84  C   UNL A   1      45.560  33.734  30.422  1.00  0.00     0.012 A 
ATOM     85  C   UNL A   1      44.663  34.550  28.312  1.00  0.00     0.148 A 
ATOM     86  C   UNL A   1      46.155  34.973  30.655  1.00  0.00     0.002 A 
ATOM     87  C   UNL A   1      45.294  35.769  28.531  1.00  0.00     0.091 A 
ATOM     88  F   UNL A   1      43.917  34.327  27.220  1.00  0.00    -0.205 F 
ATOM     89  C   UNL A   1      46.033  35.985  29.705  1.00  0.00     0.022 A 
BRANCH  87  90
ATOM     90  S   UNL A   1      45.260  37.093  27.317  1.00  0.00     0.127 S 
ATOM     91  O   UNL A   1      43.836  37.170  26.997  1.00  0.00    -0.237 OA
ATOM     92  O   UNL A   1      45.775  38.232  28.078  1.00  0.00    -0.237 OA
ATOM     93  O   UNL A   1      46.128  36.656  26.232  1.00  0.00    -0.744 OA
ENDBRANCH  87  90
ENDBRANCH  60  83
ENDBRANCH  34  35
ENDBRANCH  26  29
ENDBRANCH  24  25
ENDBRANCH   1  24
TORSDOF 15
ENDMDL
