MODEL 1
REMARK VINA RESULT:     -13.2      0.000      0.000
REMARK SMILES Cc1cccc(NC(=O)C[C@H]([NH2+]C(C)C)C(=O)NCCCCNC(=O)c2ccc(-c3c4nc(c(-c5cccc(S(=O)(=O)[O-])c5F)c5ccc([nH]5)c(-c5cccc(S(=O)(=O)[O-])c5F)c5nc(c(-c6cccc(S(=O)(=O)[O-])c6F)c6ccc3[nH]6)C=C5)C=C4)cc2)c1
REMARK SMILES IDX 20 1 19 2 18 3 16 4 17 5 11 7 10 8 8 9 7 10 9 12 6 13 1 14
REMARK SMILES IDX 2 15 3 16 89 17 4 18 5 19 12 20 13 23 14 24 15 25 21 26
REMARK SMILES IDX 22 27 23 28 24 29 25 31 26 32 27 33 88 34 28 35 87 36 29 37
REMARK SMILES IDX 30 38 31 39 81 40 32 41 86 42 80 43 82 44 33 45 85 46 79 47
REMARK SMILES IDX 78 48 34 50 66 51 46 52 65 53 47 54 50 55 64 56 83 57 48 58
REMARK SMILES IDX 49 59 63 61 84 62 51 63 35 64 36 65 44 66 37 67 39 68 45 69
REMARK SMILES IDX 38 70 40 71 41 72 42 73 43 74 67 75 68 76 76 77 69 78 71 79
REMARK SMILES IDX 77 80 70 81 72 82 73 83 74 84 75 85 52 86 53 87 61 88 54 89
REMARK SMILES IDX 56 90 62 91 55 92 57 93 58 94 59 95 60 96
REMARK H PARENT 18 6 7 11 12 21 12 22 23 30 82 49 50 60
REMARK Flexibility Score: inf
ROOT
ATOM      1  C   UNL A   1      37.512  21.385  24.738  1.00  0.00     0.023 C 
ENDROOT
BRANCH   1   2
ATOM      2  C   UNL A   1      36.268  20.115  24.977  1.00  0.00     0.116 C 
BRANCH   2   3
ATOM      3  N   UNL A   1      34.207  20.256  25.187  1.00  0.00    -0.351 N 
ATOM      4  C   UNL A   1      32.971  20.889  25.332  1.00  0.00     0.278 C 
ATOM      5  O   UNL A   1      32.009  20.119  25.130  1.00  0.00    -0.268 OA
ATOM      6  H   UNL A   1      33.943  19.308  25.180  1.00  0.00     0.163 HD
BRANCH   4   7
ATOM      7  C   UNL A   1      32.622  22.323  25.753  1.00  0.00     0.282 C 
BRANCH   7   8
ATOM      8  C   UNL A   1      31.137  22.744  25.572  1.00  0.00     0.175 C 
BRANCH   8   9
ATOM      9  C   UNL A   1      30.442  23.548  26.694  1.00  0.00     0.230 C 
ATOM     10  N   UNL A   1      30.420  24.922  26.743  1.00  0.00    -0.326 N 
ATOM     11  H   UNL A   1      30.051  25.336  27.556  1.00  0.00     0.169 HD
ATOM     12  O   UNL A   1      29.887  22.930  27.610  1.00  0.00    -0.274 OA
BRANCH  10  13
ATOM     13  C   UNL A   1      30.878  25.785  25.735  1.00  0.00     0.041 A 
ATOM     14  C   UNL A   1      32.292  30.066  25.944  1.00  0.00     0.044 C 
ATOM     15  C   UNL A   1      31.721  28.804  25.381  1.00  0.00    -0.049 A 
ATOM     16  C   UNL A   1      30.607  28.918  23.959  1.00  0.00     0.003 A 
ATOM     17  C   UNL A   1      31.825  27.228  26.295  1.00  0.00     0.029 A 
ATOM     18  C   UNL A   1      29.716  27.445  23.369  1.00  0.00     0.002 A 
ATOM     19  C   UNL A   1      29.895  25.871  24.214  1.00  0.00     0.026 A 
ENDBRANCH  10  13
ENDBRANCH   8   9
ENDBRANCH   7   8
BRANCH   7  20
ATOM     20  N   UNL A   1      33.681  23.327  25.338  1.00  0.00    -0.334 N 
ATOM     21  H   UNL A   1      34.588  22.862  25.375  1.00  0.00     0.347 HD
ATOM     22  H   UNL A   1      33.595  24.110  25.986  1.00  0.00     0.347 HD
BRANCH  20  23
ATOM     23  C   UNL A   1      33.516  23.902  23.976  1.00  0.00     0.176 C 
ATOM     24  C   UNL A   1      34.041  25.348  23.938  1.00  0.00     0.075 C 
ATOM     25  C   UNL A   1      34.038  23.104  22.789  1.00  0.00     0.075 C 
ENDBRANCH  20  23
ENDBRANCH   7  20
ENDBRANCH   4   7
ENDBRANCH   2   3
ENDBRANCH   1   2
BRANCH   1  26
ATOM     26  C   UNL A   1      37.102  22.864  24.836  1.00  0.00     0.023 C 
BRANCH  26  27
ATOM     27  C   UNL A   1      37.569  23.432  26.148  1.00  0.00     0.116 C 
BRANCH  27  28
ATOM     28  N   UNL A   1      38.884  23.069  26.591  1.00  0.00    -0.352 N 
ATOM     29  C   UNL A   1      39.847  23.956  27.057  1.00  0.00     0.251 C 
ATOM     30  H   UNL A   1      39.123  22.114  26.565  1.00  0.00     0.163 HD
ATOM     31  O   UNL A   1      41.005  23.584  27.203  1.00  0.00    -0.269 OA
BRANCH  29  32
ATOM     32  C   UNL A   1      39.399  25.302  27.523  1.00  0.00     0.039 A 
ATOM     33  C   UNL A   1      39.894  26.392  26.813  1.00  0.00     0.014 A 
ATOM     34  C   UNL A   1      38.847  25.500  28.786  1.00  0.00     0.014 A 
ATOM     35  C   UNL A   1      40.133  27.579  27.488  1.00  0.00     0.010 A 
ATOM     36  C   UNL A   1      39.195  26.620  29.500  1.00  0.00     0.010 A 
ATOM     37  C   UNL A   1      39.907  27.623  28.859  1.00  0.00    -0.014 A 
BRANCH  37  38
ATOM     38  C   UNL A   1      40.093  28.812  29.655  1.00  0.00     0.031 A 
ATOM     39  C   UNL A   1      39.055  29.829  29.457  1.00  0.00     0.074 A 
ATOM     40  C   UNL A   1      41.097  28.877  30.554  1.00  0.00     0.049 A 
ATOM     41  N   UNL A   1      39.252  31.089  29.550  1.00  0.00    -0.248 NA
ATOM     42  C   UNL A   1      37.707  29.482  28.997  1.00  0.00     0.031 C 
ATOM     43  C   UNL A   1      41.288  29.814  31.650  1.00  0.00     0.029 A 
ATOM     44  N   UNL A   1      42.268  28.130  30.554  1.00  0.00    -0.354 N 
ATOM     45  C   UNL A   1      38.006  31.681  29.497  1.00  0.00     0.074 A 
ATOM     46  C   UNL A   1      37.128  30.683  28.953  1.00  0.00     0.031 C 
ATOM     47  C   UNL A   1      42.570  29.755  32.060  1.00  0.00     0.029 A 
ATOM     48  C   UNL A   1      43.289  28.898  31.132  1.00  0.00     0.049 A 
ATOM     49  H   UNL A   1      42.366  27.214  30.206  1.00  0.00     0.167 HD
ATOM     50  C   UNL A   1      37.838  32.865  30.143  1.00  0.00     0.034 A 
ATOM     51  C   UNL A   1      44.357  29.291  30.367  1.00  0.00     0.034 A 
ATOM     52  C   UNL A   1      39.131  33.274  30.724  1.00  0.00     0.049 A 
ATOM     53  C   UNL A   1      44.346  30.784  30.080  1.00  0.00     0.074 A 
ATOM     54  C   UNL A   1      39.687  33.077  31.978  1.00  0.00     0.029 A 
ATOM     55  N   UNL A   1      40.187  33.580  29.873  1.00  0.00    -0.354 N 
ATOM     56  N   UNL A   1      43.339  31.576  30.327  1.00  0.00    -0.248 NA
ATOM     57  C   UNL A   1      45.479  31.495  29.499  1.00  0.00     0.031 C 
ATOM     58  C   UNL A   1      41.099  33.214  31.858  1.00  0.00     0.029 A 
ATOM     59  C   UNL A   1      41.402  33.526  30.543  1.00  0.00     0.049 A 
ATOM     60  H   UNL A   1      40.087  33.804  28.920  1.00  0.00     0.167 HD
ATOM     61  C   UNL A   1      43.603  32.838  29.857  1.00  0.00     0.074 A 
ATOM     62  C   UNL A   1      44.992  32.745  29.426  1.00  0.00     0.031 C 
ATOM     63  C   UNL A   1      42.645  33.823  29.828  1.00  0.00     0.034 A 
BRANCH  50  64
ATOM     64  C   UNL A   1      36.510  33.483  30.556  1.00  0.00     0.023 A 
ATOM     65  C   UNL A   1      36.103  33.242  31.887  1.00  0.00     0.012 A 
ATOM     66  C   UNL A   1      35.610  34.242  29.766  1.00  0.00     0.148 A 
ATOM     67  C   UNL A   1      34.871  33.665  32.394  1.00  0.00     0.002 A 
ATOM     68  C   UNL A   1      34.364  34.649  30.262  1.00  0.00     0.091 A 
ATOM     69  F   UNL A   1      35.953  34.627  28.537  1.00  0.00    -0.205 F 
ATOM     70  C   UNL A   1      33.992  34.357  31.577  1.00  0.00     0.022 A 
BRANCH  68  71
ATOM     71  S   UNL A   1      33.148  35.545  29.273  1.00  0.00     0.127 S 
ATOM     72  O   UNL A   1      32.622  34.491  28.404  1.00  0.00    -0.237 OA
ATOM     73  O   UNL A   1      32.208  36.019  30.287  1.00  0.00    -0.237 OA
ATOM     74  O   UNL A   1      33.878  36.592  28.567  1.00  0.00    -0.744 OA
ENDBRANCH  68  71
ENDBRANCH  50  64
BRANCH  51  75
ATOM     75  C   UNL A   1      44.752  28.233  29.377  1.00  0.00     0.023 A 
ATOM     76  C   UNL A   1      44.890  26.916  29.888  1.00  0.00     0.012 A 
ATOM     77  C   UNL A   1      44.479  28.404  28.012  1.00  0.00     0.148 A 
ATOM     78  C   UNL A   1      44.480  25.819  29.130  1.00  0.00     0.002 A 
ATOM     79  C   UNL A   1      44.099  27.301  27.255  1.00  0.00     0.091 A 
ATOM     80  F   UNL A   1      44.531  29.635  27.486  1.00  0.00    -0.205 F 
ATOM     81  C   UNL A   1      44.022  26.022  27.832  1.00  0.00     0.022 A 
BRANCH  79  82
ATOM     82  S   UNL A   1      43.590  27.505  25.547  1.00  0.00     0.127 S 
ATOM     83  O   UNL A   1      44.860  27.798  24.891  1.00  0.00    -0.237 OA
ATOM     84  O   UNL A   1      43.033  26.192  25.223  1.00  0.00    -0.237 OA
ATOM     85  O   UNL A   1      42.617  28.588  25.577  1.00  0.00    -0.744 OA
ENDBRANCH  79  82
ENDBRANCH  51  75
BRANCH  63  86
ATOM     86  C   UNL A   1      42.775  35.179  29.135  1.00  0.00     0.023 A 
ATOM     87  C   UNL A   1      42.082  35.501  27.956  1.00  0.00     0.012 A 
ATOM     88  C   UNL A   1      43.544  36.233  29.708  1.00  0.00     0.148 A 
ATOM     89  C   UNL A   1      42.211  36.743  27.324  1.00  0.00     0.002 A 
ATOM     90  C   UNL A   1      43.555  37.510  29.154  1.00  0.00     0.091 A 
ATOM     91  F   UNL A   1      44.315  36.006  30.777  1.00  0.00    -0.205 F 
ATOM     92  C   UNL A   1      42.929  37.756  27.935  1.00  0.00     0.022 A 
BRANCH  90  93
ATOM     93  S   UNL A   1      44.258  38.917  30.024  1.00  0.00     0.127 S 
ATOM     94  O   UNL A   1      43.772  38.697  31.386  1.00  0.00    -0.237 OA
ATOM     95  O   UNL A   1      45.694  38.695  29.846  1.00  0.00    -0.237 OA
ATOM     96  O   UNL A   1      43.746  40.100  29.349  1.00  0.00    -0.744 OA
ENDBRANCH  90  93
ENDBRANCH  63  86
ENDBRANCH  37  38
ENDBRANCH  29  32
ENDBRANCH  27  28
ENDBRANCH  26  27
ENDBRANCH   1  26
TORSDOF 19
ENDMDL
MODEL 2
REMARK VINA RESULT:     -12.6      1.323      2.989
REMARK SMILES Cc1cccc(NC(=O)C[C@H]([NH2+]C(C)C)C(=O)NCCCCNC(=O)c2ccc(-c3c4nc(c(-c5cccc(S(=O)(=O)[O-])c5F)c5ccc([nH]5)c(-c5cccc(S(=O)(=O)[O-])c5F)c5nc(c(-c6cccc(S(=O)(=O)[O-])c6F)c6ccc3[nH]6)C=C5)C=C4)cc2)c1
REMARK SMILES IDX 20 1 19 2 18 3 16 4 17 5 11 7 10 8 8 9 7 10 9 12 6 13 1 14
REMARK SMILES IDX 2 15 3 16 89 17 4 18 5 19 12 20 13 23 14 24 15 25 21 26
REMARK SMILES IDX 22 27 23 28 24 29 25 31 26 32 27 33 88 34 28 35 87 36 29 37
REMARK SMILES IDX 30 38 31 39 81 40 32 41 86 42 80 43 82 44 33 45 85 46 79 47
REMARK SMILES IDX 78 48 34 50 66 51 46 52 65 53 47 54 50 55 64 56 83 57 48 58
REMARK SMILES IDX 49 59 63 61 84 62 51 63 35 64 36 65 44 66 37 67 39 68 45 69
REMARK SMILES IDX 38 70 40 71 41 72 42 73 43 74 67 75 68 76 76 77 69 78 71 79
REMARK SMILES IDX 77 80 70 81 72 82 73 83 74 84 75 85 52 86 53 87 61 88 54 89
REMARK SMILES IDX 56 90 62 91 55 92 57 93 58 94 59 95 60 96
REMARK H PARENT 18 6 7 11 12 21 12 22 23 30 82 49 50 60
REMARK Flexibility Score: inf
ROOT
ATOM      1  C   UNL A   1      36.686  22.941  23.594  1.00  0.00     0.023 C 
ENDROOT
BRANCH   1   2
ATOM      2  C   UNL A   1      35.038  23.465  23.123  1.00  0.00     0.116 C 
BRANCH   2   3
ATOM      3  N   UNL A   1      34.169  25.351  23.092  1.00  0.00    -0.351 N 
ATOM      4  C   UNL A   1      33.701  26.558  23.614  1.00  0.00     0.278 C 
ATOM      5  O   UNL A   1      33.469  27.408  22.729  1.00  0.00    -0.268 OA
ATOM      6  H   UNL A   1      33.965  25.459  22.135  1.00  0.00     0.163 HD
BRANCH   4   7
ATOM      7  C   UNL A   1      33.376  26.967  25.057  1.00  0.00     0.282 C 
BRANCH   7   8
ATOM      8  C   UNL A   1      33.051  25.805  26.038  1.00  0.00     0.175 C 
BRANCH   8   9
ATOM      9  C   UNL A   1      31.612  25.246  26.090  1.00  0.00     0.230 C 
ATOM     10  N   UNL A   1      31.247  24.036  25.550  1.00  0.00    -0.326 N 
ATOM     11  H   UNL A   1      30.286  23.822  25.535  1.00  0.00     0.169 HD
ATOM     12  O   UNL A   1      30.731  25.924  26.632  1.00  0.00    -0.274 OA
BRANCH  10  13
ATOM     13  C   UNL A   1      32.125  23.078  25.018  1.00  0.00     0.041 A 
ATOM     14  C   UNL A   1      31.707  20.375  21.427  1.00  0.00     0.044 C 
ATOM     15  C   UNL A   1      32.170  20.879  22.757  1.00  0.00    -0.049 A 
ATOM     16  C   UNL A   1      32.766  19.680  23.975  1.00  0.00     0.003 A 
ATOM     17  C   UNL A   1      31.814  22.584  23.300  1.00  0.00     0.029 A 
ATOM     18  C   UNL A   1      33.136  20.206  25.677  1.00  0.00     0.002 A 
ATOM     19  C   UNL A   1      32.875  21.909  26.183  1.00  0.00     0.026 A 
ENDBRANCH  10  13
ENDBRANCH   8   9
ENDBRANCH   7   8
BRANCH   7  20
ATOM     20  N   UNL A   1      32.495  28.199  25.131  1.00  0.00    -0.334 N 
ATOM     21  H   UNL A   1      31.552  27.897  25.377  1.00  0.00     0.347 HD
ATOM     22  H   UNL A   1      32.558  28.645  24.216  1.00  0.00     0.347 HD
BRANCH  20  23
ATOM     23  C   UNL A   1      32.919  29.229  26.118  1.00  0.00     0.176 C 
ATOM     24  C   UNL A   1      31.932  29.277  27.298  1.00  0.00     0.075 C 
ATOM     25  C   UNL A   1      34.357  29.201  26.615  1.00  0.00     0.075 C 
ENDBRANCH  20  23
ENDBRANCH   7  20
ENDBRANCH   4   7
ENDBRANCH   2   3
ENDBRANCH   1   2
BRANCH   1  26
ATOM     26  C   UNL A   1      36.935  22.452  25.032  1.00  0.00     0.023 C 
BRANCH  26  27
ATOM     27  C   UNL A   1      37.754  23.469  25.777  1.00  0.00     0.116 C 
BRANCH  27  28
ATOM     28  N   UNL A   1      38.974  23.018  26.380  1.00  0.00    -0.352 N 
ATOM     29  C   UNL A   1      39.922  23.836  26.982  1.00  0.00     0.251 C 
ATOM     30  H   UNL A   1      39.154  22.050  26.367  1.00  0.00     0.163 HD
ATOM     31  O   UNL A   1      41.026  23.387  27.270  1.00  0.00    -0.269 OA
BRANCH  29  32
ATOM     32  C   UNL A   1      39.504  25.203  27.410  1.00  0.00     0.039 A 
ATOM     33  C   UNL A   1      40.125  26.266  26.760  1.00  0.00     0.014 A 
ATOM     34  C   UNL A   1      38.840  25.430  28.614  1.00  0.00     0.014 A 
ATOM     35  C   UNL A   1      40.360  27.437  27.463  1.00  0.00     0.010 A 
ATOM     36  C   UNL A   1      39.176  26.528  29.366  1.00  0.00     0.010 A 
ATOM     37  C   UNL A   1      40.001  27.492  28.805  1.00  0.00    -0.014 A 
BRANCH  37  38
ATOM     38  C   UNL A   1      40.171  28.668  29.624  1.00  0.00     0.031 A 
ATOM     39  C   UNL A   1      39.139  29.690  29.419  1.00  0.00     0.074 A 
ATOM     40  C   UNL A   1      41.155  28.717  30.545  1.00  0.00     0.049 A 
ATOM     41  N   UNL A   1      39.335  30.947  29.536  1.00  0.00    -0.248 NA
ATOM     42  C   UNL A   1      37.801  29.352  28.924  1.00  0.00     0.031 C 
ATOM     43  C   UNL A   1      41.323  29.637  31.660  1.00  0.00     0.029 A 
ATOM     44  N   UNL A   1      42.325  27.969  30.559  1.00  0.00    -0.354 N 
ATOM     45  C   UNL A   1      38.091  31.542  29.466  1.00  0.00     0.074 A 
ATOM     46  C   UNL A   1      37.225  30.553  28.886  1.00  0.00     0.031 C 
ATOM     47  C   UNL A   1      42.596  29.570  32.097  1.00  0.00     0.029 A 
ATOM     48  C   UNL A   1      43.334  28.726  31.171  1.00  0.00     0.049 A 
ATOM     49  H   UNL A   1      42.430  27.058  30.199  1.00  0.00     0.167 HD
ATOM     50  C   UNL A   1      37.910  32.716  30.126  1.00  0.00     0.034 A 
ATOM     51  C   UNL A   1      44.419  29.130  30.437  1.00  0.00     0.034 A 
ATOM     52  C   UNL A   1      39.191  33.114  30.741  1.00  0.00     0.049 A 
ATOM     53  C   UNL A   1      44.416  30.627  30.173  1.00  0.00     0.074 A 
ATOM     54  C   UNL A   1      39.719  32.896  32.004  1.00  0.00     0.029 A 
ATOM     55  N   UNL A   1      40.266  33.431  29.918  1.00  0.00    -0.354 N 
ATOM     56  N   UNL A   1      43.404  31.417  30.410  1.00  0.00    -0.248 NA
ATOM     57  C   UNL A   1      45.562  31.345  29.627  1.00  0.00     0.031 C 
ATOM     58  C   UNL A   1      41.134  33.034  31.917  1.00  0.00     0.029 A 
ATOM     59  C   UNL A   1      41.466  33.365  30.613  1.00  0.00     0.049 A 
ATOM     60  H   UNL A   1      40.187  33.671  28.968  1.00  0.00     0.167 HD
ATOM     61  C   UNL A   1      43.681  32.685  29.965  1.00  0.00     0.074 A 
ATOM     62  C   UNL A   1      45.078  32.597  29.563  1.00  0.00     0.031 C 
ATOM     63  C   UNL A   1      42.724  33.671  29.931  1.00  0.00     0.034 A 
BRANCH  50  64
ATOM     64  C   UNL A   1      36.575  33.329  30.519  1.00  0.00     0.023 A 
ATOM     65  C   UNL A   1      36.162  33.110  31.853  1.00  0.00     0.012 A 
ATOM     66  C   UNL A   1      35.672  34.064  29.710  1.00  0.00     0.148 A 
ATOM     67  C   UNL A   1      34.923  33.531  32.344  1.00  0.00     0.002 A 
ATOM     68  C   UNL A   1      34.419  34.469  30.191  1.00  0.00     0.091 A 
ATOM     69  F   UNL A   1      36.018  34.429  28.476  1.00  0.00    -0.205 F 
ATOM     70  C   UNL A   1      34.042  34.199  31.509  1.00  0.00     0.022 A 
BRANCH  68  71
ATOM     71  S   UNL A   1      33.200  35.335  29.178  1.00  0.00     0.127 S 
ATOM     72  O   UNL A   1      34.019  36.350  28.514  1.00  0.00    -0.237 OA
ATOM     73  O   UNL A   1      32.718  34.274  28.295  1.00  0.00    -0.237 OA
ATOM     74  O   UNL A   1      32.207  35.876  30.097  1.00  0.00    -0.744 OA
ENDBRANCH  68  71
ENDBRANCH  50  64
BRANCH  51  75
ATOM     75  C   UNL A   1      44.835  28.086  29.438  1.00  0.00     0.023 A 
ATOM     76  C   UNL A   1      44.934  26.757  29.926  1.00  0.00     0.012 A 
ATOM     77  C   UNL A   1      44.615  28.291  28.068  1.00  0.00     0.148 A 
ATOM     78  C   UNL A   1      44.535  25.683  29.129  1.00  0.00     0.002 A 
ATOM     79  C   UNL A   1      44.247  27.210  27.274  1.00  0.00     0.091 A 
ATOM     80  F   UNL A   1      44.705  29.532  27.572  1.00  0.00    -0.205 F 
ATOM     81  C   UNL A   1      44.129  25.921  27.821  1.00  0.00     0.022 A 
BRANCH  79  82
ATOM     82  S   UNL A   1      43.804  27.458  25.554  1.00  0.00     0.127 S 
ATOM     83  O   UNL A   1      43.240  26.159  25.201  1.00  0.00    -0.237 OA
ATOM     84  O   UNL A   1      42.823  28.541  25.631  1.00  0.00    -0.237 OA
ATOM     85  O   UNL A   1      45.053  27.815  24.897  1.00  0.00    -0.744 OA
ENDBRANCH  79  82
ENDBRANCH  51  75
BRANCH  63  86
ATOM     86  C   UNL A   1      42.870  35.038  29.263  1.00  0.00     0.023 A 
ATOM     87  C   UNL A   1      42.194  35.385  28.080  1.00  0.00     0.012 A 
ATOM     88  C   UNL A   1      43.639  36.078  29.862  1.00  0.00     0.148 A 
ATOM     89  C   UNL A   1      42.338  36.636  27.471  1.00  0.00     0.002 A 
ATOM     90  C   UNL A   1      43.664  37.363  29.329  1.00  0.00     0.091 A 
ATOM     91  F   UNL A   1      44.396  35.829  30.937  1.00  0.00    -0.205 F 
ATOM     92  C   UNL A   1      43.055  37.634  28.107  1.00  0.00     0.022 A 
BRANCH  90  93
ATOM     93  S   UNL A   1      44.365  38.752  30.231  1.00  0.00     0.127 S 
ATOM     94  O   UNL A   1      43.768  38.578  31.555  1.00  0.00    -0.237 OA
ATOM     95  O   UNL A   1      45.798  38.461  30.167  1.00  0.00    -0.237 OA
ATOM     96  O   UNL A   1      43.962  39.945  29.503  1.00  0.00    -0.744 OA
ENDBRANCH  90  93
ENDBRANCH  63  86
ENDBRANCH  37  38
ENDBRANCH  29  32
ENDBRANCH  27  28
ENDBRANCH  26  27
ENDBRANCH   1  26
TORSDOF 19
ENDMDL
MODEL 3
REMARK VINA RESULT:     -12.5      4.094      9.918
REMARK SMILES Cc1cccc(NC(=O)C[C@H]([NH2+]C(C)C)C(=O)NCCCCNC(=O)c2ccc(-c3c4nc(c(-c5cccc(S(=O)(=O)[O-])c5F)c5ccc([nH]5)c(-c5cccc(S(=O)(=O)[O-])c5F)c5nc(c(-c6cccc(S(=O)(=O)[O-])c6F)c6ccc3[nH]6)C=C5)C=C4)cc2)c1
REMARK SMILES IDX 20 1 19 2 18 3 16 4 17 5 11 7 10 8 8 9 7 10 9 12 6 13 1 14
REMARK SMILES IDX 2 15 3 16 89 17 4 18 5 19 12 20 13 23 14 24 15 25 21 26
REMARK SMILES IDX 22 27 23 28 24 29 25 31 26 32 27 33 88 34 28 35 87 36 29 37
REMARK SMILES IDX 30 38 31 39 81 40 32 41 86 42 80 43 82 44 33 45 85 46 79 47
REMARK SMILES IDX 78 48 34 50 66 51 46 52 65 53 47 54 50 55 64 56 83 57 48 58
REMARK SMILES IDX 49 59 63 61 84 62 51 63 35 64 36 65 44 66 37 67 39 68 45 69
REMARK SMILES IDX 38 70 40 71 41 72 42 73 43 74 67 75 68 76 76 77 69 78 71 79
REMARK SMILES IDX 77 80 70 81 72 82 73 83 74 84 75 85 52 86 53 87 61 88 54 89
REMARK SMILES IDX 56 90 62 91 55 92 57 93 58 94 59 95 60 96
REMARK H PARENT 18 6 7 11 12 21 12 22 23 30 82 49 50 60
REMARK Flexibility Score: inf
ROOT
ATOM      1  C   UNL A   1      35.816  29.639  27.569  1.00  0.00     0.023 C 
ENDROOT
BRANCH   1   2
ATOM      2  C   UNL A   1      34.704  28.543  26.688  1.00  0.00     0.116 C 
BRANCH   2   3
ATOM      3  N   UNL A   1      33.846  28.706  24.804  1.00  0.00    -0.351 N 
ATOM      4  C   UNL A   1      32.876  28.532  23.815  1.00  0.00     0.278 C 
ATOM      5  O   UNL A   1      33.071  29.258  22.817  1.00  0.00    -0.268 OA
ATOM      6  H   UNL A   1      34.538  29.208  24.315  1.00  0.00     0.163 HD
BRANCH   4   7
ATOM      7  C   UNL A   1      31.683  27.570  23.739  1.00  0.00     0.282 C 
BRANCH   7   8
ATOM      8  C   UNL A   1      31.712  26.539  22.576  1.00  0.00     0.175 C 
BRANCH   8   9
ATOM      9  C   UNL A   1      33.067  25.939  22.137  1.00  0.00     0.230 C 
ATOM     10  N   UNL A   1      33.588  24.777  22.656  1.00  0.00    -0.326 N 
ATOM     11  H   UNL A   1      34.506  24.540  22.394  1.00  0.00     0.169 HD
ATOM     12  O   UNL A   1      33.733  26.538  21.285  1.00  0.00    -0.274 OA
BRANCH  10  13
ATOM     13  C   UNL A   1      32.922  23.898  23.527  1.00  0.00     0.041 A 
ATOM     14  C   UNL A   1      33.986  22.514  27.689  1.00  0.00     0.044 C 
ATOM     15  C   UNL A   1      33.380  22.510  26.322  1.00  0.00    -0.049 A 
ATOM     16  C   UNL A   1      32.957  20.920  25.569  1.00  0.00     0.003 A 
ATOM     17  C   UNL A   1      33.396  24.005  25.275  1.00  0.00     0.029 A 
ATOM     18  C   UNL A   1      32.420  20.839  23.832  1.00  0.00     0.002 A 
ATOM     19  C   UNL A   1      32.345  22.327  22.830  1.00  0.00     0.026 A 
ENDBRANCH  10  13
ENDBRANCH   8   9
ENDBRANCH   7   8
BRANCH   7  20
ATOM     20  N   UNL A   1      30.360  28.256  24.020  1.00  0.00    -0.334 N 
ATOM     21  H   UNL A   1      30.464  29.245  23.795  1.00  0.00     0.347 HD
ATOM     22  H   UNL A   1      30.155  28.079  25.003  1.00  0.00     0.347 HD
BRANCH  20  23
ATOM     23  C   UNL A   1      29.195  27.732  23.258  1.00  0.00     0.176 C 
ATOM     24  C   UNL A   1      28.565  26.538  23.996  1.00  0.00     0.075 C 
ATOM     25  C   UNL A   1      28.126  28.718  22.809  1.00  0.00     0.075 C 
ENDBRANCH  20  23
ENDBRANCH   7  20
ENDBRANCH   4   7
ENDBRANCH   2   3
ENDBRANCH   1   2
BRANCH   1  26
ATOM     26  C   UNL A   1      35.234  30.647  28.576  1.00  0.00     0.023 C 
BRANCH  26  27
ATOM     27  C   UNL A   1      35.360  32.040  28.026  1.00  0.00     0.116 C 
BRANCH  27  28
ATOM     28  N   UNL A   1      34.572  33.066  28.646  1.00  0.00    -0.352 N 
ATOM     29  C   UNL A   1      34.833  33.641  29.883  1.00  0.00     0.251 C 
ATOM     30  H   UNL A   1      33.783  33.389  28.153  1.00  0.00     0.163 HD
ATOM     31  O   UNL A   1      33.987  34.345  30.423  1.00  0.00    -0.269 OA
BRANCH  29  32
ATOM     32  C   UNL A   1      36.209  33.513  30.445  1.00  0.00     0.039 A 
ATOM     33  C   UNL A   1      37.241  34.019  29.661  1.00  0.00     0.014 A 
ATOM     34  C   UNL A   1      36.506  32.627  31.478  1.00  0.00     0.014 A 
ATOM     35  C   UNL A   1      38.479  33.396  29.696  1.00  0.00     0.010 A 
ATOM     36  C   UNL A   1      37.680  31.916  31.434  1.00  0.00     0.010 A 
ATOM     37  C   UNL A   1      38.631  32.261  30.485  1.00  0.00    -0.014 A 
BRANCH  37  38
ATOM     38  C   UNL A   1      39.880  31.552  30.621  1.00  0.00     0.031 A 
ATOM     39  C   UNL A   1      39.917  30.271  29.907  1.00  0.00     0.074 A 
ATOM     40  C   UNL A   1      40.914  32.117  31.278  1.00  0.00     0.049 A 
ATOM     41  N   UNL A   1      40.582  29.249  30.293  1.00  0.00    -0.248 NA
ATOM     42  C   UNL A   1      39.072  30.010  28.739  1.00  0.00     0.031 C 
ATOM     43  C   UNL A   1      42.319  31.739  31.277  1.00  0.00     0.029 A 
ATOM     44  N   UNL A   1      40.848  33.128  32.229  1.00  0.00    -0.354 N 
ATOM     45  C   UNL A   1      40.519  28.334  29.261  1.00  0.00     0.074 A 
ATOM     46  C   UNL A   1      39.422  28.759  28.436  1.00  0.00     0.031 C 
ATOM     47  C   UNL A   1      42.932  32.321  32.326  1.00  0.00     0.029 A 
ATOM     48  C   UNL A   1      41.906  32.961  33.134  1.00  0.00     0.049 A 
ATOM     49  H   UNL A   1      40.171  33.842  32.263  1.00  0.00     0.167 HD
ATOM     50  C   UNL A   1      41.557  27.469  29.116  1.00  0.00     0.034 A 
ATOM     51  C   UNL A   1      41.637  32.658  34.444  1.00  0.00     0.034 A 
ATOM     52  C   UNL A   1      42.523  27.702  30.206  1.00  0.00     0.049 A 
ATOM     53  C   UNL A   1      42.024  31.231  34.800  1.00  0.00     0.074 A 
ATOM     54  C   UNL A   1      43.658  28.492  30.284  1.00  0.00     0.029 A 
ATOM     55  N   UNL A   1      42.137  27.442  31.517  1.00  0.00    -0.354 N 
ATOM     56  N   UNL A   1      42.361  30.319  33.931  1.00  0.00    -0.248 NA
ATOM     57  C   UNL A   1      42.065  30.733  36.170  1.00  0.00     0.031 C 
ATOM     58  C   UNL A   1      43.919  28.750  31.661  1.00  0.00     0.029 A 
ATOM     59  C   UNL A   1      42.965  28.093  32.421  1.00  0.00     0.049 A 
ATOM     60  H   UNL A   1      41.377  26.872  31.771  1.00  0.00     0.167 HD
ATOM     61  C   UNL A   1      42.548  29.113  34.560  1.00  0.00     0.074 A 
ATOM     62  C   UNL A   1      42.432  29.456  35.971  1.00  0.00     0.031 C 
ATOM     63  C   UNL A   1      42.737  27.946  33.860  1.00  0.00     0.034 A 
BRANCH  50  64
ATOM     64  C   UNL A   1      41.895  26.674  27.864  1.00  0.00     0.023 A 
ATOM     65  C   UNL A   1      42.127  27.432  26.694  1.00  0.00     0.012 A 
ATOM     66  C   UNL A   1      41.974  25.266  27.709  1.00  0.00     0.148 A 
ATOM     67  C   UNL A   1      42.362  26.849  25.445  1.00  0.00     0.002 A 
ATOM     68  C   UNL A   1      42.187  24.677  26.456  1.00  0.00     0.091 A 
ATOM     69  F   UNL A   1      41.892  24.468  28.773  1.00  0.00    -0.205 F 
ATOM     70  C   UNL A   1      42.378  25.470  25.321  1.00  0.00     0.022 A 
BRANCH  68  71
ATOM     71  S   UNL A   1      42.215  22.891  26.191  1.00  0.00     0.127 S 
ATOM     72  O   UNL A   1      42.783  22.789  24.846  1.00  0.00    -0.237 OA
ATOM     73  O   UNL A   1      43.100  22.431  27.259  1.00  0.00    -0.237 OA
ATOM     74  O   UNL A   1      40.833  22.436  26.292  1.00  0.00    -0.744 OA
ENDBRANCH  68  71
ENDBRANCH  50  64
BRANCH  51  75
ATOM     75  C   UNL A   1      40.400  33.357  34.933  1.00  0.00     0.023 A 
ATOM     76  C   UNL A   1      39.178  32.653  34.775  1.00  0.00     0.012 A 
ATOM     77  C   UNL A   1      40.491  34.340  35.930  1.00  0.00     0.148 A 
ATOM     78  C   UNL A   1      38.192  32.722  35.759  1.00  0.00     0.002 A 
ATOM     79  C   UNL A   1      39.489  34.423  36.891  1.00  0.00     0.091 A 
ATOM     80  F   UNL A   1      41.569  35.134  35.966  1.00  0.00    -0.205 F 
ATOM     81  C   UNL A   1      38.380  33.561  36.852  1.00  0.00     0.022 A 
BRANCH  79  82
ATOM     82  S   UNL A   1      39.647  35.560  38.269  1.00  0.00     0.127 S 
ATOM     83  O   UNL A   1      38.525  35.162  39.113  1.00  0.00    -0.237 OA
ATOM     84  O   UNL A   1      40.961  35.219  38.813  1.00  0.00    -0.237 OA
ATOM     85  O   UNL A   1      39.561  36.884  37.669  1.00  0.00    -0.744 OA
ENDBRANCH  79  82
ENDBRANCH  51  75
BRANCH  63  86
ATOM     86  C   UNL A   1      42.739  26.537  34.452  1.00  0.00     0.023 A 
ATOM     87  C   UNL A   1      41.685  26.037  35.235  1.00  0.00     0.012 A 
ATOM     88  C   UNL A   1      43.784  25.612  34.160  1.00  0.00     0.148 A 
ATOM     89  C   UNL A   1      41.698  24.748  35.778  1.00  0.00     0.002 A 
ATOM     90  C   UNL A   1      43.723  24.288  34.583  1.00  0.00     0.091 A 
ATOM     91  F   UNL A   1      44.879  26.012  33.502  1.00  0.00    -0.205 F 
ATOM     92  C   UNL A   1      42.706  23.864  35.434  1.00  0.00     0.022 A 
BRANCH  90  93
ATOM     93  S   UNL A   1      44.863  23.041  33.967  1.00  0.00     0.127 S 
ATOM     94  O   UNL A   1      44.692  23.170  32.521  1.00  0.00    -0.237 OA
ATOM     95  O   UNL A   1      46.147  23.528  34.475  1.00  0.00    -0.237 OA
ATOM     96  O   UNL A   1      44.428  21.781  34.550  1.00  0.00    -0.744 OA
ENDBRANCH  90  93
ENDBRANCH  63  86
ENDBRANCH  37  38
ENDBRANCH  29  32
ENDBRANCH  27  28
ENDBRANCH  26  27
ENDBRANCH   1  26
TORSDOF 19
ENDMDL
