MODEL 1
REMARK VINA RESULT:     -12.6      0.000      0.000
REMARK SMILES Cc1cc([C@H](C)NC(=O)N2CC[C@H](C(=O)NCCCCNC(=O)c3ccc(-c4c5nc(c(-c6cccc(S(=O)(=O)[O-])c6F)c6ccc([nH]6)c(-c6cccc(S(=O)(=O)[O-])c6F)c6nc(c(-c7cccc(S(=O)(=O)[O-])c7F)c7ccc4[nH]7)C=C6)C=C5)cc3)[C@@H]2C)c(C)s1
REMARK SMILES IDX 18 1 17 2 16 3 14 4 15 5 13 7 10 8 11 9 87 10 12 11 88 12
REMARK SMILES IDX 8 13 7 14 9 16 5 17 6 18 4 19 1 20 2 21 3 22 91 23 89 24
REMARK SMILES IDX 90 25 19 26 20 27 21 28 22 29 23 31 24 32 25 33 86 34 26 35
REMARK SMILES IDX 85 36 27 37 28 38 29 39 79 40 30 41 84 42 78 43 80 44 31 45
REMARK SMILES IDX 83 46 77 47 76 48 32 50 64 51 44 52 63 53 45 54 48 55 62 56
REMARK SMILES IDX 81 57 46 58 47 59 61 61 82 62 49 63 33 64 34 65 42 66 35 67
REMARK SMILES IDX 37 68 43 69 36 70 38 71 39 72 40 73 41 74 65 75 66 76 74 77
REMARK SMILES IDX 67 78 69 79 75 80 68 81 70 82 71 83 72 84 73 85 50 86 51 87
REMARK SMILES IDX 59 88 52 89 54 90 60 91 53 92 55 93 56 94 57 95 58 96
REMARK H PARENT 16 6 7 15 21 30 80 49 48 60
REMARK Flexibility Score: inf
ROOT
ATOM      1  C   UNL A   1      31.273  29.371  24.281  1.00  0.00     0.023 C 
ENDROOT
BRANCH   1   2
ATOM      2  C   UNL A   1      31.636  28.811  22.907  1.00  0.00     0.116 C 
BRANCH   2   3
ATOM      3  N   UNL A   1      32.580  27.706  22.938  1.00  0.00    -0.356 N 
ATOM      4  C   UNL A   1      32.348  26.369  23.080  1.00  0.00     0.225 C 
ATOM      5  O   UNL A   1      33.174  25.585  22.610  1.00  0.00    -0.275 OA
ATOM      6  H   UNL A   1      33.525  27.960  22.843  1.00  0.00     0.163 HD
BRANCH   4   7
ATOM      7  C   UNL A   1      31.142  25.877  23.860  1.00  0.00     0.102 C 
ATOM      8  N   UNL A   1      30.907  23.942  25.256  1.00  0.00    -0.321 N 
ATOM      9  C   UNL A   1      30.762  23.484  23.890  1.00  0.00     0.122 C 
ATOM     10  C   UNL A   1      31.494  25.283  25.247  1.00  0.00     0.096 C 
ATOM     11  C   UNL A   1      30.403  24.747  23.126  1.00  0.00     0.037 C 
ATOM     12  C   UNL A   1      32.984  25.221  25.596  1.00  0.00     0.032 C 
BRANCH   8  13
ATOM     13  C   UNL A   1      30.881  23.051  26.292  1.00  0.00     0.318 C 
ATOM     14  N   UNL A   1      31.405  21.807  26.125  1.00  0.00    -0.331 N 
ATOM     15  H   UNL A   1      30.845  21.047  26.408  1.00  0.00     0.165 HD
ATOM     16  O   UNL A   1      30.395  23.329  27.389  1.00  0.00    -0.249 OA
BRANCH  14  17
ATOM     17  C   UNL A   1      32.713  21.490  25.569  1.00  0.00     0.112 C 
ATOM     18  C   UNL A   1      33.793  21.684  26.643  1.00  0.00     0.036 C 
BRANCH  17  19
ATOM     19  C   UNL A   1      32.671  20.082  24.984  1.00  0.00    -0.012 A 
ATOM     20  C   UNL A   1      33.152  16.317  25.352  1.00  0.00     0.056 C 
ATOM     21  C   UNL A   1      32.887  17.728  24.961  1.00  0.00     0.002 A 
ATOM     22  C   UNL A   1      32.903  18.868  25.734  1.00  0.00     0.021 A 
ATOM     23  S   UNL A   1      32.504  18.079  23.345  1.00  0.00    -0.146 S 
ATOM     24  C   UNL A   1      32.440  19.763  23.647  1.00  0.00     0.007 A 
ATOM     25  C   UNL A   1      32.153  20.634  22.472  1.00  0.00     0.057 C 
ENDBRANCH  17  19
ENDBRANCH  14  17
ENDBRANCH   8  13
ENDBRANCH   4   7
ENDBRANCH   2   3
ENDBRANCH   1   2
BRANCH   1  26
ATOM     26  C   UNL A   1      32.375  29.334  25.343  1.00  0.00     0.023 C 
BRANCH  26  27
ATOM     27  C   UNL A   1      32.028  29.928  26.707  1.00  0.00     0.116 C 
BRANCH  27  28
ATOM     28  N   UNL A   1      32.103  31.379  26.744  1.00  0.00    -0.352 N 
ATOM     29  C   UNL A   1      33.079  32.194  27.274  1.00  0.00     0.251 C 
ATOM     30  H   UNL A   1      31.343  31.849  26.330  1.00  0.00     0.163 HD
ATOM     31  O   UNL A   1      32.899  33.411  27.296  1.00  0.00    -0.269 OA
BRANCH  29  32
ATOM     32  C   UNL A   1      34.322  31.623  27.846  1.00  0.00     0.039 A 
ATOM     33  C   UNL A   1      35.374  32.487  28.165  1.00  0.00     0.014 A 
ATOM     34  C   UNL A   1      34.465  30.251  28.067  1.00  0.00     0.014 A 
ATOM     35  C   UNL A   1      36.530  31.989  28.778  1.00  0.00     0.010 A 
ATOM     36  C   UNL A   1      35.584  29.766  28.744  1.00  0.00     0.010 A 
ATOM     37  C   UNL A   1      36.629  30.628  29.112  1.00  0.00    -0.014 A 
BRANCH  37  38
ATOM     38  C   UNL A   1      37.793  30.098  29.876  1.00  0.00     0.031 A 
ATOM     39  C   UNL A   1      38.073  30.574  31.277  1.00  0.00     0.074 A 
ATOM     40  C   UNL A   1      38.657  29.256  29.273  1.00  0.00     0.049 A 
ATOM     41  N   UNL A   1      39.074  30.276  32.064  1.00  0.00    -0.248 NA
ATOM     42  C   UNL A   1      37.115  31.525  31.863  1.00  0.00     0.031 C 
ATOM     43  C   UNL A   1      38.547  28.774  27.895  1.00  0.00     0.029 A 
ATOM     44  N   UNL A   1      39.818  28.680  29.731  1.00  0.00    -0.354 N 
ATOM     45  C   UNL A   1      38.891  31.027  33.219  1.00  0.00     0.074 A 
ATOM     46  C   UNL A   1      37.695  31.817  33.019  1.00  0.00     0.031 C 
ATOM     47  C   UNL A   1      39.593  27.979  27.620  1.00  0.00     0.029 A 
ATOM     48  C   UNL A   1      40.468  27.919  28.786  1.00  0.00     0.049 A 
ATOM     49  H   UNL A   1      40.153  28.800  30.649  1.00  0.00     0.167 HD
ATOM     50  C   UNL A   1      39.632  31.041  34.354  1.00  0.00     0.034 A 
ATOM     51  C   UNL A   1      41.643  27.260  28.842  1.00  0.00     0.034 A 
ATOM     52  C   UNL A   1      40.801  30.229  34.567  1.00  0.00     0.049 A 
ATOM     53  C   UNL A   1      42.433  27.273  30.122  1.00  0.00     0.074 A 
ATOM     54  C   UNL A   1      41.564  30.109  35.717  1.00  0.00     0.029 A 
ATOM     55  N   UNL A   1      41.384  29.410  33.614  1.00  0.00    -0.354 N 
ATOM     56  N   UNL A   1      42.155  27.865  31.258  1.00  0.00    -0.248 NA
ATOM     57  C   UNL A   1      43.684  26.500  30.140  1.00  0.00     0.031 C 
ATOM     58  C   UNL A   1      42.628  29.241  35.446  1.00  0.00     0.029 A 
ATOM     59  C   UNL A   1      42.506  28.792  34.141  1.00  0.00     0.049 A 
ATOM     60  H   UNL A   1      41.050  29.286  32.697  1.00  0.00     0.167 HD
ATOM     61  C   UNL A   1      43.173  27.505  32.135  1.00  0.00     0.074 A 
ATOM     62  C   UNL A   1      44.064  26.629  31.404  1.00  0.00     0.031 C 
ATOM     63  C   UNL A   1      43.358  27.879  33.425  1.00  0.00     0.034 A 
BRANCH  50  64
ATOM     64  C   UNL A   1      39.175  31.935  35.480  1.00  0.00     0.023 A 
ATOM     65  C   UNL A   1      38.271  31.437  36.441  1.00  0.00     0.012 A 
ATOM     66  C   UNL A   1      39.689  33.239  35.626  1.00  0.00     0.148 A 
ATOM     67  C   UNL A   1      37.857  32.233  37.507  1.00  0.00     0.002 A 
ATOM     68  C   UNL A   1      39.308  34.010  36.717  1.00  0.00     0.091 A 
ATOM     69  F   UNL A   1      40.534  33.702  34.694  1.00  0.00    -0.205 F 
ATOM     70  C   UNL A   1      38.382  33.514  37.651  1.00  0.00     0.022 A 
BRANCH  68  71
ATOM     71  S   UNL A   1      39.989  35.641  37.038  1.00  0.00     0.127 S 
ATOM     72  O   UNL A   1      39.306  36.006  38.279  1.00  0.00    -0.237 OA
ATOM     73  O   UNL A   1      41.416  35.353  37.190  1.00  0.00    -0.237 OA
ATOM     74  O   UNL A   1      39.652  36.453  35.878  1.00  0.00    -0.744 OA
ENDBRANCH  68  71
ENDBRANCH  50  64
BRANCH  51  75
ATOM     75  C   UNL A   1      42.119  26.483  27.661  1.00  0.00     0.023 A 
ATOM     76  C   UNL A   1      42.895  27.125  26.677  1.00  0.00     0.012 A 
ATOM     77  C   UNL A   1      41.826  25.113  27.519  1.00  0.00     0.148 A 
ATOM     78  C   UNL A   1      43.341  26.427  25.555  1.00  0.00     0.002 A 
ATOM     79  C   UNL A   1      42.323  24.408  26.429  1.00  0.00     0.091 A 
ATOM     80  F   UNL A   1      41.077  24.522  28.461  1.00  0.00    -0.205 F 
ATOM     81  C   UNL A   1      43.065  25.067  25.436  1.00  0.00     0.022 A 
BRANCH  79  82
ATOM     82  S   UNL A   1      42.131  22.631  26.261  1.00  0.00     0.127 S 
ATOM     83  O   UNL A   1      40.678  22.491  26.198  1.00  0.00    -0.237 OA
ATOM     84  O   UNL A   1      42.831  22.370  25.002  1.00  0.00    -0.237 OA
ATOM     85  O   UNL A   1      42.772  22.054  27.434  1.00  0.00    -0.744 OA
ENDBRANCH  79  82
ENDBRANCH  51  75
BRANCH  63  86
ATOM     86  C   UNL A   1      44.549  27.314  34.155  1.00  0.00     0.023 A 
ATOM     87  C   UNL A   1      45.772  28.013  34.159  1.00  0.00     0.012 A 
ATOM     88  C   UNL A   1      44.433  26.124  34.903  1.00  0.00     0.148 A 
ATOM     89  C   UNL A   1      46.868  27.521  34.868  1.00  0.00     0.002 A 
ATOM     90  C   UNL A   1      45.513  25.668  35.647  1.00  0.00     0.091 A 
ATOM     91  F   UNL A   1      43.265  25.463  34.872  1.00  0.00    -0.205 F 
ATOM     92  C   UNL A   1      46.736  26.357  35.620  1.00  0.00     0.022 A 
BRANCH  90  93
ATOM     93  S   UNL A   1      45.407  24.232  36.723  1.00  0.00     0.127 S 
ATOM     94  O   UNL A   1      46.793  24.086  37.163  1.00  0.00    -0.237 OA
ATOM     95  O   UNL A   1      44.483  24.691  37.761  1.00  0.00    -0.237 OA
ATOM     96  O   UNL A   1      44.897  23.146  35.896  1.00  0.00    -0.744 OA
ENDBRANCH  90  93
ENDBRANCH  63  86
ENDBRANCH  37  38
ENDBRANCH  29  32
ENDBRANCH  27  28
ENDBRANCH  26  27
ENDBRANCH   1  26
TORSDOF 17
ENDMDL
MODEL 2
REMARK VINA RESULT:     -12.4      1.462      7.542
REMARK SMILES Cc1cc([C@H](C)NC(=O)N2CC[C@H](C(=O)NCCCCNC(=O)c3ccc(-c4c5nc(c(-c6cccc(S(=O)(=O)[O-])c6F)c6ccc([nH]6)c(-c6cccc(S(=O)(=O)[O-])c6F)c6nc(c(-c7cccc(S(=O)(=O)[O-])c7F)c7ccc4[nH]7)C=C6)C=C5)cc3)[C@@H]2C)c(C)s1
REMARK SMILES IDX 18 1 17 2 16 3 14 4 15 5 13 7 10 8 11 9 87 10 12 11 88 12
REMARK SMILES IDX 8 13 7 14 9 16 5 17 6 18 4 19 1 20 2 21 3 22 91 23 89 24
REMARK SMILES IDX 90 25 19 26 20 27 21 28 22 29 23 31 24 32 25 33 86 34 26 35
REMARK SMILES IDX 85 36 27 37 28 38 29 39 79 40 30 41 84 42 78 43 80 44 31 45
REMARK SMILES IDX 83 46 77 47 76 48 32 50 64 51 44 52 63 53 45 54 48 55 62 56
REMARK SMILES IDX 81 57 46 58 47 59 61 61 82 62 49 63 33 64 34 65 42 66 35 67
REMARK SMILES IDX 37 68 43 69 36 70 38 71 39 72 40 73 41 74 65 75 66 76 74 77
REMARK SMILES IDX 67 78 69 79 75 80 68 81 70 82 71 83 72 84 73 85 50 86 51 87
REMARK SMILES IDX 59 88 52 89 54 90 60 91 53 92 55 93 56 94 57 95 58 96
REMARK H PARENT 16 6 7 15 21 30 80 49 48 60
REMARK Flexibility Score: inf
ROOT
ATOM      1  C   UNL A   1      31.068  29.735  24.437  1.00  0.00     0.023 C 
ENDROOT
BRANCH   1   2
ATOM      2  C   UNL A   1      31.306  28.957  23.144  1.00  0.00     0.116 C 
BRANCH   2   3
ATOM      3  N   UNL A   1      32.354  27.955  23.229  1.00  0.00    -0.356 N 
ATOM      4  C   UNL A   1      32.254  26.595  23.303  1.00  0.00     0.225 C 
ATOM      5  O   UNL A   1      33.198  25.922  22.890  1.00  0.00    -0.275 OA
ATOM      6  H   UNL A   1      33.272  28.308  23.235  1.00  0.00     0.163 HD
BRANCH   4   7
ATOM      7  C   UNL A   1      31.039  25.950  23.945  1.00  0.00     0.102 C 
ATOM      8  N   UNL A   1      30.890  23.970  25.290  1.00  0.00    -0.321 N 
ATOM      9  C   UNL A   1      30.945  23.529  23.912  1.00  0.00     0.122 C 
ATOM     10  C   UNL A   1      31.312  25.370  25.356  1.00  0.00     0.096 C 
ATOM     11  C   UNL A   1      30.521  24.757  23.126  1.00  0.00     0.037 C 
ATOM     12  C   UNL A   1      32.754  25.476  25.862  1.00  0.00     0.032 C 
BRANCH   8  13
ATOM     13  C   UNL A   1      30.862  23.060  26.309  1.00  0.00     0.318 C 
ATOM     14  N   UNL A   1      31.387  21.820  26.120  1.00  0.00    -0.331 N 
ATOM     15  H   UNL A   1      30.826  21.054  26.387  1.00  0.00     0.165 HD
ATOM     16  O   UNL A   1      30.372  23.317  27.410  1.00  0.00    -0.249 OA
BRANCH  14  17
ATOM     17  C   UNL A   1      32.697  21.514  25.563  1.00  0.00     0.112 C 
ATOM     18  C   UNL A   1      33.779  21.731  26.631  1.00  0.00     0.036 C 
BRANCH  17  19
ATOM     19  C   UNL A   1      32.670  20.100  24.991  1.00  0.00    -0.012 A 
ATOM     20  C   UNL A   1      33.188  16.343  25.394  1.00  0.00     0.056 C 
ATOM     21  C   UNL A   1      32.909  17.748  24.990  1.00  0.00     0.002 A 
ATOM     22  C   UNL A   1      32.913  18.895  25.752  1.00  0.00     0.021 A 
ATOM     23  S   UNL A   1      32.527  18.080  23.369  1.00  0.00    -0.146 S 
ATOM     24  C   UNL A   1      32.446  19.767  23.656  1.00  0.00     0.007 A 
ATOM     25  C   UNL A   1      32.154  20.624  22.472  1.00  0.00     0.057 C 
ENDBRANCH  17  19
ENDBRANCH  14  17
ENDBRANCH   8  13
ENDBRANCH   4   7
ENDBRANCH   2   3
ENDBRANCH   1   2
BRANCH   1  26
ATOM     26  C   UNL A   1      32.211  29.728  25.455  1.00  0.00     0.023 C 
BRANCH  26  27
ATOM     27  C   UNL A   1      31.899  30.300  26.835  1.00  0.00     0.116 C 
BRANCH  27  28
ATOM     28  N   UNL A   1      31.907  31.754  26.877  1.00  0.00    -0.352 N 
ATOM     29  C   UNL A   1      32.850  32.611  27.400  1.00  0.00     0.251 C 
ATOM     30  H   UNL A   1      31.122  32.189  26.472  1.00  0.00     0.163 HD
ATOM     31  O   UNL A   1      32.615  33.818  27.427  1.00  0.00    -0.269 OA
BRANCH  29  32
ATOM     32  C   UNL A   1      34.125  32.096  27.957  1.00  0.00     0.039 A 
ATOM     33  C   UNL A   1      35.195  32.982  28.117  1.00  0.00     0.014 A 
ATOM     34  C   UNL A   1      34.278  30.755  28.318  1.00  0.00     0.014 A 
ATOM     35  C   UNL A   1      36.384  32.544  28.712  1.00  0.00     0.010 A 
ATOM     36  C   UNL A   1      35.435  30.338  28.977  1.00  0.00     0.010 A 
ATOM     37  C   UNL A   1      36.501  31.227  29.187  1.00  0.00    -0.014 A 
BRANCH  37  38
ATOM     38  C   UNL A   1      37.707  30.776  29.935  1.00  0.00     0.031 A 
ATOM     39  C   UNL A   1      38.675  29.803  29.315  1.00  0.00     0.074 A 
ATOM     40  C   UNL A   1      37.885  31.169  31.212  1.00  0.00     0.049 A 
ATOM     41  N   UNL A   1      39.738  29.249  29.839  1.00  0.00    -0.248 NA
ATOM     42  C   UNL A   1      38.402  29.380  27.932  1.00  0.00     0.031 C 
ATOM     43  C   UNL A   1      36.985  32.050  31.960  1.00  0.00     0.029 A 
ATOM     44  N   UNL A   1      38.866  30.855  32.121  1.00  0.00    -0.354 N 
ATOM     45  C   UNL A   1      40.239  28.387  28.872  1.00  0.00     0.074 A 
ATOM     46  C   UNL A   1      39.347  28.469  27.735  1.00  0.00     0.031 C 
ATOM     47  C   UNL A   1      37.453  32.204  33.208  1.00  0.00     0.029 A 
ATOM     48  C   UNL A   1      38.667  31.409  33.365  1.00  0.00     0.049 A 
ATOM     49  H   UNL A   1      39.641  30.287  31.903  1.00  0.00     0.167 HD
ATOM     50  C   UNL A   1      41.353  27.616  28.911  1.00  0.00     0.034 A 
ATOM     51  C   UNL A   1      39.368  31.282  34.510  1.00  0.00     0.034 A 
ATOM     52  C   UNL A   1      42.260  27.560  30.027  1.00  0.00     0.049 A 
ATOM     53  C   UNL A   1      40.614  30.438  34.518  1.00  0.00     0.074 A 
ATOM     54  C   UNL A   1      43.461  26.877  30.123  1.00  0.00     0.029 A 
ATOM     55  N   UNL A   1      42.065  28.198  31.241  1.00  0.00    -0.354 N 
ATOM     56  N   UNL A   1      41.157  29.757  33.539  1.00  0.00    -0.248 NA
ATOM     57  C   UNL A   1      41.365  30.372  35.781  1.00  0.00     0.031 C 
ATOM     58  C   UNL A   1      43.976  27.078  31.409  1.00  0.00     0.029 A 
ATOM     59  C   UNL A   1      43.114  27.915  32.099  1.00  0.00     0.049 A 
ATOM     60  H   UNL A   1      41.294  28.769  31.461  1.00  0.00     0.167 HD
ATOM     61  C   UNL A   1      42.328  29.214  34.054  1.00  0.00     0.074 A 
ATOM     62  C   UNL A   1      42.427  29.661  35.428  1.00  0.00     0.031 C 
ATOM     63  C   UNL A   1      43.233  28.406  33.448  1.00  0.00     0.034 A 
BRANCH  50  64
ATOM     64  C   UNL A   1      41.682  26.796  27.688  1.00  0.00     0.023 A 
ATOM     65  C   UNL A   1      42.286  27.418  26.576  1.00  0.00     0.012 A 
ATOM     66  C   UNL A   1      41.460  25.405  27.665  1.00  0.00     0.148 A 
ATOM     67  C   UNL A   1      42.628  26.677  25.446  1.00  0.00     0.002 A 
ATOM     68  C   UNL A   1      41.846  24.665  26.554  1.00  0.00     0.091 A 
ATOM     69  F   UNL A   1      40.870  24.833  28.724  1.00  0.00    -0.205 F 
ATOM     70  C   UNL A   1      42.418  25.301  25.438  1.00  0.00     0.022 A 
BRANCH  68  71
ATOM     71  S   UNL A   1      41.694  22.877  26.477  1.00  0.00     0.127 S 
ATOM     72  O   UNL A   1      40.242  22.704  26.476  1.00  0.00    -0.237 OA
ATOM     73  O   UNL A   1      42.345  22.567  25.203  1.00  0.00    -0.237 OA
ATOM     74  O   UNL A   1      42.384  22.364  27.652  1.00  0.00    -0.744 OA
ENDBRANCH  68  71
ENDBRANCH  50  64
BRANCH  51  75
ATOM     75  C   UNL A   1      38.939  32.017  35.733  1.00  0.00     0.023 A 
ATOM     76  C   UNL A   1      39.253  33.383  35.867  1.00  0.00     0.012 A 
ATOM     77  C   UNL A   1      38.205  31.379  36.752  1.00  0.00     0.148 A 
ATOM     78  C   UNL A   1      38.876  34.092  37.007  1.00  0.00     0.002 A 
ATOM     79  C   UNL A   1      37.781  32.105  37.859  1.00  0.00     0.091 A 
ATOM     80  F   UNL A   1      37.924  30.076  36.612  1.00  0.00    -0.205 F 
ATOM     81  C   UNL A   1      38.131  33.458  37.998  1.00  0.00     0.022 A 
BRANCH  79  82
ATOM     82  S   UNL A   1      36.708  31.406  39.117  1.00  0.00     0.127 S 
ATOM     83  O   UNL A   1      36.414  30.087  38.562  1.00  0.00    -0.237 OA
ATOM     84  O   UNL A   1      37.583  31.400  40.291  1.00  0.00    -0.237 OA
ATOM     85  O   UNL A   1      35.576  32.316  39.218  1.00  0.00    -0.744 OA
ENDBRANCH  79  82
ENDBRANCH  51  75
BRANCH  63  86
ATOM     86  C   UNL A   1      44.439  27.980  34.245  1.00  0.00     0.023 A 
ATOM     87  C   UNL A   1      45.611  28.761  34.223  1.00  0.00     0.012 A 
ATOM     88  C   UNL A   1      44.383  26.843  35.077  1.00  0.00     0.148 A 
ATOM     89  C   UNL A   1      46.719  28.399  34.991  1.00  0.00     0.002 A 
ATOM     90  C   UNL A   1      45.471  26.519  35.877  1.00  0.00     0.091 A 
ATOM     91  F   UNL A   1      43.264  26.102  35.070  1.00  0.00    -0.205 F 
ATOM     92  C   UNL A   1      46.645  27.287  35.825  1.00  0.00     0.022 A 
BRANCH  90  93
ATOM     93  S   UNL A   1      45.432  25.162  37.055  1.00  0.00     0.127 S 
ATOM     94  O   UNL A   1      45.711  24.013  36.195  1.00  0.00    -0.237 OA
ATOM     95  O   UNL A   1      46.518  25.515  37.970  1.00  0.00    -0.237 OA
ATOM     96  O   UNL A   1      44.104  25.186  37.653  1.00  0.00    -0.744 OA
ENDBRANCH  90  93
ENDBRANCH  63  86
ENDBRANCH  37  38
ENDBRANCH  29  32
ENDBRANCH  27  28
ENDBRANCH  26  27
ENDBRANCH   1  26
TORSDOF 17
ENDMDL
MODEL 3
REMARK VINA RESULT:     -12.2      4.957      8.363
REMARK SMILES Cc1cc([C@H](C)NC(=O)N2CC[C@H](C(=O)NCCCCNC(=O)c3ccc(-c4c5nc(c(-c6cccc(S(=O)(=O)[O-])c6F)c6ccc([nH]6)c(-c6cccc(S(=O)(=O)[O-])c6F)c6nc(c(-c7cccc(S(=O)(=O)[O-])c7F)c7ccc4[nH]7)C=C6)C=C5)cc3)[C@@H]2C)c(C)s1
REMARK SMILES IDX 18 1 17 2 16 3 14 4 15 5 13 7 10 8 11 9 87 10 12 11 88 12
REMARK SMILES IDX 8 13 7 14 9 16 5 17 6 18 4 19 1 20 2 21 3 22 91 23 89 24
REMARK SMILES IDX 90 25 19 26 20 27 21 28 22 29 23 31 24 32 25 33 86 34 26 35
REMARK SMILES IDX 85 36 27 37 28 38 29 39 79 40 30 41 84 42 78 43 80 44 31 45
REMARK SMILES IDX 83 46 77 47 76 48 32 50 64 51 44 52 63 53 45 54 48 55 62 56
REMARK SMILES IDX 81 57 46 58 47 59 61 61 82 62 49 63 33 64 34 65 42 66 35 67
REMARK SMILES IDX 37 68 43 69 36 70 38 71 39 72 40 73 41 74 65 75 66 76 74 77
REMARK SMILES IDX 67 78 69 79 75 80 68 81 70 82 71 83 72 84 73 85 50 86 51 87
REMARK SMILES IDX 59 88 52 89 54 90 60 91 53 92 55 93 56 94 57 95 58 96
REMARK H PARENT 16 6 7 15 21 30 80 49 48 60
REMARK Flexibility Score: inf
ROOT
ATOM      1  C   UNL A   1      34.719  20.233  25.009  1.00  0.00     0.023 C 
ENDROOT
BRANCH   1   2
ATOM      2  C   UNL A   1      33.318  20.510  25.551  1.00  0.00     0.116 C 
BRANCH   2   3
ATOM      3  N   UNL A   1      33.106  21.875  26.000  1.00  0.00    -0.356 N 
ATOM      4  C   UNL A   1      32.362  22.871  25.436  1.00  0.00     0.225 C 
ATOM      5  O   UNL A   1      31.922  23.754  26.174  1.00  0.00    -0.275 OA
ATOM      6  H   UNL A   1      33.568  22.119  26.834  1.00  0.00     0.163 HD
BRANCH   4   7
ATOM      7  C   UNL A   1      32.151  22.914  23.934  1.00  0.00     0.102 C 
ATOM      8  N   UNL A   1      32.097  24.797  22.450  1.00  0.00    -0.321 N 
ATOM      9  C   UNL A   1      30.792  24.726  23.073  1.00  0.00     0.122 C 
ATOM     10  C   UNL A   1      33.031  23.965  23.210  1.00  0.00     0.096 C 
ATOM     11  C   UNL A   1      30.708  23.292  23.564  1.00  0.00     0.037 C 
ATOM     12  C   UNL A   1      33.920  24.833  24.105  1.00  0.00     0.032 C 
BRANCH   8  13
ATOM     13  C   UNL A   1      32.399  25.814  21.587  1.00  0.00     0.318 C 
ATOM     14  N   UNL A   1      31.710  26.984  21.657  1.00  0.00    -0.331 N 
ATOM     15  H   UNL A   1      31.352  27.341  20.811  1.00  0.00     0.165 HD
ATOM     16  O   UNL A   1      33.282  25.714  20.734  1.00  0.00    -0.249 OA
BRANCH  14  17
ATOM     17  C   UNL A   1      31.450  27.761  22.861  1.00  0.00     0.112 C 
ATOM     18  C   UNL A   1      32.675  28.625  23.195  1.00  0.00     0.036 C 
BRANCH  17  19
ATOM     19  C   UNL A   1      30.167  28.562  22.663  1.00  0.00    -0.012 A 
ATOM     20  C   UNL A   1      28.366  31.716  21.500  1.00  0.00     0.056 C 
ATOM     21  C   UNL A   1      28.825  30.397  22.013  1.00  0.00     0.002 A 
ATOM     22  C   UNL A   1      30.085  29.841  21.994  1.00  0.00     0.021 A 
ATOM     23  S   UNL A   1      27.700  29.361  22.751  1.00  0.00    -0.146 S 
ATOM     24  C   UNL A   1      28.902  28.199  23.125  1.00  0.00     0.007 A 
ATOM     25  C   UNL A   1      28.445  26.993  23.871  1.00  0.00     0.057 C 
ENDBRANCH  17  19
ENDBRANCH  14  17
ENDBRANCH   8  13
ENDBRANCH   4   7
ENDBRANCH   2   3
ENDBRANCH   1   2
BRANCH   1  26
ATOM     26  C   UNL A   1      35.513  21.448  24.525  1.00  0.00     0.023 C 
BRANCH  26  27
ATOM     27  C   UNL A   1      36.694  21.881  25.390  1.00  0.00     0.116 C 
BRANCH  27  28
ATOM     28  N   UNL A   1      37.686  20.835  25.584  1.00  0.00    -0.352 N 
ATOM     29  C   UNL A   1      38.973  20.925  26.065  1.00  0.00     0.251 C 
ATOM     30  H   UNL A   1      37.393  19.928  25.335  1.00  0.00     0.163 HD
ATOM     31  O   UNL A   1      39.691  19.926  26.052  1.00  0.00    -0.269 OA
BRANCH  29  32
ATOM     32  C   UNL A   1      39.513  22.214  26.564  1.00  0.00     0.039 A 
ATOM     33  C   UNL A   1      40.553  22.190  27.499  1.00  0.00     0.014 A 
ATOM     34  C   UNL A   1      39.005  23.440  26.127  1.00  0.00     0.014 A 
ATOM     35  C   UNL A   1      41.135  23.387  27.930  1.00  0.00     0.010 A 
ATOM     36  C   UNL A   1      39.634  24.628  26.500  1.00  0.00     0.010 A 
ATOM     37  C   UNL A   1      40.710  24.618  27.402  1.00  0.00    -0.014 A 
BRANCH  37  38
ATOM     38  C   UNL A   1      41.397  25.892  27.751  1.00  0.00     0.031 A 
ATOM     39  C   UNL A   1      40.661  26.990  28.472  1.00  0.00     0.074 A 
ATOM     40  C   UNL A   1      42.664  26.101  27.336  1.00  0.00     0.049 A 
ATOM     41  N   UNL A   1      41.077  28.188  28.796  1.00  0.00    -0.248 NA
ATOM     42  C   UNL A   1      39.268  26.716  28.861  1.00  0.00     0.031 C 
ATOM     43  C   UNL A   1      43.468  25.151  26.564  1.00  0.00     0.029 A 
ATOM     44  N   UNL A   1      43.487  27.192  27.475  1.00  0.00    -0.354 N 
ATOM     45  C   UNL A   1      39.992  28.823  29.390  1.00  0.00     0.074 A 
ATOM     46  C   UNL A   1      38.890  27.886  29.358  1.00  0.00     0.031 C 
ATOM     47  C   UNL A   1      44.665  25.699  26.300  1.00  0.00     0.029 A 
ATOM     48  C   UNL A   1      44.704  27.050  26.850  1.00  0.00     0.049 A 
ATOM     49  H   UNL A   1      43.230  28.000  27.977  1.00  0.00     0.167 HD
ATOM     50  C   UNL A   1      39.924  30.061  29.937  1.00  0.00     0.034 A 
ATOM     51  C   UNL A   1      45.733  27.912  26.717  1.00  0.00     0.034 A 
ATOM     52  C   UNL A   1      41.030  30.979  30.001  1.00  0.00     0.049 A 
ATOM     53  C   UNL A   1      45.639  29.272  27.355  1.00  0.00     0.074 A 
ATOM     54  C   UNL A   1      41.081  32.220  30.615  1.00  0.00     0.029 A 
ATOM     55  N   UNL A   1      42.273  30.768  29.426  1.00  0.00    -0.354 N 
ATOM     56  N   UNL A   1      44.659  29.791  28.052  1.00  0.00    -0.248 NA
ATOM     57  C   UNL A   1      46.808  30.154  27.216  1.00  0.00     0.031 C 
ATOM     58  C   UNL A   1      42.346  32.771  30.382  1.00  0.00     0.029 A 
ATOM     59  C   UNL A   1      43.094  31.859  29.655  1.00  0.00     0.049 A 
ATOM     60  H   UNL A   1      42.533  29.961  28.926  1.00  0.00     0.167 HD
ATOM     61  C   UNL A   1      45.105  31.041  28.467  1.00  0.00     0.074 A 
ATOM     62  C   UNL A   1      46.452  31.193  27.958  1.00  0.00     0.031 C 
ATOM     63  C   UNL A   1      44.452  31.982  29.192  1.00  0.00     0.034 A 
BRANCH  50  64
ATOM     64  C   UNL A   1      38.615  30.484  30.554  1.00  0.00     0.023 A 
ATOM     65  C   UNL A   1      38.374  30.227  31.920  1.00  0.00     0.012 A 
ATOM     66  C   UNL A   1      37.655  31.194  29.806  1.00  0.00     0.148 A 
ATOM     67  C   UNL A   1      37.185  30.634  32.521  1.00  0.00     0.002 A 
ATOM     68  C   UNL A   1      36.492  31.638  30.424  1.00  0.00     0.091 A 
ATOM     69  F   UNL A   1      37.893  31.415  28.506  1.00  0.00    -0.205 F 
ATOM     70  C   UNL A   1      36.249  31.348  31.777  1.00  0.00     0.022 A 
BRANCH  68  71
ATOM     71  S   UNL A   1      35.262  32.636  29.576  1.00  0.00     0.127 S 
ATOM     72  O   UNL A   1      35.991  33.887  29.367  1.00  0.00    -0.237 OA
ATOM     73  O   UNL A   1      35.024  31.860  28.358  1.00  0.00    -0.237 OA
ATOM     74  O   UNL A   1      34.122  32.720  30.476  1.00  0.00    -0.744 OA
ENDBRANCH  68  71
ENDBRANCH  50  64
BRANCH  51  75
ATOM     75  C   UNL A   1      46.967  27.494  25.992  1.00  0.00     0.023 A 
ATOM     76  C   UNL A   1      47.117  27.826  24.632  1.00  0.00     0.012 A 
ATOM     77  C   UNL A   1      47.998  26.792  26.645  1.00  0.00     0.148 A 
ATOM     78  C   UNL A   1      48.255  27.435  23.926  1.00  0.00     0.002 A 
ATOM     79  C   UNL A   1      49.155  26.456  25.952  1.00  0.00     0.091 A 
ATOM     80  F   UNL A   1      47.832  26.476  27.937  1.00  0.00    -0.205 F 
ATOM     81  C   UNL A   1      49.278  26.761  24.587  1.00  0.00     0.022 A 
BRANCH  79  82
ATOM     82  S   UNL A   1      50.576  25.707  26.753  1.00  0.00     0.127 S 
ATOM     83  O   UNL A   1      50.014  24.455  27.252  1.00  0.00    -0.237 OA
ATOM     84  O   UNL A   1      51.510  25.561  25.634  1.00  0.00    -0.237 OA
ATOM     85  O   UNL A   1      51.002  26.659  27.769  1.00  0.00    -0.744 OA
ENDBRANCH  79  82
ENDBRANCH  51  75
BRANCH  63  86
ATOM     86  C   UNL A   1      45.192  33.253  29.522  1.00  0.00     0.023 A 
ATOM     87  C   UNL A   1      46.003  33.317  30.672  1.00  0.00     0.012 A 
ATOM     88  C   UNL A   1      45.143  34.359  28.649  1.00  0.00     0.148 A 
ATOM     89  C   UNL A   1      46.727  34.474  30.965  1.00  0.00     0.002 A 
ATOM     90  C   UNL A   1      45.906  35.487  28.921  1.00  0.00     0.091 A 
ATOM     91  F   UNL A   1      44.351  34.284  27.569  1.00  0.00    -0.205 F 
ATOM     92  C   UNL A   1      46.688  35.552  30.085  1.00  0.00     0.022 A 
BRANCH  90  93
ATOM     93  S   UNL A   1      45.996  36.885  27.796  1.00  0.00     0.127 S 
ATOM     94  O   UNL A   1      46.444  37.955  28.686  1.00  0.00    -0.237 OA
ATOM     95  O   UNL A   1      46.996  36.439  26.826  1.00  0.00    -0.237 OA
ATOM     96  O   UNL A   1      44.655  37.049  27.250  1.00  0.00    -0.744 OA
ENDBRANCH  90  93
ENDBRANCH  63  86
ENDBRANCH  37  38
ENDBRANCH  29  32
ENDBRANCH  27  28
ENDBRANCH  26  27
ENDBRANCH   1  26
TORSDOF 17
ENDMDL
