MODEL 1
REMARK VINA RESULT:     -12.1      0.000      0.000
REMARK SMILES CC1=C(C(=O)NCCCCNC(=O)c2ccc(-c3c4nc(c(-c5cccc(S(=O)(=O)[O-])c5F)c5ccc([nH]5)c(-c5cccc(S(=O)(=O)[O-])c5F)c5nc(c(-c6cccc(S(=O)(=O)[O-])c6F)c6ccc3[nH]6)C=C5)C=C4)cc2)N2C(=O)[C@@H](NC(=O)c3ccn(C)n3)[C@H]2SC1
REMARK SMILES IDX 9 1 8 2 7 3 6 4 4 5 5 6 3 8 1 9 2 10 92 11 77 12 91 13 78 14
REMARK SMILES IDX 90 15 79 16 80 17 81 18 82 19 83 21 84 22 85 23 89 24 86 25
REMARK SMILES IDX 87 26 88 27 10 28 11 29 12 30 13 32 14 33 15 34 76 35 16 36
REMARK SMILES IDX 75 37 17 38 18 39 19 40 69 41 20 42 74 43 68 44 70 45 21 46
REMARK SMILES IDX 73 47 67 48 66 49 22 51 54 52 34 53 53 54 35 55 38 56 52 57
REMARK SMILES IDX 71 58 36 59 37 60 51 62 72 63 39 64 23 65 24 66 32 67 25 68
REMARK SMILES IDX 27 69 33 70 26 71 28 72 29 73 30 74 31 75 55 76 56 77 64 78
REMARK SMILES IDX 57 79 59 80 65 81 58 82 60 83 61 84 62 85 63 86 40 87 41 88
REMARK SMILES IDX 49 89 42 90 44 91 50 92 43 93 45 94 46 95 47 96 48 97
REMARK H PARENT 6 7 81 20 11 31 70 50 38 61
REMARK Flexibility Score: inf
ROOT
ATOM      1  C   UNL A   1      37.927  19.286  24.968  1.00  0.00     0.023 C 
ENDROOT
BRANCH   1   2
ATOM      2  C   UNL A   1      36.635  20.054  24.709  1.00  0.00     0.023 C 
BRANCH   2   3
ATOM      3  C   UNL A   1      36.566  21.478  25.241  1.00  0.00     0.116 C 
BRANCH   3   4
ATOM      4  N   UNL A   1      35.685  21.718  26.364  1.00  0.00    -0.351 N 
ATOM      5  C   UNL A   1      34.338  21.483  26.464  1.00  0.00     0.268 C 
ATOM      6  O   UNL A   1      33.798  21.531  27.569  1.00  0.00    -0.268 OA
ATOM      7  H   UNL A   1      36.110  22.100  27.165  1.00  0.00     0.163 HD
BRANCH   5   8
ATOM      8  C   UNL A   1      33.495  21.216  25.234  1.00  0.00     0.110 C 
ATOM      9  C   UNL A   1      32.890  18.808  25.737  1.00  0.00     0.043 C 
ATOM     10  C   UNL A   1      32.971  20.023  24.851  1.00  0.00    -0.034 C 
ATOM     11  C   UNL A   1      32.340  19.774  23.479  1.00  0.00     0.104 C 
ATOM     12  N   UNL A   1      33.080  22.318  24.553  1.00  0.00    -0.290 N 
ATOM     13  S   UNL A   1      32.155  21.240  22.403  1.00  0.00    -0.129 SA
ATOM     14  C   UNL A   1      33.362  23.626  24.408  1.00  0.00     0.253 C 
ATOM     15  C   UNL A   1      31.836  22.315  23.816  1.00  0.00     0.181 C 
ATOM     16  O   UNL A   1      34.297  24.327  24.719  1.00  0.00    -0.272 OA
ATOM     17  C   UNL A   1      31.993  23.842  23.701  1.00  0.00     0.206 C 
BRANCH  17  18
ATOM     18  N   UNL A   1      31.954  24.449  22.352  1.00  0.00    -0.336 N 
ATOM     19  C   UNL A   1      31.721  25.779  22.050  1.00  0.00     0.272 C 
ATOM     20  H   UNL A   1      32.110  23.844  21.592  1.00  0.00     0.164 HD
ATOM     21  O   UNL A   1      31.524  26.101  20.880  1.00  0.00    -0.267 OA
BRANCH  19  22
ATOM     22  C   UNL A   1      31.700  26.745  23.164  1.00  0.00     0.150 A 
ATOM     23  C   UNL A   1      30.561  27.238  23.865  1.00  0.00     0.056 A 
ATOM     24  N   UNL A   1      32.825  27.319  23.633  1.00  0.00    -0.168 NA
ATOM     25  C   UNL A   1      31.046  28.179  24.741  1.00  0.00     0.109 A 
ATOM     26  N   UNL A   1      32.399  28.158  24.594  1.00  0.00    -0.275 N 
ATOM     27  C   UNL A   1      33.346  28.952  25.339  1.00  0.00     0.173 C 
ENDBRANCH  19  22
ENDBRANCH  17  18
ENDBRANCH   5   8
ENDBRANCH   3   4
ENDBRANCH   2   3
ENDBRANCH   1   2
BRANCH   1  28
ATOM     28  C   UNL A   1      38.916  19.917  25.945  1.00  0.00     0.116 C 
BRANCH  28  29
ATOM     29  N   UNL A   1      40.179  19.197  26.060  1.00  0.00    -0.352 N 
ATOM     30  C   UNL A   1      41.440  19.661  26.366  1.00  0.00     0.251 C 
ATOM     31  H   UNL A   1      40.123  18.229  25.894  1.00  0.00     0.163 HD
ATOM     32  O   UNL A   1      42.399  18.894  26.322  1.00  0.00    -0.269 OA
BRANCH  30  33
ATOM     33  C   UNL A   1      41.647  21.085  26.709  1.00  0.00     0.039 A 
ATOM     34  C   UNL A   1      42.088  21.418  27.992  1.00  0.00     0.014 A 
ATOM     35  C   UNL A   1      41.444  22.087  25.759  1.00  0.00     0.014 A 
ATOM     36  C   UNL A   1      42.423  22.743  28.287  1.00  0.00     0.010 A 
ATOM     37  C   UNL A   1      41.875  23.384  26.022  1.00  0.00     0.010 A 
ATOM     38  C   UNL A   1      42.371  23.730  27.288  1.00  0.00    -0.014 A 
BRANCH  38  39
ATOM     39  C   UNL A   1      42.843  25.119  27.542  1.00  0.00     0.031 A 
ATOM     40  C   UNL A   1      41.924  26.129  28.180  1.00  0.00     0.074 A 
ATOM     41  C   UNL A   1      44.068  25.499  27.123  1.00  0.00     0.049 A 
ATOM     42  N   UNL A   1      42.138  27.396  28.427  1.00  0.00    -0.248 NA
ATOM     43  C   UNL A   1      40.581  25.664  28.565  1.00  0.00     0.031 C 
ATOM     44  C   UNL A   1      45.027  24.642  26.421  1.00  0.00     0.029 A 
ATOM     45  N   UNL A   1      44.709  26.712  27.204  1.00  0.00    -0.354 N 
ATOM     46  C   UNL A   1      40.951  27.885  28.961  1.00  0.00     0.074 A 
ATOM     47  C   UNL A   1      40.006  26.789  28.964  1.00  0.00     0.031 C 
ATOM     48  C   UNL A   1      46.135  25.350  26.148  1.00  0.00     0.029 A 
ATOM     49  C   UNL A   1      45.953  26.721  26.615  1.00  0.00     0.049 A 
ATOM     50  H   UNL A   1      44.315  27.500  27.642  1.00  0.00     0.167 HD
ATOM     51  C   UNL A   1      40.676  29.123  29.434  1.00  0.00     0.034 A 
ATOM     52  C   UNL A   1      46.841  27.722  26.454  1.00  0.00     0.034 A 
ATOM     53  C   UNL A   1      41.625  30.204  29.460  1.00  0.00     0.049 A 
ATOM     54  C   UNL A   1      46.517  29.086  27.002  1.00  0.00     0.074 A 
ATOM     55  C   UNL A   1      41.468  31.469  29.995  1.00  0.00     0.029 A 
ATOM     56  N   UNL A   1      42.897  30.154  28.914  1.00  0.00    -0.354 N 
ATOM     57  N   UNL A   1      45.446  29.484  27.642  1.00  0.00    -0.248 NA
ATOM     58  C   UNL A   1      47.538  30.131  26.834  1.00  0.00     0.031 C 
ATOM     59  C   UNL A   1      42.630  32.200  29.734  1.00  0.00     0.029 A 
ATOM     60  C   UNL A   1      43.530  31.373  29.083  1.00  0.00     0.049 A 
ATOM     61  H   UNL A   1      43.292  29.368  28.471  1.00  0.00     0.167 HD
ATOM     62  C   UNL A   1      45.679  30.810  27.989  1.00  0.00     0.074 A 
ATOM     63  C   UNL A   1      47.003  31.141  27.505  1.00  0.00     0.031 C 
ATOM     64  C   UNL A   1      44.867  31.677  28.641  1.00  0.00     0.034 A 
BRANCH  51  65
ATOM     65  C   UNL A   1      39.301  29.370  30.000  1.00  0.00     0.023 A 
ATOM     66  C   UNL A   1      39.002  28.968  31.318  1.00  0.00     0.012 A 
ATOM     67  C   UNL A   1      38.325  30.055  29.249  1.00  0.00     0.148 A 
ATOM     68  C   UNL A   1      37.744  29.207  31.866  1.00  0.00     0.002 A 
ATOM     69  C   UNL A   1      37.090  30.336  29.821  1.00  0.00     0.091 A 
ATOM     70  F   UNL A   1      38.621  30.414  27.992  1.00  0.00    -0.205 F 
ATOM     71  C   UNL A   1      36.793  29.901  31.123  1.00  0.00     0.022 A 
BRANCH  69  72
ATOM     72  S   UNL A   1      35.826  31.295  28.980  1.00  0.00     0.127 S 
ATOM     73  O   UNL A   1      36.614  32.394  28.421  1.00  0.00    -0.237 OA
ATOM     74  O   UNL A   1      35.325  30.340  27.992  1.00  0.00    -0.237 OA
ATOM     75  O   UNL A   1      34.862  31.680  30.002  1.00  0.00    -0.744 OA
ENDBRANCH  69  72
ENDBRANCH  51  65
BRANCH  52  76
ATOM     76  C   UNL A   1      48.147  27.467  25.777  1.00  0.00     0.023 A 
ATOM     77  C   UNL A   1      49.278  27.132  26.547  1.00  0.00     0.012 A 
ATOM     78  C   UNL A   1      48.273  27.557  24.378  1.00  0.00     0.148 A 
ATOM     79  C   UNL A   1      50.519  26.932  25.941  1.00  0.00     0.002 A 
ATOM     80  C   UNL A   1      49.498  27.298  23.774  1.00  0.00     0.091 A 
ATOM     81  F   UNL A   1      47.187  27.885  23.663  1.00  0.00    -0.205 F 
ATOM     82  C   UNL A   1      50.627  27.006  24.554  1.00  0.00     0.022 A 
BRANCH  80  83
ATOM     83  S   UNL A   1      49.702  27.246  21.991  1.00  0.00     0.127 S 
ATOM     84  O   UNL A   1      48.675  26.283  21.600  1.00  0.00    -0.237 OA
ATOM     85  O   UNL A   1      49.420  28.633  21.617  1.00  0.00    -0.237 OA
ATOM     86  O   UNL A   1      51.078  26.829  21.763  1.00  0.00    -0.744 OA
ENDBRANCH  80  83
ENDBRANCH  52  76
BRANCH  64  87
ATOM     87  C   UNL A   1      45.397  33.060  28.924  1.00  0.00     0.023 A 
ATOM     88  C   UNL A   1      46.161  33.303  30.083  1.00  0.00     0.012 A 
ATOM     89  C   UNL A   1      45.200  34.101  27.995  1.00  0.00     0.148 A 
ATOM     90  C   UNL A   1      46.690  34.570  30.328  1.00  0.00     0.002 A 
ATOM     91  C   UNL A   1      45.777  35.344  28.219  1.00  0.00     0.091 A 
ATOM     92  F   UNL A   1      44.457  33.853  26.907  1.00  0.00    -0.205 F 
ATOM     93  C   UNL A   1      46.510  35.585  29.392  1.00  0.00     0.022 A 
BRANCH  91  94
ATOM     94  S   UNL A   1      45.685  36.681  27.022  1.00  0.00     0.127 S 
ATOM     95  O   UNL A   1      46.488  37.716  27.671  1.00  0.00    -0.237 OA
ATOM     96  O   UNL A   1      46.303  36.079  25.842  1.00  0.00    -0.237 OA
ATOM     97  O   UNL A   1      44.270  36.995  26.874  1.00  0.00    -0.744 OA
ENDBRANCH  91  94
ENDBRANCH  64  87
ENDBRANCH  38  39
ENDBRANCH  30  33
ENDBRANCH  28  29
ENDBRANCH   1  28
TORSDOF 16
ENDMDL
MODEL 2
REMARK VINA RESULT:     -12.1      6.061     11.543
REMARK SMILES CC1=C(C(=O)NCCCCNC(=O)c2ccc(-c3c4nc(c(-c5cccc(S(=O)(=O)[O-])c5F)c5ccc([nH]5)c(-c5cccc(S(=O)(=O)[O-])c5F)c5nc(c(-c6cccc(S(=O)(=O)[O-])c6F)c6ccc3[nH]6)C=C5)C=C4)cc2)N2C(=O)[C@@H](NC(=O)c3ccn(C)n3)[C@H]2SC1
REMARK SMILES IDX 9 1 8 2 7 3 6 4 4 5 5 6 3 8 1 9 2 10 92 11 77 12 91 13 78 14
REMARK SMILES IDX 90 15 79 16 80 17 81 18 82 19 83 21 84 22 85 23 89 24 86 25
REMARK SMILES IDX 87 26 88 27 10 28 11 29 12 30 13 32 14 33 15 34 76 35 16 36
REMARK SMILES IDX 75 37 17 38 18 39 19 40 69 41 20 42 74 43 68 44 70 45 21 46
REMARK SMILES IDX 73 47 67 48 66 49 22 51 54 52 34 53 53 54 35 55 38 56 52 57
REMARK SMILES IDX 71 58 36 59 37 60 51 62 72 63 39 64 23 65 24 66 32 67 25 68
REMARK SMILES IDX 27 69 33 70 26 71 28 72 29 73 30 74 31 75 55 76 56 77 64 78
REMARK SMILES IDX 57 79 59 80 65 81 58 82 60 83 61 84 62 85 63 86 40 87 41 88
REMARK SMILES IDX 49 89 42 90 44 91 50 92 43 93 45 94 46 95 47 96 48 97
REMARK H PARENT 6 7 81 20 11 31 70 50 38 61
REMARK Flexibility Score: inf
ROOT
ATOM      1  C   UNL A   1      31.838  31.686  26.540  1.00  0.00     0.023 C 
ENDROOT
BRANCH   1   2
ATOM      2  C   UNL A   1      31.791  30.169  26.700  1.00  0.00     0.023 C 
BRANCH   2   3
ATOM      3  C   UNL A   1      33.097  29.417  26.490  1.00  0.00     0.116 C 
BRANCH   3   4
ATOM      4  N   UNL A   1      33.675  29.465  25.164  1.00  0.00    -0.351 N 
ATOM      5  C   UNL A   1      33.175  28.964  23.990  1.00  0.00     0.268 C 
ATOM      6  O   UNL A   1      33.691  29.299  22.923  1.00  0.00    -0.268 OA
ATOM      7  H   UNL A   1      34.545  29.920  25.095  1.00  0.00     0.163 HD
BRANCH   5   8
ATOM      8  C   UNL A   1      32.034  27.968  23.986  1.00  0.00     0.110 C 
ATOM      9  C   UNL A   1      30.363  29.353  22.679  1.00  0.00     0.043 C 
ATOM     10  C   UNL A   1      30.772  28.180  23.531  1.00  0.00    -0.034 C 
ATOM     11  C   UNL A   1      29.608  27.219  23.779  1.00  0.00     0.104 C 
ATOM     12  N   UNL A   1      32.367  26.688  24.305  1.00  0.00    -0.290 N 
ATOM     13  S   UNL A   1      30.032  25.637  24.589  1.00  0.00    -0.129 SA
ATOM     14  C   UNL A   1      33.342  25.979  24.904  1.00  0.00     0.253 C 
ATOM     15  C   UNL A   1      31.632  25.568  23.760  1.00  0.00     0.181 C 
ATOM     16  O   UNL A   1      34.279  26.265  25.612  1.00  0.00    -0.272 OA
ATOM     17  C   UNL A   1      32.763  24.671  24.293  1.00  0.00     0.206 C 
BRANCH  17  18
ATOM     18  N   UNL A   1      32.401  23.545  25.183  1.00  0.00    -0.336 N 
ATOM     19  C   UNL A   1      33.217  22.492  25.558  1.00  0.00     0.272 C 
ATOM     20  H   UNL A   1      31.486  23.547  25.546  1.00  0.00     0.164 HD
ATOM     21  O   UNL A   1      32.721  21.530  26.143  1.00  0.00    -0.267 OA
BRANCH  19  22
ATOM     22  C   UNL A   1      34.648  22.573  25.213  1.00  0.00     0.150 A 
ATOM     23  C   UNL A   1      35.291  22.061  24.048  1.00  0.00     0.056 A 
ATOM     24  N   UNL A   1      35.550  23.142  26.036  1.00  0.00    -0.168 NA
ATOM     25  C   UNL A   1      36.632  22.299  24.233  1.00  0.00     0.109 A 
ATOM     26  N   UNL A   1      36.728  22.980  25.407  1.00  0.00    -0.275 N 
ATOM     27  C   UNL A   1      37.944  23.485  25.998  1.00  0.00     0.173 C 
ENDBRANCH  19  22
ENDBRANCH  17  18
ENDBRANCH   5   8
ENDBRANCH   3   4
ENDBRANCH   2   3
ENDBRANCH   1   2
BRANCH   1  28
ATOM     28  C   UNL A   1      32.885  32.431  27.363  1.00  0.00     0.116 C 
BRANCH  28  29
ATOM     29  N   UNL A   1      32.557  33.829  27.617  1.00  0.00    -0.352 N 
ATOM     30  C   UNL A   1      33.102  34.719  28.516  1.00  0.00     0.251 C 
ATOM     31  H   UNL A   1      31.835  34.195  27.057  1.00  0.00     0.163 HD
ATOM     32  O   UNL A   1      32.615  35.841  28.635  1.00  0.00    -0.269 OA
BRANCH  30  33
ATOM     33  C   UNL A   1      34.244  34.315  29.365  1.00  0.00     0.039 A 
ATOM     34  C   UNL A   1      34.001  33.571  30.523  1.00  0.00     0.014 A 
ATOM     35  C   UNL A   1      35.554  34.635  29.004  1.00  0.00     0.014 A 
ATOM     36  C   UNL A   1      35.077  33.063  31.258  1.00  0.00     0.010 A 
ATOM     37  C   UNL A   1      36.619  34.043  29.676  1.00  0.00     0.010 A 
ATOM     38  C   UNL A   1      36.396  33.249  30.811  1.00  0.00    -0.014 A 
BRANCH  38  39
ATOM     39  C   UNL A   1      37.549  32.612  31.504  1.00  0.00     0.031 A 
ATOM     40  C   UNL A   1      38.284  31.464  30.860  1.00  0.00     0.074 A 
ATOM     41  C   UNL A   1      37.885  33.006  32.750  1.00  0.00     0.049 A 
ATOM     42  N   UNL A   1      39.271  30.749  31.333  1.00  0.00    -0.248 NA
ATOM     43  C   UNL A   1      37.833  31.048  29.522  1.00  0.00     0.031 C 
ATOM     44  C   UNL A   1      37.205  34.051  33.520  1.00  0.00     0.029 A 
ATOM     45  N   UNL A   1      38.867  32.558  33.600  1.00  0.00    -0.354 N 
ATOM     46  C   UNL A   1      39.534  29.780  30.372  1.00  0.00     0.074 A 
ATOM     47  C   UNL A   1      38.577  29.972  29.306  1.00  0.00     0.031 C 
ATOM     48  C   UNL A   1      37.797  34.173  34.719  1.00  0.00     0.029 A 
ATOM     49  C   UNL A   1      38.869  33.188  34.824  1.00  0.00     0.049 A 
ATOM     50  H   UNL A   1      39.508  31.853  33.357  1.00  0.00     0.167 HD
ATOM     51  C   UNL A   1      40.503  28.834  30.359  1.00  0.00     0.034 A 
ATOM     52  C   UNL A   1      39.637  32.987  35.914  1.00  0.00     0.034 A 
ATOM     53  C   UNL A   1      41.476  28.663  31.405  1.00  0.00     0.049 A 
ATOM     54  C   UNL A   1      40.715  31.938  35.869  1.00  0.00     0.074 A 
ATOM     55  C   UNL A   1      42.547  27.789  31.445  1.00  0.00     0.029 A 
ATOM     56  N   UNL A   1      41.486  29.365  32.599  1.00  0.00    -0.354 N 
ATOM     57  N   UNL A   1      41.046  31.137  34.886  1.00  0.00    -0.248 NA
ATOM     58  C   UNL A   1      41.549  31.788  37.071  1.00  0.00     0.031 C 
ATOM     59  C   UNL A   1      43.180  27.932  32.683  1.00  0.00     0.029 A 
ATOM     60  C   UNL A   1      42.534  28.931  33.392  1.00  0.00     0.049 A 
ATOM     61  H   UNL A   1      40.843  30.069  32.847  1.00  0.00     0.167 HD
ATOM     62  C   UNL A   1      42.148  30.418  35.334  1.00  0.00     0.074 A 
ATOM     63  C   UNL A   1      42.442  30.893  36.670  1.00  0.00     0.031 C 
ATOM     64  C   UNL A   1      42.847  29.445  34.700  1.00  0.00     0.034 A 
BRANCH  51  65
ATOM     65  C   UNL A   1      40.585  27.929  29.157  1.00  0.00     0.023 A 
ATOM     66  C   UNL A   1      39.703  26.835  29.041  1.00  0.00     0.012 A 
ATOM     67  C   UNL A   1      41.493  28.197  28.114  1.00  0.00     0.148 A 
ATOM     68  C   UNL A   1      39.750  25.999  27.926  1.00  0.00     0.002 A 
ATOM     69  C   UNL A   1      41.499  27.390  26.982  1.00  0.00     0.091 A 
ATOM     70  F   UNL A   1      42.336  29.231  28.249  1.00  0.00    -0.205 F 
ATOM     71  C   UNL A   1      40.638  26.284  26.893  1.00  0.00     0.022 A 
BRANCH  69  72
ATOM     72  S   UNL A   1      42.545  27.719  25.560  1.00  0.00     0.127 S 
ATOM     73  O   UNL A   1      42.313  26.528  24.743  1.00  0.00    -0.237 OA
ATOM     74  O   UNL A   1      41.958  28.948  25.027  1.00  0.00    -0.237 OA
ATOM     75  O   UNL A   1      43.898  27.863  26.078  1.00  0.00    -0.744 OA
ENDBRANCH  69  72
ENDBRANCH  51  65
BRANCH  52  76
ATOM     76  C   UNL A   1      39.443  33.824  37.135  1.00  0.00     0.023 A 
ATOM     77  C   UNL A   1      39.965  35.132  37.173  1.00  0.00     0.012 A 
ATOM     78  C   UNL A   1      38.748  33.330  38.255  1.00  0.00     0.148 A 
ATOM     79  C   UNL A   1      39.834  35.918  38.319  1.00  0.00     0.002 A 
ATOM     80  C   UNL A   1      38.570  34.139  39.371  1.00  0.00     0.091 A 
ATOM     81  F   UNL A   1      38.267  32.080  38.203  1.00  0.00    -0.205 F 
ATOM     82  C   UNL A   1      39.130  35.424  39.414  1.00  0.00     0.022 A 
BRANCH  80  83
ATOM     83  S   UNL A   1      37.570  33.636  40.776  1.00  0.00     0.127 S 
ATOM     84  O   UNL A   1      36.363  33.138  40.121  1.00  0.00    -0.237 OA
ATOM     85  O   UNL A   1      38.410  32.605  41.387  1.00  0.00    -0.237 OA
ATOM     86  O   UNL A   1      37.400  34.833  41.588  1.00  0.00    -0.744 OA
ENDBRANCH  80  83
ENDBRANCH  52  76
BRANCH  64  87
ATOM     87  C   UNL A   1      44.039  28.858  35.413  1.00  0.00     0.023 A 
ATOM     88  C   UNL A   1      45.320  29.416  35.233  1.00  0.00     0.012 A 
ATOM     89  C   UNL A   1      43.868  27.796  36.325  1.00  0.00     0.148 A 
ATOM     90  C   UNL A   1      46.418  28.903  35.924  1.00  0.00     0.002 A 
ATOM     91  C   UNL A   1      44.957  27.329  37.050  1.00  0.00     0.091 A 
ATOM     92  F   UNL A   1      42.644  27.270  36.470  1.00  0.00    -0.205 F 
ATOM     93  C   UNL A   1      46.236  27.871  36.840  1.00  0.00     0.022 A 
BRANCH  91  94
ATOM     94  S   UNL A   1      44.800  26.073  38.325  1.00  0.00     0.127 S 
ATOM     95  O   UNL A   1      43.873  26.712  39.258  1.00  0.00    -0.237 OA
ATOM     96  O   UNL A   1      44.237  24.947  37.580  1.00  0.00    -0.237 OA
ATOM     97  O   UNL A   1      46.144  25.849  38.841  1.00  0.00    -0.744 OA
ENDBRANCH  91  94
ENDBRANCH  64  87
ENDBRANCH  38  39
ENDBRANCH  30  33
ENDBRANCH  28  29
ENDBRANCH   1  28
TORSDOF 16
ENDMDL
MODEL 3
REMARK VINA RESULT:     -12.0      5.589     11.230
REMARK SMILES CC1=C(C(=O)NCCCCNC(=O)c2ccc(-c3c4nc(c(-c5cccc(S(=O)(=O)[O-])c5F)c5ccc([nH]5)c(-c5cccc(S(=O)(=O)[O-])c5F)c5nc(c(-c6cccc(S(=O)(=O)[O-])c6F)c6ccc3[nH]6)C=C5)C=C4)cc2)N2C(=O)[C@@H](NC(=O)c3ccn(C)n3)[C@H]2SC1
REMARK SMILES IDX 9 1 8 2 7 3 6 4 4 5 5 6 3 8 1 9 2 10 92 11 77 12 91 13 78 14
REMARK SMILES IDX 90 15 79 16 80 17 81 18 82 19 83 21 84 22 85 23 89 24 86 25
REMARK SMILES IDX 87 26 88 27 10 28 11 29 12 30 13 32 14 33 15 34 76 35 16 36
REMARK SMILES IDX 75 37 17 38 18 39 19 40 69 41 20 42 74 43 68 44 70 45 21 46
REMARK SMILES IDX 73 47 67 48 66 49 22 51 54 52 34 53 53 54 35 55 38 56 52 57
REMARK SMILES IDX 71 58 36 59 37 60 51 62 72 63 39 64 23 65 24 66 32 67 25 68
REMARK SMILES IDX 27 69 33 70 26 71 28 72 29 73 30 74 31 75 55 76 56 77 64 78
REMARK SMILES IDX 57 79 59 80 65 81 58 82 60 83 61 84 62 85 63 86 40 87 41 88
REMARK SMILES IDX 49 89 42 90 44 91 50 92 43 93 45 94 46 95 47 96 48 97
REMARK H PARENT 6 7 81 20 11 31 70 50 38 61
REMARK Flexibility Score: inf
ROOT
ATOM      1  C   UNL A   1      31.142  32.376  26.605  1.00  0.00     0.023 C 
ENDROOT
BRANCH   1   2
ATOM      2  C   UNL A   1      31.020  31.157  25.697  1.00  0.00     0.023 C 
BRANCH   2   3
ATOM      3  C   UNL A   1      32.024  30.035  25.917  1.00  0.00     0.116 C 
BRANCH   3   4
ATOM      4  N   UNL A   1      32.859  29.672  24.792  1.00  0.00    -0.351 N 
ATOM      5  C   UNL A   1      32.511  29.012  23.642  1.00  0.00     0.268 C 
ATOM      6  O   UNL A   1      33.298  28.994  22.695  1.00  0.00    -0.268 OA
ATOM      7  H   UNL A   1      33.805  29.935  24.861  1.00  0.00     0.163 HD
BRANCH   5   8
ATOM      8  C   UNL A   1      31.199  28.264  23.534  1.00  0.00     0.110 C 
ATOM      9  C   UNL A   1      30.053  29.799  21.876  1.00  0.00     0.043 C 
ATOM     10  C   UNL A   1      30.085  28.668  22.870  1.00  0.00    -0.034 C 
ATOM     11  C   UNL A   1      28.722  27.984  23.004  1.00  0.00     0.104 C 
ATOM     12  N   UNL A   1      31.209  26.985  23.999  1.00  0.00    -0.290 N 
ATOM     13  S   UNL A   1      28.689  26.447  23.991  1.00  0.00    -0.129 SA
ATOM     14  C   UNL A   1      31.921  26.168  24.797  1.00  0.00     0.253 C 
ATOM     15  C   UNL A   1      30.339  25.978  23.433  1.00  0.00     0.181 C 
ATOM     16  O   UNL A   1      32.789  26.340  25.621  1.00  0.00    -0.272 OA
ATOM     17  C   UNL A   1      31.172  24.940  24.205  1.00  0.00     0.206 C 
BRANCH  17  18
ATOM     18  N   UNL A   1      30.462  24.009  25.111  1.00  0.00    -0.336 N 
ATOM     19  C   UNL A   1      30.922  22.786  25.566  1.00  0.00     0.272 C 
ATOM     20  H   UNL A   1      29.571  24.290  25.422  1.00  0.00     0.164 HD
ATOM     21  O   UNL A   1      30.144  22.036  26.154  1.00  0.00    -0.267 OA
BRANCH  19  22
ATOM     22  C   UNL A   1      32.329  22.437  25.299  1.00  0.00     0.150 A 
ATOM     23  C   UNL A   1      32.829  21.544  24.306  1.00  0.00     0.056 A 
ATOM     24  N   UNL A   1      33.341  22.930  26.039  1.00  0.00    -0.168 NA
ATOM     25  C   UNL A   1      34.185  21.480  24.517  1.00  0.00     0.109 A 
ATOM     26  N   UNL A   1      34.443  22.353  25.530  1.00  0.00    -0.275 N 
ATOM     27  C   UNL A   1      35.744  22.659  26.076  1.00  0.00     0.173 C 
ENDBRANCH  19  22
ENDBRANCH  17  18
ENDBRANCH   5   8
ENDBRANCH   3   4
ENDBRANCH   2   3
ENDBRANCH   1   2
BRANCH   1  28
ATOM     28  C   UNL A   1      32.547  32.743  27.076  1.00  0.00     0.116 C 
BRANCH  28  29
ATOM     29  N   UNL A   1      32.651  34.078  27.654  1.00  0.00    -0.352 N 
ATOM     30  C   UNL A   1      33.582  34.597  28.526  1.00  0.00     0.251 C 
ATOM     31  H   UNL A   1      31.947  34.707  27.377  1.00  0.00     0.163 HD
ATOM     32  O   UNL A   1      33.436  35.734  28.968  1.00  0.00    -0.269 OA
BRANCH  30  33
ATOM     33  C   UNL A   1      34.734  33.777  28.962  1.00  0.00     0.039 A 
ATOM     34  C   UNL A   1      36.028  34.206  28.658  1.00  0.00     0.014 A 
ATOM     35  C   UNL A   1      34.542  32.608  29.700  1.00  0.00     0.014 A 
ATOM     36  C   UNL A   1      37.127  33.519  29.183  1.00  0.00     0.010 A 
ATOM     37  C   UNL A   1      35.631  31.988  30.305  1.00  0.00     0.010 A 
ATOM     38  C   UNL A   1      36.938  32.434  30.057  1.00  0.00    -0.014 A 
BRANCH  38  39
ATOM     39  C   UNL A   1      38.086  31.767  30.728  1.00  0.00     0.031 A 
ATOM     40  C   UNL A   1      38.857  30.684  30.019  1.00  0.00     0.074 A 
ATOM     41  C   UNL A   1      38.386  32.074  32.008  1.00  0.00     0.049 A 
ATOM     42  N   UNL A   1      39.847  29.953  30.461  1.00  0.00    -0.248 NA
ATOM     43  C   UNL A   1      38.445  30.361  28.642  1.00  0.00     0.031 C 
ATOM     44  C   UNL A   1      37.669  33.046  32.836  1.00  0.00     0.029 A 
ATOM     45  N   UNL A   1      39.357  31.580  32.845  1.00  0.00    -0.354 N 
ATOM     46  C   UNL A   1      40.151  29.063  29.437  1.00  0.00     0.074 A 
ATOM     47  C   UNL A   1      39.214  29.317  28.365  1.00  0.00     0.031 C 
ATOM     48  C   UNL A   1      38.232  33.089  34.055  1.00  0.00     0.029 A 
ATOM     49  C   UNL A   1      39.320  32.117  34.113  1.00  0.00     0.049 A 
ATOM     50  H   UNL A   1      40.017  30.907  32.566  1.00  0.00     0.167 HD
ATOM     51  C   UNL A   1      41.137  28.138  29.377  1.00  0.00     0.034 A 
ATOM     52  C   UNL A   1      40.066  31.849  35.202  1.00  0.00     0.034 A 
ATOM     53  C   UNL A   1      42.089  27.906  30.431  1.00  0.00     0.049 A 
ATOM     54  C   UNL A   1      41.166  30.826  35.105  1.00  0.00     0.074 A 
ATOM     55  C   UNL A   1      43.176  27.051  30.431  1.00  0.00     0.029 A 
ATOM     56  N   UNL A   1      42.059  28.518  31.673  1.00  0.00    -0.354 N 
ATOM     57  N   UNL A   1      41.534  30.105  34.074  1.00  0.00    -0.248 NA
ATOM     58  C   UNL A   1      41.975  30.601  36.312  1.00  0.00     0.031 C 
ATOM     59  C   UNL A   1      43.778  27.111  31.692  1.00  0.00     0.029 A 
ATOM     60  C   UNL A   1      43.098  28.044  32.457  1.00  0.00     0.049 A 
ATOM     61  H   UNL A   1      41.397  29.189  31.958  1.00  0.00     0.167 HD
ATOM     62  C   UNL A   1      42.639  29.375  34.494  1.00  0.00     0.074 A 
ATOM     63  C   UNL A   1      42.893  29.754  35.868  1.00  0.00     0.031 C 
ATOM     64  C   UNL A   1      43.371  28.464  33.807  1.00  0.00     0.034 A 
BRANCH  51  65
ATOM     65  C   UNL A   1      41.265  27.326  28.113  1.00  0.00     0.023 A 
ATOM     66  C   UNL A   1      41.860  27.898  26.970  1.00  0.00     0.012 A 
ATOM     67  C   UNL A   1      40.852  25.981  28.077  1.00  0.00     0.148 A 
ATOM     68  C   UNL A   1      42.006  27.157  25.799  1.00  0.00     0.002 A 
ATOM     69  C   UNL A   1      41.048  25.232  26.922  1.00  0.00     0.091 A 
ATOM     70  F   UNL A   1      40.273  25.459  29.167  1.00  0.00    -0.205 F 
ATOM     71  C   UNL A   1      41.612  25.822  25.779  1.00  0.00     0.022 A 
BRANCH  69  72
ATOM     72  S   UNL A   1      40.652  23.484  26.819  1.00  0.00     0.127 S 
ATOM     73  O   UNL A   1      39.216  23.523  26.544  1.00  0.00    -0.237 OA
ATOM     74  O   UNL A   1      41.476  23.050  25.691  1.00  0.00    -0.237 OA
ATOM     75  O   UNL A   1      41.023  22.908  28.104  1.00  0.00    -0.744 OA
ENDBRANCH  69  72
ENDBRANCH  51  65
BRANCH  52  76
ATOM     76  C   UNL A   1      39.829  32.589  36.477  1.00  0.00     0.023 A 
ATOM     77  C   UNL A   1      40.628  33.706  36.793  1.00  0.00     0.012 A 
ATOM     78  C   UNL A   1      38.821  32.192  37.375  1.00  0.00     0.148 A 
ATOM     79  C   UNL A   1      40.454  34.387  37.999  1.00  0.00     0.002 A 
ATOM     80  C   UNL A   1      38.613  32.910  38.546  1.00  0.00     0.091 A 
ATOM     81  F   UNL A   1      38.077  31.121  37.060  1.00  0.00    -0.205 F 
ATOM     82  C   UNL A   1      39.441  33.995  38.871  1.00  0.00     0.022 A 
BRANCH  80  83
ATOM     83  S   UNL A   1      37.254  32.557  39.665  1.00  0.00     0.127 S 
ATOM     84  O   UNL A   1      37.601  31.221  40.145  1.00  0.00    -0.237 OA
ATOM     85  O   UNL A   1      37.398  33.624  40.656  1.00  0.00    -0.237 OA
ATOM     86  O   UNL A   1      36.045  32.643  38.858  1.00  0.00    -0.744 OA
ENDBRANCH  80  83
ENDBRANCH  52  76
BRANCH  64  87
ATOM     87  C   UNL A   1      44.557  27.846  34.502  1.00  0.00     0.023 A 
ATOM     88  C   UNL A   1      45.803  28.504  34.501  1.00  0.00     0.012 A 
ATOM     89  C   UNL A   1      44.409  26.646  35.226  1.00  0.00     0.148 A 
ATOM     90  C   UNL A   1      46.893  27.957  35.179  1.00  0.00     0.002 A 
ATOM     91  C   UNL A   1      45.484  26.137  35.945  1.00  0.00     0.091 A 
ATOM     92  F   UNL A   1      43.220  26.028  35.203  1.00  0.00    -0.205 F 
ATOM     93  C   UNL A   1      46.730  26.783  35.911  1.00  0.00     0.022 A 
BRANCH  91  94
ATOM     94  S   UNL A   1      45.342  24.689  36.998  1.00  0.00     0.127 S 
ATOM     95  O   UNL A   1      44.821  23.692  36.063  1.00  0.00    -0.237 OA
ATOM     96  O   UNL A   1      46.728  24.471  37.410  1.00  0.00    -0.237 OA
ATOM     97  O   UNL A   1      44.437  25.060  38.078  1.00  0.00    -0.744 OA
ENDBRANCH  91  94
ENDBRANCH  64  87
ENDBRANCH  38  39
ENDBRANCH  30  33
ENDBRANCH  28  29
ENDBRANCH   1  28
TORSDOF 16
ENDMDL
