MODEL 1
REMARK VINA RESULT:     -10.8      0.000      0.000
REMARK SMILES O=C(COC[C@@H]1COc2ccccc2O1)NCCCCNC(=O)c1ccc(-c2c3nc(c(-c4cccc(S(=O)(=O)[O-])c4F)c4ccc([nH]4)c(-c4cccc(S(=O)(=O)[O-])c4F)c4nc(c(-c5cccc(S(=O)(=O)[O-])c5F)c5ccc2[nH]5)C=C4)C=C3)cc1
REMARK SMILES IDX 18 1 17 2 16 3 1 4 2 5 3 7 4 8 5 9 6 10 7 11 15 12 8 13
REMARK SMILES IDX 14 14 9 15 13 16 10 17 12 18 11 19 19 20 20 21 21 22 22 23
REMARK SMILES IDX 23 25 24 26 25 27 86 28 26 29 85 30 27 31 28 32 29 33 79 34
REMARK SMILES IDX 30 35 84 36 78 37 80 38 31 39 83 40 77 41 76 42 32 44 64 45
REMARK SMILES IDX 44 46 63 47 45 48 48 49 62 50 81 51 46 52 47 53 61 55 82 56
REMARK SMILES IDX 49 57 33 58 34 59 42 60 35 61 37 62 43 63 36 64 38 65 39 66
REMARK SMILES IDX 40 67 41 68 65 69 66 70 74 71 67 72 69 73 75 74 68 75 70 76
REMARK SMILES IDX 71 77 72 78 73 79 50 80 51 81 59 82 52 83 54 84 60 85 53 86
REMARK SMILES IDX 55 87 56 88 57 89 58 90
REMARK H PARENT 16 6 21 24 80 43 48 54
REMARK Flexibility Score: inf
ROOT
ATOM      1  C   UNL A   1      36.398  20.347  24.667  1.00  0.00     0.023 C 
ENDROOT
BRANCH   1   2
ATOM      2  C   UNL A   1      36.143  21.319  25.815  1.00  0.00     0.116 C 
BRANCH   2   3
ATOM      3  N   UNL A   1      35.187  22.369  25.535  1.00  0.00    -0.354 N 
ATOM      4  O   UNL A   1      36.654  24.127  25.686  1.00  0.00    -0.272 OA
ATOM      5  C   UNL A   1      35.572  23.676  25.318  1.00  0.00     0.246 C 
ATOM      6  H   UNL A   1      34.230  22.142  25.496  1.00  0.00     0.163 HD
BRANCH   5   7
ATOM      7  C   UNL A   1      34.524  24.541  24.582  1.00  0.00     0.260 C 
BRANCH   7   8
ATOM      8  O   UNL A   1      34.134  24.227  23.251  1.00  0.00    -0.368 OA
BRANCH   8   9
ATOM      9  C   UNL A   1      33.811  22.862  22.980  1.00  0.00     0.209 C 
BRANCH   9  10
ATOM     10  C   UNL A   1      32.313  22.485  22.904  1.00  0.00     0.236 C 
ATOM     11  C   UNL A   1      31.685  22.529  24.301  1.00  0.00     0.277 C 
ATOM     12  O   UNL A   1      32.071  21.193  22.327  1.00  0.00    -0.481 OA
ATOM     13  O   UNL A   1      32.316  21.586  25.185  1.00  0.00    -0.486 OA
ATOM     14  C   UNL A   1      32.321  20.171  23.206  1.00  0.00     0.161 A 
ATOM     15  C   UNL A   1      32.496  20.368  24.577  1.00  0.00     0.161 A 
ATOM     16  C   UNL A   1      32.476  18.903  22.651  1.00  0.00     0.050 A 
ATOM     17  C   UNL A   1      32.932  19.314  25.378  1.00  0.00     0.050 A 
ATOM     18  C   UNL A   1      32.905  17.846  23.453  1.00  0.00     0.004 A 
ATOM     19  C   UNL A   1      33.153  18.057  24.810  1.00  0.00     0.004 A 
ENDBRANCH   9  10
ENDBRANCH   8   9
ENDBRANCH   7   8
ENDBRANCH   5   7
ENDBRANCH   2   3
ENDBRANCH   1   2
BRANCH   1  20
ATOM     20  C   UNL A   1      37.643  19.479  24.829  1.00  0.00     0.023 C 
BRANCH  20  21
ATOM     21  C   UNL A   1      38.711  20.045  25.755  1.00  0.00     0.116 C 
BRANCH  21  22
ATOM     22  N   UNL A   1      39.896  19.203  25.845  1.00  0.00    -0.352 N 
ATOM     23  C   UNL A   1      41.190  19.578  26.128  1.00  0.00     0.251 C 
ATOM     24  H   UNL A   1      39.754  18.243  25.682  1.00  0.00     0.163 HD
ATOM     25  O   UNL A   1      42.103  18.762  26.054  1.00  0.00    -0.269 OA
BRANCH  23  26
ATOM     26  C   UNL A   1      41.474  20.985  26.489  1.00  0.00     0.039 A 
ATOM     27  C   UNL A   1      42.003  21.268  27.751  1.00  0.00     0.014 A 
ATOM     28  C   UNL A   1      41.262  22.013  25.567  1.00  0.00     0.014 A 
ATOM     29  C   UNL A   1      42.388  22.575  28.061  1.00  0.00     0.010 A 
ATOM     30  C   UNL A   1      41.711  23.300  25.852  1.00  0.00     0.010 A 
ATOM     31  C   UNL A   1      42.279  23.594  27.102  1.00  0.00    -0.014 A 
BRANCH  31  32
ATOM     32  C   UNL A   1      42.771  24.970  27.372  1.00  0.00     0.031 A 
ATOM     33  C   UNL A   1      41.874  25.979  28.037  1.00  0.00     0.074 A 
ATOM     34  C   UNL A   1      43.988  25.343  26.927  1.00  0.00     0.049 A 
ATOM     35  N   UNL A   1      42.101  27.240  28.295  1.00  0.00    -0.248 NA
ATOM     36  C   UNL A   1      40.535  25.517  28.440  1.00  0.00     0.031 C 
ATOM     37  C   UNL A   1      44.920  24.485  26.191  1.00  0.00     0.029 A 
ATOM     38  N   UNL A   1      44.640  26.549  27.004  1.00  0.00    -0.354 N 
ATOM     39  C   UNL A   1      40.926  27.733  28.848  1.00  0.00     0.074 A 
ATOM     40  C   UNL A   1      39.976  26.642  28.862  1.00  0.00     0.031 C 
ATOM     41  C   UNL A   1      46.023  25.190  25.889  1.00  0.00     0.029 A 
ATOM     42  C   UNL A   1      45.869  26.554  26.385  1.00  0.00     0.049 A 
ATOM     43  H   UNL A   1      44.263  27.336  27.459  1.00  0.00     0.167 HD
ATOM     44  C   UNL A   1      40.668  28.972  29.329  1.00  0.00     0.034 A 
ATOM     45  C   UNL A   1      46.769  27.546  26.231  1.00  0.00     0.034 A 
ATOM     46  C   UNL A   1      41.632  30.038  29.369  1.00  0.00     0.049 A 
ATOM     47  C   UNL A   1      46.478  28.897  26.827  1.00  0.00     0.074 A 
ATOM     48  C   UNL A   1      41.502  31.295  29.934  1.00  0.00     0.029 A 
ATOM     49  N   UNL A   1      42.904  29.976  28.821  1.00  0.00    -0.354 N 
ATOM     50  N   UNL A   1      45.427  29.292  27.502  1.00  0.00    -0.248 NA
ATOM     51  C   UNL A   1      47.515  29.928  26.673  1.00  0.00     0.031 C 
ATOM     52  C   UNL A   1      42.691  31.998  29.713  1.00  0.00     0.029 A 
ATOM     53  C   UNL A   1      43.566  31.173  29.027  1.00  0.00     0.049 A 
ATOM     54  H   UNL A   1      43.280  29.195  28.356  1.00  0.00     0.167 HD
ATOM     55  C   UNL A   1      45.690  30.602  27.885  1.00  0.00     0.074 A 
ATOM     56  C   UNL A   1      47.009  30.928  27.383  1.00  0.00     0.031 C 
ATOM     57  C   UNL A   1      44.903  31.465  28.576  1.00  0.00     0.034 A 
BRANCH  44  58
ATOM     58  C   UNL A   1      39.303  29.228  29.913  1.00  0.00     0.023 A 
ATOM     59  C   UNL A   1      39.014  28.783  31.219  1.00  0.00     0.012 A 
ATOM     60  C   UNL A   1      38.332  29.958  29.201  1.00  0.00     0.148 A 
ATOM     61  C   UNL A   1      37.769  29.030  31.795  1.00  0.00     0.002 A 
ATOM     62  C   UNL A   1      37.108  30.238  29.798  1.00  0.00     0.091 A 
ATOM     63  F   UNL A   1      38.617  30.354  27.952  1.00  0.00    -0.205 F 
ATOM     64  C   UNL A   1      36.821  29.767  31.090  1.00  0.00     0.022 A 
BRANCH  62  65
ATOM     65  S   UNL A   1      35.850  31.244  29.001  1.00  0.00     0.127 S 
ATOM     66  O   UNL A   1      35.052  31.679  30.146  1.00  0.00    -0.237 OA
ATOM     67  O   UNL A   1      36.649  32.301  28.379  1.00  0.00    -0.237 OA
ATOM     68  O   UNL A   1      35.170  30.365  28.061  1.00  0.00    -0.744 OA
ENDBRANCH  62  65
ENDBRANCH  44  58
BRANCH  45  69
ATOM     69  C   UNL A   1      48.068  27.275  25.553  1.00  0.00     0.023 A 
ATOM     70  C   UNL A   1      49.159  26.816  26.317  1.00  0.00     0.012 A 
ATOM     71  C   UNL A   1      48.227  27.444  24.164  1.00  0.00     0.148 A 
ATOM     72  C   UNL A   1      50.392  26.561  25.717  1.00  0.00     0.002 A 
ATOM     73  C   UNL A   1      49.443  27.138  23.564  1.00  0.00     0.091 A 
ATOM     74  F   UNL A   1      47.182  27.895  23.455  1.00  0.00    -0.205 F 
ATOM     75  C   UNL A   1      50.532  26.712  24.340  1.00  0.00     0.022 A 
BRANCH  73  76
ATOM     76  S   UNL A   1      49.675  27.182  21.783  1.00  0.00     0.127 S 
ATOM     77  O   UNL A   1      48.652  26.246  21.325  1.00  0.00    -0.237 OA
ATOM     78  O   UNL A   1      49.408  28.588  21.476  1.00  0.00    -0.237 OA
ATOM     79  O   UNL A   1      51.056  26.774  21.561  1.00  0.00    -0.744 OA
ENDBRANCH  73  76
ENDBRANCH  45  69
BRANCH  57  80
ATOM     80  C   UNL A   1      45.452  32.835  28.866  1.00  0.00     0.023 A 
ATOM     81  C   UNL A   1      46.226  33.047  30.024  1.00  0.00     0.012 A 
ATOM     82  C   UNL A   1      45.270  33.893  27.953  1.00  0.00     0.148 A 
ATOM     83  C   UNL A   1      46.787  34.296  30.283  1.00  0.00     0.002 A 
ATOM     84  C   UNL A   1      45.872  35.123  28.193  1.00  0.00     0.091 A 
ATOM     85  F   UNL A   1      44.514  33.678  26.866  1.00  0.00    -0.205 F 
ATOM     86  C   UNL A   1      46.621  35.329  29.363  1.00  0.00     0.022 A 
BRANCH  84  87
ATOM     87  S   UNL A   1      45.791  36.478  27.017  1.00  0.00     0.127 S 
ATOM     88  O   UNL A   1      46.605  37.496  27.679  1.00  0.00    -0.237 OA
ATOM     89  O   UNL A   1      46.400  35.892  25.822  1.00  0.00    -0.237 OA
ATOM     90  O   UNL A   1      44.377  36.799  26.876  1.00  0.00    -0.744 OA
ENDBRANCH  84  87
ENDBRANCH  57  80
ENDBRANCH  31  32
ENDBRANCH  23  26
ENDBRANCH  21  22
ENDBRANCH  20  21
ENDBRANCH   1  20
TORSDOF 17
ENDMDL
MODEL 2
REMARK VINA RESULT:     -10.7      6.502     11.643
REMARK SMILES O=C(COC[C@@H]1COc2ccccc2O1)NCCCCNC(=O)c1ccc(-c2c3nc(c(-c4cccc(S(=O)(=O)[O-])c4F)c4ccc([nH]4)c(-c4cccc(S(=O)(=O)[O-])c4F)c4nc(c(-c5cccc(S(=O)(=O)[O-])c5F)c5ccc2[nH]5)C=C4)C=C3)cc1
REMARK SMILES IDX 18 1 17 2 16 3 1 4 2 5 3 7 4 8 5 9 6 10 7 11 15 12 8 13
REMARK SMILES IDX 14 14 9 15 13 16 10 17 12 18 11 19 19 20 20 21 21 22 22 23
REMARK SMILES IDX 23 25 24 26 25 27 86 28 26 29 85 30 27 31 28 32 29 33 79 34
REMARK SMILES IDX 30 35 84 36 78 37 80 38 31 39 83 40 77 41 76 42 32 44 64 45
REMARK SMILES IDX 44 46 63 47 45 48 48 49 62 50 81 51 46 52 47 53 61 55 82 56
REMARK SMILES IDX 49 57 33 58 34 59 42 60 35 61 37 62 43 63 36 64 38 65 39 66
REMARK SMILES IDX 40 67 41 68 65 69 66 70 74 71 67 72 69 73 75 74 68 75 70 76
REMARK SMILES IDX 71 77 72 78 73 79 50 80 51 81 59 82 52 83 54 84 60 85 53 86
REMARK SMILES IDX 55 87 56 88 57 89 58 90
REMARK H PARENT 16 6 21 24 80 43 48 54
REMARK Flexibility Score: inf
ROOT
ATOM      1  C   UNL A   1      32.453  30.255  26.099  1.00  0.00     0.023 C 
ENDROOT
BRANCH   1   2
ATOM      2  C   UNL A   1      31.349  29.425  25.451  1.00  0.00     0.116 C 
BRANCH   2   3
ATOM      3  N   UNL A   1      31.587  27.997  25.419  1.00  0.00    -0.354 N 
ATOM      4  O   UNL A   1      31.089  27.583  27.619  1.00  0.00    -0.272 OA
ATOM      5  C   UNL A   1      31.259  27.173  26.474  1.00  0.00     0.246 C 
ATOM      6  H   UNL A   1      31.997  27.603  24.615  1.00  0.00     0.163 HD
BRANCH   5   7
ATOM      7  C   UNL A   1      31.134  25.677  26.106  1.00  0.00     0.260 C 
BRANCH   7   8
ATOM      8  O   UNL A   1      31.591  24.671  27.003  1.00  0.00    -0.368 OA
BRANCH   8   9
ATOM      9  C   UNL A   1      32.186  23.511  26.420  1.00  0.00     0.209 C 
BRANCH   9  10
ATOM     10  C   UNL A   1      32.133  23.379  24.880  1.00  0.00     0.236 C 
ATOM     11  C   UNL A   1      31.854  21.925  24.484  1.00  0.00     0.277 C 
ATOM     12  O   UNL A   1      33.330  23.818  24.221  1.00  0.00    -0.481 OA
ATOM     13  O   UNL A   1      32.896  21.050  24.950  1.00  0.00    -0.486 OA
ATOM     14  C   UNL A   1      34.342  22.897  24.302  1.00  0.00     0.161 A 
ATOM     15  C   UNL A   1      34.142  21.576  24.710  1.00  0.00     0.161 A 
ATOM     16  C   UNL A   1      35.626  23.364  24.032  1.00  0.00     0.050 A 
ATOM     17  C   UNL A   1      35.240  20.751  24.948  1.00  0.00     0.050 A 
ATOM     18  C   UNL A   1      36.724  22.536  24.263  1.00  0.00     0.004 A 
ATOM     19  C   UNL A   1      36.532  21.239  24.741  1.00  0.00     0.004 A 
ENDBRANCH   9  10
ENDBRANCH   8   9
ENDBRANCH   7   8
ENDBRANCH   5   7
ENDBRANCH   2   3
ENDBRANCH   1   2
BRANCH   1  20
ATOM     20  C   UNL A   1      31.988  31.580  26.698  1.00  0.00     0.023 C 
BRANCH  20  21
ATOM     21  C   UNL A   1      33.095  32.454  27.272  1.00  0.00     0.116 C 
BRANCH  21  22
ATOM     22  N   UNL A   1      32.645  33.796  27.615  1.00  0.00    -0.352 N 
ATOM     23  C   UNL A   1      33.101  34.618  28.621  1.00  0.00     0.251 C 
ATOM     24  H   UNL A   1      31.923  34.163  27.056  1.00  0.00     0.163 HD
ATOM     25  O   UNL A   1      32.538  35.683  28.855  1.00  0.00    -0.269 OA
BRANCH  23  26
ATOM     26  C   UNL A   1      34.255  34.187  29.441  1.00  0.00     0.039 A 
ATOM     27  C   UNL A   1      34.024  33.434  30.595  1.00  0.00     0.014 A 
ATOM     28  C   UNL A   1      35.561  34.489  29.046  1.00  0.00     0.014 A 
ATOM     29  C   UNL A   1      35.107  32.919  31.313  1.00  0.00     0.010 A 
ATOM     30  C   UNL A   1      36.636  33.916  29.721  1.00  0.00     0.010 A 
ATOM     31  C   UNL A   1      36.420  33.125  30.861  1.00  0.00    -0.014 A 
BRANCH  31  32
ATOM     32  C   UNL A   1      37.584  32.509  31.550  1.00  0.00     0.031 A 
ATOM     33  C   UNL A   1      38.336  31.377  30.903  1.00  0.00     0.074 A 
ATOM     34  C   UNL A   1      37.901  32.898  32.802  1.00  0.00     0.049 A 
ATOM     35  N   UNL A   1      39.330  30.672  31.375  1.00  0.00    -0.248 NA
ATOM     36  C   UNL A   1      37.893  30.964  29.560  1.00  0.00     0.031 C 
ATOM     37  C   UNL A   1      37.196  33.924  33.574  1.00  0.00     0.029 A 
ATOM     38  N   UNL A   1      38.880  32.457  33.656  1.00  0.00    -0.354 N 
ATOM     39  C   UNL A   1      39.604  29.708  30.412  1.00  0.00     0.074 A 
ATOM     40  C   UNL A   1      38.652  29.900  29.340  1.00  0.00     0.031 C 
ATOM     41  C   UNL A   1      37.769  34.036  34.783  1.00  0.00     0.029 A 
ATOM     42  C   UNL A   1      38.862  33.076  34.885  1.00  0.00     0.049 A 
ATOM     43  H   UNL A   1      39.534  31.762  33.413  1.00  0.00     0.167 HD
ATOM     44  C   UNL A   1      40.579  28.768  30.404  1.00  0.00     0.034 A 
ATOM     45  C   UNL A   1      39.637  32.888  35.972  1.00  0.00     0.034 A 
ATOM     46  C   UNL A   1      41.562  28.618  31.443  1.00  0.00     0.049 A 
ATOM     47  C   UNL A   1      40.749  31.876  35.913  1.00  0.00     0.074 A 
ATOM     48  C   UNL A   1      42.653  27.768  31.477  1.00  0.00     0.029 A 
ATOM     49  N   UNL A   1      41.573  29.332  32.631  1.00  0.00    -0.354 N 
ATOM     50  N   UNL A   1      41.102  31.094  34.922  1.00  0.00    -0.248 NA
ATOM     51  C   UNL A   1      41.595  31.746  37.109  1.00  0.00     0.031 C 
ATOM     52  C   UNL A   1      43.316  27.958  32.695  1.00  0.00     0.029 A 
ATOM     53  C   UNL A   1      42.647  28.937  33.410  1.00  0.00     0.049 A 
ATOM     54  H   UNL A   1      40.914  30.018  32.884  1.00  0.00     0.167 HD
ATOM     55  C   UNL A   1      42.229  30.408  35.359  1.00  0.00     0.074 A 
ATOM     56  C   UNL A   1      42.513  30.882  36.699  1.00  0.00     0.031 C 
ATOM     57  C   UNL A   1      42.955  29.459  34.717  1.00  0.00     0.034 A 
BRANCH  44  58
ATOM     58  C   UNL A   1      40.672  27.865  29.203  1.00  0.00     0.023 A 
ATOM     59  C   UNL A   1      39.840  26.729  29.125  1.00  0.00     0.012 A 
ATOM     60  C   UNL A   1      41.530  28.169  28.129  1.00  0.00     0.148 A 
ATOM     61  C   UNL A   1      39.886  25.891  28.011  1.00  0.00     0.002 A 
ATOM     62  C   UNL A   1      41.539  27.352  27.004  1.00  0.00     0.091 A 
ATOM     63  F   UNL A   1      42.330  29.241  28.231  1.00  0.00    -0.205 F 
ATOM     64  C   UNL A   1      40.726  26.208  26.947  1.00  0.00     0.022 A 
BRANCH  62  65
ATOM     65  S   UNL A   1      42.530  27.718  25.550  1.00  0.00     0.127 S 
ATOM     66  O   UNL A   1      41.914  28.957  25.078  1.00  0.00    -0.237 OA
ATOM     67  O   UNL A   1      43.867  27.881  26.121  1.00  0.00    -0.237 OA
ATOM     68  O   UNL A   1      42.384  26.570  24.666  1.00  0.00    -0.744 OA
ENDBRANCH  62  65
ENDBRANCH  44  58
BRANCH  45  69
ATOM     69  C   UNL A   1      39.442  33.736  37.182  1.00  0.00     0.023 A 
ATOM     70  C   UNL A   1      39.950  35.050  37.189  1.00  0.00     0.012 A 
ATOM     71  C   UNL A   1      38.742  33.266  38.310  1.00  0.00     0.148 A 
ATOM     72  C   UNL A   1      39.793  35.869  38.306  1.00  0.00     0.002 A 
ATOM     73  C   UNL A   1      38.545  34.105  39.401  1.00  0.00     0.091 A 
ATOM     74  F   UNL A   1      38.279  32.009  38.292  1.00  0.00    -0.205 F 
ATOM     75  C   UNL A   1      39.083  35.402  39.409  1.00  0.00     0.022 A 
BRANCH  73  76
ATOM     76  S   UNL A   1      37.535  33.630  40.809  1.00  0.00     0.127 S 
ATOM     77  O   UNL A   1      37.386  34.901  41.513  1.00  0.00    -0.237 OA
ATOM     78  O   UNL A   1      36.319  33.138  40.160  1.00  0.00    -0.237 OA
ATOM     79  O   UNL A   1      38.298  32.602  41.505  1.00  0.00    -0.744 OA
ENDBRANCH  73  76
ENDBRANCH  45  69
BRANCH  57  80
ATOM     80  C   UNL A   1      44.150  28.888  35.430  1.00  0.00     0.023 A 
ATOM     81  C   UNL A   1      45.418  29.477  35.251  1.00  0.00     0.012 A 
ATOM     82  C   UNL A   1      44.005  27.822  36.339  1.00  0.00     0.148 A 
ATOM     83  C   UNL A   1      46.527  28.995  35.943  1.00  0.00     0.002 A 
ATOM     84  C   UNL A   1      45.106  27.377  37.063  1.00  0.00     0.091 A 
ATOM     85  F   UNL A   1      42.795  27.262  36.483  1.00  0.00    -0.205 F 
ATOM     86  C   UNL A   1      46.369  27.955  36.857  1.00  0.00     0.022 A 
BRANCH  84  87
ATOM     87  S   UNL A   1      44.976  26.110  38.329  1.00  0.00     0.127 S 
ATOM     88  O   UNL A   1      44.140  26.772  39.329  1.00  0.00    -0.237 OA
ATOM     89  O   UNL A   1      44.319  25.017  37.611  1.00  0.00    -0.237 OA
ATOM     90  O   UNL A   1      46.342  25.821  38.745  1.00  0.00    -0.744 OA
ENDBRANCH  84  87
ENDBRANCH  57  80
ENDBRANCH  31  32
ENDBRANCH  23  26
ENDBRANCH  21  22
ENDBRANCH  20  21
ENDBRANCH   1  20
TORSDOF 17
ENDMDL
MODEL 3
REMARK VINA RESULT:     -10.7      3.266      8.760
REMARK SMILES O=C(COC[C@@H]1COc2ccccc2O1)NCCCCNC(=O)c1ccc(-c2c3nc(c(-c4cccc(S(=O)(=O)[O-])c4F)c4ccc([nH]4)c(-c4cccc(S(=O)(=O)[O-])c4F)c4nc(c(-c5cccc(S(=O)(=O)[O-])c5F)c5ccc2[nH]5)C=C4)C=C3)cc1
REMARK SMILES IDX 18 1 17 2 16 3 1 4 2 5 3 7 4 8 5 9 6 10 7 11 15 12 8 13
REMARK SMILES IDX 14 14 9 15 13 16 10 17 12 18 11 19 19 20 20 21 21 22 22 23
REMARK SMILES IDX 23 25 24 26 25 27 86 28 26 29 85 30 27 31 28 32 29 33 79 34
REMARK SMILES IDX 30 35 84 36 78 37 80 38 31 39 83 40 77 41 76 42 32 44 64 45
REMARK SMILES IDX 44 46 63 47 45 48 48 49 62 50 81 51 46 52 47 53 61 55 82 56
REMARK SMILES IDX 49 57 33 58 34 59 42 60 35 61 37 62 43 63 36 64 38 65 39 66
REMARK SMILES IDX 40 67 41 68 65 69 66 70 74 71 67 72 69 73 75 74 68 75 70 76
REMARK SMILES IDX 71 77 72 78 73 79 50 80 51 81 59 82 52 83 54 84 60 85 53 86
REMARK SMILES IDX 55 87 56 88 57 89 58 90
REMARK H PARENT 16 6 21 24 80 43 48 54
REMARK Flexibility Score: inf
ROOT
ATOM      1  C   UNL A   1      34.950  23.172  23.807  1.00  0.00     0.023 C 
ENDROOT
BRANCH   1   2
ATOM      2  C   UNL A   1      34.317  23.674  25.101  1.00  0.00     0.116 C 
BRANCH   2   3
ATOM      3  N   UNL A   1      33.106  24.450  24.937  1.00  0.00    -0.354 N 
ATOM      4  O   UNL A   1      31.699  22.686  24.527  1.00  0.00    -0.272 OA
ATOM      5  C   UNL A   1      31.863  23.862  24.839  1.00  0.00     0.246 C 
ATOM      6  H   UNL A   1      33.173  25.432  24.894  1.00  0.00     0.163 HD
BRANCH   5   7
ATOM      7  C   UNL A   1      30.679  24.807  25.144  1.00  0.00     0.260 C 
BRANCH   7   8
ATOM      8  O   UNL A   1      30.842  26.219  25.066  1.00  0.00    -0.368 OA
BRANCH   8   9
ATOM      9  C   UNL A   1      30.078  26.901  24.071  1.00  0.00     0.209 C 
BRANCH   9  10
ATOM     10  C   UNL A   1      30.854  27.647  22.962  1.00  0.00     0.236 C 
ATOM     11  C   UNL A   1      31.755  28.722  23.579  1.00  0.00     0.277 C 
ATOM     12  O   UNL A   1      30.009  28.260  21.977  1.00  0.00    -0.481 OA
ATOM     13  O   UNL A   1      30.981  29.705  24.289  1.00  0.00    -0.486 OA
ATOM     14  C   UNL A   1      29.447  29.428  22.420  1.00  0.00     0.161 A 
ATOM     15  C   UNL A   1      29.879  30.095  23.569  1.00  0.00     0.161 A 
ATOM     16  C   UNL A   1      28.347  29.895  21.705  1.00  0.00     0.050 A 
ATOM     17  C   UNL A   1      29.142  31.171  24.062  1.00  0.00     0.050 A 
ATOM     18  C   UNL A   1      27.615  30.977  22.195  1.00  0.00     0.004 A 
ATOM     19  C   UNL A   1      28.000  31.600  23.382  1.00  0.00     0.004 A 
ENDBRANCH   9  10
ENDBRANCH   8   9
ENDBRANCH   7   8
ENDBRANCH   5   7
ENDBRANCH   2   3
ENDBRANCH   1   2
BRANCH   1  20
ATOM     20  C   UNL A   1      36.209  22.332  23.995  1.00  0.00     0.023 C 
BRANCH  20  21
ATOM     21  C   UNL A   1      36.549  21.989  25.439  1.00  0.00     0.116 C 
BRANCH  21  22
ATOM     22  N   UNL A   1      37.557  20.945  25.559  1.00  0.00    -0.352 N 
ATOM     23  C   UNL A   1      38.863  21.063  25.978  1.00  0.00     0.251 C 
ATOM     24  H   UNL A   1      37.268  20.038  25.308  1.00  0.00     0.163 HD
ATOM     25  O   UNL A   1      39.625  20.103  25.914  1.00  0.00    -0.269 OA
BRANCH  23  26
ATOM     26  C   UNL A   1      39.350  22.370  26.473  1.00  0.00     0.039 A 
ATOM     27  C   UNL A   1      40.387  22.398  27.409  1.00  0.00     0.014 A 
ATOM     28  C   UNL A   1      38.813  23.563  25.981  1.00  0.00     0.014 A 
ATOM     29  C   UNL A   1      40.937  23.622  27.795  1.00  0.00     0.010 A 
ATOM     30  C   UNL A   1      39.410  24.777  26.312  1.00  0.00     0.010 A 
ATOM     31  C   UNL A   1      40.478  24.819  27.222  1.00  0.00    -0.014 A 
BRANCH  31  32
ATOM     32  C   UNL A   1      41.110  26.126  27.542  1.00  0.00     0.031 A 
ATOM     33  C   UNL A   1      42.527  26.405  27.121  1.00  0.00     0.074 A 
ATOM     34  C   UNL A   1      40.444  27.021  28.299  1.00  0.00     0.049 A 
ATOM     35  N   UNL A   1      43.268  27.455  27.364  1.00  0.00    -0.248 NA
ATOM     36  C   UNL A   1      43.213  25.355  26.349  1.00  0.00     0.031 C 
ATOM     37  C   UNL A   1      39.097  26.835  28.844  1.00  0.00     0.029 A 
ATOM     38  N   UNL A   1      40.821  28.256  28.766  1.00  0.00    -0.354 N 
ATOM     39  C   UNL A   1      44.514  27.177  26.817  1.00  0.00     0.074 A 
ATOM     40  C   UNL A   1      44.440  25.847  26.253  1.00  0.00     0.031 C 
ATOM     41  C   UNL A   1      38.760  27.917  29.565  1.00  0.00     0.029 A 
ATOM     42  C   UNL A   1      39.872  28.861  29.557  1.00  0.00     0.049 A 
ATOM     43  H   UNL A   1      41.689  28.669  28.555  1.00  0.00     0.167 HD
ATOM     44  C   UNL A   1      45.612  27.967  26.761  1.00  0.00     0.034 A 
ATOM     45  C   UNL A   1      39.896  30.043  30.206  1.00  0.00     0.034 A 
ATOM     46  C   UNL A   1      45.665  29.311  27.269  1.00  0.00     0.049 A 
ATOM     47  C   UNL A   1      41.109  30.925  30.077  1.00  0.00     0.074 A 
ATOM     48  C   UNL A   1      46.695  30.230  27.164  1.00  0.00     0.029 A 
ATOM     49  N   UNL A   1      44.648  29.929  27.979  1.00  0.00    -0.354 N 
ATOM     50  N   UNL A   1      42.214  30.715  29.406  1.00  0.00    -0.248 NA
ATOM     51  C   UNL A   1      41.062  32.224  30.764  1.00  0.00     0.031 C 
ATOM     52  C   UNL A   1      46.305  31.399  27.826  1.00  0.00     0.029 A 
ATOM     53  C   UNL A   1      45.027  31.214  28.326  1.00  0.00     0.049 A 
ATOM     54  H   UNL A   1      43.783  29.516  28.202  1.00  0.00     0.167 HD
ATOM     55  C   UNL A   1      42.978  31.866  29.558  1.00  0.00     0.074 A 
ATOM     56  C   UNL A   1      42.200  32.779  30.369  1.00  0.00     0.031 C 
ATOM     57  C   UNL A   1      44.219  32.136  29.082  1.00  0.00     0.034 A 
BRANCH  44  58
ATOM     58  C   UNL A   1      46.834  27.421  26.068  1.00  0.00     0.023 A 
ATOM     59  C   UNL A   1      46.994  27.627  24.683  1.00  0.00     0.012 A 
ATOM     60  C   UNL A   1      47.848  26.765  26.792  1.00  0.00     0.148 A 
ATOM     61  C   UNL A   1      48.128  27.158  24.022  1.00  0.00     0.002 A 
ATOM     62  C   UNL A   1      48.995  26.337  26.133  1.00  0.00     0.091 A 
ATOM     63  F   UNL A   1      47.668  26.558  28.105  1.00  0.00    -0.205 F 
ATOM     64  C   UNL A   1      49.133  26.524  24.747  1.00  0.00     0.022 A 
BRANCH  62  65
ATOM     65  S   UNL A   1      50.378  25.578  26.993  1.00  0.00     0.127 S 
ATOM     66  O   UNL A   1      50.759  26.635  27.928  1.00  0.00    -0.237 OA
ATOM     67  O   UNL A   1      49.752  24.411  27.614  1.00  0.00    -0.237 OA
ATOM     68  O   UNL A   1      51.363  25.264  25.968  1.00  0.00    -0.744 OA
ENDBRANCH  62  65
ENDBRANCH  44  58
BRANCH  45  69
ATOM     69  C   UNL A   1      38.699  30.500  30.968  1.00  0.00     0.023 A 
ATOM     70  C   UNL A   1      38.636  30.261  32.355  1.00  0.00     0.012 A 
ATOM     71  C   UNL A   1      37.641  31.186  30.342  1.00  0.00     0.148 A 
ATOM     72  C   UNL A   1      37.529  30.667  33.099  1.00  0.00     0.002 A 
ATOM     73  C   UNL A   1      36.563  31.634  31.098  1.00  0.00     0.091 A 
ATOM     74  F   UNL A   1      37.711  31.392  29.020  1.00  0.00    -0.205 F 
ATOM     75  C   UNL A   1      36.497  31.362  32.474  1.00  0.00     0.022 A 
BRANCH  73  76
ATOM     76  S   UNL A   1      35.253  32.646  30.400  1.00  0.00     0.127 S 
ATOM     77  O   UNL A   1      34.363  32.816  31.545  1.00  0.00    -0.237 OA
ATOM     78  O   UNL A   1      35.979  33.851  29.998  1.00  0.00    -0.237 OA
ATOM     79  O   UNL A   1      34.717  31.872  29.287  1.00  0.00    -0.744 OA
ENDBRANCH  73  76
ENDBRANCH  45  69
BRANCH  57  80
ATOM     80  C   UNL A   1      44.809  33.486  29.392  1.00  0.00     0.023 A 
ATOM     81  C   UNL A   1      45.668  33.636  30.498  1.00  0.00     0.012 A 
ATOM     82  C   UNL A   1      44.578  34.585  28.542  1.00  0.00     0.148 A 
ATOM     83  C   UNL A   1      46.266  34.865  30.770  1.00  0.00     0.002 A 
ATOM     84  C   UNL A   1      45.214  35.796  28.791  1.00  0.00     0.091 A 
ATOM     85  F   UNL A   1      43.742  34.429  27.505  1.00  0.00    -0.205 F 
ATOM     86  C   UNL A   1      46.049  35.940  29.911  1.00  0.00     0.022 A 
BRANCH  84  87
ATOM     87  S   UNL A   1      45.070  37.204  27.685  1.00  0.00     0.127 S 
ATOM     88  O   UNL A   1      43.717  37.033  27.159  1.00  0.00    -0.237 OA
ATOM     89  O   UNL A   1      45.231  38.336  28.597  1.00  0.00    -0.237 OA
ATOM     90  O   UNL A   1      46.144  37.057  26.712  1.00  0.00    -0.744 OA
ENDBRANCH  84  87
ENDBRANCH  57  80
ENDBRANCH  31  32
ENDBRANCH  23  26
ENDBRANCH  21  22
ENDBRANCH  20  21
ENDBRANCH   1  20
TORSDOF 17
ENDMDL
