MODEL 1
REMARK VINA RESULT:     -12.0      0.000      0.000
REMARK SMILES COc1ccc(-n2ccnc2C[N@@H+]2Cc3[nH]cnc3C[C@H]2C(=O)NCCCCNC(=O)c2ccc(-c3c4nc(c(-c5cccc(S(=O)(=O)[O-])c5F)c5ccc([nH]5)c(-c5cccc(S(=O)(=O)[O-])c5F)c5nc(c(-c6cccc(S(=O)(=O)[O-])c6F)c6ccc3[nH]6)C=C5)C=C4)cc2)cc1
REMARK SMILES IDX 26 1 25 2 24 3 22 4 23 5 21 7 13 8 14 9 15 11 20 12 16 13
REMARK SMILES IDX 19 14 17 15 18 17 12 18 11 19 7 20 8 21 9 22 10 23 6 24 3 25
REMARK SMILES IDX 4 26 96 27 5 28 95 29 2 30 1 31 27 32 28 33 29 34 30 35
REMARK SMILES IDX 31 37 32 38 33 39 94 40 34 41 93 42 35 43 36 44 37 45 87 46
REMARK SMILES IDX 38 47 92 48 86 49 88 50 39 51 91 52 85 53 84 54 40 56 72 57
REMARK SMILES IDX 52 58 71 59 53 60 56 61 70 62 89 63 54 64 55 65 69 67 90 68
REMARK SMILES IDX 57 69 41 70 42 71 50 72 43 73 45 74 51 75 44 76 46 77 47 78
REMARK SMILES IDX 48 79 49 80 73 81 74 82 82 83 75 84 77 85 83 86 76 87 78 88
REMARK SMILES IDX 79 89 80 90 81 91 58 92 59 93 67 94 60 95 62 96 68 97 61 98
REMARK SMILES IDX 63 99 64 100 65 101 66 102
REMARK H PARENT 24 6 13 10 16 16 29 36 88 55 56 66
REMARK Flexibility Score: inf
ROOT
ATOM      1  C   UNL A   1      32.212  30.274  26.229  1.00  0.00     0.023 C 
ENDROOT
BRANCH   1   2
ATOM      2  C   UNL A   1      32.237  29.109  27.238  1.00  0.00     0.116 C 
BRANCH   2   3
ATOM      3  N   UNL A   1      31.373  27.993  26.869  1.00  0.00    -0.351 N 
ATOM      4  C   UNL A   1      31.517  26.714  26.439  1.00  0.00     0.278 C 
ATOM      5  O   UNL A   1      30.454  26.066  26.422  1.00  0.00    -0.268 OA
ATOM      6  H   UNL A   1      30.422  28.233  26.958  1.00  0.00     0.163 HD
BRANCH   4   7
ATOM      7  C   UNL A   1      32.797  25.986  25.954  1.00  0.00     0.280 C 
ATOM      8  N   UNL A   1      32.609  24.488  25.851  1.00  0.00    -0.313 N 
ATOM      9  C   UNL A   1      32.119  24.040  24.543  1.00  0.00     0.320 C 
ATOM     10  H   UNL A   1      31.839  24.212  26.460  1.00  0.00     0.349 HD
ATOM     11  C   UNL A   1      32.495  24.929  23.428  1.00  0.00     0.093 A 
ATOM     12  C   UNL A   1      33.583  26.684  24.814  1.00  0.00     0.134 C 
ATOM     13  N   UNL A   1      32.100  24.850  22.120  1.00  0.00    -0.344 N 
ATOM     14  C   UNL A   1      33.161  26.124  23.520  1.00  0.00     0.074 A 
ATOM     15  C   UNL A   1      32.574  25.972  21.490  1.00  0.00     0.197 A 
ATOM     16  H   UNL A   1      31.575  24.126  21.711  1.00  0.00     0.167 HD
ATOM     17  N   UNL A   1      33.252  26.743  22.309  1.00  0.00    -0.241 NA
BRANCH   8  18
ATOM     18  C   UNL A   1      33.812  23.796  26.363  1.00  0.00     0.340 C 
BRANCH  18  19
ATOM     19  C   UNL A   1      34.865  23.452  25.337  1.00  0.00     0.168 A 
ATOM     20  N   UNL A   1      34.984  22.204  24.725  1.00  0.00    -0.299 N 
ATOM     21  C   UNL A   1      36.230  22.184  24.137  1.00  0.00     0.113 A 
ATOM     22  C   UNL A   1      36.740  23.448  24.286  1.00  0.00     0.132 A 
ATOM     23  N   UNL A   1      35.888  24.229  25.011  1.00  0.00    -0.236 NA
BRANCH  20  24
ATOM     24  C   UNL A   1      34.110  21.093  24.834  1.00  0.00     0.047 A 
ATOM     25  C   UNL A   1      32.561  18.780  24.943  1.00  0.00     0.119 A 
ATOM     26  C   UNL A   1      33.255  19.204  26.075  1.00  0.00     0.048 A 
ATOM     27  C   UNL A   1      32.595  19.534  23.771  1.00  0.00     0.048 A 
ATOM     28  C   UNL A   1      34.040  20.357  26.021  1.00  0.00     0.030 A 
ATOM     29  C   UNL A   1      33.359  20.702  23.717  1.00  0.00     0.030 A 
BRANCH  25  30
ATOM     30  O   UNL A   1      31.768  17.671  25.060  1.00  0.00    -0.497 OA
ATOM     31  C   UNL A   1      32.523  16.515  25.427  1.00  0.00     0.278 C 
ENDBRANCH  25  30
ENDBRANCH  20  24
ENDBRANCH  18  19
ENDBRANCH   8  18
ENDBRANCH   4   7
ENDBRANCH   2   3
ENDBRANCH   1   2
BRANCH   1  32
ATOM     32  C   UNL A   1      31.741  31.640  26.743  1.00  0.00     0.023 C 
BRANCH  32  33
ATOM     33  C   UNL A   1      32.842  32.495  27.364  1.00  0.00     0.116 C 
BRANCH  33  34
ATOM     34  N   UNL A   1      32.423  33.865  27.671  1.00  0.00    -0.352 N 
ATOM     35  C   UNL A   1      32.945  34.686  28.663  1.00  0.00     0.251 C 
ATOM     36  H   UNL A   1      31.700  34.242  27.119  1.00  0.00     0.163 HD
ATOM     37  O   UNL A   1      32.358  35.680  29.050  1.00  0.00    -0.269 OA
BRANCH  35  38
ATOM     38  C   UNL A   1      34.251  34.304  29.222  1.00  0.00     0.039 A 
ATOM     39  C   UNL A   1      34.339  33.359  30.248  1.00  0.00     0.014 A 
ATOM     40  C   UNL A   1      35.385  34.772  28.561  1.00  0.00     0.014 A 
ATOM     41  C   UNL A   1      35.583  32.792  30.531  1.00  0.00     0.010 A 
ATOM     42  C   UNL A   1      36.589  34.137  28.777  1.00  0.00     0.010 A 
ATOM     43  C   UNL A   1      36.702  33.153  29.765  1.00  0.00    -0.014 A 
BRANCH  43  44
ATOM     44  C   UNL A   1      37.960  32.412  29.904  1.00  0.00     0.031 A 
ATOM     45  C   UNL A   1      38.020  31.040  29.304  1.00  0.00     0.074 A 
ATOM     46  C   UNL A   1      39.111  32.993  30.306  1.00  0.00     0.049 A 
ATOM     47  N   UNL A   1      38.257  29.920  29.907  1.00  0.00    -0.248 NA
ATOM     48  C   UNL A   1      37.743  30.890  27.868  1.00  0.00     0.031 C 
ATOM     49  C   UNL A   1      39.348  34.411  30.601  1.00  0.00     0.029 A 
ATOM     50  N   UNL A   1      40.363  32.455  30.362  1.00  0.00    -0.354 N 
ATOM     51  C   UNL A   1      38.354  28.947  28.909  1.00  0.00     0.074 A 
ATOM     52  C   UNL A   1      37.896  29.574  27.695  1.00  0.00     0.031 C 
ATOM     53  C   UNL A   1      40.671  34.666  30.512  1.00  0.00     0.029 A 
ATOM     54  C   UNL A   1      41.373  33.409  30.350  1.00  0.00     0.049 A 
ATOM     55  H   UNL A   1      40.534  31.487  30.406  1.00  0.00     0.167 HD
ATOM     56  C   UNL A   1      38.977  27.750  29.113  1.00  0.00     0.034 A 
ATOM     57  C   UNL A   1      42.695  33.190  30.174  1.00  0.00     0.034 A 
ATOM     58  C   UNL A   1      39.259  27.525  30.507  1.00  0.00     0.049 A 
ATOM     59  C   UNL A   1      42.960  31.775  30.504  1.00  0.00     0.074 A 
ATOM     60  C   UNL A   1      38.517  27.429  31.666  1.00  0.00     0.029 A 
ATOM     61  N   UNL A   1      40.564  27.676  30.907  1.00  0.00    -0.354 N 
ATOM     62  N   UNL A   1      42.841  31.279  31.705  1.00  0.00    -0.248 NA
ATOM     63  C   UNL A   1      43.014  30.801  29.429  1.00  0.00     0.031 C 
ATOM     64  C   UNL A   1      39.340  28.014  32.673  1.00  0.00     0.029 A 
ATOM     65  C   UNL A   1      40.541  28.397  32.070  1.00  0.00     0.049 A 
ATOM     66  H   UNL A   1      41.362  27.333  30.446  1.00  0.00     0.167 HD
ATOM     67  C   UNL A   1      42.356  29.995  31.503  1.00  0.00     0.074 A 
ATOM     68  C   UNL A   1      42.627  29.711  30.096  1.00  0.00     0.031 C 
ATOM     69  C   UNL A   1      41.521  29.405  32.409  1.00  0.00     0.034 A 
BRANCH  56  70
ATOM     70  C   UNL A   1      39.633  26.881  28.061  1.00  0.00     0.023 A 
ATOM     71  C   UNL A   1      39.261  25.513  28.021  1.00  0.00     0.012 A 
ATOM     72  C   UNL A   1      40.767  27.255  27.312  1.00  0.00     0.148 A 
ATOM     73  C   UNL A   1      40.009  24.563  27.317  1.00  0.00     0.002 A 
ATOM     74  C   UNL A   1      41.460  26.318  26.546  1.00  0.00     0.091 A 
ATOM     75  F   UNL A   1      41.270  28.487  27.434  1.00  0.00    -0.205 F 
ATOM     76  C   UNL A   1      41.107  24.967  26.570  1.00  0.00     0.022 A 
BRANCH  74  77
ATOM     77  S   UNL A   1      42.842  26.803  25.505  1.00  0.00     0.127 S 
ATOM     78  O   UNL A   1      43.824  27.225  26.499  1.00  0.00    -0.237 OA
ATOM     79  O   UNL A   1      43.157  25.552  24.814  1.00  0.00    -0.237 OA
ATOM     80  O   UNL A   1      42.309  27.844  24.633  1.00  0.00    -0.744 OA
ENDBRANCH  74  77
ENDBRANCH  56  70
BRANCH  57  81
ATOM     81  C   UNL A   1      43.717  34.076  29.581  1.00  0.00     0.023 A 
ATOM     82  C   UNL A   1      44.001  33.994  28.207  1.00  0.00     0.012 A 
ATOM     83  C   UNL A   1      44.234  35.171  30.310  1.00  0.00     0.148 A 
ATOM     84  C   UNL A   1      44.754  34.984  27.568  1.00  0.00     0.002 A 
ATOM     85  C   UNL A   1      44.989  36.150  29.673  1.00  0.00     0.091 A 
ATOM     86  F   UNL A   1      43.908  35.296  31.605  1.00  0.00    -0.205 F 
ATOM     87  C   UNL A   1      45.242  36.065  28.298  1.00  0.00     0.022 A 
BRANCH  85  88
ATOM     88  S   UNL A   1      45.630  37.583  30.550  1.00  0.00     0.127 S 
ATOM     89  O   UNL A   1      46.744  37.004  31.305  1.00  0.00    -0.237 OA
ATOM     90  O   UNL A   1      46.026  38.456  29.449  1.00  0.00    -0.237 OA
ATOM     91  O   UNL A   1      44.531  38.060  31.379  1.00  0.00    -0.744 OA
ENDBRANCH  85  88
ENDBRANCH  57  81
BRANCH  69  92
ATOM     92  C   UNL A   1      41.363  30.049  33.766  1.00  0.00     0.023 A 
ATOM     93  C   UNL A   1      42.276  29.812  34.814  1.00  0.00     0.012 A 
ATOM     94  C   UNL A   1      40.391  31.051  33.933  1.00  0.00     0.148 A 
ATOM     95  C   UNL A   1      42.206  30.532  36.009  1.00  0.00     0.002 A 
ATOM     96  C   UNL A   1      40.354  31.799  35.104  1.00  0.00     0.091 A 
ATOM     97  F   UNL A   1      39.531  31.277  32.927  1.00  0.00    -0.205 F 
ATOM     98  C   UNL A   1      41.252  31.535  36.150  1.00  0.00     0.022 A 
BRANCH  96  99
ATOM     99  S   UNL A   1      39.239  33.196  35.283  1.00  0.00     0.127 S 
ATOM    100  O   UNL A   1      39.575  34.009  34.117  1.00  0.00    -0.237 OA
ATOM    101  O   UNL A   1      37.921  32.562  35.228  1.00  0.00    -0.237 OA
ATOM    102  O   UNL A   1      39.554  33.786  36.580  1.00  0.00    -0.744 OA
ENDBRANCH  96  99
ENDBRANCH  69  92
ENDBRANCH  43  44
ENDBRANCH  35  38
ENDBRANCH  33  34
ENDBRANCH  32  33
ENDBRANCH   1  32
TORSDOF 18
ENDMDL
MODEL 2
REMARK VINA RESULT:     -11.9      1.395      2.428
REMARK SMILES COc1ccc(-n2ccnc2C[N@@H+]2Cc3[nH]cnc3C[C@H]2C(=O)NCCCCNC(=O)c2ccc(-c3c4nc(c(-c5cccc(S(=O)(=O)[O-])c5F)c5ccc([nH]5)c(-c5cccc(S(=O)(=O)[O-])c5F)c5nc(c(-c6cccc(S(=O)(=O)[O-])c6F)c6ccc3[nH]6)C=C5)C=C4)cc2)cc1
REMARK SMILES IDX 26 1 25 2 24 3 22 4 23 5 21 7 13 8 14 9 15 11 20 12 16 13
REMARK SMILES IDX 19 14 17 15 18 17 12 18 11 19 7 20 8 21 9 22 10 23 6 24 3 25
REMARK SMILES IDX 4 26 96 27 5 28 95 29 2 30 1 31 27 32 28 33 29 34 30 35
REMARK SMILES IDX 31 37 32 38 33 39 94 40 34 41 93 42 35 43 36 44 37 45 87 46
REMARK SMILES IDX 38 47 92 48 86 49 88 50 39 51 91 52 85 53 84 54 40 56 72 57
REMARK SMILES IDX 52 58 71 59 53 60 56 61 70 62 89 63 54 64 55 65 69 67 90 68
REMARK SMILES IDX 57 69 41 70 42 71 50 72 43 73 45 74 51 75 44 76 46 77 47 78
REMARK SMILES IDX 48 79 49 80 73 81 74 82 82 83 75 84 77 85 83 86 76 87 78 88
REMARK SMILES IDX 79 89 80 90 81 91 58 92 59 93 67 94 60 95 62 96 68 97 61 98
REMARK SMILES IDX 63 99 64 100 65 101 66 102
REMARK H PARENT 24 6 13 10 16 16 29 36 88 55 56 66
REMARK Flexibility Score: inf
ROOT
ATOM      1  C   UNL A   1      31.596  29.049  26.412  1.00  0.00     0.023 C 
ENDROOT
BRANCH   1   2
ATOM      2  C   UNL A   1      32.183  27.859  27.196  1.00  0.00     0.116 C 
BRANCH   2   3
ATOM      3  N   UNL A   1      31.505  26.593  26.940  1.00  0.00    -0.351 N 
ATOM      4  C   UNL A   1      31.758  25.437  26.275  1.00  0.00     0.278 C 
ATOM      5  O   UNL A   1      30.922  24.540  26.491  1.00  0.00    -0.268 OA
ATOM      6  H   UNL A   1      30.618  26.570  27.368  1.00  0.00     0.163 HD
BRANCH   4   7
ATOM      7  C   UNL A   1      32.909  25.110  25.290  1.00  0.00     0.280 C 
ATOM      8  N   UNL A   1      32.427  24.371  24.060  1.00  0.00    -0.313 N 
ATOM      9  C   UNL A   1      32.024  25.252  22.959  1.00  0.00     0.320 C 
ATOM     10  H   UNL A   1      31.547  23.907  24.281  1.00  0.00     0.349 HD
ATOM     11  C   UNL A   1      32.715  26.555  22.952  1.00  0.00     0.093 A 
ATOM     12  C   UNL A   1      33.960  26.231  25.081  1.00  0.00     0.134 C 
ATOM     13  N   UNL A   1      32.480  27.626  22.134  1.00  0.00    -0.344 N 
ATOM     14  C   UNL A   1      33.597  27.021  23.893  1.00  0.00     0.074 A 
ATOM     15  C   UNL A   1      33.252  28.661  22.596  1.00  0.00     0.197 A 
ATOM     16  H   UNL A   1      31.872  27.650  21.361  1.00  0.00     0.167 HD
ATOM     17  N   UNL A   1      33.968  28.307  23.640  1.00  0.00    -0.241 NA
BRANCH   8  18
ATOM     18  C   UNL A   1      33.386  23.298  23.713  1.00  0.00     0.340 C 
BRANCH  18  19
ATOM     19  C   UNL A   1      33.204  21.987  24.441  1.00  0.00     0.168 A 
ATOM     20  N   UNL A   1      34.235  21.291  25.070  1.00  0.00    -0.299 N 
ATOM     21  C   UNL A   1      33.753  20.022  25.306  1.00  0.00     0.113 A 
ATOM     22  C   UNL A   1      32.428  20.050  24.954  1.00  0.00     0.132 A 
ATOM     23  N   UNL A   1      32.092  21.268  24.437  1.00  0.00    -0.236 NA
BRANCH  20  24
ATOM     24  C   UNL A   1      35.577  21.707  25.263  1.00  0.00     0.047 A 
ATOM     25  C   UNL A   1      38.185  22.476  25.870  1.00  0.00     0.119 A 
ATOM     26  C   UNL A   1      37.942  21.213  25.333  1.00  0.00     0.048 A 
ATOM     27  C   UNL A   1      37.138  23.377  26.057  1.00  0.00     0.048 A 
ATOM     28  C   UNL A   1      36.635  20.821  25.037  1.00  0.00     0.030 A 
ATOM     29  C   UNL A   1      35.831  23.000  25.740  1.00  0.00     0.030 A 
BRANCH  25  30
ATOM     30  O   UNL A   1      39.486  22.831  26.099  1.00  0.00    -0.497 OA
ATOM     31  C   UNL A   1      40.337  21.688  26.211  1.00  0.00     0.278 C 
ENDBRANCH  25  30
ENDBRANCH  20  24
ENDBRANCH  18  19
ENDBRANCH   8  18
ENDBRANCH   4   7
ENDBRANCH   2   3
ENDBRANCH   1   2
BRANCH   1  32
ATOM     32  C   UNL A   1      32.537  30.220  26.102  1.00  0.00     0.023 C 
BRANCH  32  33
ATOM     33  C   UNL A   1      32.896  31.078  27.312  1.00  0.00     0.116 C 
BRANCH  33  34
ATOM     34  N   UNL A   1      32.342  32.434  27.260  1.00  0.00    -0.352 N 
ATOM     35  C   UNL A   1      32.779  33.534  27.987  1.00  0.00     0.251 C 
ATOM     36  H   UNL A   1      31.585  32.580  26.648  1.00  0.00     0.163 HD
ATOM     37  O   UNL A   1      32.096  34.532  28.116  1.00  0.00    -0.269 OA
BRANCH  35  38
ATOM     38  C   UNL A   1      34.117  33.440  28.592  1.00  0.00     0.039 A 
ATOM     39  C   UNL A   1      34.328  32.680  29.746  1.00  0.00     0.014 A 
ATOM     40  C   UNL A   1      35.179  33.974  27.865  1.00  0.00     0.014 A 
ATOM     41  C   UNL A   1      35.637  32.357  30.104  1.00  0.00     0.010 A 
ATOM     42  C   UNL A   1      36.461  33.568  28.168  1.00  0.00     0.010 A 
ATOM     43  C   UNL A   1      36.704  32.767  29.290  1.00  0.00    -0.014 A 
BRANCH  43  44
ATOM     44  C   UNL A   1      38.057  32.255  29.531  1.00  0.00     0.031 A 
ATOM     45  C   UNL A   1      38.342  30.845  29.115  1.00  0.00     0.074 A 
ATOM     46  C   UNL A   1      39.093  33.054  29.862  1.00  0.00     0.049 A 
ATOM     47  N   UNL A   1      38.732  29.860  29.860  1.00  0.00    -0.248 NA
ATOM     48  C   UNL A   1      38.130  30.472  27.708  1.00  0.00     0.031 C 
ATOM     49  C   UNL A   1      39.102  34.518  29.973  1.00  0.00     0.029 A 
ATOM     50  N   UNL A   1      40.411  32.729  29.995  1.00  0.00    -0.354 N 
ATOM     51  C   UNL A   1      39.003  28.795  28.996  1.00  0.00     0.074 A 
ATOM     52  C   UNL A   1      38.487  29.185  27.709  1.00  0.00     0.031 C 
ATOM     53  C   UNL A   1      40.372  34.963  29.859  1.00  0.00     0.029 A 
ATOM     54  C   UNL A   1      41.263  33.820  29.867  1.00  0.00     0.049 A 
ATOM     55  H   UNL A   1      40.728  31.814  30.165  1.00  0.00     0.167 HD
ATOM     56  C   UNL A   1      39.797  27.746  29.358  1.00  0.00     0.034 A 
ATOM     57  C   UNL A   1      42.606  33.788  29.728  1.00  0.00     0.034 A 
ATOM     58  C   UNL A   1      40.074  27.746  30.771  1.00  0.00     0.049 A 
ATOM     59  C   UNL A   1      43.077  32.485  30.242  1.00  0.00     0.074 A 
ATOM     60  C   UNL A   1      39.325  27.684  31.928  1.00  0.00     0.029 A 
ATOM     61  N   UNL A   1      41.328  28.149  31.156  1.00  0.00    -0.354 N 
ATOM     62  N   UNL A   1      43.004  32.133  31.495  1.00  0.00    -0.248 NA
ATOM     63  C   UNL A   1      43.308  31.403  29.301  1.00  0.00     0.031 C 
ATOM     64  C   UNL A   1      40.021  28.514  32.856  1.00  0.00     0.029 A 
ATOM     65  C   UNL A   1      41.164  28.998  32.216  1.00  0.00     0.049 A 
ATOM     66  H   UNL A   1      42.182  27.878  30.749  1.00  0.00     0.167 HD
ATOM     67  C   UNL A   1      42.728  30.774  31.458  1.00  0.00     0.074 A 
ATOM     68  C   UNL A   1      43.075  30.360  30.102  1.00  0.00     0.031 C 
ATOM     69  C   UNL A   1      41.968  30.182  32.428  1.00  0.00     0.034 A 
BRANCH  56  70
ATOM     70  C   UNL A   1      40.606  26.863  28.431  1.00  0.00     0.023 A 
ATOM     71  C   UNL A   1      40.645  25.476  28.721  1.00  0.00     0.012 A 
ATOM     72  C   UNL A   1      41.533  27.341  27.482  1.00  0.00     0.148 A 
ATOM     73  C   UNL A   1      41.588  24.623  28.138  1.00  0.00     0.002 A 
ATOM     74  C   UNL A   1      42.415  26.471  26.842  1.00  0.00     0.091 A 
ATOM     75  F   UNL A   1      41.664  28.656  27.283  1.00  0.00    -0.205 F 
ATOM     76  C   UNL A   1      42.470  25.120  27.189  1.00  0.00     0.022 A 
BRANCH  74  77
ATOM     77  S   UNL A   1      43.526  27.051  25.555  1.00  0.00     0.127 S 
ATOM     78  O   UNL A   1      44.081  25.795  25.059  1.00  0.00    -0.237 OA
ATOM     79  O   UNL A   1      42.606  27.727  24.639  1.00  0.00    -0.237 OA
ATOM     80  O   UNL A   1      44.453  27.948  26.234  1.00  0.00    -0.744 OA
ENDBRANCH  74  77
ENDBRANCH  56  70
BRANCH  57  81
ATOM     81  C   UNL A   1      43.496  34.740  29.033  1.00  0.00     0.023 A 
ATOM     82  C   UNL A   1      43.813  34.537  27.678  1.00  0.00     0.012 A 
ATOM     83  C   UNL A   1      43.832  35.979  29.624  1.00  0.00     0.148 A 
ATOM     84  C   UNL A   1      44.422  35.546  26.924  1.00  0.00     0.002 A 
ATOM     85  C   UNL A   1      44.443  36.977  28.872  1.00  0.00     0.091 A 
ATOM     86  F   UNL A   1      43.468  36.209  30.894  1.00  0.00    -0.205 F 
ATOM     87  C   UNL A   1      44.730  36.767  27.518  1.00  0.00     0.022 A 
BRANCH  85  88
ATOM     88  S   UNL A   1      44.850  38.584  29.569  1.00  0.00     0.127 S 
ATOM     89  O   UNL A   1      43.537  39.072  29.998  1.00  0.00    -0.237 OA
ATOM     90  O   UNL A   1      45.752  38.219  30.657  1.00  0.00    -0.237 OA
ATOM     91  O   UNL A   1      45.442  39.347  28.478  1.00  0.00    -0.744 OA
ENDBRANCH  85  88
ENDBRANCH  57  81
BRANCH  69  92
ATOM     92  C   UNL A   1      41.678  30.961  33.689  1.00  0.00     0.023 A 
ATOM     93  C   UNL A   1      42.583  30.992  34.771  1.00  0.00     0.012 A 
ATOM     94  C   UNL A   1      40.568  31.823  33.714  1.00  0.00     0.148 A 
ATOM     95  C   UNL A   1      42.372  31.837  35.862  1.00  0.00     0.002 A 
ATOM     96  C   UNL A   1      40.388  32.698  34.778  1.00  0.00     0.091 A 
ATOM     97  F   UNL A   1      39.716  31.795  32.676  1.00  0.00    -0.205 F 
ATOM     98  C   UNL A   1      41.281  32.701  35.861  1.00  0.00     0.022 A 
BRANCH  96  99
ATOM     99  S   UNL A   1      39.080  33.929  34.763  1.00  0.00     0.127 S 
ATOM    100  O   UNL A   1      37.877  33.101  34.771  1.00  0.00    -0.237 OA
ATOM    101  O   UNL A   1      39.322  34.668  36.003  1.00  0.00    -0.237 OA
ATOM    102  O   UNL A   1      39.298  34.719  33.555  1.00  0.00    -0.744 OA
ENDBRANCH  96  99
ENDBRANCH  69  92
ENDBRANCH  43  44
ENDBRANCH  35  38
ENDBRANCH  33  34
ENDBRANCH  32  33
ENDBRANCH   1  32
TORSDOF 18
ENDMDL
MODEL 3
REMARK VINA RESULT:     -11.7      3.633      7.832
REMARK SMILES COc1ccc(-n2ccnc2C[N@@H+]2Cc3[nH]cnc3C[C@H]2C(=O)NCCCCNC(=O)c2ccc(-c3c4nc(c(-c5cccc(S(=O)(=O)[O-])c5F)c5ccc([nH]5)c(-c5cccc(S(=O)(=O)[O-])c5F)c5nc(c(-c6cccc(S(=O)(=O)[O-])c6F)c6ccc3[nH]6)C=C5)C=C4)cc2)cc1
REMARK SMILES IDX 26 1 25 2 24 3 22 4 23 5 21 7 13 8 14 9 15 11 20 12 16 13
REMARK SMILES IDX 19 14 17 15 18 17 12 18 11 19 7 20 8 21 9 22 10 23 6 24 3 25
REMARK SMILES IDX 4 26 96 27 5 28 95 29 2 30 1 31 27 32 28 33 29 34 30 35
REMARK SMILES IDX 31 37 32 38 33 39 94 40 34 41 93 42 35 43 36 44 37 45 87 46
REMARK SMILES IDX 38 47 92 48 86 49 88 50 39 51 91 52 85 53 84 54 40 56 72 57
REMARK SMILES IDX 52 58 71 59 53 60 56 61 70 62 89 63 54 64 55 65 69 67 90 68
REMARK SMILES IDX 57 69 41 70 42 71 50 72 43 73 45 74 51 75 44 76 46 77 47 78
REMARK SMILES IDX 48 79 49 80 73 81 74 82 82 83 75 84 77 85 83 86 76 87 78 88
REMARK SMILES IDX 79 89 80 90 81 91 58 92 59 93 67 94 60 95 62 96 68 97 61 98
REMARK SMILES IDX 63 99 64 100 65 101 66 102
REMARK H PARENT 24 6 13 10 16 16 29 36 88 55 56 66
REMARK Flexibility Score: inf
ROOT
ATOM      1  C   UNL A   1      33.286  29.342  24.793  1.00  0.00     0.023 C 
ENDROOT
BRANCH   1   2
ATOM      2  C   UNL A   1      32.325  28.616  23.832  1.00  0.00     0.116 C 
BRANCH   2   3
ATOM      3  N   UNL A   1      33.000  27.815  22.817  1.00  0.00    -0.351 N 
ATOM      4  C   UNL A   1      33.189  26.500  22.541  1.00  0.00     0.278 C 
ATOM      5  O   UNL A   1      33.706  26.289  21.429  1.00  0.00    -0.268 OA
ATOM      6  H   UNL A   1      33.439  28.386  22.146  1.00  0.00     0.163 HD
BRANCH   4   7
ATOM      7  C   UNL A   1      32.876  25.263  23.421  1.00  0.00     0.280 C 
ATOM      8  N   UNL A   1      32.559  24.032  22.601  1.00  0.00    -0.313 N 
ATOM      9  C   UNL A   1      33.736  23.224  22.263  1.00  0.00     0.320 C 
ATOM     10  H   UNL A   1      32.244  24.326  21.677  1.00  0.00     0.349 HD
ATOM     11  C   UNL A   1      34.838  23.336  23.238  1.00  0.00     0.093 A 
ATOM     12  C   UNL A   1      33.779  25.073  24.669  1.00  0.00     0.134 C 
ATOM     13  N   UNL A   1      36.095  22.805  23.149  1.00  0.00    -0.344 N 
ATOM     14  C   UNL A   1      34.881  24.158  24.335  1.00  0.00     0.074 A 
ATOM     15  C   UNL A   1      36.815  23.299  24.206  1.00  0.00     0.197 A 
ATOM     16  H   UNL A   1      36.421  22.186  22.457  1.00  0.00     0.167 HD
ATOM     17  N   UNL A   1      36.090  24.093  24.962  1.00  0.00    -0.241 NA
BRANCH   8  18
ATOM     18  C   UNL A   1      31.426  23.301  23.212  1.00  0.00     0.340 C 
BRANCH  18  19
ATOM     19  C   UNL A   1      31.375  23.302  24.722  1.00  0.00     0.168 A 
ATOM     20  N   UNL A   1      31.901  22.290  25.524  1.00  0.00    -0.299 N 
ATOM     21  C   UNL A   1      31.365  22.480  26.779  1.00  0.00     0.113 A 
ATOM     22  C   UNL A   1      30.673  23.661  26.721  1.00  0.00     0.132 A 
ATOM     23  N   UNL A   1      30.695  24.172  25.455  1.00  0.00    -0.236 NA
BRANCH  20  24
ATOM     24  C   UNL A   1      32.669  21.168  25.121  1.00  0.00     0.047 A 
ATOM     25  C   UNL A   1      34.125  18.866  24.537  1.00  0.00     0.119 A 
ATOM     26  C   UNL A   1      32.843  19.027  24.015  1.00  0.00     0.048 A 
ATOM     27  C   UNL A   1      34.705  19.874  25.307  1.00  0.00     0.048 A 
ATOM     28  C   UNL A   1      32.107  20.175  24.314  1.00  0.00     0.030 A 
ATOM     29  C   UNL A   1      33.983  21.036  25.590  1.00  0.00     0.030 A 
BRANCH  25  30
ATOM     30  O   UNL A   1      34.824  17.747  24.177  1.00  0.00    -0.497 OA
ATOM     31  C   UNL A   1      34.085  16.928  23.270  1.00  0.00     0.278 C 
ENDBRANCH  25  30
ENDBRANCH  20  24
ENDBRANCH  18  19
ENDBRANCH   8  18
ENDBRANCH   4   7
ENDBRANCH   2   3
ENDBRANCH   1   2
BRANCH   1  32
ATOM     32  C   UNL A   1      33.830  28.542  25.983  1.00  0.00     0.023 C 
BRANCH  32  33
ATOM     33  C   UNL A   1      34.036  29.361  27.253  1.00  0.00     0.116 C 
BRANCH  33  34
ATOM     34  N   UNL A   1      34.338  30.773  27.004  1.00  0.00    -0.352 N 
ATOM     35  C   UNL A   1      35.302  31.538  27.647  1.00  0.00     0.251 C 
ATOM     36  H   UNL A   1      33.804  31.224  26.310  1.00  0.00     0.163 HD
ATOM     37  O   UNL A   1      35.293  32.755  27.603  1.00  0.00    -0.269 OA
BRANCH  35  38
ATOM     38  C   UNL A   1      36.346  30.809  28.383  1.00  0.00     0.039 A 
ATOM     39  C   UNL A   1      36.496  29.427  28.229  1.00  0.00     0.014 A 
ATOM     40  C   UNL A   1      37.284  31.572  29.076  1.00  0.00     0.014 A 
ATOM     41  C   UNL A   1      37.672  28.827  28.682  1.00  0.00     0.010 A 
ATOM     42  C   UNL A   1      38.482  30.991  29.430  1.00  0.00     0.010 A 
ATOM     43  C   UNL A   1      38.684  29.618  29.246  1.00  0.00    -0.014 A 
BRANCH  43  44
ATOM     44  C   UNL A   1      40.003  29.039  29.525  1.00  0.00     0.031 A 
ATOM     45  C   UNL A   1      40.447  28.999  30.955  1.00  0.00     0.074 A 
ATOM     46  C   UNL A   1      40.699  28.329  28.611  1.00  0.00     0.049 A 
ATOM     47  N   UNL A   1      41.497  29.548  31.476  1.00  0.00    -0.248 NA
ATOM     48  C   UNL A   1      39.602  28.297  31.932  1.00  0.00     0.031 C 
ATOM     49  C   UNL A   1      40.279  27.950  27.256  1.00  0.00     0.029 A 
ATOM     50  N   UNL A   1      41.866  27.643  28.774  1.00  0.00    -0.354 N 
ATOM     51  C   UNL A   1      41.557  29.107  32.801  1.00  0.00     0.074 A 
ATOM     52  C   UNL A   1      40.299  28.454  33.061  1.00  0.00     0.031 C 
ATOM     53  C   UNL A   1      41.011  26.892  26.847  1.00  0.00     0.029 A 
ATOM     54  C   UNL A   1      42.061  26.655  27.817  1.00  0.00     0.049 A 
ATOM     55  H   UNL A   1      42.506  27.829  29.497  1.00  0.00     0.167 HD
ATOM     56  C   UNL A   1      42.709  29.146  33.532  1.00  0.00     0.034 A 
ATOM     57  C   UNL A   1      42.993  25.676  27.839  1.00  0.00     0.034 A 
ATOM     58  C   UNL A   1      43.730  29.924  32.881  1.00  0.00     0.049 A 
ATOM     59  C   UNL A   1      44.075  26.112  28.745  1.00  0.00     0.074 A 
ATOM     60  C   UNL A   1      43.860  31.229  32.453  1.00  0.00     0.029 A 
ATOM     61  N   UNL A   1      44.752  29.229  32.285  1.00  0.00    -0.354 N 
ATOM     62  N   UNL A   1      44.863  27.122  28.496  1.00  0.00    -0.248 NA
ATOM     63  C   UNL A   1      44.067  25.651  30.122  1.00  0.00     0.031 C 
ATOM     64  C   UNL A   1      44.637  31.143  31.259  1.00  0.00     0.029 A 
ATOM     65  C   UNL A   1      44.957  29.798  31.058  1.00  0.00     0.049 A 
ATOM     66  H   UNL A   1      45.244  28.467  32.666  1.00  0.00     0.167 HD
ATOM     67  C   UNL A   1      45.090  27.697  29.738  1.00  0.00     0.074 A 
ATOM     68  C   UNL A   1      44.705  26.671  30.702  1.00  0.00     0.031 C 
ATOM     69  C   UNL A   1      45.282  29.045  29.867  1.00  0.00     0.034 A 
BRANCH  56  70
ATOM     70  C   UNL A   1      43.072  28.249  34.696  1.00  0.00     0.023 A 
ATOM     71  C   UNL A   1      43.493  28.875  35.896  1.00  0.00     0.012 A 
ATOM     72  C   UNL A   1      43.286  26.859  34.595  1.00  0.00     0.148 A 
ATOM     73  C   UNL A   1      44.139  28.166  36.915  1.00  0.00     0.002 A 
ATOM     74  C   UNL A   1      43.855  26.143  35.647  1.00  0.00     0.091 A 
ATOM     75  F   UNL A   1      43.066  26.234  33.433  1.00  0.00    -0.205 F 
ATOM     76  C   UNL A   1      44.313  26.794  36.794  1.00  0.00     0.022 A 
BRANCH  74  77
ATOM     77  S   UNL A   1      44.035  24.357  35.570  1.00  0.00     0.127 S 
ATOM     78  O   UNL A   1      44.635  24.067  36.869  1.00  0.00    -0.237 OA
ATOM     79  O   UNL A   1      42.647  23.917  35.417  1.00  0.00    -0.237 OA
ATOM     80  O   UNL A   1      44.867  24.112  34.399  1.00  0.00    -0.744 OA
ENDBRANCH  74  77
ENDBRANCH  56  70
BRANCH  57  81
ATOM     81  C   UNL A   1      42.935  24.319  27.260  1.00  0.00     0.023 A 
ATOM     82  C   UNL A   1      41.737  23.586  27.316  1.00  0.00     0.012 A 
ATOM     83  C   UNL A   1      43.978  23.842  26.433  1.00  0.00     0.148 A 
ATOM     84  C   UNL A   1      41.568  22.426  26.552  1.00  0.00     0.002 A 
ATOM     85  C   UNL A   1      43.808  22.684  25.681  1.00  0.00     0.091 A 
ATOM     86  F   UNL A   1      45.096  24.573  26.317  1.00  0.00    -0.205 F 
ATOM     87  C   UNL A   1      42.599  21.979  25.730  1.00  0.00     0.022 A 
BRANCH  85  88
ATOM     88  S   UNL A   1      45.089  22.063  24.583  1.00  0.00     0.127 S 
ATOM     89  O   UNL A   1      45.206  23.148  23.606  1.00  0.00    -0.237 OA
ATOM     90  O   UNL A   1      46.225  21.932  25.491  1.00  0.00    -0.237 OA
ATOM     91  O   UNL A   1      44.566  20.819  24.033  1.00  0.00    -0.744 OA
ENDBRANCH  85  88
ENDBRANCH  57  81
BRANCH  69  92
ATOM     92  C   UNL A   1      45.533  29.857  28.619  1.00  0.00     0.023 A 
ATOM     93  C   UNL A   1      44.477  30.309  27.800  1.00  0.00     0.012 A 
ATOM     94  C   UNL A   1      46.832  30.331  28.367  1.00  0.00     0.148 A 
ATOM     95  C   UNL A   1      44.713  31.187  26.740  1.00  0.00     0.002 A 
ATOM     96  C   UNL A   1      47.056  31.243  27.342  1.00  0.00     0.091 A 
ATOM     97  F   UNL A   1      47.830  29.904  29.157  1.00  0.00    -0.205 F 
ATOM     98  C   UNL A   1      46.001  31.664  26.517  1.00  0.00     0.022 A 
BRANCH  96  99
ATOM     99  S   UNL A   1      48.667  31.998  27.100  1.00  0.00     0.127 S 
ATOM    100  O   UNL A   1      48.951  32.546  28.424  1.00  0.00    -0.237 OA
ATOM    101  O   UNL A   1      49.501  30.856  26.720  1.00  0.00    -0.237 OA
ATOM    102  O   UNL A   1      48.487  32.977  26.034  1.00  0.00    -0.744 OA
ENDBRANCH  96  99
ENDBRANCH  69  92
ENDBRANCH  43  44
ENDBRANCH  35  38
ENDBRANCH  33  34
ENDBRANCH  32  33
ENDBRANCH   1  32
TORSDOF 18
ENDMDL
