MODEL 1
REMARK VINA RESULT:     -13.3      0.000      0.000
REMARK SMILES C[C@H]1CCC[C@](Cc2cn3ccccc3n2)(C(=O)NCCCCNC(=O)c2ccc(-c3c4nc(c(-c5cccc(S(=O)(=O)[O-])c5F)c5ccc([nH]5)c(-c5cccc(S(=O)(=O)[O-])c5F)c5nc(c(-c6cccc(S(=O)(=O)[O-])c6F)c6ccc3[nH]6)C=C5)C=C4)cc2)C1
REMARK SMILES IDX 22 1 21 2 20 3 19 4 17 5 18 6 6 8 1 9 2 10 3 11 90 12 4 13
REMARK SMILES IDX 5 14 7 15 8 16 9 17 16 18 10 19 15 20 11 21 14 22 12 23
REMARK SMILES IDX 13 24 23 25 24 26 25 27 26 29 27 30 28 31 89 32 29 33 88 34
REMARK SMILES IDX 30 35 31 36 32 37 82 38 33 39 87 40 81 41 83 42 34 43 86 44
REMARK SMILES IDX 80 45 79 46 35 48 67 49 47 50 66 51 48 52 51 53 65 54 84 55
REMARK SMILES IDX 49 56 50 57 64 59 85 60 52 61 36 62 37 63 45 64 38 65 40 66
REMARK SMILES IDX 46 67 39 68 41 69 42 70 43 71 44 72 68 73 69 74 77 75 70 76
REMARK SMILES IDX 72 77 78 78 71 79 73 80 74 81 75 82 76 83 53 84 54 85 62 86
REMARK SMILES IDX 55 87 57 88 63 89 56 90 58 91 59 92 60 93 61 94
REMARK H PARENT 19 7 24 28 83 47 51 58
REMARK Flexibility Score: inf
ROOT
ATOM      1  C   UNL A   1      36.092  20.861  25.181  1.00  0.00     0.023 C 
ENDROOT
BRANCH   1   2
ATOM      2  C   UNL A   1      35.246  21.478  26.291  1.00  0.00     0.023 C 
BRANCH   2   3
ATOM      3  C   UNL A   1      33.782  21.050  26.281  1.00  0.00     0.116 C 
BRANCH   3   4
ATOM      4  N   UNL A   1      32.926  21.902  27.063  1.00  0.00    -0.356 N 
ATOM      5  C   UNL A   1      32.046  22.876  26.715  1.00  0.00     0.226 C 
ATOM      6  O   UNL A   1      31.290  23.221  27.631  1.00  0.00    -0.274 OA
ATOM      7  H   UNL A   1      32.990  21.751  28.034  1.00  0.00     0.163 HD
BRANCH   5   8
ATOM      8  C   UNL A   1      31.935  23.517  25.285  1.00  0.00     0.055 C 
ATOM      9  C   UNL A   1      31.993  21.175  22.102  1.00  0.00     0.007 C 
ATOM     10  C   UNL A   1      32.623  21.895  23.300  1.00  0.00    -0.013 C 
ATOM     11  C   UNL A   1      33.570  22.990  22.816  1.00  0.00     0.003 C 
ATOM     12  C   UNL A   1      31.539  22.428  24.247  1.00  0.00     0.020 C 
ATOM     13  C   UNL A   1      34.194  23.799  23.942  1.00  0.00     0.001 C 
ATOM     14  C   UNL A   1      33.196  24.360  24.950  1.00  0.00     0.017 C 
BRANCH   8  15
ATOM     15  C   UNL A   1      30.701  24.502  25.444  1.00  0.00     0.074 C 
BRANCH  15  16
ATOM     16  C   UNL A   1      30.956  25.981  25.541  1.00  0.00     0.061 A 
ATOM     17  C   UNL A   1      30.861  26.992  24.606  1.00  0.00     0.116 A 
ATOM     18  N   UNL A   1      31.341  26.504  26.762  1.00  0.00    -0.234 NA
ATOM     19  N   UNL A   1      31.215  28.146  25.260  1.00  0.00    -0.307 N 
ATOM     20  C   UNL A   1      31.485  27.796  26.575  1.00  0.00     0.136 A 
ATOM     21  C   UNL A   1      31.313  29.450  24.776  1.00  0.00     0.093 A 
ATOM     22  C   UNL A   1      31.863  28.841  27.465  1.00  0.00     0.048 A 
ATOM     23  C   UNL A   1      31.681  30.434  25.615  1.00  0.00     0.018 A 
ATOM     24  C   UNL A   1      31.958  30.106  27.007  1.00  0.00     0.005 A 
ENDBRANCH  15  16
ENDBRANCH   8  15
ENDBRANCH   5   8
ENDBRANCH   3   4
ENDBRANCH   2   3
ENDBRANCH   1   2
BRANCH   1  25
ATOM     25  C   UNL A   1      37.530  21.365  25.088  1.00  0.00     0.116 C 
BRANCH  25  26
ATOM     26  N   UNL A   1      38.550  20.364  25.385  1.00  0.00    -0.352 N 
ATOM     27  C   UNL A   1      39.700  20.548  26.127  1.00  0.00     0.251 C 
ATOM     28  H   UNL A   1      38.402  19.463  25.017  1.00  0.00     0.163 HD
ATOM     29  O   UNL A   1      40.511  19.646  26.283  1.00  0.00    -0.269 OA
BRANCH  27  30
ATOM     30  C   UNL A   1      39.942  21.892  26.689  1.00  0.00     0.039 A 
ATOM     31  C   UNL A   1      40.933  22.054  27.659  1.00  0.00     0.014 A 
ATOM     32  C   UNL A   1      39.303  22.997  26.123  1.00  0.00     0.014 A 
ATOM     33  C   UNL A   1      41.358  23.341  27.995  1.00  0.00     0.010 A 
ATOM     34  C   UNL A   1      39.780  24.271  26.404  1.00  0.00     0.010 A 
ATOM     35  C   UNL A   1      40.821  24.455  27.330  1.00  0.00    -0.014 A 
BRANCH  35  36
ATOM     36  C   UNL A   1      41.327  25.833  27.558  1.00  0.00     0.031 A 
ATOM     37  C   UNL A   1      42.711  26.195  27.096  1.00  0.00     0.074 A 
ATOM     38  C   UNL A   1      40.610  26.704  28.299  1.00  0.00     0.049 A 
ATOM     39  N   UNL A   1      43.417  27.261  27.358  1.00  0.00    -0.248 NA
ATOM     40  C   UNL A   1      43.410  25.198  26.265  1.00  0.00     0.031 C 
ATOM     41  C   UNL A   1      39.288  26.445  28.873  1.00  0.00     0.029 A 
ATOM     42  N   UNL A   1      40.915  27.971  28.731  1.00  0.00    -0.354 N 
ATOM     43  C   UNL A   1      44.661  27.039  26.781  1.00  0.00     0.074 A 
ATOM     44  C   UNL A   1      44.621  25.726  26.175  1.00  0.00     0.031 C 
ATOM     45  C   UNL A   1      38.897  27.516  29.582  1.00  0.00     0.029 A 
ATOM     46  C   UNL A   1      39.951  28.526  29.542  1.00  0.00     0.049 A 
ATOM     47  H   UNL A   1      41.745  28.439  28.485  1.00  0.00     0.167 HD
ATOM     48  C   UNL A   1      45.733  27.865  26.733  1.00  0.00     0.034 A 
ATOM     49  C   UNL A   1      39.924  29.710  30.186  1.00  0.00     0.034 A 
ATOM     50  C   UNL A   1      45.740  29.199  27.263  1.00  0.00     0.049 A 
ATOM     51  C   UNL A   1      41.091  30.650  30.032  1.00  0.00     0.074 A 
ATOM     52  C   UNL A   1      46.743  30.148  27.190  1.00  0.00     0.029 A 
ATOM     53  N   UNL A   1      44.684  29.781  27.947  1.00  0.00    -0.354 N 
ATOM     54  N   UNL A   1      42.207  30.476  29.368  1.00  0.00    -0.248 NA
ATOM     55  C   UNL A   1      40.981  31.964  30.685  1.00  0.00     0.031 C 
ATOM     56  C   UNL A   1      46.288  31.310  27.824  1.00  0.00     0.029 A 
ATOM     57  C   UNL A   1      45.002  31.083  28.287  1.00  0.00     0.049 A 
ATOM     58  H   UNL A   1      43.833  29.333  28.160  1.00  0.00     0.167 HD
ATOM     59  C   UNL A   1      42.912  31.668  29.485  1.00  0.00     0.074 A 
ATOM     60  C   UNL A   1      42.092  32.563  30.275  1.00  0.00     0.031 C 
ATOM     61  C   UNL A   1      44.136  31.987  28.998  1.00  0.00     0.034 A 
BRANCH  48  62
ATOM     62  C   UNL A   1      46.959  27.370  26.016  1.00  0.00     0.023 A 
ATOM     63  C   UNL A   1      47.871  26.542  26.703  1.00  0.00     0.012 A 
ATOM     64  C   UNL A   1      47.193  27.686  24.664  1.00  0.00     0.148 A 
ATOM     65  C   UNL A   1      49.018  26.069  26.067  1.00  0.00     0.002 A 
ATOM     66  C   UNL A   1      48.318  27.176  24.025  1.00  0.00     0.091 A 
ATOM     67  F   UNL A   1      46.329  28.495  24.036  1.00  0.00    -0.205 F 
ATOM     68  C   UNL A   1      49.236  26.377  24.727  1.00  0.00     0.022 A 
BRANCH  66  69
ATOM     69  S   UNL A   1      48.642  27.457  22.281  1.00  0.00     0.127 S 
ATOM     70  O   UNL A   1      49.879  28.234  22.331  1.00  0.00    -0.237 OA
ATOM     71  O   UNL A   1      48.797  26.096  21.767  1.00  0.00    -0.237 OA
ATOM     72  O   UNL A   1      47.473  28.163  21.771  1.00  0.00    -0.744 OA
ENDBRANCH  66  69
ENDBRANCH  48  62
BRANCH  49  73
ATOM     73  C   UNL A   1      38.715  30.112  30.958  1.00  0.00     0.023 A 
ATOM     74  C   UNL A   1      38.608  29.726  32.309  1.00  0.00     0.012 A 
ATOM     75  C   UNL A   1      37.693  30.894  30.387  1.00  0.00     0.148 A 
ATOM     76  C   UNL A   1      37.493  30.085  33.068  1.00  0.00     0.002 A 
ATOM     77  C   UNL A   1      36.607  31.290  31.164  1.00  0.00     0.091 A 
ATOM     78  F   UNL A   1      37.801  31.240  29.096  1.00  0.00    -0.205 F 
ATOM     79  C   UNL A   1      36.498  30.874  32.499  1.00  0.00     0.022 A 
BRANCH  77  80
ATOM     80  S   UNL A   1      35.347  32.412  30.545  1.00  0.00     0.127 S 
ATOM     81  O   UNL A   1      34.424  32.477  31.675  1.00  0.00    -0.237 OA
ATOM     82  O   UNL A   1      36.115  33.635  30.306  1.00  0.00    -0.237 OA
ATOM     83  O   UNL A   1      34.833  31.785  29.335  1.00  0.00    -0.744 OA
ENDBRANCH  77  80
ENDBRANCH  49  73
BRANCH  61  84
ATOM     84  C   UNL A   1      44.655  33.377  29.246  1.00  0.00     0.023 A 
ATOM     85  C   UNL A   1      45.288  33.676  30.467  1.00  0.00     0.012 A 
ATOM     86  C   UNL A   1      44.618  34.347  28.225  1.00  0.00     0.148 A 
ATOM     87  C   UNL A   1      45.866  34.928  30.674  1.00  0.00     0.002 A 
ATOM     88  C   UNL A   1      45.230  35.578  28.424  1.00  0.00     0.091 A 
ATOM     89  F   UNL A   1      43.989  34.045  27.079  1.00  0.00    -0.205 F 
ATOM     90  C   UNL A   1      45.849  35.872  29.649  1.00  0.00     0.022 A 
BRANCH  88  91
ATOM     91  S   UNL A   1      45.336  36.815  27.125  1.00  0.00     0.127 S 
ATOM     92  O   UNL A   1      43.929  37.156  26.923  1.00  0.00    -0.237 OA
ATOM     93  O   UNL A   1      46.133  37.866  27.759  1.00  0.00    -0.237 OA
ATOM     94  O   UNL A   1      45.992  36.160  26.001  1.00  0.00    -0.744 OA
ENDBRANCH  88  91
ENDBRANCH  61  84
ENDBRANCH  35  36
ENDBRANCH  27  30
ENDBRANCH  25  26
ENDBRANCH   1  25
TORSDOF 16
ENDMDL
MODEL 2
REMARK VINA RESULT:     -13.2      5.040     10.375
REMARK SMILES C[C@H]1CCC[C@](Cc2cn3ccccc3n2)(C(=O)NCCCCNC(=O)c2ccc(-c3c4nc(c(-c5cccc(S(=O)(=O)[O-])c5F)c5ccc([nH]5)c(-c5cccc(S(=O)(=O)[O-])c5F)c5nc(c(-c6cccc(S(=O)(=O)[O-])c6F)c6ccc3[nH]6)C=C5)C=C4)cc2)C1
REMARK SMILES IDX 22 1 21 2 20 3 19 4 17 5 18 6 6 8 1 9 2 10 3 11 90 12 4 13
REMARK SMILES IDX 5 14 7 15 8 16 9 17 16 18 10 19 15 20 11 21 14 22 12 23
REMARK SMILES IDX 13 24 23 25 24 26 25 27 26 29 27 30 28 31 89 32 29 33 88 34
REMARK SMILES IDX 30 35 31 36 32 37 82 38 33 39 87 40 81 41 83 42 34 43 86 44
REMARK SMILES IDX 80 45 79 46 35 48 67 49 47 50 66 51 48 52 51 53 65 54 84 55
REMARK SMILES IDX 49 56 50 57 64 59 85 60 52 61 36 62 37 63 45 64 38 65 40 66
REMARK SMILES IDX 46 67 39 68 41 69 42 70 43 71 44 72 68 73 69 74 77 75 70 76
REMARK SMILES IDX 72 77 78 78 71 79 73 80 74 81 75 82 76 83 53 84 54 85 62 86
REMARK SMILES IDX 55 87 57 88 63 89 56 90 58 91 59 92 60 93 61 94
REMARK H PARENT 19 7 24 28 83 47 51 58
REMARK Flexibility Score: inf
ROOT
ATOM      1  C   UNL A   1      31.966  29.874  25.181  1.00  0.00     0.023 C 
ENDROOT
BRANCH   1   2
ATOM      2  C   UNL A   1      32.898  29.317  24.108  1.00  0.00     0.023 C 
BRANCH   2   3
ATOM      3  C   UNL A   1      32.186  28.767  22.877  1.00  0.00     0.116 C 
BRANCH   3   4
ATOM      4  N   UNL A   1      32.972  27.821  22.130  1.00  0.00    -0.356 N 
ATOM      5  C   UNL A   1      32.953  26.464  22.074  1.00  0.00     0.226 C 
ATOM      6  O   UNL A   1      33.595  25.991  21.127  1.00  0.00    -0.274 OA
ATOM      7  H   UNL A   1      33.652  28.234  21.551  1.00  0.00     0.163 HD
BRANCH   5   8
ATOM      8  C   UNL A   1      32.178  25.533  23.074  1.00  0.00     0.055 C 
ATOM      9  C   UNL A   1      28.451  26.416  24.048  1.00  0.00     0.007 C 
ATOM     10  C   UNL A   1      29.971  26.608  24.085  1.00  0.00    -0.013 C 
ATOM     11  C   UNL A   1      30.512  26.262  25.470  1.00  0.00     0.003 C 
ATOM     12  C   UNL A   1      30.649  25.802  22.968  1.00  0.00     0.020 C 
ATOM     13  C   UNL A   1      32.025  26.366  25.579  1.00  0.00     0.001 C 
ATOM     14  C   UNL A   1      32.792  25.608  24.499  1.00  0.00     0.017 C 
BRANCH   8  15
ATOM     15  C   UNL A   1      32.455  24.087  22.485  1.00  0.00     0.074 C 
BRANCH  15  16
ATOM     16  C   UNL A   1      33.498  23.221  23.136  1.00  0.00     0.061 A 
ATOM     17  C   UNL A   1      33.393  22.091  23.922  1.00  0.00     0.116 A 
ATOM     18  N   UNL A   1      34.831  23.538  22.943  1.00  0.00    -0.234 NA
ATOM     19  N   UNL A   1      34.680  21.726  24.233  1.00  0.00    -0.307 N 
ATOM     20  C   UNL A   1      35.519  22.632  23.601  1.00  0.00     0.136 A 
ATOM     21  C   UNL A   1      35.141  20.673  25.021  1.00  0.00     0.093 A 
ATOM     22  C   UNL A   1      36.921  22.447  23.763  1.00  0.00     0.048 A 
ATOM     23  C   UNL A   1      36.465  20.507  25.183  1.00  0.00     0.018 A 
ATOM     24  C   UNL A   1      37.377  21.430  24.521  1.00  0.00     0.005 A 
ENDBRANCH  15  16
ENDBRANCH   8  15
ENDBRANCH   5   8
ENDBRANCH   3   4
ENDBRANCH   2   3
ENDBRANCH   1   2
BRANCH   1  25
ATOM     25  C   UNL A   1      32.628  30.235  26.508  1.00  0.00     0.116 C 
BRANCH  25  26
ATOM     26  N   UNL A   1      32.510  31.639  26.888  1.00  0.00    -0.352 N 
ATOM     27  C   UNL A   1      33.458  32.404  27.540  1.00  0.00     0.251 C 
ATOM     28  H   UNL A   1      31.665  32.089  26.657  1.00  0.00     0.163 HD
ATOM     29  O   UNL A   1      33.241  33.567  27.847  1.00  0.00    -0.269 OA
BRANCH  27  30
ATOM     30  C   UNL A   1      34.734  31.751  27.897  1.00  0.00     0.039 A 
ATOM     31  C   UNL A   1      35.873  32.537  28.073  1.00  0.00     0.014 A 
ATOM     32  C   UNL A   1      34.741  30.392  28.221  1.00  0.00     0.014 A 
ATOM     33  C   UNL A   1      37.004  31.979  28.672  1.00  0.00     0.010 A 
ATOM     34  C   UNL A   1      35.839  29.861  28.883  1.00  0.00     0.010 A 
ATOM     35  C   UNL A   1      36.975  30.651  29.129  1.00  0.00    -0.014 A 
BRANCH  35  36
ATOM     36  C   UNL A   1      38.104  30.049  29.885  1.00  0.00     0.031 A 
ATOM     37  C   UNL A   1      38.372  30.502  31.293  1.00  0.00     0.074 A 
ATOM     38  C   UNL A   1      38.965  29.215  29.265  1.00  0.00     0.049 A 
ATOM     39  N   UNL A   1      39.402  30.258  32.057  1.00  0.00    -0.248 NA
ATOM     40  C   UNL A   1      37.364  31.386  31.903  1.00  0.00     0.031 C 
ATOM     41  C   UNL A   1      38.860  28.762  27.876  1.00  0.00     0.029 A 
ATOM     42  N   UNL A   1      40.124  28.633  29.715  1.00  0.00    -0.354 N 
ATOM     43  C   UNL A   1      39.199  31.007  33.209  1.00  0.00     0.074 A 
ATOM     44  C   UNL A   1      37.959  31.731  33.035  1.00  0.00     0.031 C 
ATOM     45  C   UNL A   1      39.910  27.976  27.587  1.00  0.00     0.029 A 
ATOM     46  C   UNL A   1      40.780  27.894  28.757  1.00  0.00     0.049 A 
ATOM     47  H   UNL A   1      40.455  28.734  30.637  1.00  0.00     0.167 HD
ATOM     48  C   UNL A   1      39.961  31.064  34.328  1.00  0.00     0.034 A 
ATOM     49  C   UNL A   1      41.954  27.231  28.813  1.00  0.00     0.034 A 
ATOM     50  C   UNL A   1      41.146  30.279  34.531  1.00  0.00     0.049 A 
ATOM     51  C   UNL A   1      42.730  27.232  30.104  1.00  0.00     0.074 A 
ATOM     52  C   UNL A   1      41.941  30.198  35.659  1.00  0.00     0.029 A 
ATOM     53  N   UNL A   1      41.696  29.424  33.589  1.00  0.00    -0.354 N 
ATOM     54  N   UNL A   1      42.453  27.839  31.232  1.00  0.00    -0.248 NA
ATOM     55  C   UNL A   1      43.962  26.429  30.143  1.00  0.00     0.031 C 
ATOM     56  C   UNL A   1      42.968  29.283  35.401  1.00  0.00     0.029 A 
ATOM     57  C   UNL A   1      42.809  28.795  34.114  1.00  0.00     0.049 A 
ATOM     58  H   UNL A   1      41.345  29.284  32.679  1.00  0.00     0.167 HD
ATOM     59  C   UNL A   1      43.446  27.459  32.126  1.00  0.00     0.074 A 
ATOM     60  C   UNL A   1      44.329  26.559  31.412  1.00  0.00     0.031 C 
ATOM     61  C   UNL A   1      43.623  27.835  33.416  1.00  0.00     0.034 A 
BRANCH  48  62
ATOM     62  C   UNL A   1      39.487  31.953  35.445  1.00  0.00     0.023 A 
ATOM     63  C   UNL A   1      38.590  31.436  36.402  1.00  0.00     0.012 A 
ATOM     64  C   UNL A   1      39.949  33.276  35.573  1.00  0.00     0.148 A 
ATOM     65  C   UNL A   1      38.129  32.235  37.447  1.00  0.00     0.002 A 
ATOM     66  C   UNL A   1      39.518  34.054  36.642  1.00  0.00     0.091 A 
ATOM     67  F   UNL A   1      40.781  33.759  34.639  1.00  0.00    -0.205 F 
ATOM     68  C   UNL A   1      38.600  33.539  37.573  1.00  0.00     0.022 A 
BRANCH  66  69
ATOM     69  S   UNL A   1      40.129  35.719  36.927  1.00  0.00     0.127 S 
ATOM     70  O   UNL A   1      39.631  36.423  35.747  1.00  0.00    -0.237 OA
ATOM     71  O   UNL A   1      39.467  36.085  38.180  1.00  0.00    -0.237 OA
ATOM     72  O   UNL A   1      41.577  35.597  37.025  1.00  0.00    -0.744 OA
ENDBRANCH  66  69
ENDBRANCH  48  62
BRANCH  49  73
ATOM     73  C   UNL A   1      42.420  26.438  27.642  1.00  0.00     0.023 A 
ATOM     74  C   UNL A   1      43.277  27.046  26.702  1.00  0.00     0.012 A 
ATOM     75  C   UNL A   1      42.055  25.090  27.463  1.00  0.00     0.148 A 
ATOM     76  C   UNL A   1      43.738  26.336  25.593  1.00  0.00     0.002 A 
ATOM     77  C   UNL A   1      42.559  24.373  26.381  1.00  0.00     0.091 A 
ATOM     78  F   UNL A   1      41.227  24.530  28.357  1.00  0.00    -0.205 F 
ATOM     79  C   UNL A   1      43.387  24.998  25.437  1.00  0.00     0.022 A 
BRANCH  77  80
ATOM     80  S   UNL A   1      42.260  22.613  26.177  1.00  0.00     0.127 S 
ATOM     81  O   UNL A   1      42.887  22.351  24.884  1.00  0.00    -0.237 OA
ATOM     82  O   UNL A   1      42.963  22.047  27.329  1.00  0.00    -0.237 OA
ATOM     83  O   UNL A   1      40.812  22.459  26.228  1.00  0.00    -0.744 OA
ENDBRANCH  77  80
ENDBRANCH  49  73
BRANCH  61  84
ATOM     84  C   UNL A   1      44.777  27.239  34.174  1.00  0.00     0.023 A 
ATOM     85  C   UNL A   1      46.018  27.904  34.189  1.00  0.00     0.012 A 
ATOM     86  C   UNL A   1      44.596  26.085  34.962  1.00  0.00     0.148 A 
ATOM     87  C   UNL A   1      47.068  27.421  34.969  1.00  0.00     0.002 A 
ATOM     88  C   UNL A   1      45.634  25.632  35.767  1.00  0.00     0.091 A 
ATOM     89  F   UNL A   1      43.412  25.457  34.913  1.00  0.00    -0.205 F 
ATOM     90  C   UNL A   1      46.872  26.295  35.767  1.00  0.00     0.022 A 
BRANCH  88  91
ATOM     91  S   UNL A   1      45.437  24.247  36.894  1.00  0.00     0.127 S 
ATOM     92  O   UNL A   1      46.778  24.133  37.462  1.00  0.00    -0.237 OA
ATOM     93  O   UNL A   1      44.421  24.743  37.823  1.00  0.00    -0.237 OA
ATOM     94  O   UNL A   1      45.003  23.124  36.074  1.00  0.00    -0.744 OA
ENDBRANCH  88  91
ENDBRANCH  61  84
ENDBRANCH  35  36
ENDBRANCH  27  30
ENDBRANCH  25  26
ENDBRANCH   1  25
TORSDOF 16
ENDMDL
MODEL 3
REMARK VINA RESULT:     -13.1      5.025     10.517
REMARK SMILES C[C@H]1CCC[C@](Cc2cn3ccccc3n2)(C(=O)NCCCCNC(=O)c2ccc(-c3c4nc(c(-c5cccc(S(=O)(=O)[O-])c5F)c5ccc([nH]5)c(-c5cccc(S(=O)(=O)[O-])c5F)c5nc(c(-c6cccc(S(=O)(=O)[O-])c6F)c6ccc3[nH]6)C=C5)C=C4)cc2)C1
REMARK SMILES IDX 22 1 21 2 20 3 19 4 17 5 18 6 6 8 1 9 2 10 3 11 90 12 4 13
REMARK SMILES IDX 5 14 7 15 8 16 9 17 16 18 10 19 15 20 11 21 14 22 12 23
REMARK SMILES IDX 13 24 23 25 24 26 25 27 26 29 27 30 28 31 89 32 29 33 88 34
REMARK SMILES IDX 30 35 31 36 32 37 82 38 33 39 87 40 81 41 83 42 34 43 86 44
REMARK SMILES IDX 80 45 79 46 35 48 67 49 47 50 66 51 48 52 51 53 65 54 84 55
REMARK SMILES IDX 49 56 50 57 64 59 85 60 52 61 36 62 37 63 45 64 38 65 40 66
REMARK SMILES IDX 46 67 39 68 41 69 42 70 43 71 44 72 68 73 69 74 77 75 70 76
REMARK SMILES IDX 72 77 78 78 71 79 73 80 74 81 75 82 76 83 53 84 54 85 62 86
REMARK SMILES IDX 55 87 57 88 63 89 56 90 58 91 59 92 60 93 61 94
REMARK H PARENT 19 7 24 28 83 47 51 58
REMARK Flexibility Score: inf
ROOT
ATOM      1  C   UNL A   1      32.020  29.992  25.724  1.00  0.00     0.023 C 
ENDROOT
BRANCH   1   2
ATOM      2  C   UNL A   1      32.936  29.361  24.679  1.00  0.00     0.023 C 
BRANCH   2   3
ATOM      3  C   UNL A   1      32.233  28.944  23.392  1.00  0.00     0.116 C 
BRANCH   3   4
ATOM      4  N   UNL A   1      33.027  28.088  22.551  1.00  0.00    -0.356 N 
ATOM      5  C   UNL A   1      33.002  26.749  22.331  1.00  0.00     0.226 C 
ATOM      6  O   UNL A   1      33.659  26.389  21.346  1.00  0.00    -0.274 OA
ATOM      7  H   UNL A   1      33.721  28.563  22.038  1.00  0.00     0.163 HD
BRANCH   5   8
ATOM      8  C   UNL A   1      32.202  25.710  23.197  1.00  0.00     0.055 C 
ATOM      9  C   UNL A   1      28.413  26.421  24.063  1.00  0.00     0.007 C 
ATOM     10  C   UNL A   1      29.924  26.638  24.194  1.00  0.00    -0.013 C 
ATOM     11  C   UNL A   1      30.405  26.171  25.565  1.00  0.00     0.003 C 
ATOM     12  C   UNL A   1      30.674  25.958  23.041  1.00  0.00     0.020 C 
ATOM     13  C   UNL A   1      31.908  26.293  25.759  1.00  0.00     0.001 C 
ATOM     14  C   UNL A   1      32.745  25.659  24.652  1.00  0.00     0.017 C 
BRANCH   8  15
ATOM     15  C   UNL A   1      32.543  24.333  22.486  1.00  0.00     0.074 C 
BRANCH  15  16
ATOM     16  C   UNL A   1      33.542  23.409  23.126  1.00  0.00     0.061 A 
ATOM     17  C   UNL A   1      33.383  22.255  23.866  1.00  0.00     0.116 A 
ATOM     18  N   UNL A   1      34.888  23.689  22.974  1.00  0.00    -0.234 NA
ATOM     19  N   UNL A   1      34.650  21.836  24.190  1.00  0.00    -0.307 N 
ATOM     20  C   UNL A   1      35.531  22.736  23.611  1.00  0.00     0.136 A 
ATOM     21  C   UNL A   1      35.058  20.739  24.946  1.00  0.00     0.093 A 
ATOM     22  C   UNL A   1      36.923  22.499  23.795  1.00  0.00     0.048 A 
ATOM     23  C   UNL A   1      36.372  20.523  25.130  1.00  0.00     0.018 A 
ATOM     24  C   UNL A   1      37.328  21.440  24.523  1.00  0.00     0.005 A 
ENDBRANCH  15  16
ENDBRANCH   8  15
ENDBRANCH   5   8
ENDBRANCH   3   4
ENDBRANCH   2   3
ENDBRANCH   1   2
BRANCH   1  25
ATOM     25  C   UNL A   1      32.702  30.442  27.014  1.00  0.00     0.116 C 
BRANCH  25  26
ATOM     26  N   UNL A   1      32.697  31.885  27.237  1.00  0.00    -0.352 N 
ATOM     27  C   UNL A   1      33.743  32.654  27.709  1.00  0.00     0.251 C 
ATOM     28  H   UNL A   1      31.860  32.359  27.029  1.00  0.00     0.163 HD
ATOM     29  O   UNL A   1      33.619  33.856  27.896  1.00  0.00    -0.269 OA
BRANCH  27  30
ATOM     30  C   UNL A   1      35.008  31.963  28.028  1.00  0.00     0.039 A 
ATOM     31  C   UNL A   1      36.157  32.722  28.257  1.00  0.00     0.014 A 
ATOM     32  C   UNL A   1      34.997  30.586  28.264  1.00  0.00     0.014 A 
ATOM     33  C   UNL A   1      37.278  32.111  28.823  1.00  0.00     0.010 A 
ATOM     34  C   UNL A   1      36.086  30.000  28.895  1.00  0.00     0.010 A 
ATOM     35  C   UNL A   1      37.231  30.758  29.194  1.00  0.00    -0.014 A 
BRANCH  35  36
ATOM     36  C   UNL A   1      38.349  30.094  29.913  1.00  0.00     0.031 A 
ATOM     37  C   UNL A   1      38.699  30.544  31.304  1.00  0.00     0.074 A 
ATOM     38  C   UNL A   1      39.132  29.202  29.272  1.00  0.00     0.049 A 
ATOM     39  N   UNL A   1      39.741  30.243  32.032  1.00  0.00    -0.248 NA
ATOM     40  C   UNL A   1      37.772  31.495  31.943  1.00  0.00     0.031 C 
ATOM     41  C   UNL A   1      38.945  28.744  27.893  1.00  0.00     0.029 A 
ATOM     42  N   UNL A   1      40.270  28.553  29.684  1.00  0.00    -0.354 N 
ATOM     43  C   UNL A   1      39.630  31.014  33.182  1.00  0.00     0.074 A 
ATOM     44  C   UNL A   1      38.431  31.813  33.046  1.00  0.00     0.031 C 
ATOM     45  C   UNL A   1      39.933  27.891  27.574  1.00  0.00     0.029 A 
ATOM     46  C   UNL A   1      40.841  27.766  28.711  1.00  0.00     0.049 A 
ATOM     47  H   UNL A   1      40.642  28.643  30.591  1.00  0.00     0.167 HD
ATOM     48  C   UNL A   1      40.437  31.035  34.270  1.00  0.00     0.034 A 
ATOM     49  C   UNL A   1      41.973  27.033  28.730  1.00  0.00     0.034 A 
ATOM     50  C   UNL A   1      41.578  30.181  34.437  1.00  0.00     0.049 A 
ATOM     51  C   UNL A   1      42.798  26.998  29.990  1.00  0.00     0.074 A 
ATOM     52  C   UNL A   1      42.410  30.061  35.535  1.00  0.00     0.029 A 
ATOM     53  N   UNL A   1      42.037  29.283  33.484  1.00  0.00    -0.354 N 
ATOM     54  N   UNL A   1      42.602  27.632  31.120  1.00  0.00    -0.248 NA
ATOM     55  C   UNL A   1      43.978  26.120  29.992  1.00  0.00     0.031 C 
ATOM     56  C   UNL A   1      43.368  29.082  35.249  1.00  0.00     0.029 A 
ATOM     57  C   UNL A   1      43.129  28.592  33.975  1.00  0.00     0.049 A 
ATOM     58  H   UNL A   1      41.642  29.157  32.591  1.00  0.00     0.167 HD
ATOM     59  C   UNL A   1      43.605  27.200  31.980  1.00  0.00     0.074 A 
ATOM     60  C   UNL A   1      44.401  26.240  31.244  1.00  0.00     0.031 C 
ATOM     61  C   UNL A   1      43.854  27.576  33.258  1.00  0.00     0.034 A 
BRANCH  48  62
ATOM     62  C   UNL A   1      40.062  31.962  35.393  1.00  0.00     0.023 A 
ATOM     63  C   UNL A   1      40.716  33.206  35.507  1.00  0.00     0.012 A 
ATOM     64  C   UNL A   1      39.047  31.627  36.310  1.00  0.00     0.148 A 
ATOM     65  C   UNL A   1      40.393  34.086  36.539  1.00  0.00     0.002 A 
ATOM     66  C   UNL A   1      38.702  32.528  37.311  1.00  0.00     0.091 A 
ATOM     67  F   UNL A   1      38.455  30.429  36.202  1.00  0.00    -0.205 F 
ATOM     68  C   UNL A   1      39.381  33.752  37.434  1.00  0.00     0.022 A 
BRANCH  66  69
ATOM     69  S   UNL A   1      37.360  32.216  38.464  1.00  0.00     0.127 S 
ATOM     70  O   UNL A   1      36.259  32.949  37.842  1.00  0.00    -0.237 OA
ATOM     71  O   UNL A   1      37.232  30.760  38.408  1.00  0.00    -0.237 OA
ATOM     72  O   UNL A   1      37.815  32.731  39.749  1.00  0.00    -0.744 OA
ENDBRANCH  66  69
ENDBRANCH  48  62
BRANCH  49  73
ATOM     73  C   UNL A   1      42.343  26.200  27.551  1.00  0.00     0.023 A 
ATOM     74  C   UNL A   1      43.096  26.784  26.512  1.00  0.00     0.012 A 
ATOM     75  C   UNL A   1      41.991  24.840  27.460  1.00  0.00     0.148 A 
ATOM     76  C   UNL A   1      43.465  26.038  25.392  1.00  0.00     0.002 A 
ATOM     77  C   UNL A   1      42.405  24.089  26.363  1.00  0.00     0.091 A 
ATOM     78  F   UNL A   1      41.262  24.304  28.449  1.00  0.00    -0.205 F 
ATOM     79  C   UNL A   1      43.129  24.689  25.322  1.00  0.00     0.022 A 
BRANCH  77  80
ATOM     80  S   UNL A   1      42.125  22.318  26.256  1.00  0.00     0.127 S 
ATOM     81  O   UNL A   1      42.651  21.853  27.537  1.00  0.00    -0.237 OA
ATOM     82  O   UNL A   1      40.669  22.244  26.125  1.00  0.00    -0.237 OA
ATOM     83  O   UNL A   1      42.851  21.883  25.071  1.00  0.00    -0.744 OA
ENDBRANCH  77  80
ENDBRANCH  49  73
BRANCH  61  84
ATOM     84  C   UNL A   1      44.998  26.917  33.978  1.00  0.00     0.023 A 
ATOM     85  C   UNL A   1      46.274  27.511  33.949  1.00  0.00     0.012 A 
ATOM     86  C   UNL A   1      44.779  25.777  34.776  1.00  0.00     0.148 A 
ATOM     87  C   UNL A   1      47.321  26.971  34.695  1.00  0.00     0.002 A 
ATOM     88  C   UNL A   1      45.817  25.267  35.546  1.00  0.00     0.091 A 
ATOM     89  F   UNL A   1      43.561  25.217  34.769  1.00  0.00    -0.205 F 
ATOM     90  C   UNL A   1      47.089  25.859  35.502  1.00  0.00     0.022 A 
BRANCH  88  91
ATOM     91  S   UNL A   1      45.580  23.898  36.684  1.00  0.00     0.127 S 
ATOM     92  O   UNL A   1      46.927  23.724  37.225  1.00  0.00    -0.237 OA
ATOM     93  O   UNL A   1      44.608  24.443  37.633  1.00  0.00    -0.237 OA
ATOM     94  O   UNL A   1      45.078  22.792  35.880  1.00  0.00    -0.744 OA
ENDBRANCH  88  91
ENDBRANCH  61  84
ENDBRANCH  35  36
ENDBRANCH  27  30
ENDBRANCH  25  26
ENDBRANCH   1  25
TORSDOF 16
ENDMDL
