MODEL 1
REMARK VINA RESULT:     -12.4      0.000      0.000
REMARK SMILES [NH3+][C@H](CS[C@@H]1CC(=O)N(c2ccc3ccccc3c2)C1=O)C(=O)NCCCCNC(=O)c1ccc(-c2c3nc(c(-c4cccc(S(=O)(=O)[O-])c4F)c4ccc([nH]4)c(-c4cccc(S(=O)(=O)[O-])c4F)c4nc(c(-c5cccc(S(=O)(=O)[O-])c5F)c5ccc2[nH]5)C=C4)C=C3)cc1
REMARK SMILES IDX 26 1 25 2 24 3 22 4 23 5 2 7 1 8 3 12 4 13 5 14 6 15 20 16
REMARK SMILES IDX 7 17 9 18 21 19 8 20 10 21 11 22 19 23 12 24 18 25 13 26
REMARK SMILES IDX 17 27 14 28 16 29 15 30 27 31 28 32 29 33 30 34 31 36 32 37
REMARK SMILES IDX 33 38 94 39 34 40 93 41 35 42 36 43 37 44 87 45 38 46 92 47
REMARK SMILES IDX 86 48 88 49 39 50 91 51 85 52 84 53 40 55 72 56 52 57 71 58
REMARK SMILES IDX 53 59 56 60 70 61 89 62 54 63 55 64 69 66 90 67 57 68 41 69
REMARK SMILES IDX 42 70 50 71 43 72 45 73 51 74 44 75 46 76 47 77 48 78 49 79
REMARK SMILES IDX 73 80 74 81 82 82 75 83 77 84 83 85 76 86 78 87 79 88 80 89
REMARK SMILES IDX 81 90 58 91 59 92 67 93 60 94 62 95 68 96 61 97 63 98 64 99
REMARK SMILES IDX 65 100 66 101
REMARK H PARENT 24 6 1 9 1 10 1 11 29 35 88 54 56 65
REMARK Flexibility Score: inf
ROOT
ATOM      1  C   UNL A   1      33.656  28.933  24.413  1.00  0.00     0.023 C 
ENDROOT
BRANCH   1   2
ATOM      2  C   UNL A   1      33.582  28.524  22.950  1.00  0.00     0.116 C 
BRANCH   2   3
ATOM      3  N   UNL A   1      32.219  28.553  22.454  1.00  0.00    -0.351 N 
ATOM      4  C   UNL A   1      31.254  27.592  22.436  1.00  0.00     0.279 C 
ATOM      5  O   UNL A   1      30.168  27.869  21.922  1.00  0.00    -0.268 OA
ATOM      6  H   UNL A   1      31.946  29.414  22.063  1.00  0.00     0.163 HD
BRANCH   4   7
ATOM      7  C   UNL A   1      31.497  26.213  23.071  1.00  0.00     0.280 C 
BRANCH   7   8
ATOM      8  N   UNL A   1      31.701  25.207  21.997  1.00  0.00    -0.347 N 
ATOM      9  H   UNL A   1      32.513  24.631  22.220  1.00  0.00     0.345 HD
ATOM     10  H   UNL A   1      31.855  25.684  21.108  1.00  0.00     0.345 HD
ATOM     11  H   UNL A   1      30.873  24.614  21.925  1.00  0.00     0.345 HD
ENDBRANCH   7   8
BRANCH   7  12
ATOM     12  C   UNL A   1      30.396  25.905  24.106  1.00  0.00     0.145 C 
BRANCH  12  13
ATOM     13  S   UNL A   1      30.799  26.279  25.848  1.00  0.00    -0.141 SA
BRANCH  13  14
ATOM     14  C   UNL A   1      31.958  24.931  26.233  1.00  0.00     0.146 C 
ATOM     15  C   UNL A   1      33.346  25.123  25.666  1.00  0.00     0.125 C 
ATOM     16  C   UNL A   1      31.473  23.642  25.638  1.00  0.00     0.247 C 
ATOM     17  C   UNL A   1      33.689  23.771  25.110  1.00  0.00     0.235 C 
ATOM     18  N   UNL A   1      32.545  23.011  25.041  1.00  0.00    -0.250 N 
ATOM     19  O   UNL A   1      30.340  23.210  25.815  1.00  0.00    -0.273 OA
ATOM     20  O   UNL A   1      34.821  23.490  24.732  1.00  0.00    -0.274 OA
BRANCH  18  21
ATOM     21  C   UNL A   1      32.458  21.693  24.522  1.00  0.00     0.052 A 
ATOM     22  C   UNL A   1      32.182  21.444  23.174  1.00  0.00     0.027 A 
ATOM     23  C   UNL A   1      32.708  20.595  25.360  1.00  0.00     0.035 A 
ATOM     24  C   UNL A   1      32.231  20.139  22.667  1.00  0.00     0.011 A 
ATOM     25  C   UNL A   1      32.752  19.286  24.873  1.00  0.00    -0.016 A 
ATOM     26  C   UNL A   1      32.529  19.050  23.503  1.00  0.00    -0.018 A 
ATOM     27  C   UNL A   1      33.034  18.215  25.734  1.00  0.00     0.009 A 
ATOM     28  C   UNL A   1      32.618  17.735  23.020  1.00  0.00     0.009 A 
ATOM     29  C   UNL A   1      33.113  16.916  25.241  1.00  0.00     0.001 A 
ATOM     30  C   UNL A   1      32.910  16.677  23.885  1.00  0.00     0.001 A 
ENDBRANCH  18  21
ENDBRANCH  13  14
ENDBRANCH  12  13
ENDBRANCH   7  12
ENDBRANCH   4   7
ENDBRANCH   2   3
ENDBRANCH   1   2
BRANCH   1  31
ATOM     31  C   UNL A   1      32.404  29.646  24.921  1.00  0.00     0.023 C 
BRANCH  31  32
ATOM     32  C   UNL A   1      32.429  29.995  26.404  1.00  0.00     0.116 C 
BRANCH  32  33
ATOM     33  N   UNL A   1      32.318  31.428  26.646  1.00  0.00    -0.352 N 
ATOM     34  C   UNL A   1      33.148  32.232  27.389  1.00  0.00     0.251 C 
ATOM     35  H   UNL A   1      31.550  31.876  26.224  1.00  0.00     0.163 HD
ATOM     36  O   UNL A   1      32.835  33.395  27.625  1.00  0.00    -0.269 OA
BRANCH  34  37
ATOM     37  C   UNL A   1      34.403  31.666  27.920  1.00  0.00     0.039 A 
ATOM     38  C   UNL A   1      35.511  32.500  28.075  1.00  0.00     0.014 A 
ATOM     39  C   UNL A   1      34.455  30.328  28.324  1.00  0.00     0.014 A 
ATOM     40  C   UNL A   1      36.657  32.005  28.699  1.00  0.00     0.010 A 
ATOM     41  C   UNL A   1      35.567  29.865  29.017  1.00  0.00     0.010 A 
ATOM     42  C   UNL A   1      36.682  30.696  29.207  1.00  0.00    -0.014 A 
BRANCH  42  43
ATOM     43  C   UNL A   1      37.858  30.179  29.952  1.00  0.00     0.031 A 
ATOM     44  C   UNL A   1      38.136  30.661  31.350  1.00  0.00     0.074 A 
ATOM     45  C   UNL A   1      38.722  29.346  29.340  1.00  0.00     0.049 A 
ATOM     46  N   UNL A   1      39.141  30.375  32.136  1.00  0.00    -0.248 NA
ATOM     47  C   UNL A   1      37.174  31.614  31.932  1.00  0.00     0.031 C 
ATOM     48  C   UNL A   1      38.609  28.875  27.958  1.00  0.00     0.029 A 
ATOM     49  N   UNL A   1      39.883  28.771  29.792  1.00  0.00    -0.354 N 
ATOM     50  C   UNL A   1      38.953  31.132  33.285  1.00  0.00     0.074 A 
ATOM     51  C   UNL A   1      37.760  31.923  33.080  1.00  0.00     0.031 C 
ATOM     52  C   UNL A   1      39.656  28.082  27.676  1.00  0.00     0.029 A 
ATOM     53  C   UNL A   1      40.528  28.012  28.843  1.00  0.00     0.049 A 
ATOM     54  H   UNL A   1      40.222  28.890  30.708  1.00  0.00     0.167 HD
ATOM     55  C   UNL A   1      39.686  31.143  34.423  1.00  0.00     0.034 A 
ATOM     56  C   UNL A   1      41.697  27.343  28.903  1.00  0.00     0.034 A 
ATOM     57  C   UNL A   1      40.848  30.326  34.639  1.00  0.00     0.049 A 
ATOM     58  C   UNL A   1      42.473  27.342  30.192  1.00  0.00     0.074 A 
ATOM     59  C   UNL A   1      41.612  30.203  35.786  1.00  0.00     0.029 A 
ATOM     60  N   UNL A   1      41.422  29.498  33.687  1.00  0.00    -0.354 N 
ATOM     61  N   UNL A   1      42.192  27.940  31.324  1.00  0.00    -0.248 NA
ATOM     62  C   UNL A   1      43.707  26.543  30.226  1.00  0.00     0.031 C 
ATOM     63  C   UNL A   1      42.661  29.318  35.520  1.00  0.00     0.029 A 
ATOM     64  C   UNL A   1      42.533  28.866  34.216  1.00  0.00     0.049 A 
ATOM     65  H   UNL A   1      41.087  29.377  32.769  1.00  0.00     0.167 HD
ATOM     66  C   UNL A   1      43.191  27.563  32.215  1.00  0.00     0.074 A 
ATOM     67  C   UNL A   1      44.073  26.665  31.495  1.00  0.00     0.031 C 
ATOM     68  C   UNL A   1      43.371  27.934  33.505  1.00  0.00     0.034 A 
BRANCH  55  69
ATOM     69  C   UNL A   1      39.217  32.032  35.547  1.00  0.00     0.023 A 
ATOM     70  C   UNL A   1      38.304  31.527  36.496  1.00  0.00     0.012 A 
ATOM     71  C   UNL A   1      39.719  33.339  35.698  1.00  0.00     0.148 A 
ATOM     72  C   UNL A   1      37.868  32.321  37.555  1.00  0.00     0.002 A 
ATOM     73  C   UNL A   1      39.315  34.107  36.783  1.00  0.00     0.091 A 
ATOM     74  F   UNL A   1      40.569  33.809  34.775  1.00  0.00    -0.205 F 
ATOM     75  C   UNL A   1      38.381  33.605  37.706  1.00  0.00     0.022 A 
BRANCH  73  76
ATOM     76  S   UNL A   1      39.977  35.744  37.112  1.00  0.00     0.127 S 
ATOM     77  O   UNL A   1      41.398  35.455  37.300  1.00  0.00    -0.237 OA
ATOM     78  O   UNL A   1      39.658  36.459  35.876  1.00  0.00    -0.237 OA
ATOM     79  O   UNL A   1      39.279  36.230  38.294  1.00  0.00    -0.744 OA
ENDBRANCH  73  76
ENDBRANCH  55  69
BRANCH  56  80
ATOM     80  C   UNL A   1      42.176  26.571  27.720  1.00  0.00     0.023 A 
ATOM     81  C   UNL A   1      42.977  27.209  26.754  1.00  0.00     0.012 A 
ATOM     82  C   UNL A   1      41.862  25.208  27.561  1.00  0.00     0.148 A 
ATOM     83  C   UNL A   1      43.430  26.513  25.632  1.00  0.00     0.002 A 
ATOM     84  C   UNL A   1      42.363  24.506  26.471  1.00  0.00     0.091 A 
ATOM     85  F   UNL A   1      41.088  24.622  28.485  1.00  0.00    -0.205 F 
ATOM     86  C   UNL A   1      43.131  25.161  25.496  1.00  0.00     0.022 A 
BRANCH  84  87
ATOM     87  S   UNL A   1      42.143  22.733  26.287  1.00  0.00     0.127 S 
ATOM     88  O   UNL A   1      42.787  22.484  25.000  1.00  0.00    -0.237 OA
ATOM     89  O   UNL A   1      42.867  22.217  27.449  1.00  0.00    -0.237 OA
ATOM     90  O   UNL A   1      40.704  22.509  26.330  1.00  0.00    -0.744 OA
ENDBRANCH  84  87
ENDBRANCH  56  80
BRANCH  68  91
ATOM     91  C   UNL A   1      44.543  27.345  34.247  1.00  0.00     0.023 A 
ATOM     92  C   UNL A   1      45.789  28.003  34.229  1.00  0.00     0.012 A 
ATOM     93  C   UNL A   1      44.386  26.180  35.024  1.00  0.00     0.148 A 
ATOM     94  C   UNL A   1      46.869  27.491  34.946  1.00  0.00     0.002 A 
ATOM     95  C   UNL A   1      45.452  25.704  35.776  1.00  0.00     0.091 A 
ATOM     96  F   UNL A   1      43.197  25.559  35.011  1.00  0.00    -0.205 F 
ATOM     97  C   UNL A   1      46.698  26.350  35.728  1.00  0.00     0.022 A 
BRANCH  95  98
ATOM     98  S   UNL A   1      45.297  24.301  36.886  1.00  0.00     0.127 S 
ATOM     99  O   UNL A   1      44.279  24.774  37.823  1.00  0.00    -0.237 OA
ATOM    100  O   UNL A   1      44.849  23.240  35.983  1.00  0.00    -0.237 OA
ATOM    101  O   UNL A   1      46.620  24.091  37.457  1.00  0.00    -0.744 OA
ENDBRANCH  95  98
ENDBRANCH  68  91
ENDBRANCH  42  43
ENDBRANCH  34  37
ENDBRANCH  32  33
ENDBRANCH  31  32
ENDBRANCH   1  31
TORSDOF 19
ENDMDL
MODEL 2
REMARK VINA RESULT:     -12.3      2.233      7.669
REMARK SMILES [NH3+][C@H](CS[C@@H]1CC(=O)N(c2ccc3ccccc3c2)C1=O)C(=O)NCCCCNC(=O)c1ccc(-c2c3nc(c(-c4cccc(S(=O)(=O)[O-])c4F)c4ccc([nH]4)c(-c4cccc(S(=O)(=O)[O-])c4F)c4nc(c(-c5cccc(S(=O)(=O)[O-])c5F)c5ccc2[nH]5)C=C4)C=C3)cc1
REMARK SMILES IDX 26 1 25 2 24 3 22 4 23 5 2 7 1 8 3 12 4 13 5 14 6 15 20 16
REMARK SMILES IDX 7 17 9 18 21 19 8 20 10 21 11 22 19 23 12 24 18 25 13 26
REMARK SMILES IDX 17 27 14 28 16 29 15 30 27 31 28 32 29 33 30 34 31 36 32 37
REMARK SMILES IDX 33 38 94 39 34 40 93 41 35 42 36 43 37 44 87 45 38 46 92 47
REMARK SMILES IDX 86 48 88 49 39 50 91 51 85 52 84 53 40 55 72 56 52 57 71 58
REMARK SMILES IDX 53 59 56 60 70 61 89 62 54 63 55 64 69 66 90 67 57 68 41 69
REMARK SMILES IDX 42 70 50 71 43 72 45 73 51 74 44 75 46 76 47 77 48 78 49 79
REMARK SMILES IDX 73 80 74 81 82 82 75 83 77 84 83 85 76 86 78 87 79 88 80 89
REMARK SMILES IDX 81 90 58 91 59 92 67 93 60 94 62 95 68 96 61 97 63 98 64 99
REMARK SMILES IDX 65 100 66 101
REMARK H PARENT 24 6 1 9 1 10 1 11 29 35 88 54 56 65
REMARK Flexibility Score: inf
ROOT
ATOM      1  C   UNL A   1      31.329  31.203  25.879  1.00  0.00     0.023 C 
ENDROOT
BRANCH   1   2
ATOM      2  C   UNL A   1      31.770  29.907  25.215  1.00  0.00     0.116 C 
BRANCH   2   3
ATOM      3  N   UNL A   1      30.949  29.591  24.062  1.00  0.00    -0.351 N 
ATOM      4  C   UNL A   1      31.040  28.584  23.149  1.00  0.00     0.279 C 
ATOM      5  O   UNL A   1      30.216  28.556  22.232  1.00  0.00    -0.268 OA
ATOM      6  H   UNL A   1      30.198  30.210  23.914  1.00  0.00     0.163 HD
BRANCH   4   7
ATOM      7  C   UNL A   1      32.114  27.492  23.278  1.00  0.00     0.280 C 
BRANCH   7   8
ATOM      8  N   UNL A   1      32.621  27.140  21.926  1.00  0.00    -0.347 N 
ATOM      9  H   UNL A   1      32.310  27.840  21.253  1.00  0.00     0.345 HD
ATOM     10  H   UNL A   1      32.262  26.223  21.656  1.00  0.00     0.345 HD
ATOM     11  H   UNL A   1      33.641  27.113  21.942  1.00  0.00     0.345 HD
ENDBRANCH   7   8
BRANCH   7  12
ATOM     12  C   UNL A   1      31.587  26.328  24.142  1.00  0.00     0.145 C 
BRANCH  12  13
ATOM     13  S   UNL A   1      32.234  26.233  25.848  1.00  0.00    -0.141 SA
BRANCH  13  14
ATOM     14  C   UNL A   1      33.512  24.951  25.662  1.00  0.00     0.146 C 
ATOM     15  C   UNL A   1      34.403  25.132  24.455  1.00  0.00     0.125 C 
ATOM     16  C   UNL A   1      32.876  23.606  25.475  1.00  0.00     0.247 C 
ATOM     17  C   UNL A   1      34.502  23.748  23.881  1.00  0.00     0.235 C 
ATOM     18  N   UNL A   1      33.534  22.956  24.451  1.00  0.00    -0.250 N 
ATOM     19  O   UNL A   1      32.020  23.161  26.232  1.00  0.00    -0.273 OA
ATOM     20  O   UNL A   1      35.300  23.466  22.994  1.00  0.00    -0.274 OA
BRANCH  18  21
ATOM     21  C   UNL A   1      33.279  21.597  24.127  1.00  0.00     0.052 A 
ATOM     22  C   UNL A   1      32.281  21.226  23.222  1.00  0.00     0.027 A 
ATOM     23  C   UNL A   1      34.082  20.587  24.679  1.00  0.00     0.035 A 
ATOM     24  C   UNL A   1      32.141  19.889  22.826  1.00  0.00     0.011 A 
ATOM     25  C   UNL A   1      33.951  19.247  24.302  1.00  0.00    -0.016 A 
ATOM     26  C   UNL A   1      32.979  18.890  23.347  1.00  0.00    -0.018 A 
ATOM     27  C   UNL A   1      34.790  18.267  24.852  1.00  0.00     0.009 A 
ATOM     28  C   UNL A   1      32.887  17.548  22.947  1.00  0.00     0.009 A 
ATOM     29  C   UNL A   1      34.682  16.939  24.449  1.00  0.00     0.001 A 
ATOM     30  C   UNL A   1      33.735  16.581  23.493  1.00  0.00     0.001 A 
ENDBRANCH  18  21
ENDBRANCH  13  14
ENDBRANCH  12  13
ENDBRANCH   7  12
ENDBRANCH   4   7
ENDBRANCH   2   3
ENDBRANCH   1   2
BRANCH   1  31
ATOM     31  C   UNL A   1      31.959  31.442  27.250  1.00  0.00     0.023 C 
BRANCH  31  32
ATOM     32  C   UNL A   1      33.118  32.429  27.254  1.00  0.00     0.116 C 
BRANCH  32  33
ATOM     33  N   UNL A   1      32.695  33.793  27.549  1.00  0.00    -0.352 N 
ATOM     34  C   UNL A   1      33.133  34.622  28.552  1.00  0.00     0.251 C 
ATOM     35  H   UNL A   1      32.006  34.166  26.953  1.00  0.00     0.163 HD
ATOM     36  O   UNL A   1      32.568  35.689  28.765  1.00  0.00    -0.269 OA
BRANCH  34  37
ATOM     37  C   UNL A   1      34.274  34.193  29.385  1.00  0.00     0.039 A 
ATOM     38  C   UNL A   1      34.028  33.451  30.541  1.00  0.00     0.014 A 
ATOM     39  C   UNL A   1      35.583  34.471  28.982  1.00  0.00     0.014 A 
ATOM     40  C   UNL A   1      35.104  32.930  31.262  1.00  0.00     0.010 A 
ATOM     41  C   UNL A   1      36.647  33.882  29.654  1.00  0.00     0.010 A 
ATOM     42  C   UNL A   1      36.420  33.110  30.804  1.00  0.00    -0.014 A 
BRANCH  42  43
ATOM     43  C   UNL A   1      37.572  32.489  31.505  1.00  0.00     0.031 A 
ATOM     44  C   UNL A   1      38.311  31.341  30.872  1.00  0.00     0.074 A 
ATOM     45  C   UNL A   1      37.897  32.899  32.747  1.00  0.00     0.049 A 
ATOM     46  N   UNL A   1      39.298  30.633  31.352  1.00  0.00    -0.248 NA
ATOM     47  C   UNL A   1      37.862  30.914  29.535  1.00  0.00     0.031 C 
ATOM     48  C   UNL A   1      37.201  33.943  33.504  1.00  0.00     0.029 A 
ATOM     49  N   UNL A   1      38.876  32.466  33.605  1.00  0.00    -0.354 N 
ATOM     50  C   UNL A   1      39.567  29.660  30.397  1.00  0.00     0.074 A 
ATOM     51  C   UNL A   1      38.611  29.842  29.328  1.00  0.00     0.031 C 
ATOM     52  C   UNL A   1      37.778  34.071  34.710  1.00  0.00     0.029 A 
ATOM     53  C   UNL A   1      38.861  33.100  34.826  1.00  0.00     0.049 A 
ATOM     54  H   UNL A   1      39.528  31.768  33.370  1.00  0.00     0.167 HD
ATOM     55  C   UNL A   1      40.542  28.720  30.394  1.00  0.00     0.034 A 
ATOM     56  C   UNL A   1      39.627  32.914  35.919  1.00  0.00     0.034 A 
ATOM     57  C   UNL A   1      41.515  28.567  31.440  1.00  0.00     0.049 A 
ATOM     58  C   UNL A   1      40.728  31.889  35.875  1.00  0.00     0.074 A 
ATOM     59  C   UNL A   1      42.593  27.702  31.492  1.00  0.00     0.029 A 
ATOM     60  N   UNL A   1      41.526  29.290  32.623  1.00  0.00    -0.354 N 
ATOM     61  N   UNL A   1      41.067  31.086  34.896  1.00  0.00    -0.248 NA
ATOM     62  C   UNL A   1      41.576  31.772  37.069  1.00  0.00     0.031 C 
ATOM     63  C   UNL A   1      43.242  27.885  32.717  1.00  0.00     0.029 A 
ATOM     64  C   UNL A   1      42.586  28.887  33.415  1.00  0.00     0.049 A 
ATOM     65  H   UNL A   1      40.874  29.989  32.864  1.00  0.00     0.167 HD
ATOM     66  C   UNL A   1      42.188  30.394  35.341  1.00  0.00     0.074 A 
ATOM     67  C   UNL A   1      42.483  30.890  36.670  1.00  0.00     0.031 C 
ATOM     68  C   UNL A   1      42.900  29.426  34.714  1.00  0.00     0.034 A 
BRANCH  55  69
ATOM     69  C   UNL A   1      40.638  27.818  29.190  1.00  0.00     0.023 A 
ATOM     70  C   UNL A   1      39.808  26.680  29.107  1.00  0.00     0.012 A 
ATOM     71  C   UNL A   1      41.501  28.123  28.120  1.00  0.00     0.148 A 
ATOM     72  C   UNL A   1      39.864  25.839  27.997  1.00  0.00     0.002 A 
ATOM     73  C   UNL A   1      41.516  27.306  26.996  1.00  0.00     0.091 A 
ATOM     74  F   UNL A   1      42.297  29.197  28.225  1.00  0.00    -0.205 F 
ATOM     75  C   UNL A   1      40.707  26.158  26.938  1.00  0.00     0.022 A 
BRANCH  73  76
ATOM     76  S   UNL A   1      42.508  27.672  25.544  1.00  0.00     0.127 S 
ATOM     77  O   UNL A   1      41.926  28.938  25.101  1.00  0.00    -0.237 OA
ATOM     78  O   UNL A   1      43.853  27.783  26.110  1.00  0.00    -0.237 OA
ATOM     79  O   UNL A   1      42.321  26.549  24.636  1.00  0.00    -0.744 OA
ENDBRANCH  73  76
ENDBRANCH  55  69
BRANCH  56  80
ATOM     80  C   UNL A   1      39.414  33.757  37.130  1.00  0.00     0.023 A 
ATOM     81  C   UNL A   1      39.878  35.087  37.140  1.00  0.00     0.012 A 
ATOM     82  C   UNL A   1      38.735  33.259  38.259  1.00  0.00     0.148 A 
ATOM     83  C   UNL A   1      39.701  35.895  38.264  1.00  0.00     0.002 A 
ATOM     84  C   UNL A   1      38.512  34.086  39.353  1.00  0.00     0.091 A 
ATOM     85  F   UNL A   1      38.312  31.988  38.235  1.00  0.00    -0.205 F 
ATOM     86  C   UNL A   1      39.010  35.398  39.366  1.00  0.00     0.022 A 
BRANCH  84  87
ATOM     87  S   UNL A   1      37.515  33.574  40.758  1.00  0.00     0.127 S 
ATOM     88  O   UNL A   1      36.314  33.066  40.102  1.00  0.00    -0.237 OA
ATOM     89  O   UNL A   1      38.363  32.551  41.371  1.00  0.00    -0.237 OA
ATOM     90  O   UNL A   1      37.338  34.770  41.569  1.00  0.00    -0.744 OA
ENDBRANCH  84  87
ENDBRANCH  56  80
BRANCH  68  91
ATOM     91  C   UNL A   1      44.097  28.860  35.432  1.00  0.00     0.023 A 
ATOM     92  C   UNL A   1      45.368  29.441  35.246  1.00  0.00     0.012 A 
ATOM     93  C   UNL A   1      43.947  27.802  36.351  1.00  0.00     0.148 A 
ATOM     94  C   UNL A   1      46.476  28.953  35.938  1.00  0.00     0.002 A 
ATOM     95  C   UNL A   1      45.046  27.356  37.074  1.00  0.00     0.091 A 
ATOM     96  F   UNL A   1      42.732  27.252  36.499  1.00  0.00    -0.205 F 
ATOM     97  C   UNL A   1      46.313  27.921  36.859  1.00  0.00     0.022 A 
BRANCH  95  98
ATOM     98  S   UNL A   1      44.912  26.100  38.350  1.00  0.00     0.127 S 
ATOM     99  O   UNL A   1      43.929  26.697  39.254  1.00  0.00    -0.237 OA
ATOM    100  O   UNL A   1      44.425  24.944  37.597  1.00  0.00    -0.237 OA
ATOM    101  O   UNL A   1      46.251  25.942  38.901  1.00  0.00    -0.744 OA
ENDBRANCH  95  98
ENDBRANCH  68  91
ENDBRANCH  42  43
ENDBRANCH  34  37
ENDBRANCH  32  33
ENDBRANCH  31  32
ENDBRANCH   1  31
TORSDOF 19
ENDMDL
MODEL 3
REMARK VINA RESULT:     -12.3      1.946      2.645
REMARK SMILES [NH3+][C@H](CS[C@@H]1CC(=O)N(c2ccc3ccccc3c2)C1=O)C(=O)NCCCCNC(=O)c1ccc(-c2c3nc(c(-c4cccc(S(=O)(=O)[O-])c4F)c4ccc([nH]4)c(-c4cccc(S(=O)(=O)[O-])c4F)c4nc(c(-c5cccc(S(=O)(=O)[O-])c5F)c5ccc2[nH]5)C=C4)C=C3)cc1
REMARK SMILES IDX 26 1 25 2 24 3 22 4 23 5 2 7 1 8 3 12 4 13 5 14 6 15 20 16
REMARK SMILES IDX 7 17 9 18 21 19 8 20 10 21 11 22 19 23 12 24 18 25 13 26
REMARK SMILES IDX 17 27 14 28 16 29 15 30 27 31 28 32 29 33 30 34 31 36 32 37
REMARK SMILES IDX 33 38 94 39 34 40 93 41 35 42 36 43 37 44 87 45 38 46 92 47
REMARK SMILES IDX 86 48 88 49 39 50 91 51 85 52 84 53 40 55 72 56 52 57 71 58
REMARK SMILES IDX 53 59 56 60 70 61 89 62 54 63 55 64 69 66 90 67 57 68 41 69
REMARK SMILES IDX 42 70 50 71 43 72 45 73 51 74 44 75 46 76 47 77 48 78 49 79
REMARK SMILES IDX 73 80 74 81 82 82 75 83 77 84 83 85 76 86 78 87 79 88 80 89
REMARK SMILES IDX 81 90 58 91 59 92 67 93 60 94 62 95 68 96 61 97 63 98 64 99
REMARK SMILES IDX 65 100 66 101
REMARK H PARENT 24 6 1 9 1 10 1 11 29 35 88 54 56 65
REMARK Flexibility Score: inf
ROOT
ATOM      1  C   UNL A   1      32.012  27.772  27.040  1.00  0.00     0.023 C 
ENDROOT
BRANCH   1   2
ATOM      2  C   UNL A   1      30.702  27.001  26.985  1.00  0.00     0.116 C 
BRANCH   2   3
ATOM      3  N   UNL A   1      30.790  25.861  26.094  1.00  0.00    -0.351 N 
ATOM      4  C   UNL A   1      30.284  25.661  24.845  1.00  0.00     0.279 C 
ATOM      5  O   UNL A   1      30.482  24.570  24.305  1.00  0.00    -0.268 OA
ATOM      6  H   UNL A   1      31.302  25.100  26.453  1.00  0.00     0.163 HD
BRANCH   4   7
ATOM      7  C   UNL A   1      29.519  26.776  24.111  1.00  0.00     0.280 C 
BRANCH   7   8
ATOM      8  N   UNL A   1      28.119  26.338  23.875  1.00  0.00    -0.347 N 
ATOM      9  H   UNL A   1      27.616  27.067  23.369  1.00  0.00     0.345 HD
ATOM     10  H   UNL A   1      27.661  26.166  24.771  1.00  0.00     0.345 HD
ATOM     11  H   UNL A   1      28.120  25.479  23.324  1.00  0.00     0.345 HD
ENDBRANCH   7   8
BRANCH   7  12
ATOM     12  C   UNL A   1      30.316  27.240  22.875  1.00  0.00     0.145 C 
BRANCH  12  13
ATOM     13  S   UNL A   1      31.837  28.195  23.208  1.00  0.00    -0.141 SA
BRANCH  13  14
ATOM     14  C   UNL A   1      33.102  27.082  22.520  1.00  0.00     0.146 C 
ATOM     15  C   UNL A   1      32.657  26.319  21.294  1.00  0.00     0.125 C 
ATOM     16  C   UNL A   1      33.466  26.027  23.521  1.00  0.00     0.247 C 
ATOM     17  C   UNL A   1      33.157  24.926  21.547  1.00  0.00     0.235 C 
ATOM     18  N   UNL A   1      33.517  24.812  22.869  1.00  0.00    -0.250 N 
ATOM     19  O   UNL A   1      33.795  26.285  24.673  1.00  0.00    -0.273 OA
ATOM     20  O   UNL A   1      33.146  24.061  20.678  1.00  0.00    -0.274 OA
BRANCH  18  21
ATOM     21  C   UNL A   1      33.988  23.631  23.500  1.00  0.00     0.052 A 
ATOM     22  C   UNL A   1      33.117  22.651  23.984  1.00  0.00     0.027 A 
ATOM     23  C   UNL A   1      35.368  23.396  23.598  1.00  0.00     0.035 A 
ATOM     24  C   UNL A   1      33.614  21.440  24.482  1.00  0.00     0.011 A 
ATOM     25  C   UNL A   1      35.882  22.198  24.102  1.00  0.00    -0.016 A 
ATOM     26  C   UNL A   1      34.995  21.193  24.535  1.00  0.00    -0.018 A 
ATOM     27  C   UNL A   1      37.267  21.985  24.158  1.00  0.00     0.009 A 
ATOM     28  C   UNL A   1      35.525  19.979  24.998  1.00  0.00     0.009 A 
ATOM     29  C   UNL A   1      37.777  20.778  24.626  1.00  0.00     0.001 A 
ATOM     30  C   UNL A   1      36.906  19.773  25.041  1.00  0.00     0.001 A 
ENDBRANCH  18  21
ENDBRANCH  13  14
ENDBRANCH  12  13
ENDBRANCH   7  12
ENDBRANCH   4   7
ENDBRANCH   2   3
ENDBRANCH   1   2
BRANCH   1  31
ATOM     31  C   UNL A   1      31.838  29.281  27.190  1.00  0.00     0.023 C 
BRANCH  31  32
ATOM     32  C   UNL A   1      32.888  30.118  26.471  1.00  0.00     0.116 C 
BRANCH  32  33
ATOM     33  N   UNL A   1      32.813  31.532  26.815  1.00  0.00    -0.352 N 
ATOM     34  C   UNL A   1      33.666  32.262  27.607  1.00  0.00     0.251 C 
ATOM     35  H   UNL A   1      32.053  32.027  26.433  1.00  0.00     0.163 HD
ATOM     36  O   UNL A   1      33.383  33.411  27.928  1.00  0.00    -0.269 OA
BRANCH  34  37
ATOM     37  C   UNL A   1      34.911  31.630  28.086  1.00  0.00     0.039 A 
ATOM     38  C   UNL A   1      36.072  32.400  28.175  1.00  0.00     0.014 A 
ATOM     39  C   UNL A   1      34.906  30.297  28.506  1.00  0.00     0.014 A 
ATOM     40  C   UNL A   1      37.217  31.847  28.750  1.00  0.00     0.010 A 
ATOM     41  C   UNL A   1      36.022  29.778  29.152  1.00  0.00     0.010 A 
ATOM     42  C   UNL A   1      37.191  30.545  29.276  1.00  0.00    -0.014 A 
BRANCH  42  43
ATOM     43  C   UNL A   1      38.370  29.969  29.971  1.00  0.00     0.031 A 
ATOM     44  C   UNL A   1      38.736  30.442  31.352  1.00  0.00     0.074 A 
ATOM     45  C   UNL A   1      39.161  29.089  29.326  1.00  0.00     0.049 A 
ATOM     46  N   UNL A   1      39.758  30.105  32.094  1.00  0.00    -0.248 NA
ATOM     47  C   UNL A   1      37.853  31.447  31.970  1.00  0.00     0.031 C 
ATOM     48  C   UNL A   1      38.962  28.619  27.953  1.00  0.00     0.029 A 
ATOM     49  N   UNL A   1      40.309  28.455  29.729  1.00  0.00    -0.354 N 
ATOM     50  C   UNL A   1      39.662  30.876  33.245  1.00  0.00     0.074 A 
ATOM     51  C   UNL A   1      38.505  31.728  33.088  1.00  0.00     0.031 C 
ATOM     52  C   UNL A   1      39.951  27.771  27.631  1.00  0.00     0.029 A 
ATOM     53  C   UNL A   1      40.871  27.659  28.758  1.00  0.00     0.049 A 
ATOM     54  H   UNL A   1      40.695  28.560  30.628  1.00  0.00     0.167 HD
ATOM     55  C   UNL A   1      40.445  30.853  34.350  1.00  0.00     0.034 A 
ATOM     56  C   UNL A   1      42.004  26.930  28.770  1.00  0.00     0.034 A 
ATOM     57  C   UNL A   1      41.571  29.977  34.519  1.00  0.00     0.049 A 
ATOM     58  C   UNL A   1      42.836  26.893  30.023  1.00  0.00     0.074 A 
ATOM     59  C   UNL A   1      42.378  29.818  35.632  1.00  0.00     0.029 A 
ATOM     60  N   UNL A   1      42.057  29.115  33.548  1.00  0.00    -0.354 N 
ATOM     61  N   UNL A   1      42.637  27.509  31.163  1.00  0.00    -0.248 NA
ATOM     62  C   UNL A   1      44.025  26.030  30.007  1.00  0.00     0.031 C 
ATOM     63  C   UNL A   1      43.366  28.877  35.324  1.00  0.00     0.029 A 
ATOM     64  C   UNL A   1      43.156  28.427  34.031  1.00  0.00     0.049 A 
ATOM     65  H   UNL A   1      41.676  29.009  32.646  1.00  0.00     0.167 HD
ATOM     66  C   UNL A   1      43.654  27.083  32.010  1.00  0.00     0.074 A 
ATOM     67  C   UNL A   1      44.454  26.137  31.257  1.00  0.00     0.031 C 
ATOM     68  C   UNL A   1      43.911  27.450  33.289  1.00  0.00     0.034 A 
BRANCH  55  69
ATOM     69  C   UNL A   1      40.075  31.770  35.487  1.00  0.00     0.023 A 
ATOM     70  C   UNL A   1      40.703  33.028  35.599  1.00  0.00     0.012 A 
ATOM     71  C   UNL A   1      39.070  31.416  36.408  1.00  0.00     0.148 A 
ATOM     72  C   UNL A   1      40.366  33.902  36.630  1.00  0.00     0.002 A 
ATOM     73  C   UNL A   1      38.706  32.312  37.406  1.00  0.00     0.091 A 
ATOM     74  F   UNL A   1      38.499  30.208  36.300  1.00  0.00    -0.205 F 
ATOM     75  C   UNL A   1      39.361  33.550  37.526  1.00  0.00     0.022 A 
BRANCH  73  76
ATOM     76  S   UNL A   1      37.370  31.989  38.561  1.00  0.00     0.127 S 
ATOM     77  O   UNL A   1      37.999  32.317  39.840  1.00  0.00    -0.237 OA
ATOM     78  O   UNL A   1      36.347  32.939  38.123  1.00  0.00    -0.237 OA
ATOM     79  O   UNL A   1      37.015  30.588  38.383  1.00  0.00    -0.744 OA
ENDBRANCH  73  76
ENDBRANCH  55  69
BRANCH  56  80
ATOM     80  C   UNL A   1      42.387  26.129  27.572  1.00  0.00     0.023 A 
ATOM     81  C   UNL A   1      43.156  26.727  26.555  1.00  0.00     0.012 A 
ATOM     82  C   UNL A   1      42.017  24.776  27.447  1.00  0.00     0.148 A 
ATOM     83  C   UNL A   1      43.520  26.003  25.418  1.00  0.00     0.002 A 
ATOM     84  C   UNL A   1      42.431  24.045  26.340  1.00  0.00     0.091 A 
ATOM     85  F   UNL A   1      41.276  24.229  28.420  1.00  0.00    -0.205 F 
ATOM     86  C   UNL A   1      43.166  24.661  25.316  1.00  0.00     0.022 A 
BRANCH  84  87
ATOM     87  S   UNL A   1      42.137  22.279  26.190  1.00  0.00     0.127 S 
ATOM     88  O   UNL A   1      42.637  21.783  27.469  1.00  0.00    -0.237 OA
ATOM     89  O   UNL A   1      40.683  22.228  26.035  1.00  0.00    -0.237 OA
ATOM     90  O   UNL A   1      42.880  21.857  25.011  1.00  0.00    -0.744 OA
ENDBRANCH  84  87
ENDBRANCH  56  80
BRANCH  68  91
ATOM     91  C   UNL A   1      45.082  26.803  33.981  1.00  0.00     0.023 A 
ATOM     92  C   UNL A   1      46.349  27.419  33.946  1.00  0.00     0.012 A 
ATOM     93  C   UNL A   1      44.907  25.622  34.732  1.00  0.00     0.148 A 
ATOM     94  C   UNL A   1      47.431  26.852  34.618  1.00  0.00     0.002 A 
ATOM     95  C   UNL A   1      45.977  25.092  35.440  1.00  0.00     0.091 A 
ATOM     96  F   UNL A   1      43.698  25.042  34.737  1.00  0.00    -0.205 F 
ATOM     97  C   UNL A   1      47.242  25.697  35.375  1.00  0.00     0.022 A 
BRANCH  95  98
ATOM     98  S   UNL A   1      45.805  23.665  36.518  1.00  0.00     0.127 S 
ATOM     99  O   UNL A   1      45.034  22.749  35.678  1.00  0.00    -0.237 OA
ATOM    100  O   UNL A   1      47.198  23.269  36.731  1.00  0.00    -0.237 OA
ATOM    101  O   UNL A   1      45.122  24.142  37.712  1.00  0.00    -0.744 OA
ENDBRANCH  95  98
ENDBRANCH  68  91
ENDBRANCH  42  43
ENDBRANCH  34  37
ENDBRANCH  32  33
ENDBRANCH  31  32
ENDBRANCH   1  31
TORSDOF 19
ENDMDL
