MODEL 1
REMARK VINA RESULT:     -11.1      0.000      0.000
REMARK SMILES CC[C@@H](C)N(C)C(=O)N1[C@@H](C(=O)NCCCCNC(=O)c2ccc(-c3c4nc(c(-c5cccc(S(=O)(=O)[O-])c5F)c5ccc([nH]5)c(-c5cccc(S(=O)(=O)[O-])c5F)c5nc(c(-c6cccc(S(=O)(=O)[O-])c6F)c6ccc3[nH]6)C=C5)C=C4)cc2)CC[C@H]2CCCC[C@H]21
REMARK SMILES IDX 15 1 14 2 13 3 11 4 12 5 10 7 9 8 91 9 84 10 86 11 90 12
REMARK SMILES IDX 85 13 87 14 89 15 88 16 7 17 8 18 5 19 6 20 3 21 4 22 2 23
REMARK SMILES IDX 1 24 16 25 17 26 18 27 19 28 20 30 21 31 22 32 83 33 23 34
REMARK SMILES IDX 82 35 24 36 25 37 26 38 76 39 27 40 81 41 75 42 77 43 28 44
REMARK SMILES IDX 80 45 74 46 73 47 29 49 61 50 41 51 60 52 42 53 45 54 59 55
REMARK SMILES IDX 78 56 43 57 44 58 58 60 79 61 46 62 30 63 31 64 39 65 32 66
REMARK SMILES IDX 34 67 40 68 33 69 35 70 36 71 37 72 38 73 62 74 63 75 71 76
REMARK SMILES IDX 64 77 66 78 72 79 65 80 67 81 68 82 69 83 70 84 47 85 48 86
REMARK SMILES IDX 56 87 49 88 51 89 57 90 50 91 52 92 53 93 54 94 55 95
REMARK H PARENT 13 6 18 29 77 48 45 59
REMARK Flexibility Score: inf
ROOT
ATOM      1  C   UNL A   1      32.117  28.173  27.231  1.00  0.00     0.023 C 
ENDROOT
BRANCH   1   2
ATOM      2  C   UNL A   1      31.790  27.130  26.164  1.00  0.00     0.116 C 
BRANCH   2   3
ATOM      3  N   UNL A   1      30.968  26.068  26.711  1.00  0.00    -0.354 N 
ATOM      4  C   UNL A   1      31.203  24.726  26.745  1.00  0.00     0.242 C 
ATOM      5  O   UNL A   1      30.276  23.984  27.090  1.00  0.00    -0.273 OA
ATOM      6  H   UNL A   1      30.119  26.358  27.116  1.00  0.00     0.163 HD
BRANCH   4   7
ATOM      7  C   UNL A   1      32.534  24.121  26.241  1.00  0.00     0.176 C 
ATOM      8  N   UNL A   1      32.481  23.656  24.839  1.00  0.00    -0.309 N 
ATOM      9  C   UNL A   1      33.582  22.805  24.364  1.00  0.00     0.091 C 
ATOM     10  C   UNL A   1      32.955  23.018  27.232  1.00  0.00     0.036 C 
ATOM     11  C   UNL A   1      33.919  21.657  25.323  1.00  0.00     0.012 C 
ATOM     12  C   UNL A   1      33.479  22.226  22.946  1.00  0.00     0.025 C 
ATOM     13  C   UNL A   1      34.137  22.191  26.743  1.00  0.00     0.008 C 
ATOM     14  C   UNL A   1      32.914  20.497  25.290  1.00  0.00     0.006 C 
ATOM     15  C   UNL A   1      32.455  21.114  22.771  1.00  0.00     0.002 C 
ATOM     16  C   UNL A   1      32.187  20.220  23.974  1.00  0.00     0.000 C 
BRANCH   8  17
ATOM     17  C   UNL A   1      31.719  24.317  23.893  1.00  0.00     0.320 C 
ATOM     18  O   UNL A   1      30.580  23.905  23.670  1.00  0.00    -0.248 OA
BRANCH  17  19
ATOM     19  N   UNL A   1      32.257  25.385  23.198  1.00  0.00    -0.325 N 
ATOM     20  C   UNL A   1      33.574  25.963  23.428  1.00  0.00     0.149 C 
BRANCH  19  21
ATOM     21  C   UNL A   1      31.515  25.917  22.026  1.00  0.00     0.083 C 
ATOM     22  C   UNL A   1      32.272  25.740  20.705  1.00  0.00     0.031 C 
BRANCH  21  23
ATOM     23  C   UNL A   1      31.057  27.369  22.292  1.00  0.00     0.021 C 
ATOM     24  C   UNL A   1      29.752  27.481  23.063  1.00  0.00     0.006 C 
ENDBRANCH  21  23
ENDBRANCH  19  21
ENDBRANCH  17  19
ENDBRANCH   8  17
ENDBRANCH   4   7
ENDBRANCH   2   3
ENDBRANCH   1   2
BRANCH   1  25
ATOM     25  C   UNL A   1      33.609  28.463  27.379  1.00  0.00     0.023 C 
BRANCH  25  26
ATOM     26  C   UNL A   1      34.086  29.703  26.636  1.00  0.00     0.116 C 
BRANCH  26  27
ATOM     27  N   UNL A   1      33.825  30.930  27.372  1.00  0.00    -0.352 N 
ATOM     28  C   UNL A   1      34.534  31.472  28.413  1.00  0.00     0.251 C 
ATOM     29  H   UNL A   1      33.033  31.440  27.085  1.00  0.00     0.163 HD
ATOM     30  O   UNL A   1      34.079  32.430  29.035  1.00  0.00    -0.269 OA
BRANCH  28  31
ATOM     31  C   UNL A   1      35.835  30.884  28.796  1.00  0.00     0.039 A 
ATOM     32  C   UNL A   1      37.002  31.397  28.225  1.00  0.00     0.014 A 
ATOM     33  C   UNL A   1      35.906  29.833  29.714  1.00  0.00     0.014 A 
ATOM     34  C   UNL A   1      38.240  30.875  28.603  1.00  0.00     0.010 A 
ATOM     35  C   UNL A   1      37.144  29.380  30.158  1.00  0.00     0.010 A 
ATOM     36  C   UNL A   1      38.324  29.875  29.586  1.00  0.00    -0.014 A 
BRANCH  36  37
ATOM     37  C   UNL A   1      39.639  29.321  29.996  1.00  0.00     0.031 A 
ATOM     38  C   UNL A   1      40.401  29.942  31.139  1.00  0.00     0.074 A 
ATOM     39  C   UNL A   1      40.171  28.286  29.314  1.00  0.00     0.049 A 
ATOM     40  N   UNL A   1      41.546  29.579  31.659  1.00  0.00    -0.248 NA
ATOM     41  C   UNL A   1      39.819  31.142  31.766  1.00  0.00     0.031 C 
ATOM     42  C   UNL A   1      39.574  27.651  28.136  1.00  0.00     0.029 A 
ATOM     43  N   UNL A   1      41.340  27.594  29.505  1.00  0.00    -0.354 N 
ATOM     44  C   UNL A   1      41.837  30.522  32.638  1.00  0.00     0.074 A 
ATOM     45  C   UNL A   1      40.768  31.494  32.620  1.00  0.00     0.031 C 
ATOM     46  C   UNL A   1      40.368  26.648  27.727  1.00  0.00     0.029 A 
ATOM     47  C   UNL A   1      41.541  26.585  28.592  1.00  0.00     0.049 A 
ATOM     48  H   UNL A   1      41.975  27.799  30.229  1.00  0.00     0.167 HD
ATOM     49  C   UNL A   1      42.884  30.561  33.495  1.00  0.00     0.034 A 
ATOM     50  C   UNL A   1      42.555  25.707  28.470  1.00  0.00     0.034 A 
ATOM     51  C   UNL A   1      43.918  29.564  33.547  1.00  0.00     0.049 A 
ATOM     52  C   UNL A   1      43.677  25.744  29.474  1.00  0.00     0.074 A 
ATOM     53  C   UNL A   1      44.962  29.455  34.449  1.00  0.00     0.029 A 
ATOM     54  N   UNL A   1      44.048  28.514  32.654  1.00  0.00    -0.354 N 
ATOM     55  N   UNL A   1      43.837  26.534  30.508  1.00  0.00    -0.248 NA
ATOM     56  C   UNL A   1      44.737  24.738  29.319  1.00  0.00     0.031 C 
ATOM     57  C   UNL A   1      45.747  28.360  34.076  1.00  0.00     0.029 A 
ATOM     58  C   UNL A   1      45.165  27.760  32.970  1.00  0.00     0.049 A 
ATOM     59  H   UNL A   1      43.437  28.329  31.905  1.00  0.00     0.167 HD
ATOM     60  C   UNL A   1      44.987  26.090  31.152  1.00  0.00     0.074 A 
ATOM     61  C   UNL A   1      45.466  24.946  30.406  1.00  0.00     0.031 C 
ATOM     62  C   UNL A   1      45.601  26.591  32.253  1.00  0.00     0.034 A 
BRANCH  49  63
ATOM     63  C   UNL A   1      42.950  31.700  34.480  1.00  0.00     0.023 A 
ATOM     64  C   UNL A   1      43.577  32.909  34.118  1.00  0.00     0.012 A 
ATOM     65  C   UNL A   1      42.318  31.598  35.736  1.00  0.00     0.148 A 
ATOM     66  C   UNL A   1      43.601  33.989  35.000  1.00  0.00     0.002 A 
ATOM     67  C   UNL A   1      42.303  32.695  36.590  1.00  0.00     0.091 A 
ATOM     68  F   UNL A   1      41.746  30.434  36.071  1.00  0.00    -0.205 F 
ATOM     69  C   UNL A   1      42.954  33.886  36.228  1.00  0.00     0.022 A 
BRANCH  67  70
ATOM     70  S   UNL A   1      41.424  32.694  38.155  1.00  0.00     0.127 S 
ATOM     71  O   UNL A   1      40.074  32.317  37.736  1.00  0.00    -0.237 OA
ATOM     72  O   UNL A   1      42.139  31.661  38.906  1.00  0.00    -0.237 OA
ATOM     73  O   UNL A   1      41.554  34.041  38.693  1.00  0.00    -0.744 OA
ENDBRANCH  67  70
ENDBRANCH  49  63
BRANCH  50  74
ATOM     74  C   UNL A   1      42.535  24.666  27.401  1.00  0.00     0.023 A 
ATOM     75  C   UNL A   1      43.322  24.844  26.246  1.00  0.00     0.012 A 
ATOM     76  C   UNL A   1      41.728  23.518  27.509  1.00  0.00     0.148 A 
ATOM     77  C   UNL A   1      43.264  23.927  25.195  1.00  0.00     0.002 A 
ATOM     78  C   UNL A   1      41.721  22.578  26.485  1.00  0.00     0.091 A 
ATOM     79  F   UNL A   1      40.979  23.369  28.611  1.00  0.00    -0.205 F 
ATOM     80  C   UNL A   1      42.469  22.792  25.317  1.00  0.00     0.022 A 
BRANCH  78  81
ATOM     81  S   UNL A   1      40.824  21.027  26.610  1.00  0.00     0.127 S 
ATOM     82  O   UNL A   1      41.574  20.173  25.694  1.00  0.00    -0.237 OA
ATOM     83  O   UNL A   1      40.983  20.700  28.028  1.00  0.00    -0.237 OA
ATOM     84  O   UNL A   1      39.455  21.334  26.217  1.00  0.00    -0.744 OA
ENDBRANCH  78  81
ENDBRANCH  50  74
BRANCH  62  85
ATOM     85  C   UNL A   1      46.828  25.873  32.753  1.00  0.00     0.023 A 
ATOM     86  C   UNL A   1      48.108  26.265  32.312  1.00  0.00     0.012 A 
ATOM     87  C   UNL A   1      46.712  24.832  33.696  1.00  0.00     0.148 A 
ATOM     88  C   UNL A   1      49.247  25.594  32.757  1.00  0.00     0.002 A 
ATOM     89  C   UNL A   1      47.855  24.209  34.180  1.00  0.00     0.091 A 
ATOM     90  F   UNL A   1      45.485  24.461  34.093  1.00  0.00    -0.205 F 
ATOM     91  C   UNL A   1      49.122  24.576  33.698  1.00  0.00     0.022 A 
BRANCH  89  92
ATOM     92  S   UNL A   1      47.792  22.960  35.469  1.00  0.00     0.127 S 
ATOM     93  O   UNL A   1      47.328  21.789  34.728  1.00  0.00    -0.237 OA
ATOM     94  O   UNL A   1      49.188  22.892  35.904  1.00  0.00    -0.237 OA
ATOM     95  O   UNL A   1      46.873  23.472  36.477  1.00  0.00    -0.744 OA
ENDBRANCH  89  92
ENDBRANCH  62  85
ENDBRANCH  36  37
ENDBRANCH  28  31
ENDBRANCH  26  27
ENDBRANCH  25  26
ENDBRANCH   1  25
TORSDOF 18
ENDMDL
MODEL 2
REMARK VINA RESULT:     -11.0      0.790      2.650
REMARK SMILES CC[C@@H](C)N(C)C(=O)N1[C@@H](C(=O)NCCCCNC(=O)c2ccc(-c3c4nc(c(-c5cccc(S(=O)(=O)[O-])c5F)c5ccc([nH]5)c(-c5cccc(S(=O)(=O)[O-])c5F)c5nc(c(-c6cccc(S(=O)(=O)[O-])c6F)c6ccc3[nH]6)C=C5)C=C4)cc2)CC[C@H]2CCCC[C@H]21
REMARK SMILES IDX 15 1 14 2 13 3 11 4 12 5 10 7 9 8 91 9 84 10 86 11 90 12
REMARK SMILES IDX 85 13 87 14 89 15 88 16 7 17 8 18 5 19 6 20 3 21 4 22 2 23
REMARK SMILES IDX 1 24 16 25 17 26 18 27 19 28 20 30 21 31 22 32 83 33 23 34
REMARK SMILES IDX 82 35 24 36 25 37 26 38 76 39 27 40 81 41 75 42 77 43 28 44
REMARK SMILES IDX 80 45 74 46 73 47 29 49 61 50 41 51 60 52 42 53 45 54 59 55
REMARK SMILES IDX 78 56 43 57 44 58 58 60 79 61 46 62 30 63 31 64 39 65 32 66
REMARK SMILES IDX 34 67 40 68 33 69 35 70 36 71 37 72 38 73 62 74 63 75 71 76
REMARK SMILES IDX 64 77 66 78 72 79 65 80 67 81 68 82 69 83 70 84 47 85 48 86
REMARK SMILES IDX 56 87 49 88 51 89 57 90 50 91 52 92 53 93 54 94 55 95
REMARK H PARENT 13 6 18 29 77 48 45 59
REMARK Flexibility Score: inf
ROOT
ATOM      1  C   UNL A   1      32.322  28.334  27.560  1.00  0.00     0.023 C 
ENDROOT
BRANCH   1   2
ATOM      2  C   UNL A   1      31.309  27.695  26.612  1.00  0.00     0.116 C 
BRANCH   2   3
ATOM      3  N   UNL A   1      31.078  26.306  26.959  1.00  0.00    -0.354 N 
ATOM      4  C   UNL A   1      30.770  25.255  26.149  1.00  0.00     0.242 C 
ATOM      5  O   UNL A   1      30.428  24.193  26.682  1.00  0.00    -0.273 OA
ATOM      6  H   UNL A   1      31.155  26.092  27.917  1.00  0.00     0.163 HD
BRANCH   4   7
ATOM      7  C   UNL A   1      30.713  25.403  24.610  1.00  0.00     0.176 C 
ATOM      8  N   UNL A   1      32.036  25.627  23.988  1.00  0.00    -0.309 N 
ATOM      9  C   UNL A   1      32.059  26.074  22.587  1.00  0.00     0.091 C 
ATOM     10  C   UNL A   1      29.692  26.510  24.281  1.00  0.00     0.036 C 
ATOM     11  C   UNL A   1      31.104  27.240  22.306  1.00  0.00     0.012 C 
ATOM     12  C   UNL A   1      33.422  26.417  21.969  1.00  0.00     0.025 C 
ATOM     13  C   UNL A   1      29.694  26.911  22.812  1.00  0.00     0.008 C 
ATOM     14  C   UNL A   1      31.601  28.597  22.822  1.00  0.00     0.006 C 
ATOM     15  C   UNL A   1      34.054  27.710  22.462  1.00  0.00     0.002 C 
ATOM     16  C   UNL A   1      33.111  28.829  22.880  1.00  0.00     0.000 C 
BRANCH   8  17
ATOM     17  C   UNL A   1      33.177  25.037  24.499  1.00  0.00     0.320 C 
ATOM     18  O   UNL A   1      33.857  25.679  25.300  1.00  0.00    -0.248 OA
BRANCH  17  19
ATOM     19  N   UNL A   1      33.549  23.774  24.075  1.00  0.00    -0.325 N 
ATOM     20  C   UNL A   1      34.708  23.470  23.247  1.00  0.00     0.149 C 
BRANCH  19  21
ATOM     21  C   UNL A   1      32.808  22.599  24.605  1.00  0.00     0.083 C 
ATOM     22  C   UNL A   1      33.169  22.268  26.057  1.00  0.00     0.031 C 
BRANCH  21  23
ATOM     23  C   UNL A   1      32.941  21.400  23.639  1.00  0.00     0.021 C 
ATOM     24  C   UNL A   1      31.980  21.436  22.462  1.00  0.00     0.006 C 
ENDBRANCH  21  23
ENDBRANCH  19  21
ENDBRANCH  17  19
ENDBRANCH   8  17
ENDBRANCH   4   7
ENDBRANCH   2   3
ENDBRANCH   1   2
BRANCH   1  25
ATOM     25  C   UNL A   1      33.769  28.230  27.084  1.00  0.00     0.023 C 
BRANCH  25  26
ATOM     26  C   UNL A   1      34.289  29.471  26.371  1.00  0.00     0.116 C 
BRANCH  26  27
ATOM     27  N   UNL A   1      33.929  30.701  27.060  1.00  0.00    -0.352 N 
ATOM     28  C   UNL A   1      34.552  31.300  28.125  1.00  0.00     0.251 C 
ATOM     29  H   UNL A   1      33.133  31.166  26.717  1.00  0.00     0.163 HD
ATOM     30  O   UNL A   1      34.018  32.249  28.696  1.00  0.00    -0.269 OA
BRANCH  28  31
ATOM     31  C   UNL A   1      35.855  30.784  28.595  1.00  0.00     0.039 A 
ATOM     32  C   UNL A   1      35.875  29.822  29.607  1.00  0.00     0.014 A 
ATOM     33  C   UNL A   1      37.053  31.245  28.041  1.00  0.00     0.014 A 
ATOM     34  C   UNL A   1      37.096  29.300  30.038  1.00  0.00     0.010 A 
ATOM     35  C   UNL A   1      38.259  30.657  28.406  1.00  0.00     0.010 A 
ATOM     36  C   UNL A   1      38.297  29.699  29.428  1.00  0.00    -0.014 A 
BRANCH  36  37
ATOM     37  C   UNL A   1      39.599  29.143  29.878  1.00  0.00     0.031 A 
ATOM     38  C   UNL A   1      40.335  29.775  31.032  1.00  0.00     0.074 A 
ATOM     39  C   UNL A   1      40.142  28.097  29.223  1.00  0.00     0.049 A 
ATOM     40  N   UNL A   1      41.465  29.413  31.586  1.00  0.00    -0.248 NA
ATOM     41  C   UNL A   1      39.745  30.986  31.629  1.00  0.00     0.031 C 
ATOM     42  C   UNL A   1      39.571  27.449  28.038  1.00  0.00     0.029 A 
ATOM     43  N   UNL A   1      41.302  27.401  29.453  1.00  0.00    -0.354 N 
ATOM     44  C   UNL A   1      41.737  30.367  32.559  1.00  0.00     0.074 A 
ATOM     45  C   UNL A   1      40.674  31.344  32.501  1.00  0.00     0.031 C 
ATOM     46  C   UNL A   1      40.369  26.436  27.662  1.00  0.00     0.029 A 
ATOM     47  C   UNL A   1      41.520  26.378  28.558  1.00  0.00     0.049 A 
ATOM     48  H   UNL A   1      41.919  27.611  30.190  1.00  0.00     0.167 HD
ATOM     49  C   UNL A   1      42.761  30.411  33.442  1.00  0.00     0.034 A 
ATOM     50  C   UNL A   1      42.532  25.493  28.473  1.00  0.00     0.034 A 
ATOM     51  C   UNL A   1      43.788  29.409  33.533  1.00  0.00     0.049 A 
ATOM     52  C   UNL A   1      43.628  25.538  29.505  1.00  0.00     0.074 A 
ATOM     53  C   UNL A   1      44.808  29.306  34.462  1.00  0.00     0.029 A 
ATOM     54  N   UNL A   1      43.934  28.346  32.657  1.00  0.00    -0.354 N 
ATOM     55  N   UNL A   1      43.766  26.340  30.532  1.00  0.00    -0.248 NA
ATOM     56  C   UNL A   1      44.685  24.523  29.390  1.00  0.00     0.031 C 
ATOM     57  C   UNL A   1      45.596  28.201  34.124  1.00  0.00     0.029 A 
ATOM     58  C   UNL A   1      45.039  27.591  33.011  1.00  0.00     0.049 A 
ATOM     59  H   UNL A   1      43.342  28.156  31.895  1.00  0.00     0.167 HD
ATOM     60  C   UNL A   1      44.897  25.898  31.210  1.00  0.00     0.074 A 
ATOM     61  C   UNL A   1      45.388  24.741  30.492  1.00  0.00     0.031 C 
ATOM     62  C   UNL A   1      45.486  26.410  32.320  1.00  0.00     0.034 A 
BRANCH  49  63
ATOM     63  C   UNL A   1      42.809  31.562  34.414  1.00  0.00     0.023 A 
ATOM     64  C   UNL A   1      43.521  32.733  34.084  1.00  0.00     0.012 A 
ATOM     65  C   UNL A   1      42.079  31.513  35.619  1.00  0.00     0.148 A 
ATOM     66  C   UNL A   1      43.532  33.825  34.951  1.00  0.00     0.002 A 
ATOM     67  C   UNL A   1      42.054  32.624  36.453  1.00  0.00     0.091 A 
ATOM     68  F   UNL A   1      41.426  30.384  35.924  1.00  0.00    -0.205 F 
ATOM     69  C   UNL A   1      42.790  33.775  36.127  1.00  0.00     0.022 A 
BRANCH  67  70
ATOM     70  S   UNL A   1      41.059  32.693  37.946  1.00  0.00     0.127 S 
ATOM     71  O   UNL A   1      41.828  31.842  38.854  1.00  0.00    -0.237 OA
ATOM     72  O   UNL A   1      41.096  34.120  38.272  1.00  0.00    -0.237 OA
ATOM     73  O   UNL A   1      39.745  32.185  37.581  1.00  0.00    -0.744 OA
ENDBRANCH  67  70
ENDBRANCH  49  63
BRANCH  50  74
ATOM     74  C   UNL A   1      42.533  24.439  27.417  1.00  0.00     0.023 A 
ATOM     75  C   UNL A   1      43.395  24.568  26.310  1.00  0.00     0.012 A 
ATOM     76  C   UNL A   1      41.674  23.326  27.490  1.00  0.00     0.148 A 
ATOM     77  C   UNL A   1      43.362  23.639  25.269  1.00  0.00     0.002 A 
ATOM     78  C   UNL A   1      41.688  22.373  26.479  1.00  0.00     0.091 A 
ATOM     79  F   UNL A   1      40.854  23.224  28.546  1.00  0.00    -0.205 F 
ATOM     80  C   UNL A   1      42.514  22.539  25.356  1.00  0.00     0.022 A 
BRANCH  78  81
ATOM     81  S   UNL A   1      40.722  20.862  26.568  1.00  0.00     0.127 S 
ATOM     82  O   UNL A   1      40.855  20.504  27.977  1.00  0.00    -0.237 OA
ATOM     83  O   UNL A   1      39.392  21.331  26.173  1.00  0.00    -0.237 OA
ATOM     84  O   UNL A   1      41.339  19.946  25.618  1.00  0.00    -0.744 OA
ENDBRANCH  78  81
ENDBRANCH  50  74
BRANCH  62  85
ATOM     85  C   UNL A   1      46.695  25.691  32.861  1.00  0.00     0.023 A 
ATOM     86  C   UNL A   1      47.989  26.080  32.458  1.00  0.00     0.012 A 
ATOM     87  C   UNL A   1      46.549  24.654  33.803  1.00  0.00     0.148 A 
ATOM     88  C   UNL A   1      49.113  25.410  32.941  1.00  0.00     0.002 A 
ATOM     89  C   UNL A   1      47.675  24.031  34.324  1.00  0.00     0.091 A 
ATOM     90  F   UNL A   1      45.310  24.286  34.163  1.00  0.00    -0.205 F 
ATOM     91  C   UNL A   1      48.957  24.394  33.881  1.00  0.00     0.022 A 
BRANCH  89  92
ATOM     92  S   UNL A   1      47.570  22.787  35.615  1.00  0.00     0.127 S 
ATOM     93  O   UNL A   1      48.980  22.481  35.850  1.00  0.00    -0.237 OA
ATOM     94  O   UNL A   1      46.916  23.520  36.700  1.00  0.00    -0.237 OA
ATOM     95  O   UNL A   1      46.775  21.700  35.059  1.00  0.00    -0.744 OA
ENDBRANCH  89  92
ENDBRANCH  62  85
ENDBRANCH  36  37
ENDBRANCH  28  31
ENDBRANCH  26  27
ENDBRANCH  25  26
ENDBRANCH   1  25
TORSDOF 18
ENDMDL
MODEL 3
REMARK VINA RESULT:     -11.0      1.672      2.219
REMARK SMILES CC[C@@H](C)N(C)C(=O)N1[C@@H](C(=O)NCCCCNC(=O)c2ccc(-c3c4nc(c(-c5cccc(S(=O)(=O)[O-])c5F)c5ccc([nH]5)c(-c5cccc(S(=O)(=O)[O-])c5F)c5nc(c(-c6cccc(S(=O)(=O)[O-])c6F)c6ccc3[nH]6)C=C5)C=C4)cc2)CC[C@H]2CCCC[C@H]21
REMARK SMILES IDX 15 1 14 2 13 3 11 4 12 5 10 7 9 8 91 9 84 10 86 11 90 12
REMARK SMILES IDX 85 13 87 14 89 15 88 16 7 17 8 18 5 19 6 20 3 21 4 22 2 23
REMARK SMILES IDX 1 24 16 25 17 26 18 27 19 28 20 30 21 31 22 32 83 33 23 34
REMARK SMILES IDX 82 35 24 36 25 37 26 38 76 39 27 40 81 41 75 42 77 43 28 44
REMARK SMILES IDX 80 45 74 46 73 47 29 49 61 50 41 51 60 52 42 53 45 54 59 55
REMARK SMILES IDX 78 56 43 57 44 58 58 60 79 61 46 62 30 63 31 64 39 65 32 66
REMARK SMILES IDX 34 67 40 68 33 69 35 70 36 71 37 72 38 73 62 74 63 75 71 76
REMARK SMILES IDX 64 77 66 78 72 79 65 80 67 81 68 82 69 83 70 84 47 85 48 86
REMARK SMILES IDX 56 87 49 88 51 89 57 90 50 91 52 92 53 93 54 94 55 95
REMARK H PARENT 13 6 18 29 77 48 45 59
REMARK Flexibility Score: inf
ROOT
ATOM      1  C   UNL A   1      32.058  29.456  25.447  1.00  0.00     0.023 C 
ENDROOT
BRANCH   1   2
ATOM      2  C   UNL A   1      33.023  28.375  25.931  1.00  0.00     0.116 C 
BRANCH   2   3
ATOM      3  N   UNL A   1      32.303  27.258  26.510  1.00  0.00    -0.354 N 
ATOM      4  C   UNL A   1      32.362  25.935  26.190  1.00  0.00     0.242 C 
ATOM      5  O   UNL A   1      31.517  25.180  26.685  1.00  0.00    -0.273 OA
ATOM      6  H   UNL A   1      31.683  27.488  27.239  1.00  0.00     0.163 HD
BRANCH   4   7
ATOM      7  C   UNL A   1      33.360  25.397  25.137  1.00  0.00     0.176 C 
ATOM      8  N   UNL A   1      32.728  24.560  24.094  1.00  0.00    -0.309 N 
ATOM      9  C   UNL A   1      33.615  23.766  23.232  1.00  0.00     0.091 C 
ATOM     10  C   UNL A   1      34.494  24.675  25.890  1.00  0.00     0.036 C 
ATOM     11  C   UNL A   1      34.676  22.981  24.012  1.00  0.00     0.012 C 
ATOM     12  C   UNL A   1      32.964  22.811  22.223  1.00  0.00     0.025 C 
ATOM     13  C   UNL A   1      35.435  23.910  24.967  1.00  0.00     0.008 C 
ATOM     14  C   UNL A   1      34.136  21.735  24.726  1.00  0.00     0.006 C 
ATOM     15  C   UNL A   1      32.323  21.567  22.822  1.00  0.00     0.002 C 
ATOM     16  C   UNL A   1      32.944  21.012  24.097  1.00  0.00     0.000 C 
BRANCH   8  17
ATOM     17  C   UNL A   1      31.450  24.829  23.637  1.00  0.00     0.320 C 
ATOM     18  O   UNL A   1      30.557  24.022  23.897  1.00  0.00    -0.248 OA
BRANCH  17  19
ATOM     19  N   UNL A   1      31.213  25.958  22.875  1.00  0.00    -0.325 N 
ATOM     20  C   UNL A   1      31.628  26.143  21.491  1.00  0.00     0.149 C 
BRANCH  19  21
ATOM     21  C   UNL A   1      30.350  27.028  23.438  1.00  0.00     0.083 C 
ATOM     22  C   UNL A   1      29.010  26.503  23.964  1.00  0.00     0.031 C 
BRANCH  21  23
ATOM     23  C   UNL A   1      30.212  28.193  22.432  1.00  0.00     0.021 C 
ATOM     24  C   UNL A   1      29.047  29.128  22.715  1.00  0.00     0.006 C 
ENDBRANCH  21  23
ENDBRANCH  19  21
ENDBRANCH  17  19
ENDBRANCH   8  17
ENDBRANCH   4   7
ENDBRANCH   2   3
ENDBRANCH   1   2
BRANCH   1  25
ATOM     25  C   UNL A   1      31.884  30.616  26.424  1.00  0.00     0.023 C 
BRANCH  25  26
ATOM     26  C   UNL A   1      33.175  31.083  27.083  1.00  0.00     0.116 C 
BRANCH  26  27
ATOM     27  N   UNL A   1      33.148  32.499  27.421  1.00  0.00    -0.352 N 
ATOM     28  C   UNL A   1      33.987  33.197  28.251  1.00  0.00     0.251 C 
ATOM     29  H   UNL A   1      32.432  33.025  26.998  1.00  0.00     0.163 HD
ATOM     30  O   UNL A   1      33.720  34.357  28.561  1.00  0.00    -0.269 OA
BRANCH  28  31
ATOM     31  C   UNL A   1      35.198  32.541  28.788  1.00  0.00     0.039 A 
ATOM     32  C   UNL A   1      36.451  32.965  28.339  1.00  0.00     0.014 A 
ATOM     33  C   UNL A   1      35.101  31.512  29.729  1.00  0.00     0.014 A 
ATOM     34  C   UNL A   1      37.604  32.379  28.862  1.00  0.00     0.010 A 
ATOM     35  C   UNL A   1      36.251  30.996  30.316  1.00  0.00     0.010 A 
ATOM     36  C   UNL A   1      37.515  31.402  29.869  1.00  0.00    -0.014 A 
BRANCH  36  37
ATOM     37  C   UNL A   1      38.740  30.779  30.433  1.00  0.00     0.031 A 
ATOM     38  C   UNL A   1      39.264  31.219  31.776  1.00  0.00     0.074 A 
ATOM     39  C   UNL A   1      39.407  29.850  29.720  1.00  0.00     0.049 A 
ATOM     40  N   UNL A   1      40.297  30.771  32.444  1.00  0.00    -0.248 NA
ATOM     41  C   UNL A   1      38.556  32.321  32.451  1.00  0.00     0.031 C 
ATOM     42  C   UNL A   1      39.052  29.400  28.371  1.00  0.00     0.029 A 
ATOM     43  N   UNL A   1      40.531  29.124  30.024  1.00  0.00    -0.354 N 
ATOM     44  C   UNL A   1      40.385  31.558  33.586  1.00  0.00     0.074 A 
ATOM     45  C   UNL A   1      39.322  32.534  33.510  1.00  0.00     0.031 C 
ATOM     46  C   UNL A   1      39.924  28.458  27.976  1.00  0.00     0.029 A 
ATOM     47  C   UNL A   1      40.916  28.257  29.028  1.00  0.00     0.049 A 
ATOM     48  H   UNL A   1      41.016  29.214  30.876  1.00  0.00     0.167 HD
ATOM     49  C   UNL A   1      41.252  31.460  34.621  1.00  0.00     0.034 A 
ATOM     50  C   UNL A   1      41.949  27.394  28.972  1.00  0.00     0.034 A 
ATOM     51  C   UNL A   1      42.274  30.455  34.720  1.00  0.00     0.049 A 
ATOM     52  C   UNL A   1      42.863  27.273  30.162  1.00  0.00     0.074 A 
ATOM     53  C   UNL A   1      43.133  30.203  35.776  1.00  0.00     0.029 A 
ATOM     54  N   UNL A   1      42.587  29.544  33.724  1.00  0.00    -0.354 N 
ATOM     55  N   UNL A   1      42.813  27.901  31.312  1.00  0.00    -0.248 NA
ATOM     56  C   UNL A   1      43.949  26.288  30.064  1.00  0.00     0.031 C 
ATOM     57  C   UNL A   1      43.992  29.165  35.401  1.00  0.00     0.029 A 
ATOM     58  C   UNL A   1      43.637  28.740  34.131  1.00  0.00     0.049 A 
ATOM     59  H   UNL A   1      42.130  29.478  32.855  1.00  0.00     0.167 HD
ATOM     60  C   UNL A   1      43.830  27.355  32.088  1.00  0.00     0.074 A 
ATOM     61  C   UNL A   1      44.459  26.327  31.287  1.00  0.00     0.031 C 
ATOM     62  C   UNL A   1      44.219  27.683  33.346  1.00  0.00     0.034 A 
BRANCH  49  63
ATOM     63  C   UNL A   1      41.114  32.442  35.756  1.00  0.00     0.023 A 
ATOM     64  C   UNL A   1      41.990  33.542  35.846  1.00  0.00     0.012 A 
ATOM     65  C   UNL A   1      40.063  32.318  36.686  1.00  0.00     0.148 A 
ATOM     66  C   UNL A   1      41.843  34.486  36.861  1.00  0.00     0.002 A 
ATOM     67  C   UNL A   1      39.892  33.290  37.665  1.00  0.00     0.091 A 
ATOM     68  F   UNL A   1      39.253  31.254  36.597  1.00  0.00    -0.205 F 
ATOM     69  C   UNL A   1      40.788  34.367  37.761  1.00  0.00     0.022 A 
BRANCH  67  70
ATOM     70  S   UNL A   1      38.514  33.275  38.816  1.00  0.00     0.127 S 
ATOM     71  O   UNL A   1      38.734  34.517  39.556  1.00  0.00    -0.237 OA
ATOM     72  O   UNL A   1      37.362  33.301  37.913  1.00  0.00    -0.237 OA
ATOM     73  O   UNL A   1      38.651  32.054  39.596  1.00  0.00    -0.744 OA
ENDBRANCH  67  70
ENDBRANCH  49  63
BRANCH  50  74
ATOM     74  C   UNL A   1      42.147  26.521  27.778  1.00  0.00     0.023 A 
ATOM     75  C   UNL A   1      42.797  27.040  26.640  1.00  0.00     0.012 A 
ATOM     76  C   UNL A   1      41.677  25.195  27.753  1.00  0.00     0.148 A 
ATOM     77  C   UNL A   1      42.926  26.272  25.481  1.00  0.00     0.002 A 
ATOM     78  C   UNL A   1      41.863  24.416  26.617  1.00  0.00     0.091 A 
ATOM     79  F   UNL A   1      41.053  24.721  28.841  1.00  0.00    -0.205 F 
ATOM     80  C   UNL A   1      42.465  24.959  25.472  1.00  0.00     0.022 A 
BRANCH  78  81
ATOM     81  S   UNL A   1      41.413  22.678  26.559  1.00  0.00     0.127 S 
ATOM     82  O   UNL A   1      39.956  22.747  26.498  1.00  0.00    -0.237 OA
ATOM     83  O   UNL A   1      42.063  22.239  25.322  1.00  0.00    -0.237 OA
ATOM     84  O   UNL A   1      41.971  22.089  27.768  1.00  0.00    -0.744 OA
ENDBRANCH  78  81
ENDBRANCH  50  74
BRANCH  62  85
ATOM     85  C   UNL A   1      45.342  26.886  33.957  1.00  0.00     0.023 A 
ATOM     86  C   UNL A   1      46.681  27.277  33.754  1.00  0.00     0.012 A 
ATOM     87  C   UNL A   1      45.065  25.768  34.769  1.00  0.00     0.148 A 
ATOM     88  C   UNL A   1      47.727  26.535  34.303  1.00  0.00     0.002 A 
ATOM     89  C   UNL A   1      46.110  25.070  35.361  1.00  0.00     0.091 A 
ATOM     90  F   UNL A   1      43.787  25.400  34.939  1.00  0.00    -0.205 F 
ATOM     91  C   UNL A   1      47.442  25.440  35.114  1.00  0.00     0.022 A 
BRANCH  89  92
ATOM     92  S   UNL A   1      45.829  23.712  36.503  1.00  0.00     0.127 S 
ATOM     93  O   UNL A   1      45.158  22.736  35.647  1.00  0.00    -0.237 OA
ATOM     94  O   UNL A   1      47.192  23.348  36.894  1.00  0.00    -0.237 OA
ATOM     95  O   UNL A   1      45.021  24.261  37.585  1.00  0.00    -0.744 OA
ENDBRANCH  89  92
ENDBRANCH  62  85
ENDBRANCH  36  37
ENDBRANCH  28  31
ENDBRANCH  26  27
ENDBRANCH  25  26
ENDBRANCH   1  25
TORSDOF 18
ENDMDL
