MODEL 1
REMARK VINA RESULT:      -8.4      0.000      0.000
REMARK SMILES O=C(NCCCCNC(=O)[C@H](CO)NC(=O)[C@H](Cc1c[nH]c2ccccc12)NC(=O)[C@H](Cc1ccc(O)cc1)NC(=O)c1ccc(F)cc1)c1ccc(-c2c3nc(c(-c4cccc(S(=O)(=O)[O-])c4F)c4ccc([nH]4)c(-c4cccc(S(=O)(=O)[O-])c4F)c4nc(c(-c5cccc(S(=O)(=O)[O-])c5F)c5ccc2[nH]5)C=C4)C=C3)cc1
REMARK SMILES IDX 8 1 9 2 10 3 7 5 6 6 5 7 4 8 3 9 1 10 2 11 50 13 51 14
REMARK SMILES IDX 112 15 52 16 111 17 53 18 54 19 55 20 105 21 56 22 110 23
REMARK SMILES IDX 104 24 106 25 57 26 109 27 103 28 102 29 58 31 90 32 70 33
REMARK SMILES IDX 89 34 71 35 74 36 88 37 107 38 72 39 73 40 87 42 108 43
REMARK SMILES IDX 75 44 59 45 60 46 68 47 61 48 63 49 69 50 62 51 64 52 65 53
REMARK SMILES IDX 66 54 67 55 91 56 92 57 100 58 93 59 95 60 101 61 94 62
REMARK SMILES IDX 96 63 97 64 98 65 99 66 76 67 77 68 85 69 78 70 80 71 86 72
REMARK SMILES IDX 79 73 81 74 82 75 83 76 84 77 11 78 14 79 15 80 16 82 17 83
REMARK SMILES IDX 28 84 29 85 30 87 31 88 40 89 41 90 42 92 43 93 44 94 49 95
REMARK SMILES IDX 45 96 48 97 46 98 47 99 32 100 33 101 34 102 39 103 35 104
REMARK SMILES IDX 38 105 36 106 37 107 18 109 19 110 20 111 27 112 21 113
REMARK SMILES IDX 22 114 26 115 23 117 25 118 24 119 12 120 13 121
REMARK H PARENT 8 4 3 12 106 30 74 41 14 81 28 86 40 91 37 108 21 116 13 122
REMARK Flexibility Score: inf
ROOT
ATOM      1  N   UNL A   1      45.790  32.749  36.854  1.00  0.00    -0.354 N 
ATOM      2  C   UNL A   1      44.748  33.599  36.568  1.00  0.00     0.244 C 
ATOM      3  O   UNL A   1      43.653  33.389  37.092  1.00  0.00    -0.273 OA
ATOM      4  H   UNL A   1      45.669  32.191  37.655  1.00  0.00     0.163 HD
ENDROOT
BRANCH   1   5
ATOM      5  C   UNL A   1      47.046  32.556  36.143  1.00  0.00     0.116 C 
BRANCH   5   6
ATOM      6  C   UNL A   1      47.249  31.141  35.608  1.00  0.00     0.023 C 
BRANCH   6   7
ATOM      7  C   UNL A   1      48.265  30.313  36.373  1.00  0.00     0.023 C 
BRANCH   7   8
ATOM      8  C   UNL A   1      47.709  29.010  36.905  1.00  0.00     0.116 C 
BRANCH   8   9
ATOM      9  N   UNL A   1      48.468  27.846  36.461  1.00  0.00    -0.352 N 
ATOM     10  O   UNL A   1      48.736  25.866  35.386  1.00  0.00    -0.269 OA
ATOM     11  C   UNL A   1      48.079  26.887  35.552  1.00  0.00     0.251 C 
ATOM     12  H   UNL A   1      49.363  27.734  36.856  1.00  0.00     0.163 HD
BRANCH  11  13
ATOM     13  C   UNL A   1      46.831  27.128  34.804  1.00  0.00     0.039 A 
ATOM     14  C   UNL A   1      46.849  28.055  33.758  1.00  0.00     0.014 A 
ATOM     15  C   UNL A   1      45.635  26.543  35.220  1.00  0.00     0.014 A 
ATOM     16  C   UNL A   1      45.654  28.545  33.268  1.00  0.00     0.010 A 
ATOM     17  C   UNL A   1      44.438  26.942  34.620  1.00  0.00     0.010 A 
ATOM     18  C   UNL A   1      44.435  27.971  33.665  1.00  0.00    -0.014 A 
BRANCH  18  19
ATOM     19  C   UNL A   1      43.193  28.405  32.983  1.00  0.00     0.031 A 
ATOM     20  C   UNL A   1      42.233  29.365  33.622  1.00  0.00     0.074 A 
ATOM     21  C   UNL A   1      42.960  27.920  31.745  1.00  0.00     0.049 A 
ATOM     22  N   UNL A   1      41.098  29.816  33.152  1.00  0.00    -0.248 NA
ATOM     23  C   UNL A   1      42.574  29.884  34.956  1.00  0.00     0.031 C 
ATOM     24  C   UNL A   1      43.823  26.962  31.045  1.00  0.00     0.029 A 
ATOM     25  N   UNL A   1      41.950  28.164  30.853  1.00  0.00    -0.354 N 
ATOM     26  C   UNL A   1      40.565  30.627  34.148  1.00  0.00     0.074 A 
ATOM     27  C   UNL A   1      41.503  30.613  35.248  1.00  0.00     0.031 C 
ATOM     28  C   UNL A   1      43.338  26.743  29.817  1.00  0.00     0.029 A 
ATOM     29  C   UNL A   1      42.083  27.467  29.676  1.00  0.00     0.049 A 
ATOM     30  H   UNL A   1      41.203  28.778  31.038  1.00  0.00     0.167 HD
ATOM     31  C   UNL A   1      39.403  31.322  34.131  1.00  0.00     0.034 A 
ATOM     32  C   UNL A   1      41.272  27.389  28.605  1.00  0.00     0.034 A 
ATOM     33  C   UNL A   1      38.507  31.361  33.006  1.00  0.00     0.049 A 
ATOM     34  C   UNL A   1      40.002  28.183  28.615  1.00  0.00     0.074 A 
ATOM     35  C   UNL A   1      37.329  32.076  32.871  1.00  0.00     0.029 A 
ATOM     36  N   UNL A   1      38.684  30.659  31.822  1.00  0.00    -0.354 N 
ATOM     37  N   UNL A   1      39.557  29.008  29.532  1.00  0.00    -0.248 NA
ATOM     38  C   UNL A   1      39.127  28.049  27.444  1.00  0.00     0.031 C 
ATOM     39  C   UNL A   1      36.787  31.792  31.614  1.00  0.00     0.029 A 
ATOM     40  C   UNL A   1      37.636  30.917  30.957  1.00  0.00     0.049 A 
ATOM     41  H   UNL A   1      39.445  30.065  31.627  1.00  0.00     0.167 HD
ATOM     42  C   UNL A   1      38.355  29.501  29.048  1.00  0.00     0.074 A 
ATOM     43  C   UNL A   1      38.159  28.907  27.739  1.00  0.00     0.031 C 
ATOM     44  C   UNL A   1      37.481  30.348  29.641  1.00  0.00     0.034 A 
BRANCH  31  45
ATOM     45  C   UNL A   1      39.037  32.137  35.344  1.00  0.00     0.023 A 
ATOM     46  C   UNL A   1      38.279  31.548  36.375  1.00  0.00     0.012 A 
ATOM     47  C   UNL A   1      39.542  33.443  35.517  1.00  0.00     0.148 A 
ATOM     48  C   UNL A   1      38.017  32.248  37.553  1.00  0.00     0.002 A 
ATOM     49  C   UNL A   1      39.310  34.119  36.710  1.00  0.00     0.091 A 
ATOM     50  F   UNL A   1      40.247  33.992  34.518  1.00  0.00    -0.205 F 
ATOM     51  C   UNL A   1      38.542  33.525  37.725  1.00  0.00     0.022 A 
BRANCH  49  52
ATOM     52  S   UNL A   1      40.008  35.737  37.064  1.00  0.00     0.127 S 
ATOM     53  O   UNL A   1      39.617  36.493  35.874  1.00  0.00    -0.237 OA
ATOM     54  O   UNL A   1      39.297  36.118  38.285  1.00  0.00    -0.237 OA
ATOM     55  O   UNL A   1      41.439  35.532  37.229  1.00  0.00    -0.744 OA
ENDBRANCH  49  52
ENDBRANCH  31  45
BRANCH  32  56
ATOM     56  C   UNL A   1      41.675  26.550  27.444  1.00  0.00     0.023 A 
ATOM     57  C   UNL A   1      42.400  27.134  26.388  1.00  0.00     0.012 A 
ATOM     58  C   UNL A   1      41.433  25.161  27.426  1.00  0.00     0.148 A 
ATOM     59  C   UNL A   1      42.868  26.352  25.331  1.00  0.00     0.002 A 
ATOM     60  C   UNL A   1      41.961  24.379  26.407  1.00  0.00     0.091 A 
ATOM     61  F   UNL A   1      40.727  24.626  28.433  1.00  0.00    -0.205 F 
ATOM     62  C   UNL A   1      42.665  24.974  25.349  1.00  0.00     0.022 A 
BRANCH  60  63
ATOM     63  S   UNL A   1      41.891  22.584  26.446  1.00  0.00     0.127 S 
ATOM     64  O   UNL A   1      40.456  22.337  26.340  1.00  0.00    -0.237 OA
ATOM     65  O   UNL A   1      42.669  22.223  25.260  1.00  0.00    -0.237 OA
ATOM     66  O   UNL A   1      42.512  22.198  27.706  1.00  0.00    -0.744 OA
ENDBRANCH  60  63
ENDBRANCH  32  56
BRANCH  44  67
ATOM     67  C   UNL A   1      36.228  30.692  28.884  1.00  0.00     0.023 A 
ATOM     68  C   UNL A   1      35.444  29.658  28.338  1.00  0.00     0.012 A 
ATOM     69  C   UNL A   1      35.783  32.025  28.796  1.00  0.00     0.148 A 
ATOM     70  C   UNL A   1      34.242  29.947  27.695  1.00  0.00     0.002 A 
ATOM     71  C   UNL A   1      34.559  32.300  28.197  1.00  0.00     0.091 A 
ATOM     72  F   UNL A   1      36.556  32.994  29.306  1.00  0.00    -0.205 F 
ATOM     73  C   UNL A   1      33.793  31.265  27.638  1.00  0.00     0.022 A 
BRANCH  71  74
ATOM     74  S   UNL A   1      33.857  33.953  28.164  1.00  0.00     0.127 S 
ATOM     75  O   UNL A   1      33.951  34.346  29.569  1.00  0.00    -0.237 OA
ATOM     76  O   UNL A   1      34.773  34.662  27.269  1.00  0.00    -0.237 OA
ATOM     77  O   UNL A   1      32.503  33.803  27.645  1.00  0.00    -0.744 OA
ENDBRANCH  71  74
ENDBRANCH  44  67
ENDBRANCH  18  19
ENDBRANCH  11  13
ENDBRANCH   8   9
ENDBRANCH   7   8
ENDBRANCH   6   7
ENDBRANCH   5   6
ENDBRANCH   1   5
BRANCH   2  78
ATOM     78  C   UNL A   1      44.958  34.716  35.527  1.00  0.00     0.197 C 
BRANCH  78  79
ATOM     79  N   UNL A   1      43.643  35.222  35.092  1.00  0.00    -0.340 N 
ATOM     80  C   UNL A   1      43.166  35.451  33.833  1.00  0.00     0.243 C 
ATOM     81  H   UNL A   1      43.013  35.427  35.820  1.00  0.00     0.164 HD
ATOM     82  O   UNL A   1      42.096  36.069  33.751  1.00  0.00    -0.273 OA
BRANCH  80  83
ATOM     83  C   UNL A   1      43.846  34.851  32.554  1.00  0.00     0.175 C 
BRANCH  83  84
ATOM     84  N   UNL A   1      45.056  35.645  32.257  1.00  0.00    -0.342 N 
ATOM     85  C   UNL A   1      45.605  35.979  31.054  1.00  0.00     0.243 C 
ATOM     86  H   UNL A   1      45.540  35.984  33.045  1.00  0.00     0.164 HD
ATOM     87  O   UNL A   1      46.833  35.869  30.963  1.00  0.00    -0.273 OA
BRANCH  85  88
ATOM     88  C   UNL A   1      44.800  36.730  29.959  1.00  0.00     0.176 C 
BRANCH  88  89
ATOM     89  N   UNL A   1      45.638  37.215  28.860  1.00  0.00    -0.340 N 
ATOM     90  C   UNL A   1      45.414  38.214  27.948  1.00  0.00     0.251 C 
ATOM     91  H   UNL A   1      46.500  36.750  28.760  1.00  0.00     0.164 HD
ATOM     92  O   UNL A   1      46.309  38.517  27.164  1.00  0.00    -0.269 OA
BRANCH  90  93
ATOM     93  C   UNL A   1      44.108  38.905  27.854  1.00  0.00     0.040 A 
ATOM     94  C   UNL A   1      43.171  38.610  26.858  1.00  0.00     0.017 A 
ATOM     95  C   UNL A   1      43.799  39.848  28.846  1.00  0.00     0.017 A 
ATOM     96  C   UNL A   1      41.961  39.306  26.816  1.00  0.00     0.040 A 
ATOM     97  C   UNL A   1      42.583  40.533  28.807  1.00  0.00     0.040 A 
ATOM     98  C   UNL A   1      41.681  40.265  27.786  1.00  0.00     0.123 A 
ATOM     99  F   UNL A   1      40.523  40.935  27.732  1.00  0.00    -0.207 F 
ENDBRANCH  90  93
ENDBRANCH  88  89
BRANCH  88 100
ATOM    100  C   UNL A   1      43.676  35.822  29.411  1.00  0.00     0.070 C 
BRANCH 100 101
ATOM    101  C   UNL A   1      44.127  34.896  28.302  1.00  0.00    -0.045 A 
ATOM    102  C   UNL A   1      43.472  34.879  27.062  1.00  0.00     0.007 A 
ATOM    103  C   UNL A   1      45.181  33.996  28.523  1.00  0.00     0.007 A 
ATOM    104  C   UNL A   1      43.856  33.972  26.068  1.00  0.00     0.046 A 
ATOM    105  C   UNL A   1      45.553  33.081  27.538  1.00  0.00     0.046 A 
ATOM    106  C   UNL A   1      44.888  33.074  26.319  1.00  0.00     0.115 A 
BRANCH 106 107
ATOM    107  O   UNL A   1      45.281  32.159  25.387  1.00  0.00    -0.508 OA
ATOM    108  H   UNL A   1      44.638  31.710  24.873  1.00  0.00     0.293 HD
ENDBRANCH 106 107
ENDBRANCH 100 101
ENDBRANCH  88 100
ENDBRANCH  85  88
ENDBRANCH  83  84
BRANCH  83 109
ATOM    109  C   UNL A   1      44.258  33.346  32.536  1.00  0.00     0.072 C 
BRANCH 109 110
ATOM    110  C   UNL A   1      43.416  32.496  31.641  1.00  0.00    -0.020 A 
ATOM    111  C   UNL A   1      42.092  32.726  31.277  1.00  0.00     0.087 A 
ATOM    112  C   UNL A   1      43.912  31.437  30.835  1.00  0.00     0.003 A 
ATOM    113  N   UNL A   1      41.675  32.057  30.131  1.00  0.00    -0.361 N 
ATOM    114  C   UNL A   1      42.698  31.363  29.551  1.00  0.00     0.046 A 
ATOM    115  C   UNL A   1      45.489  30.510  30.633  1.00  0.00     0.010 A 
ATOM    116  H   UNL A   1      40.755  32.081  29.780  1.00  0.00     0.166 HD
ATOM    117  C   UNL A   1      43.026  30.455  28.007  1.00  0.00     0.026 A 
ATOM    118  C   UNL A   1      45.838  29.605  29.100  1.00  0.00     0.001 A 
ATOM    119  C   UNL A   1      44.602  29.581  27.784  1.00  0.00     0.002 A 
ENDBRANCH 109 110
ENDBRANCH  83 109
ENDBRANCH  80  83
ENDBRANCH  78  79
BRANCH  78 120
ATOM    120  C   UNL A   1      45.855  35.946  36.187  1.00  0.00     0.191 C 
BRANCH 120 121
ATOM    121  O   UNL A   1      45.462  37.870  36.237  1.00  0.00    -0.394 OA
ATOM    122  H   UNL A   1      44.529  38.016  36.014  1.00  0.00     0.210 HD
ENDBRANCH 120 121
ENDBRANCH  78 120
ENDBRANCH   2  78
TORSDOF 27
ENDMDL
MODEL 2
REMARK VINA RESULT:      -7.7      4.546     13.401
REMARK SMILES O=C(NCCCCNC(=O)[C@H](CO)NC(=O)[C@H](Cc1c[nH]c2ccccc12)NC(=O)[C@H](Cc1ccc(O)cc1)NC(=O)c1ccc(F)cc1)c1ccc(-c2c3nc(c(-c4cccc(S(=O)(=O)[O-])c4F)c4ccc([nH]4)c(-c4cccc(S(=O)(=O)[O-])c4F)c4nc(c(-c5cccc(S(=O)(=O)[O-])c5F)c5ccc2[nH]5)C=C4)C=C3)cc1
REMARK SMILES IDX 8 1 9 2 10 3 7 5 6 6 5 7 4 8 3 9 1 10 2 11 50 13 51 14
REMARK SMILES IDX 112 15 52 16 111 17 53 18 54 19 55 20 105 21 56 22 110 23
REMARK SMILES IDX 104 24 106 25 57 26 109 27 103 28 102 29 58 31 90 32 70 33
REMARK SMILES IDX 89 34 71 35 74 36 88 37 107 38 72 39 73 40 87 42 108 43
REMARK SMILES IDX 75 44 59 45 60 46 68 47 61 48 63 49 69 50 62 51 64 52 65 53
REMARK SMILES IDX 66 54 67 55 91 56 92 57 100 58 93 59 95 60 101 61 94 62
REMARK SMILES IDX 96 63 97 64 98 65 99 66 76 67 77 68 85 69 78 70 80 71 86 72
REMARK SMILES IDX 79 73 81 74 82 75 83 76 84 77 11 78 14 79 15 80 16 82 17 83
REMARK SMILES IDX 28 84 29 85 30 87 31 88 40 89 41 90 42 92 43 93 44 94 49 95
REMARK SMILES IDX 45 96 48 97 46 98 47 99 32 100 33 101 34 102 39 103 35 104
REMARK SMILES IDX 38 105 36 106 37 107 18 109 19 110 20 111 27 112 21 113
REMARK SMILES IDX 22 114 26 115 23 117 25 118 24 119 12 120 13 121
REMARK H PARENT 8 4 3 12 106 30 74 41 14 81 28 86 40 91 37 108 21 116 13 122
REMARK Flexibility Score: inf
ROOT
ATOM      1  N   UNL A   1      38.774  30.827  29.095  1.00  0.00    -0.354 N 
ATOM      2  C   UNL A   1      38.768  29.659  28.372  1.00  0.00     0.244 C 
ATOM      3  O   UNL A   1      37.688  29.204  27.992  1.00  0.00    -0.273 OA
ATOM      4  H   UNL A   1      37.949  31.361  29.037  1.00  0.00     0.163 HD
ENDROOT
BRANCH   1   5
ATOM      5  C   UNL A   1      39.823  31.389  29.934  1.00  0.00     0.116 C 
BRANCH   5   6
ATOM      6  C   UNL A   1      39.335  32.455  30.913  1.00  0.00     0.023 C 
BRANCH   6   7
ATOM      7  C   UNL A   1      39.698  33.878  30.533  1.00  0.00     0.023 C 
BRANCH   7   8
ATOM      8  C   UNL A   1      41.178  34.082  30.287  1.00  0.00     0.116 C 
BRANCH   8   9
ATOM      9  N   UNL A   1      41.449  34.991  29.178  1.00  0.00    -0.352 N 
ATOM     10  O   UNL A   1      42.772  36.002  27.638  1.00  0.00    -0.269 OA
ATOM     11  C   UNL A   1      42.603  35.086  28.434  1.00  0.00     0.251 C 
ATOM     12  H   UNL A   1      40.720  35.606  28.934  1.00  0.00     0.163 HD
BRANCH  11  13
ATOM     13  C   UNL A   1      43.636  34.054  28.648  1.00  0.00     0.039 A 
ATOM     14  C   UNL A   1      43.240  32.715  28.695  1.00  0.00     0.014 A 
ATOM     15  C   UNL A   1      44.951  34.422  28.930  1.00  0.00     0.014 A 
ATOM     16  C   UNL A   1      44.104  31.772  29.218  1.00  0.00     0.010 A 
ATOM     17  C   UNL A   1      45.862  33.439  29.324  1.00  0.00     0.010 A 
ATOM     18  C   UNL A   1      45.436  32.113  29.505  1.00  0.00    -0.014 A 
BRANCH  18  19
ATOM     19  C   UNL A   1      46.374  31.034  29.893  1.00  0.00     0.031 A 
ATOM     20  C   UNL A   1      47.018  30.140  28.873  1.00  0.00     0.074 A 
ATOM     21  C   UNL A   1      46.652  30.891  31.206  1.00  0.00     0.049 A 
ATOM     22  N   UNL A   1      47.841  29.142  29.069  1.00  0.00    -0.248 NA
ATOM     23  C   UNL A   1      46.700  30.381  27.457  1.00  0.00     0.031 C 
ATOM     24  C   UNL A   1      46.060  31.697  32.279  1.00  0.00     0.029 A 
ATOM     25  N   UNL A   1      47.499  30.040  31.864  1.00  0.00    -0.354 N 
ATOM     26  C   UNL A   1      48.099  28.605  27.813  1.00  0.00     0.074 A 
ATOM     27  C   UNL A   1      47.350  29.391  26.857  1.00  0.00     0.031 C 
ATOM     28  C   UNL A   1      46.599  31.341  33.451  1.00  0.00     0.029 A 
ATOM     29  C   UNL A   1      47.503  30.222  33.227  1.00  0.00     0.049 A 
ATOM     30  H   UNL A   1      48.051  29.365  31.406  1.00  0.00     0.167 HD
ATOM     31  C   UNL A   1      48.897  27.558  27.495  1.00  0.00     0.034 A 
ATOM     32  C   UNL A   1      48.138  29.545  34.202  1.00  0.00     0.034 A 
ATOM     33  C   UNL A   1      49.673  26.820  28.457  1.00  0.00     0.049 A 
ATOM     34  C   UNL A   1      49.024  28.401  33.813  1.00  0.00     0.074 A 
ATOM     35  C   UNL A   1      50.552  25.774  28.229  1.00  0.00     0.029 A 
ATOM     36  N   UNL A   1      49.668  27.045  29.826  1.00  0.00    -0.354 N 
ATOM     37  N   UNL A   1      49.318  27.963  32.613  1.00  0.00    -0.248 NA
ATOM     38  C   UNL A   1      49.675  27.667  34.904  1.00  0.00     0.031 C 
ATOM     39  C   UNL A   1      51.063  25.357  29.462  1.00  0.00     0.029 A 
ATOM     40  C   UNL A   1      50.520  26.155  30.456  1.00  0.00     0.049 A 
ATOM     41  H   UNL A   1      49.136  27.737  30.282  1.00  0.00     0.167 HD
ATOM     42  C   UNL A   1      50.196  26.906  32.801  1.00  0.00     0.074 A 
ATOM     43  C   UNL A   1      50.413  26.794  34.231  1.00  0.00     0.031 C 
ATOM     44  C   UNL A   1      50.754  26.088  31.877  1.00  0.00     0.034 A 
BRANCH  31  45
ATOM     45  C   UNL A   1      49.016  27.159  26.048  1.00  0.00     0.023 A 
ATOM     46  C   UNL A   1      48.039  26.321  25.475  1.00  0.00     0.012 A 
ATOM     47  C   UNL A   1      50.024  27.705  25.227  1.00  0.00     0.148 A 
ATOM     48  C   UNL A   1      48.069  26.023  24.112  1.00  0.00     0.002 A 
ATOM     49  C   UNL A   1      50.025  27.436  23.863  1.00  0.00     0.091 A 
ATOM     50  F   UNL A   1      50.955  28.487  25.794  1.00  0.00    -0.205 F 
ATOM     51  C   UNL A   1      49.052  26.590  23.306  1.00  0.00     0.022 A 
BRANCH  49  52
ATOM     52  S   UNL A   1      51.200  28.178  22.723  1.00  0.00     0.127 S 
ATOM     53  O   UNL A   1      52.396  27.373  22.969  1.00  0.00    -0.237 OA
ATOM     54  O   UNL A   1      50.564  27.941  21.427  1.00  0.00    -0.237 OA
ATOM     55  O   UNL A   1      51.303  29.578  23.106  1.00  0.00    -0.744 OA
ENDBRANCH  49  52
ENDBRANCH  31  45
BRANCH  32  56
ATOM     56  C   UNL A   1      47.966  29.971  35.617  1.00  0.00     0.023 A 
ATOM     57  C   UNL A   1      48.786  30.989  36.137  1.00  0.00     0.012 A 
ATOM     58  C   UNL A   1      46.931  29.446  36.418  1.00  0.00     0.148 A 
ATOM     59  C   UNL A   1      48.586  31.470  37.431  1.00  0.00     0.002 A 
ATOM     60  C   UNL A   1      46.694  29.977  37.680  1.00  0.00     0.091 A 
ATOM     61  F   UNL A   1      46.169  28.465  35.911  1.00  0.00    -0.205 F 
ATOM     62  C   UNL A   1      47.531  30.978  38.195  1.00  0.00     0.022 A 
BRANCH  60  63
ATOM     63  S   UNL A   1      45.256  29.519  38.655  1.00  0.00     0.127 S 
ATOM     64  O   UNL A   1      44.207  29.476  37.640  1.00  0.00    -0.237 OA
ATOM     65  O   UNL A   1      45.653  28.216  39.189  1.00  0.00    -0.237 OA
ATOM     66  O   UNL A   1      45.123  30.562  39.664  1.00  0.00    -0.744 OA
ENDBRANCH  60  63
ENDBRANCH  32  56
BRANCH  44  67
ATOM     67  C   UNL A   1      51.658  24.995  32.376  1.00  0.00     0.023 A 
ATOM     68  C   UNL A   1      53.043  25.227  32.457  1.00  0.00     0.012 A 
ATOM     69  C   UNL A   1      51.126  23.779  32.848  1.00  0.00     0.148 A 
ATOM     70  C   UNL A   1      53.893  24.255  32.984  1.00  0.00     0.002 A 
ATOM     71  C   UNL A   1      51.973  22.836  33.417  1.00  0.00     0.091 A 
ATOM     72  F   UNL A   1      49.805  23.573  32.741  1.00  0.00    -0.205 F 
ATOM     73  C   UNL A   1      53.356  23.067  33.476  1.00  0.00     0.022 A 
BRANCH  71  74
ATOM     74  S   UNL A   1      51.360  21.322  34.164  1.00  0.00     0.127 S 
ATOM     75  O   UNL A   1      50.698  20.677  33.031  1.00  0.00    -0.237 OA
ATOM     76  O   UNL A   1      52.595  20.670  34.601  1.00  0.00    -0.237 OA
ATOM     77  O   UNL A   1      50.481  21.737  35.248  1.00  0.00    -0.744 OA
ENDBRANCH  71  74
ENDBRANCH  44  67
ENDBRANCH  18  19
ENDBRANCH  11  13
ENDBRANCH   8   9
ENDBRANCH   7   8
ENDBRANCH   6   7
ENDBRANCH   5   6
ENDBRANCH   1   5
BRANCH   2  78
ATOM     78  C   UNL A   1      40.097  28.909  28.152  1.00  0.00     0.197 C 
BRANCH  78  79
ATOM     79  N   UNL A   1      39.886  27.471  28.405  1.00  0.00    -0.340 N 
ATOM     80  C   UNL A   1      40.798  26.472  28.587  1.00  0.00     0.243 C 
ATOM     81  H   UNL A   1      38.945  27.189  28.449  1.00  0.00     0.164 HD
ATOM     82  O   UNL A   1      40.359  25.315  28.582  1.00  0.00    -0.273 OA
BRANCH  80  83
ATOM     83  C   UNL A   1      42.303  26.758  28.924  1.00  0.00     0.175 C 
BRANCH  83  84
ATOM     84  N   UNL A   1      43.110  26.480  27.718  1.00  0.00    -0.342 N 
ATOM     85  C   UNL A   1      44.449  26.257  27.599  1.00  0.00     0.243 C 
ATOM     86  H   UNL A   1      42.605  26.454  26.873  1.00  0.00     0.164 HD
ATOM     87  O   UNL A   1      45.021  26.834  26.668  1.00  0.00    -0.273 OA
BRANCH  85  88
ATOM     88  C   UNL A   1      45.172  25.129  28.385  1.00  0.00     0.176 C 
BRANCH  88  89
ATOM     89  N   UNL A   1      45.819  24.144  27.515  1.00  0.00    -0.340 N 
ATOM     90  C   UNL A   1      45.287  23.089  26.821  1.00  0.00     0.251 C 
ATOM     91  H   UNL A   1      46.792  24.259  27.412  1.00  0.00     0.164 HD
ATOM     92  O   UNL A   1      46.012  22.445  26.068  1.00  0.00    -0.269 OA
BRANCH  90  93
ATOM     93  C   UNL A   1      43.875  22.677  26.990  1.00  0.00     0.040 A 
ATOM     94  C   UNL A   1      43.261  22.590  28.244  1.00  0.00     0.017 A 
ATOM     95  C   UNL A   1      43.131  22.422  25.828  1.00  0.00     0.017 A 
ATOM     96  C   UNL A   1      41.928  22.183  28.337  1.00  0.00     0.040 A 
ATOM     97  C   UNL A   1      41.794  22.027  25.925  1.00  0.00     0.040 A 
ATOM     98  C   UNL A   1      41.210  21.899  27.178  1.00  0.00     0.123 A 
ATOM     99  F   UNL A   1      39.935  21.499  27.278  1.00  0.00    -0.207 F 
ENDBRANCH  90  93
ENDBRANCH  88  89
BRANCH  88 100
ATOM    100  C   UNL A   1      46.203  25.739  29.361  1.00  0.00     0.070 C 
BRANCH 100 101
ATOM    101  C   UNL A   1      45.956  25.379  30.811  1.00  0.00    -0.045 A 
ATOM    102  C   UNL A   1      44.808  24.672  31.195  1.00  0.00     0.007 A 
ATOM    103  C   UNL A   1      46.854  25.802  31.802  1.00  0.00     0.007 A 
ATOM    104  C   UNL A   1      44.558  24.404  32.545  1.00  0.00     0.046 A 
ATOM    105  C   UNL A   1      46.597  25.550  33.150  1.00  0.00     0.046 A 
ATOM    106  C   UNL A   1      45.451  24.855  33.512  1.00  0.00     0.115 A 
BRANCH 106 107
ATOM    107  O   UNL A   1      45.235  24.634  34.841  1.00  0.00    -0.508 OA
ATOM    108  H   UNL A   1      45.378  25.324  35.459  1.00  0.00     0.293 HD
ENDBRANCH 106 107
ENDBRANCH 100 101
ENDBRANCH  88 100
ENDBRANCH  85  88
ENDBRANCH  83  84
BRANCH  83 109
ATOM    109  C   UNL A   1      42.718  28.166  29.452  1.00  0.00     0.072 C 
BRANCH 109 110
ATOM    110  C   UNL A   1      42.933  28.223  30.930  1.00  0.00    -0.020 A 
ATOM    111  C   UNL A   1      44.156  28.267  31.593  1.00  0.00     0.087 A 
ATOM    112  C   UNL A   1      41.910  28.475  31.883  1.00  0.00     0.003 A 
ATOM    113  N   UNL A   1      44.097  28.739  32.901  1.00  0.00    -0.361 N 
ATOM    114  C   UNL A   1      42.836  29.141  33.235  1.00  0.00     0.046 A 
ATOM    115  C   UNL A   1      40.075  28.607  31.901  1.00  0.00     0.010 A 
ATOM    116  H   UNL A   1      44.870  28.779  33.510  1.00  0.00     0.166 HD
ATOM    117  C   UNL A   1      42.001  30.023  34.593  1.00  0.00     0.026 A 
ATOM    118  C   UNL A   1      39.226  29.487  33.241  1.00  0.00     0.001 A 
ATOM    119  C   UNL A   1      40.194  30.199  34.588  1.00  0.00     0.002 A 
ENDBRANCH 109 110
ENDBRANCH  83 109
ENDBRANCH  80  83
ENDBRANCH  78  79
BRANCH  78 120
ATOM    120  C   UNL A   1      40.631  29.144  26.599  1.00  0.00     0.191 C 
BRANCH 120 121
ATOM    121  O   UNL A   1      41.617  27.909  25.432  1.00  0.00    -0.394 OA
ATOM    122  H   UNL A   1      41.923  27.149  25.951  1.00  0.00     0.210 HD
ENDBRANCH 120 121
ENDBRANCH  78 120
ENDBRANCH   2  78
TORSDOF 27
ENDMDL
MODEL 3
REMARK VINA RESULT:      -7.4      3.878     10.162
REMARK SMILES O=C(NCCCCNC(=O)[C@H](CO)NC(=O)[C@H](Cc1c[nH]c2ccccc12)NC(=O)[C@H](Cc1ccc(O)cc1)NC(=O)c1ccc(F)cc1)c1ccc(-c2c3nc(c(-c4cccc(S(=O)(=O)[O-])c4F)c4ccc([nH]4)c(-c4cccc(S(=O)(=O)[O-])c4F)c4nc(c(-c5cccc(S(=O)(=O)[O-])c5F)c5ccc2[nH]5)C=C4)C=C3)cc1
REMARK SMILES IDX 8 1 9 2 10 3 7 5 6 6 5 7 4 8 3 9 1 10 2 11 50 13 51 14
REMARK SMILES IDX 112 15 52 16 111 17 53 18 54 19 55 20 105 21 56 22 110 23
REMARK SMILES IDX 104 24 106 25 57 26 109 27 103 28 102 29 58 31 90 32 70 33
REMARK SMILES IDX 89 34 71 35 74 36 88 37 107 38 72 39 73 40 87 42 108 43
REMARK SMILES IDX 75 44 59 45 60 46 68 47 61 48 63 49 69 50 62 51 64 52 65 53
REMARK SMILES IDX 66 54 67 55 91 56 92 57 100 58 93 59 95 60 101 61 94 62
REMARK SMILES IDX 96 63 97 64 98 65 99 66 76 67 77 68 85 69 78 70 80 71 86 72
REMARK SMILES IDX 79 73 81 74 82 75 83 76 84 77 11 78 14 79 15 80 16 82 17 83
REMARK SMILES IDX 28 84 29 85 30 87 31 88 40 89 41 90 42 92 43 93 44 94 49 95
REMARK SMILES IDX 45 96 48 97 46 98 47 99 32 100 33 101 34 102 39 103 35 104
REMARK SMILES IDX 38 105 36 106 37 107 18 109 19 110 20 111 27 112 21 113
REMARK SMILES IDX 22 114 26 115 23 117 25 118 24 119 12 120 13 121
REMARK H PARENT 8 4 3 12 106 30 74 41 14 81 28 86 40 91 37 108 21 116 13 122
REMARK Flexibility Score: inf
ROOT
ATOM      1  N   UNL A   1      47.851  25.125  26.084  1.00  0.00    -0.354 N 
ATOM      2  C   UNL A   1      46.885  25.087  27.061  1.00  0.00     0.244 C 
ATOM      3  O   UNL A   1      47.078  24.387  28.056  1.00  0.00    -0.273 OA
ATOM      4  H   UNL A   1      48.740  24.805  26.359  1.00  0.00     0.163 HD
ENDROOT
BRANCH   1   5
ATOM      5  C   UNL A   1      47.750  25.570  24.702  1.00  0.00     0.116 C 
BRANCH   5   6
ATOM      6  C   UNL A   1      49.066  26.068  24.108  1.00  0.00     0.023 C 
BRANCH   6   7
ATOM      7  C   UNL A   1      49.347  27.541  24.336  1.00  0.00     0.023 C 
BRANCH   7   8
ATOM      8  C   UNL A   1      49.212  27.968  25.782  1.00  0.00     0.116 C 
BRANCH   8   9
ATOM      9  N   UNL A   1      50.445  27.794  26.542  1.00  0.00    -0.352 N 
ATOM     10  O   UNL A   1      51.840  28.165  28.292  1.00  0.00    -0.269 OA
ATOM     11  C   UNL A   1      50.709  28.224  27.823  1.00  0.00     0.251 C 
ATOM     12  H   UNL A   1      51.172  27.312  26.086  1.00  0.00     0.163 HD
BRANCH  11  13
ATOM     13  C   UNL A   1      49.583  28.777  28.599  1.00  0.00     0.039 A 
ATOM     14  C   UNL A   1      49.675  30.092  29.061  1.00  0.00     0.014 A 
ATOM     15  C   UNL A   1      48.516  27.961  28.971  1.00  0.00     0.014 A 
ATOM     16  C   UNL A   1      48.814  30.522  30.053  1.00  0.00     0.010 A 
ATOM     17  C   UNL A   1      47.565  28.453  29.869  1.00  0.00     0.010 A 
ATOM     18  C   UNL A   1      47.727  29.723  30.444  1.00  0.00    -0.014 A 
BRANCH  18  19
ATOM     19  C   UNL A   1      46.728  30.295  31.378  1.00  0.00     0.031 A 
ATOM     20  C   UNL A   1      45.784  31.385  30.957  1.00  0.00     0.074 A 
ATOM     21  C   UNL A   1      46.679  29.787  32.626  1.00  0.00     0.049 A 
ATOM     22  N   UNL A   1      44.874  31.994  31.672  1.00  0.00    -0.248 NA
ATOM     23  C   UNL A   1      45.869  31.861  29.567  1.00  0.00     0.031 C 
ATOM     24  C   UNL A   1      47.570  28.740  33.139  1.00  0.00     0.029 A 
ATOM     25  N   UNL A   1      45.852  30.060  33.683  1.00  0.00    -0.354 N 
ATOM     26  C   UNL A   1      44.314  32.957  30.841  1.00  0.00     0.074 A 
ATOM     27  C   UNL A   1      44.982  32.849  29.563  1.00  0.00     0.031 C 
ATOM     28  C   UNL A   1      47.209  28.423  34.388  1.00  0.00     0.029 A 
ATOM     29  C   UNL A   1      46.126  29.305  34.798  1.00  0.00     0.049 A 
ATOM     30  H   UNL A   1      45.133  30.731  33.646  1.00  0.00     0.167 HD
ATOM     31  C   UNL A   1      43.327  33.840  31.125  1.00  0.00     0.034 A 
ATOM     32  C   UNL A   1      45.588  29.333  36.032  1.00  0.00     0.034 A 
ATOM     33  C   UNL A   1      42.642  33.898  32.389  1.00  0.00     0.049 A 
ATOM     34  C   UNL A   1      44.488  30.312  36.307  1.00  0.00     0.074 A 
ATOM     35  C   UNL A   1      41.593  34.722  32.760  1.00  0.00     0.029 A 
ATOM     36  N   UNL A   1      42.931  33.103  33.489  1.00  0.00    -0.354 N 
ATOM     37  N   UNL A   1      43.918  31.157  35.483  1.00  0.00    -0.248 NA
ATOM     38  C   UNL A   1      43.949  30.337  37.671  1.00  0.00     0.031 C 
ATOM     39  C   UNL A   1      41.261  34.438  34.088  1.00  0.00     0.029 A 
ATOM     40  C   UNL A   1      42.088  33.422  34.539  1.00  0.00     0.049 A 
ATOM     41  H   UNL A   1      43.633  32.413  33.518  1.00  0.00     0.167 HD
ATOM     42  C   UNL A   1      42.944  31.810  36.223  1.00  0.00     0.074 A 
ATOM     43  C   UNL A   1      42.980  31.236  37.555  1.00  0.00     0.031 C 
ATOM     44  C   UNL A   1      42.113  32.809  35.844  1.00  0.00     0.034 A 
BRANCH  31  45
ATOM     45  C   UNL A   1      42.887  34.796  30.048  1.00  0.00     0.023 A 
ATOM     46  C   UNL A   1      41.730  34.511  29.295  1.00  0.00     0.012 A 
ATOM     47  C   UNL A   1      43.547  36.028  29.860  1.00  0.00     0.148 A 
ATOM     48  C   UNL A   1      41.243  35.431  28.365  1.00  0.00     0.002 A 
ATOM     49  C   UNL A   1      43.033  36.956  28.961  1.00  0.00     0.091 A 
ATOM     50  F   UNL A   1      44.655  36.273  30.574  1.00  0.00    -0.205 F 
ATOM     51  C   UNL A   1      41.886  36.655  28.208  1.00  0.00     0.022 A 
BRANCH  49  52
ATOM     52  S   UNL A   1      43.740  38.593  28.740  1.00  0.00     0.127 S 
ATOM     53  O   UNL A   1      42.869  39.153  27.707  1.00  0.00    -0.237 OA
ATOM     54  O   UNL A   1      43.567  39.185  30.067  1.00  0.00    -0.237 OA
ATOM     55  O   UNL A   1      45.124  38.385  28.340  1.00  0.00    -0.744 OA
ENDBRANCH  49  52
ENDBRANCH  31  45
BRANCH  32  56
ATOM     56  C   UNL A   1      46.078  28.379  37.063  1.00  0.00     0.023 A 
ATOM     57  C   UNL A   1      45.505  27.096  37.145  1.00  0.00     0.012 A 
ATOM     58  C   UNL A   1      47.172  28.697  37.894  1.00  0.00     0.148 A 
ATOM     59  C   UNL A   1      46.006  26.151  38.042  1.00  0.00     0.002 A 
ATOM     60  C   UNL A   1      47.709  27.730  38.734  1.00  0.00     0.091 A 
ATOM     61  F   UNL A   1      47.695  29.930  37.812  1.00  0.00    -0.205 F 
ATOM     62  C   UNL A   1      47.117  26.461  38.822  1.00  0.00     0.022 A 
BRANCH  60  63
ATOM     63  S   UNL A   1      49.237  27.994  39.641  1.00  0.00     0.127 S 
ATOM     64  O   UNL A   1      49.408  26.713  40.319  1.00  0.00    -0.237 OA
ATOM     65  O   UNL A   1      50.191  28.253  38.562  1.00  0.00    -0.237 OA
ATOM     66  O   UNL A   1      48.985  29.142  40.502  1.00  0.00    -0.744 OA
ENDBRANCH  60  63
ENDBRANCH  32  56
BRANCH  44  67
ATOM     67  C   UNL A   1      41.166  33.352  36.878  1.00  0.00     0.023 A 
ATOM     68  C   UNL A   1      41.504  34.526  37.577  1.00  0.00     0.012 A 
ATOM     69  C   UNL A   1      39.908  32.754  37.088  1.00  0.00     0.148 A 
ATOM     70  C   UNL A   1      40.612  35.088  38.489  1.00  0.00     0.002 A 
ATOM     71  C   UNL A   1      39.005  33.347  37.961  1.00  0.00     0.091 A 
ATOM     72  F   UNL A   1      39.617  31.625  36.426  1.00  0.00    -0.205 F 
ATOM     73  C   UNL A   1      39.358  34.508  38.669  1.00  0.00     0.022 A 
BRANCH  71  74
ATOM     74  S   UNL A   1      37.334  32.726  38.184  1.00  0.00     0.127 S 
ATOM     75  O   UNL A   1      36.630  33.359  37.069  1.00  0.00    -0.237 OA
ATOM     76  O   UNL A   1      37.520  31.281  38.047  1.00  0.00    -0.237 OA
ATOM     77  O   UNL A   1      36.919  33.158  39.512  1.00  0.00    -0.744 OA
ENDBRANCH  71  74
ENDBRANCH  44  67
ENDBRANCH  18  19
ENDBRANCH  11  13
ENDBRANCH   8   9
ENDBRANCH   7   8
ENDBRANCH   6   7
ENDBRANCH   5   6
ENDBRANCH   1   5
BRANCH   2  78
ATOM     78  C   UNL A   1      45.557  25.835  26.830  1.00  0.00     0.197 C 
BRANCH  78  79
ATOM     79  N   UNL A   1      44.586  25.422  27.859  1.00  0.00    -0.340 N 
ATOM     80  C   UNL A   1      43.221  25.425  27.826  1.00  0.00     0.243 C 
ATOM     81  H   UNL A   1      44.982  25.095  28.699  1.00  0.00     0.164 HD
ATOM     82  O   UNL A   1      42.642  25.217  28.900  1.00  0.00    -0.273 OA
BRANCH  80  83
ATOM     83  C   UNL A   1      42.413  25.544  26.488  1.00  0.00     0.175 C 
BRANCH  83  84
ATOM     84  N   UNL A   1      42.673  26.877  25.905  1.00  0.00    -0.342 N 
ATOM     85  C   UNL A   1      41.902  28.001  25.923  1.00  0.00     0.243 C 
ATOM     86  H   UNL A   1      43.532  26.967  25.433  1.00  0.00     0.164 HD
ATOM     87  O   UNL A   1      41.814  28.622  24.858  1.00  0.00    -0.273 OA
BRANCH  85  88
ATOM     88  C   UNL A   1      41.402  28.639  27.248  1.00  0.00     0.176 C 
BRANCH  88  89
ATOM     89  N   UNL A   1      40.954  27.648  28.230  1.00  0.00    -0.340 N 
ATOM     90  C   UNL A   1      39.770  27.549  28.912  1.00  0.00     0.251 C 
ATOM     91  H   UNL A   1      41.608  26.940  28.431  1.00  0.00     0.164 HD
ATOM     92  O   UNL A   1      39.572  26.569  29.625  1.00  0.00    -0.269 OA
BRANCH  90  93
ATOM     93  C   UNL A   1      38.742  28.614  28.850  1.00  0.00     0.040 A 
ATOM     94  C   UNL A   1      38.375  29.236  27.652  1.00  0.00     0.017 A 
ATOM     95  C   UNL A   1      38.089  28.955  30.044  1.00  0.00     0.017 A 
ATOM     96  C   UNL A   1      37.407  30.243  27.662  1.00  0.00     0.040 A 
ATOM     97  C   UNL A   1      37.113  29.954  30.047  1.00  0.00     0.040 A 
ATOM     98  C   UNL A   1      36.791  30.598  28.859  1.00  0.00     0.123 A 
ATOM     99  F   UNL A   1      35.871  31.571  28.861  1.00  0.00    -0.207 F 
ENDBRANCH  90  93
ENDBRANCH  88  89
BRANCH  88 100
ATOM    100  C   UNL A   1      42.506  29.532  27.857  1.00  0.00     0.070 C 
BRANCH 100 101
ATOM    101  C   UNL A   1      42.394  29.699  29.358  1.00  0.00    -0.045 A 
ATOM    102  C   UNL A   1      43.154  28.909  30.232  1.00  0.00     0.007 A 
ATOM    103  C   UNL A   1      41.479  30.617  29.896  1.00  0.00     0.007 A 
ATOM    104  C   UNL A   1      42.993  29.026  31.617  1.00  0.00     0.046 A 
ATOM    105  C   UNL A   1      41.306  30.722  31.276  1.00  0.00     0.046 A 
ATOM    106  C   UNL A   1      42.063  29.927  32.127  1.00  0.00     0.115 A 
BRANCH 106 107
ATOM    107  O   UNL A   1      41.858  30.058  33.469  1.00  0.00    -0.508 OA
ATOM    108  H   UNL A   1      42.572  30.292  34.030  1.00  0.00     0.293 HD
ENDBRANCH 106 107
ENDBRANCH 100 101
ENDBRANCH  88 100
ENDBRANCH  85  88
ENDBRANCH  83  84
BRANCH  83 109
ATOM    109  C   UNL A   1      42.633  24.489  25.359  1.00  0.00     0.072 C 
BRANCH 109 110
ATOM    110  C   UNL A   1      42.583  23.072  25.832  1.00  0.00    -0.020 A 
ATOM    111  C   UNL A   1      41.451  22.367  26.229  1.00  0.00     0.087 A 
ATOM    112  C   UNL A   1      43.659  22.151  25.732  1.00  0.00     0.003 A 
ATOM    113  N   UNL A   1      41.588  20.982  26.212  1.00  0.00    -0.361 N 
ATOM    114  C   UNL A   1      42.805  20.602  25.725  1.00  0.00     0.046 A 
ATOM    115  C   UNL A   1      45.444  22.193  25.289  1.00  0.00     0.010 A 
ATOM    116  H   UNL A   1      40.892  20.353  26.513  1.00  0.00     0.166 HD
ATOM    117  C   UNL A   1      43.649  19.073  25.207  1.00  0.00     0.026 A 
ATOM    118  C   UNL A   1      46.301  20.683  24.764  1.00  0.00     0.001 A 
ATOM    119  C   UNL A   1      45.398  19.120  24.721  1.00  0.00     0.002 A 
ENDBRANCH 109 110
ENDBRANCH  83 109
ENDBRANCH  80  83
ENDBRANCH  78  79
BRANCH  78 120
ATOM    120  C   UNL A   1      45.809  27.474  26.904  1.00  0.00     0.191 C 
BRANCH 120 121
ATOM    121  O   UNL A   1      45.209  28.872  25.662  1.00  0.00    -0.394 OA
ATOM    122  H   UNL A   1      45.668  29.702  25.863  1.00  0.00     0.210 HD
ENDBRANCH 120 121
ENDBRANCH  78 120
ENDBRANCH   2  78
TORSDOF 27
ENDMDL
