MODEL 1
REMARK VINA RESULT:     -12.5      0.000      0.000
REMARK SMILES O=C(NCCCCNC(=O)c1cccc(S(=O)(=O)NC[C@@H]2COc3ccccc3O2)c1)c1ccc(-c2c3nc(c(-c4cccc(S(=O)(=O)[O-])c4F)c4ccc([nH]4)c(-c4cccc(S(=O)(=O)[O-])c4F)c4nc(c(-c5cccc(S(=O)(=O)[O-])c5F)c5ccc2[nH]5)C=C4)C=C3)cc1
REMARK SMILES IDX 6 1 5 2 4 3 3 4 1 5 2 6 32 8 33 9 94 10 34 11 93 12 35 13
REMARK SMILES IDX 36 14 37 15 87 16 38 17 92 18 86 19 88 20 39 21 91 22 85 23
REMARK SMILES IDX 84 24 40 26 72 27 52 28 71 29 53 30 56 31 70 32 89 33 54 34
REMARK SMILES IDX 55 35 69 37 90 38 57 39 41 40 42 41 50 42 43 43 45 44 51 45
REMARK SMILES IDX 44 46 46 47 47 48 48 49 49 50 73 51 74 52 82 53 75 54 77 55
REMARK SMILES IDX 83 56 76 57 78 58 79 59 80 60 81 61 58 62 59 63 67 64 60 65
REMARK SMILES IDX 62 66 68 67 61 68 63 69 64 70 65 71 66 72 7 73 8 74 9 75
REMARK SMILES IDX 10 77 11 78 12 79 31 80 13 81 15 82 14 83 16 84 17 85 18 86
REMARK SMILES IDX 19 87 20 89 21 90 22 91 30 92 23 93 29 94 24 95 28 96 25 97
REMARK SMILES IDX 27 98 26 99
REMARK H PARENT 3 7 88 25 56 36 8 76 19 88
REMARK Flexibility Score: inf
ROOT
ATOM      1  C   UNL A   1      31.393  29.179  23.621  1.00  0.00     0.023 C 
ENDROOT
BRANCH   1   2
ATOM      2  C   UNL A   1      32.778  29.305  24.248  1.00  0.00     0.023 C 
BRANCH   2   3
ATOM      3  C   UNL A   1      32.795  29.499  25.758  1.00  0.00     0.116 C 
BRANCH   3   4
ATOM      4  N   UNL A   1      32.357  30.824  26.172  1.00  0.00    -0.352 N 
ATOM      5  O   UNL A   1      32.352  32.720  27.390  1.00  0.00    -0.269 OA
ATOM      6  C   UNL A   1      32.937  31.690  27.072  1.00  0.00     0.251 C 
ATOM      7  H   UNL A   1      31.529  31.147  25.748  1.00  0.00     0.163 HD
BRANCH   6   8
ATOM      8  C   UNL A   1      34.246  31.348  27.673  1.00  0.00     0.039 A 
ATOM      9  C   UNL A   1      34.491  30.054  28.134  1.00  0.00     0.014 A 
ATOM     10  C   UNL A   1      35.224  32.337  27.806  1.00  0.00     0.014 A 
ATOM     11  C   UNL A   1      35.631  29.798  28.883  1.00  0.00     0.010 A 
ATOM     12  C   UNL A   1      36.421  32.047  28.471  1.00  0.00     0.010 A 
ATOM     13  C   UNL A   1      36.618  30.785  29.052  1.00  0.00    -0.014 A 
BRANCH  13  14
ATOM     14  C   UNL A   1      37.869  30.425  29.770  1.00  0.00     0.031 A 
ATOM     15  C   UNL A   1      38.141  30.885  31.177  1.00  0.00     0.074 A 
ATOM     16  C   UNL A   1      38.749  29.622  29.139  1.00  0.00     0.049 A 
ATOM     17  N   UNL A   1      39.143  30.574  31.958  1.00  0.00    -0.248 NA
ATOM     18  C   UNL A   1      37.177  31.816  31.786  1.00  0.00     0.031 C 
ATOM     19  C   UNL A   1      38.621  29.163  27.754  1.00  0.00     0.029 A 
ATOM     20  N   UNL A   1      39.909  29.036  29.575  1.00  0.00    -0.354 N 
ATOM     21  C   UNL A   1      38.954  31.290  33.134  1.00  0.00     0.074 A 
ATOM     22  C   UNL A   1      37.742  32.062  32.962  1.00  0.00     0.031 C 
ATOM     23  C   UNL A   1      39.630  28.328  27.468  1.00  0.00     0.029 A 
ATOM     24  C   UNL A   1      40.506  28.236  28.629  1.00  0.00     0.049 A 
ATOM     25  H   UNL A   1      40.277  29.173  30.477  1.00  0.00     0.167 HD
ATOM     26  C   UNL A   1      39.708  31.286  34.260  1.00  0.00     0.034 A 
ATOM     27  C   UNL A   1      41.640  27.510  28.682  1.00  0.00     0.034 A 
ATOM     28  C   UNL A   1      40.894  30.487  34.438  1.00  0.00     0.049 A 
ATOM     29  C   UNL A   1      42.421  27.484  29.962  1.00  0.00     0.074 A 
ATOM     30  C   UNL A   1      41.703  30.385  35.557  1.00  0.00     0.029 A 
ATOM     31  N   UNL A   1      41.440  29.651  33.477  1.00  0.00    -0.354 N 
ATOM     32  N   UNL A   1      42.154  28.076  31.101  1.00  0.00    -0.248 NA
ATOM     33  C   UNL A   1      43.645  26.673  29.974  1.00  0.00     0.031 C 
ATOM     34  C   UNL A   1      42.742  29.493  35.269  1.00  0.00     0.029 A 
ATOM     35  C   UNL A   1      42.574  29.030  33.975  1.00  0.00     0.049 A 
ATOM     36  H   UNL A   1      41.075  29.518  32.572  1.00  0.00     0.167 HD
ATOM     37  C   UNL A   1      43.173  27.702  31.968  1.00  0.00     0.074 A 
ATOM     38  C   UNL A   1      44.034  26.795  31.236  1.00  0.00     0.031 C 
ATOM     39  C   UNL A   1      43.395  28.100  33.245  1.00  0.00     0.034 A 
BRANCH  26  40
ATOM     40  C   UNL A   1      39.251  32.129  35.424  1.00  0.00     0.023 A 
ATOM     41  C   UNL A   1      38.394  31.563  36.389  1.00  0.00     0.012 A 
ATOM     42  C   UNL A   1      39.741  33.437  35.617  1.00  0.00     0.148 A 
ATOM     43  C   UNL A   1      38.017  32.289  37.518  1.00  0.00     0.002 A 
ATOM     44  C   UNL A   1      39.389  34.141  36.764  1.00  0.00     0.091 A 
ATOM     45  F   UNL A   1      40.542  33.964  34.680  1.00  0.00    -0.205 F 
ATOM     46  C   UNL A   1      38.523  33.572  37.711  1.00  0.00     0.022 A 
BRANCH  44  47
ATOM     47  S   UNL A   1      40.042  35.773  37.143  1.00  0.00     0.127 S 
ATOM     48  O   UNL A   1      39.367  36.073  38.406  1.00  0.00    -0.237 OA
ATOM     49  O   UNL A   1      41.475  35.511  37.266  1.00  0.00    -0.237 OA
ATOM     50  O   UNL A   1      39.673  36.624  36.021  1.00  0.00    -0.744 OA
ENDBRANCH  44  47
ENDBRANCH  26  40
BRANCH  27  51
ATOM     51  C   UNL A   1      42.064  26.719  27.495  1.00  0.00     0.023 A 
ATOM     52  C   UNL A   1      42.807  27.338  26.472  1.00  0.00     0.012 A 
ATOM     53  C   UNL A   1      41.782  25.343  27.399  1.00  0.00     0.148 A 
ATOM     54  C   UNL A   1      43.240  26.606  25.365  1.00  0.00     0.002 A 
ATOM     55  C   UNL A   1      42.274  24.606  26.328  1.00  0.00     0.091 A 
ATOM     56  F   UNL A   1      41.054  24.771  28.369  1.00  0.00    -0.205 F 
ATOM     57  C   UNL A   1      42.987  25.238  25.301  1.00  0.00     0.022 A 
BRANCH  55  58
ATOM     58  S   UNL A   1      42.126  22.816  26.280  1.00  0.00     0.127 S 
ATOM     59  O   UNL A   1      40.680  22.632  26.350  1.00  0.00    -0.237 OA
ATOM     60  O   UNL A   1      42.728  22.488  24.987  1.00  0.00    -0.237 OA
ATOM     61  O   UNL A   1      42.893  22.345  27.426  1.00  0.00    -0.744 OA
ENDBRANCH  55  58
ENDBRANCH  27  51
BRANCH  39  62
ATOM     62  C   UNL A   1      44.623  27.555  33.924  1.00  0.00     0.023 A 
ATOM     63  C   UNL A   1      45.835  28.269  33.837  1.00  0.00     0.012 A 
ATOM     64  C   UNL A   1      44.574  26.362  34.670  1.00  0.00     0.148 A 
ATOM     65  C   UNL A   1      46.990  27.785  34.449  1.00  0.00     0.002 A 
ATOM     66  C   UNL A   1      45.719  25.907  35.314  1.00  0.00     0.091 A 
ATOM     67  F   UNL A   1      43.419  25.683  34.721  1.00  0.00    -0.205 F 
ATOM     68  C   UNL A   1      46.930  26.609  35.195  1.00  0.00     0.022 A 
BRANCH  66  69
ATOM     69  S   UNL A   1      45.708  24.447  36.360  1.00  0.00     0.127 S 
ATOM     70  O   UNL A   1      47.125  24.303  36.688  1.00  0.00    -0.237 OA
ATOM     71  O   UNL A   1      44.861  24.866  37.478  1.00  0.00    -0.237 OA
ATOM     72  O   UNL A   1      45.137  23.384  35.543  1.00  0.00    -0.744 OA
ENDBRANCH  66  69
ENDBRANCH  39  62
ENDBRANCH  13  14
ENDBRANCH   6   8
ENDBRANCH   3   4
ENDBRANCH   2   3
ENDBRANCH   1   2
BRANCH   1  73
ATOM     73  C   UNL A   1      30.576  27.983  24.095  1.00  0.00     0.116 C 
BRANCH  73  74
ATOM     74  N   UNL A   1      30.586  26.894  23.130  1.00  0.00    -0.352 N 
ATOM     75  C   UNL A   1      31.415  25.808  23.032  1.00  0.00     0.251 C 
ATOM     76  H   UNL A   1      29.887  26.946  22.440  1.00  0.00     0.163 HD
ATOM     77  O   UNL A   1      31.394  25.111  22.022  1.00  0.00    -0.269 OA
BRANCH  75  78
ATOM     78  C   UNL A   1      32.294  25.413  24.154  1.00  0.00     0.041 A 
ATOM     79  C   UNL A   1      33.629  25.824  24.169  1.00  0.00     0.014 A 
ATOM     80  C   UNL A   1      31.843  24.509  25.113  1.00  0.00     0.035 A 
ATOM     81  C   UNL A   1      34.493  25.352  25.162  1.00  0.00     0.002 A 
ATOM     82  C   UNL A   1      32.715  23.998  26.070  1.00  0.00     0.083 A 
ATOM     83  C   UNL A   1      34.041  24.430  26.113  1.00  0.00     0.022 A 
BRANCH  82  84
ATOM     84  S   UNL A   1      32.147  22.764  27.212  1.00  0.00     0.240 S 
ATOM     85  O   UNL A   1      33.037  22.756  28.347  1.00  0.00    -0.207 OA
ATOM     86  O   UNL A   1      30.720  22.955  27.343  1.00  0.00    -0.207 OA
BRANCH  84  87
ATOM     87  N   UNL A   1      32.332  21.314  26.360  1.00  0.00    -0.207 NA
ATOM     88  H   UNL A   1      31.786  21.411  25.505  1.00  0.00     0.141 HD
BRANCH  87  89
ATOM     89  C   UNL A   1      33.677  20.823  25.946  1.00  0.00     0.147 C 
BRANCH  89  90
ATOM     90  C   UNL A   1      33.789  20.220  24.529  1.00  0.00     0.226 C 
ATOM     91  C   UNL A   1      32.467  19.707  23.946  1.00  0.00     0.276 C 
ATOM     92  O   UNL A   1      34.768  19.159  24.550  1.00  0.00    -0.482 OA
ATOM     93  O   UNL A   1      31.925  18.648  24.735  1.00  0.00    -0.486 OA
ATOM     94  C   UNL A   1      34.238  17.919  24.797  1.00  0.00     0.161 A 
ATOM     95  C   UNL A   1      32.868  17.669  24.899  1.00  0.00     0.161 A 
ATOM     96  C   UNL A   1      35.144  16.869  24.929  1.00  0.00     0.050 A 
ATOM     97  C   UNL A   1      32.401  16.386  25.172  1.00  0.00     0.050 A 
ATOM     98  C   UNL A   1      34.677  15.576  25.175  1.00  0.00     0.004 A 
ATOM     99  C   UNL A   1      33.308  15.336  25.302  1.00  0.00     0.004 A 
ENDBRANCH  89  90
ENDBRANCH  87  89
ENDBRANCH  84  87
ENDBRANCH  82  84
ENDBRANCH  75  78
ENDBRANCH  73  74
ENDBRANCH   1  73
TORSDOF 18
ENDMDL
MODEL 2
REMARK VINA RESULT:     -12.4      5.475      9.264
REMARK SMILES O=C(NCCCCNC(=O)c1cccc(S(=O)(=O)NC[C@@H]2COc3ccccc3O2)c1)c1ccc(-c2c3nc(c(-c4cccc(S(=O)(=O)[O-])c4F)c4ccc([nH]4)c(-c4cccc(S(=O)(=O)[O-])c4F)c4nc(c(-c5cccc(S(=O)(=O)[O-])c5F)c5ccc2[nH]5)C=C4)C=C3)cc1
REMARK SMILES IDX 6 1 5 2 4 3 3 4 1 5 2 6 32 8 33 9 94 10 34 11 93 12 35 13
REMARK SMILES IDX 36 14 37 15 87 16 38 17 92 18 86 19 88 20 39 21 91 22 85 23
REMARK SMILES IDX 84 24 40 26 72 27 52 28 71 29 53 30 56 31 70 32 89 33 54 34
REMARK SMILES IDX 55 35 69 37 90 38 57 39 41 40 42 41 50 42 43 43 45 44 51 45
REMARK SMILES IDX 44 46 46 47 47 48 48 49 49 50 73 51 74 52 82 53 75 54 77 55
REMARK SMILES IDX 83 56 76 57 78 58 79 59 80 60 81 61 58 62 59 63 67 64 60 65
REMARK SMILES IDX 62 66 68 67 61 68 63 69 64 70 65 71 66 72 7 73 8 74 9 75
REMARK SMILES IDX 10 77 11 78 12 79 31 80 13 81 15 82 14 83 16 84 17 85 18 86
REMARK SMILES IDX 19 87 20 89 21 90 22 91 30 92 23 93 29 94 24 95 28 96 25 97
REMARK SMILES IDX 27 98 26 99
REMARK H PARENT 3 7 88 25 56 36 8 76 19 88
REMARK Flexibility Score: inf
ROOT
ATOM      1  C   UNL A   1      37.346  21.062  24.653  1.00  0.00     0.023 C 
ENDROOT
BRANCH   1   2
ATOM      2  C   UNL A   1      38.175  19.876  25.138  1.00  0.00     0.023 C 
BRANCH   2   3
ATOM      3  C   UNL A   1      39.357  20.229  26.032  1.00  0.00     0.116 C 
BRANCH   3   4
ATOM      4  N   UNL A   1      40.405  19.220  26.022  1.00  0.00    -0.352 N 
ATOM      5  O   UNL A   1      42.510  18.417  25.938  1.00  0.00    -0.269 OA
ATOM      6  C   UNL A   1      41.772  19.385  26.087  1.00  0.00     0.251 C 
ATOM      7  H   UNL A   1      40.094  18.288  25.962  1.00  0.00     0.163 HD
BRANCH   6   8
ATOM      8  C   UNL A   1      42.333  20.737  26.299  1.00  0.00     0.039 A 
ATOM      9  C   UNL A   1      42.502  21.234  27.592  1.00  0.00     0.014 A 
ATOM     10  C   UNL A   1      42.663  21.529  25.195  1.00  0.00     0.014 A 
ATOM     11  C   UNL A   1      42.825  22.571  27.776  1.00  0.00     0.010 A 
ATOM     12  C   UNL A   1      43.091  22.847  25.388  1.00  0.00     0.010 A 
ATOM     13  C   UNL A   1      43.137  23.394  26.679  1.00  0.00    -0.014 A 
BRANCH  13  14
ATOM     14  C   UNL A   1      43.582  24.788  26.940  1.00  0.00     0.031 A 
ATOM     15  C   UNL A   1      42.650  25.832  27.492  1.00  0.00     0.074 A 
ATOM     16  C   UNL A   1      44.876  25.090  26.713  1.00  0.00     0.049 A 
ATOM     17  N   UNL A   1      42.921  27.060  27.854  1.00  0.00    -0.248 NA
ATOM     18  C   UNL A   1      41.233  25.463  27.652  1.00  0.00     0.031 C 
ATOM     19  C   UNL A   1      45.858  24.176  26.123  1.00  0.00     0.029 A 
ATOM     20  N   UNL A   1      45.595  26.230  26.962  1.00  0.00    -0.354 N 
ATOM     21  C   UNL A   1      41.714  27.622  28.253  1.00  0.00     0.074 A 
ATOM     22  C   UNL A   1      40.702  26.602  28.079  1.00  0.00     0.031 C 
ATOM     23  C   UNL A   1      47.059  24.770  26.102  1.00  0.00     0.029 A 
ATOM     24  C   UNL A   1      46.924  26.124  26.624  1.00  0.00     0.049 A 
ATOM     25  H   UNL A   1      45.198  27.044  27.347  1.00  0.00     0.167 HD
ATOM     26  C   UNL A   1      41.477  28.864  28.739  1.00  0.00     0.034 A 
ATOM     27  C   UNL A   1      47.927  27.018  26.716  1.00  0.00     0.034 A 
ATOM     28  C   UNL A   1      42.495  29.863  28.942  1.00  0.00     0.049 A 
ATOM     29  C   UNL A   1      47.641  28.366  27.309  1.00  0.00     0.074 A 
ATOM     30  C   UNL A   1      42.359  31.137  29.467  1.00  0.00     0.029 A 
ATOM     31  N   UNL A   1      43.837  29.702  28.636  1.00  0.00    -0.354 N 
ATOM     32  N   UNL A   1      46.513  28.830  27.792  1.00  0.00    -0.248 NA
ATOM     33  C   UNL A   1      48.767  29.303  27.395  1.00  0.00     0.031 C 
ATOM     34  C   UNL A   1      43.617  31.749  29.470  1.00  0.00     0.029 A 
ATOM     35  C   UNL A   1      44.540  30.852  28.958  1.00  0.00     0.049 A 
ATOM     36  H   UNL A   1      44.233  28.890  28.245  1.00  0.00     0.167 HD
ATOM     37  C   UNL A   1      46.797  30.112  28.246  1.00  0.00     0.074 A 
ATOM     38  C   UNL A   1      48.212  30.330  28.025  1.00  0.00     0.031 C 
ATOM     39  C   UNL A   1      45.955  31.037  28.768  1.00  0.00     0.034 A 
BRANCH  26  40
ATOM     40  C   UNL A   1      40.066  29.210  29.145  1.00  0.00     0.023 A 
ATOM     41  C   UNL A   1      39.115  29.499  28.146  1.00  0.00     0.012 A 
ATOM     42  C   UNL A   1      39.657  29.154  30.493  1.00  0.00     0.148 A 
ATOM     43  C   UNL A   1      37.784  29.744  28.481  1.00  0.00     0.002 A 
ATOM     44  C   UNL A   1      38.321  29.364  30.815  1.00  0.00     0.091 A 
ATOM     45  F   UNL A   1      40.580  28.894  31.430  1.00  0.00    -0.205 F 
ATOM     46  C   UNL A   1      37.384  29.665  29.813  1.00  0.00     0.022 A 
BRANCH  44  47
ATOM     47  S   UNL A   1      37.688  29.216  32.492  1.00  0.00     0.127 S 
ATOM     48  O   UNL A   1      38.592  30.101  33.227  1.00  0.00    -0.237 OA
ATOM     49  O   UNL A   1      36.322  29.720  32.352  1.00  0.00    -0.237 OA
ATOM     50  O   UNL A   1      37.784  27.804  32.835  1.00  0.00    -0.744 OA
ENDBRANCH  44  47
ENDBRANCH  26  40
BRANCH  27  51
ATOM     51  C   UNL A   1      49.295  26.637  26.272  1.00  0.00     0.023 A 
ATOM     52  C   UNL A   1      50.056  25.739  27.044  1.00  0.00     0.012 A 
ATOM     53  C   UNL A   1      49.826  27.119  25.059  1.00  0.00     0.148 A 
ATOM     54  C   UNL A   1      51.329  25.346  26.628  1.00  0.00     0.002 A 
ATOM     55  C   UNL A   1      51.066  26.671  24.618  1.00  0.00     0.091 A 
ATOM     56  F   UNL A   1      49.101  27.991  24.346  1.00  0.00    -0.205 F 
ATOM     57  C   UNL A   1      51.828  25.800  25.409  1.00  0.00     0.022 A 
BRANCH  55  58
ATOM     58  S   UNL A   1      51.681  27.087  22.982  1.00  0.00     0.127 S 
ATOM     59  O   UNL A   1      50.550  26.723  22.134  1.00  0.00    -0.237 OA
ATOM     60  O   UNL A   1      51.927  28.525  23.097  1.00  0.00    -0.237 OA
ATOM     61  O   UNL A   1      52.891  26.291  22.823  1.00  0.00    -0.744 OA
ENDBRANCH  55  58
ENDBRANCH  27  51
BRANCH  39  62
ATOM     62  C   UNL A   1      46.550  32.371  29.130  1.00  0.00     0.023 A 
ATOM     63  C   UNL A   1      47.186  32.529  30.378  1.00  0.00     0.012 A 
ATOM     64  C   UNL A   1      46.511  33.454  28.231  1.00  0.00     0.148 A 
ATOM     65  C   UNL A   1      47.739  33.754  30.743  1.00  0.00     0.002 A 
ATOM     66  C   UNL A   1      47.103  34.661  28.584  1.00  0.00     0.091 A 
ATOM     67  F   UNL A   1      45.881  33.293  27.058  1.00  0.00    -0.205 F 
ATOM     68  C   UNL A   1      47.706  34.818  29.843  1.00  0.00     0.022 A 
BRANCH  66  69
ATOM     69  S   UNL A   1      47.176  36.054  27.452  1.00  0.00     0.127 S 
ATOM     70  O   UNL A   1      47.862  37.060  28.259  1.00  0.00    -0.237 OA
ATOM     71  O   UNL A   1      47.966  35.518  26.342  1.00  0.00    -0.237 OA
ATOM     72  O   UNL A   1      45.792  36.355  27.110  1.00  0.00    -0.744 OA
ENDBRANCH  66  69
ENDBRANCH  39  62
ENDBRANCH  13  14
ENDBRANCH   6   8
ENDBRANCH   3   4
ENDBRANCH   2   3
ENDBRANCH   1   2
BRANCH   1  73
ATOM     73  C   UNL A   1      35.929  21.131  25.210  1.00  0.00     0.116 C 
BRANCH  73  74
ATOM     74  N   UNL A   1      35.197  19.891  25.004  1.00  0.00    -0.352 N 
ATOM     75  C   UNL A   1      33.857  19.675  24.822  1.00  0.00     0.251 C 
ATOM     76  H   UNL A   1      35.754  19.079  24.993  1.00  0.00     0.163 HD
ATOM     77  O   UNL A   1      33.407  18.534  24.875  1.00  0.00    -0.269 OA
BRANCH  75  78
ATOM     78  C   UNL A   1      32.941  20.789  24.494  1.00  0.00     0.041 A 
ATOM     79  C   UNL A   1      32.933  21.326  23.204  1.00  0.00     0.014 A 
ATOM     80  C   UNL A   1      32.200  21.406  25.500  1.00  0.00     0.035 A 
ATOM     81  C   UNL A   1      32.158  22.457  22.924  1.00  0.00     0.002 A 
ATOM     82  C   UNL A   1      31.472  22.562  25.235  1.00  0.00     0.083 A 
ATOM     83  C   UNL A   1      31.430  23.085  23.941  1.00  0.00     0.022 A 
BRANCH  82  84
ATOM     84  S   UNL A   1      30.626  23.395  26.554  1.00  0.00     0.240 S 
ATOM     85  O   UNL A   1      29.556  22.543  27.013  1.00  0.00    -0.207 OA
ATOM     86  O   UNL A   1      31.651  23.903  27.439  1.00  0.00    -0.207 OA
BRANCH  84  87
ATOM     87  N   UNL A   1      29.960  24.757  25.805  1.00  0.00    -0.207 NA
ATOM     88  H   UNL A   1      28.966  24.755  26.034  1.00  0.00     0.141 HD
BRANCH  87  89
ATOM     89  C   UNL A   1      30.458  26.129  26.105  1.00  0.00     0.147 C 
BRANCH  89  90
ATOM     90  C   UNL A   1      31.264  26.833  24.991  1.00  0.00     0.226 C 
ATOM     91  C   UNL A   1      32.743  26.438  24.925  1.00  0.00     0.276 C 
ATOM     92  O   UNL A   1      31.138  28.262  25.157  1.00  0.00    -0.482 OA
ATOM     93  O   UNL A   1      33.431  26.786  26.127  1.00  0.00    -0.486 OA
ATOM     94  C   UNL A   1      32.127  28.822  25.922  1.00  0.00     0.161 A 
ATOM     95  C   UNL A   1      33.230  28.112  26.403  1.00  0.00     0.161 A 
ATOM     96  C   UNL A   1      32.005  30.181  26.201  1.00  0.00     0.050 A 
ATOM     97  C   UNL A   1      34.187  28.741  27.193  1.00  0.00     0.050 A 
ATOM     98  C   UNL A   1      32.979  30.822  26.970  1.00  0.00     0.004 A 
ATOM     99  C   UNL A   1      34.065  30.102  27.469  1.00  0.00     0.004 A 
ENDBRANCH  89  90
ENDBRANCH  87  89
ENDBRANCH  84  87
ENDBRANCH  82  84
ENDBRANCH  75  78
ENDBRANCH  73  74
ENDBRANCH   1  73
TORSDOF 18
ENDMDL
MODEL 3
REMARK VINA RESULT:     -12.4      2.589      7.967
REMARK SMILES O=C(NCCCCNC(=O)c1cccc(S(=O)(=O)NC[C@@H]2COc3ccccc3O2)c1)c1ccc(-c2c3nc(c(-c4cccc(S(=O)(=O)[O-])c4F)c4ccc([nH]4)c(-c4cccc(S(=O)(=O)[O-])c4F)c4nc(c(-c5cccc(S(=O)(=O)[O-])c5F)c5ccc2[nH]5)C=C4)C=C3)cc1
REMARK SMILES IDX 6 1 5 2 4 3 3 4 1 5 2 6 32 8 33 9 94 10 34 11 93 12 35 13
REMARK SMILES IDX 36 14 37 15 87 16 38 17 92 18 86 19 88 20 39 21 91 22 85 23
REMARK SMILES IDX 84 24 40 26 72 27 52 28 71 29 53 30 56 31 70 32 89 33 54 34
REMARK SMILES IDX 55 35 69 37 90 38 57 39 41 40 42 41 50 42 43 43 45 44 51 45
REMARK SMILES IDX 44 46 46 47 47 48 48 49 49 50 73 51 74 52 82 53 75 54 77 55
REMARK SMILES IDX 83 56 76 57 78 58 79 59 80 60 81 61 58 62 59 63 67 64 60 65
REMARK SMILES IDX 62 66 68 67 61 68 63 69 64 70 65 71 66 72 7 73 8 74 9 75
REMARK SMILES IDX 10 77 11 78 12 79 31 80 13 81 15 82 14 83 16 84 17 85 18 86
REMARK SMILES IDX 19 87 20 89 21 90 22 91 30 92 23 93 29 94 24 95 28 96 25 97
REMARK SMILES IDX 27 98 26 99
REMARK H PARENT 3 7 88 25 56 36 8 76 19 88
REMARK Flexibility Score: inf
ROOT
ATOM      1  C   UNL A   1      31.328  30.850  25.828  1.00  0.00     0.023 C 
ENDROOT
BRANCH   1   2
ATOM      2  C   UNL A   1      31.254  32.195  26.545  1.00  0.00     0.023 C 
BRANCH   2   3
ATOM      3  C   UNL A   1      32.537  32.637  27.236  1.00  0.00     0.116 C 
BRANCH   3   4
ATOM      4  N   UNL A   1      32.500  34.020  27.685  1.00  0.00    -0.352 N 
ATOM      5  O   UNL A   1      33.032  35.801  28.960  1.00  0.00    -0.269 OA
ATOM      6  C   UNL A   1      33.294  34.653  28.616  1.00  0.00     0.251 C 
ATOM      7  H   UNL A   1      31.811  34.583  27.264  1.00  0.00     0.163 HD
BRANCH   6   8
ATOM      8  C   UNL A   1      34.433  33.926  29.218  1.00  0.00     0.039 A 
ATOM      9  C   UNL A   1      34.207  32.904  30.141  1.00  0.00     0.014 A 
ATOM     10  C   UNL A   1      35.740  34.290  28.881  1.00  0.00     0.014 A 
ATOM     11  C   UNL A   1      35.274  32.377  30.855  1.00  0.00     0.010 A 
ATOM     12  C   UNL A   1      36.820  33.680  29.529  1.00  0.00     0.010 A 
ATOM     13  C   UNL A   1      36.596  32.746  30.551  1.00  0.00    -0.014 A 
BRANCH  13  14
ATOM     14  C   UNL A   1      37.707  32.070  31.272  1.00  0.00     0.031 A 
ATOM     15  C   UNL A   1      38.473  30.928  30.662  1.00  0.00     0.074 A 
ATOM     16  C   UNL A   1      38.050  32.541  32.487  1.00  0.00     0.049 A 
ATOM     17  N   UNL A   1      39.522  30.303  31.134  1.00  0.00    -0.248 NA
ATOM     18  C   UNL A   1      38.006  30.411  29.364  1.00  0.00     0.031 C 
ATOM     19  C   UNL A   1      37.341  33.605  33.204  1.00  0.00     0.029 A 
ATOM     20  N   UNL A   1      39.082  32.210  33.325  1.00  0.00    -0.354 N 
ATOM     21  C   UNL A   1      39.823  29.303  30.216  1.00  0.00     0.074 A 
ATOM     22  C   UNL A   1      38.838  29.397  29.159  1.00  0.00     0.031 C 
ATOM     23  C   UNL A   1      37.985  33.873  34.348  1.00  0.00     0.029 A 
ATOM     24  C   UNL A   1      39.119  32.966  34.474  1.00  0.00     0.049 A 
ATOM     25  H   UNL A   1      39.734  31.501  33.124  1.00  0.00     0.167 HD
ATOM     26  C   UNL A   1      40.839  28.407  30.242  1.00  0.00     0.034 A 
ATOM     27  C   UNL A   1      39.966  32.933  35.520  1.00  0.00     0.034 A 
ATOM     28  C   UNL A   1      41.836  28.342  31.280  1.00  0.00     0.049 A 
ATOM     29  C   UNL A   1      41.112  31.965  35.491  1.00  0.00     0.074 A 
ATOM     30  C   UNL A   1      42.927  27.495  31.373  1.00  0.00     0.029 A 
ATOM     31  N   UNL A   1      41.870  29.157  32.400  1.00  0.00    -0.354 N 
ATOM     32  N   UNL A   1      41.445  31.112  34.553  1.00  0.00    -0.248 NA
ATOM     33  C   UNL A   1      42.013  31.971  36.650  1.00  0.00     0.031 C 
ATOM     34  C   UNL A   1      43.615  27.792  32.555  1.00  0.00     0.029 A 
ATOM     35  C   UNL A   1      42.960  28.833  33.192  1.00  0.00     0.049 A 
ATOM     36  H   UNL A   1      41.214  29.862  32.605  1.00  0.00     0.167 HD
ATOM     37  C   UNL A   1      42.598  30.485  35.005  1.00  0.00     0.074 A 
ATOM     38  C   UNL A   1      42.932  31.091  36.278  1.00  0.00     0.031 C 
ATOM     39  C   UNL A   1      43.299  29.475  34.435  1.00  0.00     0.034 A 
BRANCH  26  40
ATOM     40  C   UNL A   1      40.968  27.448  29.086  1.00  0.00     0.023 A 
ATOM     41  C   UNL A   1      40.145  26.304  29.046  1.00  0.00     0.012 A 
ATOM     42  C   UNL A   1      41.823  27.722  27.998  1.00  0.00     0.148 A 
ATOM     43  C   UNL A   1      40.182  25.439  27.953  1.00  0.00     0.002 A 
ATOM     44  C   UNL A   1      41.827  26.874  26.896  1.00  0.00     0.091 A 
ATOM     45  F   UNL A   1      42.609  28.806  28.062  1.00  0.00    -0.205 F 
ATOM     46  C   UNL A   1      41.013  25.730  26.874  1.00  0.00     0.022 A 
BRANCH  44  47
ATOM     47  S   UNL A   1      42.808  27.196  25.424  1.00  0.00     0.127 S 
ATOM     48  O   UNL A   1      44.137  27.406  25.996  1.00  0.00    -0.237 OA
ATOM     49  O   UNL A   1      42.657  25.949  24.674  1.00  0.00    -0.237 OA
ATOM     50  O   UNL A   1      42.211  28.363  24.790  1.00  0.00    -0.744 OA
ENDBRANCH  44  47
ENDBRANCH  26  40
BRANCH  27  51
ATOM     51  C   UNL A   1      39.776  33.880  36.652  1.00  0.00     0.023 A 
ATOM     52  C   UNL A   1      40.039  35.251  36.468  1.00  0.00     0.012 A 
ATOM     53  C   UNL A   1      39.282  33.438  37.895  1.00  0.00     0.148 A 
ATOM     54  C   UNL A   1      39.837  36.159  37.508  1.00  0.00     0.002 A 
ATOM     55  C   UNL A   1      39.020  34.357  38.904  1.00  0.00     0.091 A 
ATOM     56  F   UNL A   1      39.058  32.128  38.063  1.00  0.00    -0.205 F 
ATOM     57  C   UNL A   1      39.313  35.715  38.721  1.00  0.00     0.022 A 
BRANCH  55  58
ATOM     58  S   UNL A   1      38.189  33.867  40.419  1.00  0.00     0.127 S 
ATOM     59  O   UNL A   1      39.179  32.991  41.037  1.00  0.00    -0.237 OA
ATOM     60  O   UNL A   1      37.992  35.150  41.097  1.00  0.00    -0.237 OA
ATOM     61  O   UNL A   1      36.951  33.235  39.981  1.00  0.00    -0.744 OA
ENDBRANCH  55  58
ENDBRANCH  27  51
BRANCH  39  62
ATOM     62  C   UNL A   1      44.495  28.963  35.193  1.00  0.00     0.023 A 
ATOM     63  C   UNL A   1      45.760  29.540  34.958  1.00  0.00     0.012 A 
ATOM     64  C   UNL A   1      44.367  27.943  36.154  1.00  0.00     0.148 A 
ATOM     65  C   UNL A   1      46.886  29.082  35.639  1.00  0.00     0.002 A 
ATOM     66  C   UNL A   1      45.487  27.521  36.862  1.00  0.00     0.091 A 
ATOM     67  F   UNL A   1      43.160  27.390  36.347  1.00  0.00    -0.205 F 
ATOM     68  C   UNL A   1      46.748  28.079  36.597  1.00  0.00     0.022 A 
BRANCH  66  69
ATOM     69  S   UNL A   1      45.381  26.293  38.168  1.00  0.00     0.127 S 
ATOM     70  O   UNL A   1      46.644  26.499  38.875  1.00  0.00    -0.237 OA
ATOM     71  O   UNL A   1      44.192  26.718  38.907  1.00  0.00    -0.237 OA
ATOM     72  O   UNL A   1      45.239  25.011  37.491  1.00  0.00    -0.744 OA
ENDBRANCH  66  69
ENDBRANCH  39  62
ENDBRANCH  13  14
ENDBRANCH   6   8
ENDBRANCH   3   4
ENDBRANCH   2   3
ENDBRANCH   1   2
BRANCH   1  73
ATOM     73  C   UNL A   1      32.645  30.101  25.992  1.00  0.00     0.116 C 
BRANCH  73  74
ATOM     74  N   UNL A   1      33.288  29.837  24.715  1.00  0.00    -0.352 N 
ATOM     75  C   UNL A   1      33.081  28.828  23.812  1.00  0.00     0.251 C 
ATOM     76  H   UNL A   1      33.982  30.487  24.458  1.00  0.00     0.163 HD
ATOM     77  O   UNL A   1      33.873  28.659  22.889  1.00  0.00    -0.269 OA
BRANCH  75  78
ATOM     78  C   UNL A   1      31.878  27.971  23.887  1.00  0.00     0.041 A 
ATOM     79  C   UNL A   1      30.697  28.373  23.258  1.00  0.00     0.014 A 
ATOM     80  C   UNL A   1      31.870  26.844  24.706  1.00  0.00     0.035 A 
ATOM     81  C   UNL A   1      29.526  27.627  23.428  1.00  0.00     0.002 A 
ATOM     82  C   UNL A   1      30.693  26.132  24.920  1.00  0.00     0.083 A 
ATOM     83  C   UNL A   1      29.518  26.507  24.267  1.00  0.00     0.022 A 
BRANCH  82  84
ATOM     84  S   UNL A   1      30.680  24.768  26.054  1.00  0.00     0.240 S 
ATOM     85  O   UNL A   1      31.961  24.717  26.715  1.00  0.00    -0.207 OA
ATOM     86  O   UNL A   1      29.432  24.853  26.780  1.00  0.00    -0.207 OA
BRANCH  84  87
ATOM     87  N   UNL A   1      30.527  23.414  25.051  1.00  0.00    -0.207 NA
ATOM     88  H   UNL A   1      29.534  23.324  24.839  1.00  0.00     0.141 HD
BRANCH  87  89
ATOM     89  C   UNL A   1      31.244  23.330  23.747  1.00  0.00     0.147 C 
BRANCH  89  90
ATOM     90  C   UNL A   1      32.105  22.069  23.510  1.00  0.00     0.226 C 
ATOM     91  C   UNL A   1      32.308  21.191  24.750  1.00  0.00     0.276 C 
ATOM     92  O   UNL A   1      33.382  22.471  22.972  1.00  0.00    -0.482 OA
ATOM     93  O   UNL A   1      32.997  21.897  25.782  1.00  0.00    -0.486 OA
ATOM     94  C   UNL A   1      34.346  22.681  23.923  1.00  0.00     0.161 A 
ATOM     95  C   UNL A   1      34.161  22.417  25.283  1.00  0.00     0.161 A 
ATOM     96  C   UNL A   1      35.571  23.168  23.474  1.00  0.00     0.050 A 
ATOM     97  C   UNL A   1      35.178  22.674  26.198  1.00  0.00     0.050 A 
ATOM     98  C   UNL A   1      36.603  23.400  24.386  1.00  0.00     0.004 A 
ATOM     99  C   UNL A   1      36.405  23.158  25.746  1.00  0.00     0.004 A 
ENDBRANCH  89  90
ENDBRANCH  87  89
ENDBRANCH  84  87
ENDBRANCH  82  84
ENDBRANCH  75  78
ENDBRANCH  73  74
ENDBRANCH   1  73
TORSDOF 18
ENDMDL
