MODEL 1
REMARK VINA RESULT:     -10.5      0.000      0.000
REMARK SMILES CC(C)C[C@H](NC(=O)[C@H](Cc1ccccc1)NC(=O)CNC(=O)C[NH3+])C(=O)NCCCCNC(=O)c1ccc(-c2c3nc(c(-c4cccc(S(=O)(=O)[O-])c4F)c4ccc([nH]4)c(-c4cccc(S(=O)(=O)[O-])c4F)c4nc(c(-c5cccc(S(=O)(=O)[O-])c5F)c5ccc2[nH]5)C=C4)C=C3)cc1
REMARK SMILES IDX 26 1 27 2 28 3 5 5 4 6 2 7 1 8 3 9 6 10 7 11 8 13 9 14 17 15
REMARK SMILES IDX 18 16 19 18 20 19 21 20 22 21 23 23 24 24 25 25 10 29 11 30
REMARK SMILES IDX 12 31 16 32 13 33 15 34 14 35 29 36 30 37 31 38 32 39 33 40
REMARK SMILES IDX 34 41 35 43 36 44 37 45 98 46 38 47 97 48 39 49 40 50 41 51
REMARK SMILES IDX 91 52 42 53 96 54 90 55 92 56 43 57 95 58 89 59 88 60 44 62
REMARK SMILES IDX 76 63 56 64 75 65 57 66 60 67 74 68 93 69 58 70 59 71 73 73
REMARK SMILES IDX 94 74 61 75 45 76 46 77 54 78 47 79 49 80 55 81 48 82 50 83
REMARK SMILES IDX 51 84 52 85 53 86 77 87 78 88 86 89 79 90 81 91 87 92 80 93
REMARK SMILES IDX 82 94 83 95 84 96 85 97 62 98 63 99 71 100 64 101 66 102
REMARK SMILES IDX 72 103 65 104 67 105 68 106 69 107 70 108
REMARK H PARENT 28 4 6 12 17 17 21 22 25 26 25 27 25 28 33 42 92 61 60 72
REMARK Flexibility Score: inf
ROOT
ATOM      1  C   UNL A   1      32.672  28.850  23.595  1.00  0.00     0.242 C 
ATOM      2  O   UNL A   1      33.672  28.762  22.877  1.00  0.00    -0.273 OA
ATOM      3  N   UNL A   1      32.717  29.684  24.671  1.00  0.00    -0.354 N 
ATOM      4  H   UNL A   1      33.528  30.237  24.746  1.00  0.00     0.163 HD
ENDROOT
BRANCH   1   5
ATOM      5  C   UNL A   1      31.406  28.033  23.287  1.00  0.00     0.171 C 
BRANCH   5   6
ATOM      6  C   UNL A   1      30.324  28.848  22.601  1.00  0.00     0.038 C 
BRANCH   6   7
ATOM      7  C   UNL A   1      29.098  29.423  23.335  1.00  0.00    -0.015 C 
ATOM      8  C   UNL A   1      29.090  30.931  23.539  1.00  0.00     0.007 C 
ATOM      9  C   UNL A   1      27.838  29.017  22.549  1.00  0.00     0.007 C 
ENDBRANCH   6   7
ENDBRANCH   5   6
BRANCH   5  10
ATOM     10  N   UNL A   1      31.039  27.272  24.519  1.00  0.00    -0.343 N 
ATOM     11  C   UNL A   1      31.448  26.226  25.284  1.00  0.00     0.243 C 
ATOM     12  H   UNL A   1      30.222  27.659  24.908  1.00  0.00     0.164 HD
ATOM     13  O   UNL A   1      30.809  26.111  26.342  1.00  0.00    -0.273 OA
BRANCH  11  14
ATOM     14  C   UNL A   1      32.384  25.061  24.846  1.00  0.00     0.175 C 
BRANCH  14  15
ATOM     15  N   UNL A   1      32.122  24.406  23.567  1.00  0.00    -0.342 N 
ATOM     16  C   UNL A   1      32.206  23.081  23.250  1.00  0.00     0.240 C 
ATOM     17  H   UNL A   1      31.845  25.003  22.834  1.00  0.00     0.164 HD
ATOM     18  O   UNL A   1      32.413  22.760  22.078  1.00  0.00    -0.273 OA
BRANCH  16  19
ATOM     19  C   UNL A   1      32.093  22.033  24.352  1.00  0.00     0.216 C 
BRANCH  19  20
ATOM     20  N   UNL A   1      32.103  20.719  23.753  1.00  0.00    -0.342 N 
ATOM     21  C   UNL A   1      32.740  19.604  24.208  1.00  0.00     0.275 C 
ATOM     22  H   UNL A   1      31.588  20.617  22.919  1.00  0.00     0.164 HD
ATOM     23  O   UNL A   1      32.759  18.598  23.498  1.00  0.00    -0.268 OA
BRANCH  21  24
ATOM     24  C   UNL A   1      33.443  19.642  25.568  1.00  0.00     0.360 C 
BRANCH  24  25
ATOM     25  N   UNL A   1      32.792  18.714  26.510  1.00  0.00    -0.350 N 
ATOM     26  H   UNL A   1      33.504  18.237  27.063  1.00  0.00     0.344 HD
ATOM     27  H   UNL A   1      32.248  18.027  25.989  1.00  0.00     0.344 HD
ATOM     28  H   UNL A   1      32.175  19.238  27.131  1.00  0.00     0.344 HD
ENDBRANCH  24  25
ENDBRANCH  21  24
ENDBRANCH  19  20
ENDBRANCH  16  19
ENDBRANCH  14  15
BRANCH  14  29
ATOM     29  C   UNL A   1      33.900  25.471  24.925  1.00  0.00     0.070 C 
BRANCH  29  30
ATOM     30  C   UNL A   1      34.826  24.264  24.936  1.00  0.00    -0.045 A 
ATOM     31  C   UNL A   1      35.612  23.994  23.802  1.00  0.00     0.004 A 
ATOM     32  C   UNL A   1      35.070  23.554  26.116  1.00  0.00     0.004 A 
ATOM     33  C   UNL A   1      36.722  23.158  23.892  1.00  0.00     0.000 A 
ATOM     34  C   UNL A   1      36.149  22.670  26.185  1.00  0.00     0.000 A 
ATOM     35  C   UNL A   1      36.999  22.506  25.089  1.00  0.00     0.000 A 
ENDBRANCH  29  30
ENDBRANCH  14  29
ENDBRANCH  11  14
ENDBRANCH   5  10
ENDBRANCH   1   5
BRANCH   3  36
ATOM     36  C   UNL A   1      31.734  29.871  25.718  1.00  0.00     0.116 C 
BRANCH  36  37
ATOM     37  C   UNL A   1      32.266  29.416  27.071  1.00  0.00     0.023 C 
BRANCH  37  38
ATOM     38  C   UNL A   1      33.639  28.752  27.024  1.00  0.00     0.023 C 
BRANCH  38  39
ATOM     39  C   UNL A   1      34.793  29.633  27.484  1.00  0.00     0.116 C 
BRANCH  39  40
ATOM     40  N   UNL A   1      34.350  30.909  28.030  1.00  0.00    -0.352 N 
ATOM     41  C   UNL A   1      34.919  31.662  29.035  1.00  0.00     0.251 C 
ATOM     42  H   UNL A   1      33.535  31.285  27.624  1.00  0.00     0.163 HD
ATOM     43  O   UNL A   1      34.342  32.645  29.469  1.00  0.00    -0.269 OA
BRANCH  41  44
ATOM     44  C   UNL A   1      36.219  31.229  29.592  1.00  0.00     0.039 A 
ATOM     45  C   UNL A   1      36.246  30.228  30.564  1.00  0.00     0.014 A 
ATOM     46  C   UNL A   1      37.410  31.761  29.089  1.00  0.00     0.014 A 
ATOM     47  C   UNL A   1      37.475  29.699  30.971  1.00  0.00     0.010 A 
ATOM     48  C   UNL A   1      38.622  31.174  29.429  1.00  0.00     0.010 A 
ATOM     49  C   UNL A   1      38.670  30.137  30.374  1.00  0.00    -0.014 A 
BRANCH  49  50
ATOM     50  C   UNL A   1      39.978  29.515  30.707  1.00  0.00     0.031 A 
ATOM     51  C   UNL A   1      40.821  30.077  31.820  1.00  0.00     0.074 A 
ATOM     52  C   UNL A   1      40.456  28.510  29.944  1.00  0.00     0.049 A 
ATOM     53  N   UNL A   1      42.015  29.717  32.213  1.00  0.00    -0.248 NA
ATOM     54  C   UNL A   1      40.262  31.215  32.570  1.00  0.00     0.031 C 
ATOM     55  C   UNL A   1      39.777  27.933  28.780  1.00  0.00     0.029 A 
ATOM     56  N   UNL A   1      41.636  27.813  30.015  1.00  0.00    -0.354 N 
ATOM     57  C   UNL A   1      42.365  30.603  33.224  1.00  0.00     0.074 A 
ATOM     58  C   UNL A   1      41.275  31.544  33.359  1.00  0.00     0.031 C 
ATOM     59  C   UNL A   1      40.549  26.967  28.255  1.00  0.00     0.029 A 
ATOM     60  C   UNL A   1      41.788  26.876  29.019  1.00  0.00     0.049 A 
ATOM     61  H   UNL A   1      42.312  27.970  30.713  1.00  0.00     0.167 HD
ATOM     62  C   UNL A   1      43.477  30.615  33.995  1.00  0.00     0.034 A 
ATOM     63  C   UNL A   1      42.812  26.043  28.747  1.00  0.00     0.034 A 
ATOM     64  C   UNL A   1      44.539  29.652  33.892  1.00  0.00     0.049 A 
ATOM     65  C   UNL A   1      44.019  26.049  29.646  1.00  0.00     0.074 A 
ATOM     66  C   UNL A   1      45.662  29.521  34.690  1.00  0.00     0.029 A 
ATOM     67  N   UNL A   1      44.616  28.659  32.927  1.00  0.00    -0.354 N 
ATOM     68  N   UNL A   1      44.257  26.787  30.703  1.00  0.00    -0.248 NA
ATOM     69  C   UNL A   1      45.083  25.082  29.338  1.00  0.00     0.031 C 
ATOM     70  C   UNL A   1      46.432  28.466  34.190  1.00  0.00     0.029 A 
ATOM     71  C   UNL A   1      45.771  27.918  33.102  1.00  0.00     0.049 A 
ATOM     72  H   UNL A   1      43.946  28.504  32.222  1.00  0.00     0.167 HD
ATOM     73  C   UNL A   1      45.476  26.349  31.207  1.00  0.00     0.074 A 
ATOM     74  C   UNL A   1      45.918  25.268  30.352  1.00  0.00     0.031 C 
ATOM     75  C   UNL A   1      46.173  26.810  32.275  1.00  0.00     0.034 A 
BRANCH  62  76
ATOM     76  C   UNL A   1      43.580  31.679  35.058  1.00  0.00     0.023 A 
ATOM     77  C   UNL A   1      44.353  32.835  34.814  1.00  0.00     0.012 A 
ATOM     78  C   UNL A   1      42.871  31.566  36.269  1.00  0.00     0.148 A 
ATOM     79  C   UNL A   1      44.450  33.840  35.774  1.00  0.00     0.002 A 
ATOM     80  C   UNL A   1      42.933  32.595  37.201  1.00  0.00     0.091 A 
ATOM     81  F   UNL A   1      42.160  30.452  36.492  1.00  0.00    -0.205 F 
ATOM     82  C   UNL A   1      43.732  33.726  36.961  1.00  0.00     0.022 A 
BRANCH  80  83
ATOM     83  S   UNL A   1      41.984  32.582  38.725  1.00  0.00     0.127 S 
ATOM     84  O   UNL A   1      42.175  33.951  39.205  1.00  0.00    -0.237 OA
ATOM     85  O   UNL A   1      40.634  32.288  38.244  1.00  0.00    -0.237 OA
ATOM     86  O   UNL A   1      42.572  31.542  39.557  1.00  0.00    -0.744 OA
ENDBRANCH  80  83
ENDBRANCH  62  76
BRANCH  63  87
ATOM     87  C   UNL A   1      42.714  25.084  27.609  1.00  0.00     0.023 A 
ATOM     88  C   UNL A   1      43.233  25.448  26.351  1.00  0.00     0.012 A 
ATOM     89  C   UNL A   1      42.129  23.813  27.768  1.00  0.00     0.148 A 
ATOM     90  C   UNL A   1      43.139  24.578  25.263  1.00  0.00     0.002 A 
ATOM     91  C   UNL A   1      42.090  22.930  26.695  1.00  0.00     0.091 A 
ATOM     92  F   UNL A   1      41.632  23.489  28.970  1.00  0.00    -0.205 F 
ATOM     93  C   UNL A   1      42.577  23.317  25.437  1.00  0.00     0.022 A 
BRANCH  91  94
ATOM     94  S   UNL A   1      41.507  21.239  26.860  1.00  0.00     0.127 S 
ATOM     95  O   UNL A   1      42.348  20.737  27.944  1.00  0.00    -0.237 OA
ATOM     96  O   UNL A   1      40.101  21.439  27.211  1.00  0.00    -0.237 OA
ATOM     97  O   UNL A   1      41.717  20.622  25.558  1.00  0.00    -0.744 OA
ENDBRANCH  91  94
ENDBRANCH  63  87
BRANCH  75  98
ATOM     98  C   UNL A   1      47.471  26.123  32.614  1.00  0.00     0.023 A 
ATOM     99  C   UNL A   1      48.686  26.622  32.107  1.00  0.00     0.012 A 
ATOM    100  C   UNL A   1      47.490  25.027  33.500  1.00  0.00     0.148 A 
ATOM    101  C   UNL A   1      49.897  26.021  32.449  1.00  0.00     0.002 A 
ATOM    102  C   UNL A   1      48.704  24.467  33.878  1.00  0.00     0.091 A 
ATOM    103  F   UNL A   1      46.321  24.554  33.958  1.00  0.00    -0.205 F 
ATOM    104  C   UNL A   1      49.907  24.954  33.343  1.00  0.00     0.022 A 
BRANCH 102 105
ATOM    105  S   UNL A   1      48.819  23.155  35.099  1.00  0.00     0.127 S 
ATOM    106  O   UNL A   1      49.205  22.011  34.273  1.00  0.00    -0.237 OA
ATOM    107  O   UNL A   1      49.873  23.649  35.986  1.00  0.00    -0.237 OA
ATOM    108  O   UNL A   1      47.503  23.062  35.717  1.00  0.00    -0.744 OA
ENDBRANCH 102 105
ENDBRANCH  75  98
ENDBRANCH  49  50
ENDBRANCH  41  44
ENDBRANCH  39  40
ENDBRANCH  38  39
ENDBRANCH  37  38
ENDBRANCH  36  37
ENDBRANCH   3  36
TORSDOF 25
ENDMDL
MODEL 2
REMARK VINA RESULT:      -9.8      1.815      7.507
REMARK SMILES CC(C)C[C@H](NC(=O)[C@H](Cc1ccccc1)NC(=O)CNC(=O)C[NH3+])C(=O)NCCCCNC(=O)c1ccc(-c2c3nc(c(-c4cccc(S(=O)(=O)[O-])c4F)c4ccc([nH]4)c(-c4cccc(S(=O)(=O)[O-])c4F)c4nc(c(-c5cccc(S(=O)(=O)[O-])c5F)c5ccc2[nH]5)C=C4)C=C3)cc1
REMARK SMILES IDX 26 1 27 2 28 3 5 5 4 6 2 7 1 8 3 9 6 10 7 11 8 13 9 14 17 15
REMARK SMILES IDX 18 16 19 18 20 19 21 20 22 21 23 23 24 24 25 25 10 29 11 30
REMARK SMILES IDX 12 31 16 32 13 33 15 34 14 35 29 36 30 37 31 38 32 39 33 40
REMARK SMILES IDX 34 41 35 43 36 44 37 45 98 46 38 47 97 48 39 49 40 50 41 51
REMARK SMILES IDX 91 52 42 53 96 54 90 55 92 56 43 57 95 58 89 59 88 60 44 62
REMARK SMILES IDX 76 63 56 64 75 65 57 66 60 67 74 68 93 69 58 70 59 71 73 73
REMARK SMILES IDX 94 74 61 75 45 76 46 77 54 78 47 79 49 80 55 81 48 82 50 83
REMARK SMILES IDX 51 84 52 85 53 86 77 87 78 88 86 89 79 90 81 91 87 92 80 93
REMARK SMILES IDX 82 94 83 95 84 96 85 97 62 98 63 99 71 100 64 101 66 102
REMARK SMILES IDX 72 103 65 104 67 105 68 106 69 107 70 108
REMARK H PARENT 28 4 6 12 17 17 21 22 25 26 25 27 25 28 33 42 92 61 60 72
REMARK Flexibility Score: inf
ROOT
ATOM      1  C   UNL A   1      32.360  28.728  23.876  1.00  0.00     0.242 C 
ATOM      2  O   UNL A   1      33.300  28.595  23.089  1.00  0.00    -0.273 OA
ATOM      3  N   UNL A   1      32.444  29.696  24.830  1.00  0.00    -0.354 N 
ATOM      4  H   UNL A   1      33.226  30.291  24.764  1.00  0.00     0.163 HD
ENDROOT
BRANCH   1   5
ATOM      5  C   UNL A   1      31.121  27.821  23.786  1.00  0.00     0.171 C 
BRANCH   5   6
ATOM      6  C   UNL A   1      29.877  28.557  23.321  1.00  0.00     0.038 C 
BRANCH   6   7
ATOM      7  C   UNL A   1      29.894  29.996  22.771  1.00  0.00    -0.015 C 
ATOM      8  C   UNL A   1      29.499  30.155  21.311  1.00  0.00     0.007 C 
ATOM      9  C   UNL A   1      28.955  30.849  23.642  1.00  0.00     0.007 C 
ENDBRANCH   6   7
ENDBRANCH   5   6
BRANCH   5  10
ATOM     10  N   UNL A   1      31.039  27.027  25.048  1.00  0.00    -0.343 N 
ATOM     11  C   UNL A   1      31.664  26.022  25.715  1.00  0.00     0.243 C 
ATOM     12  H   UNL A   1      30.269  27.338  25.577  1.00  0.00     0.164 HD
ATOM     13  O   UNL A   1      31.229  25.848  26.864  1.00  0.00    -0.273 OA
BRANCH  11  14
ATOM     14  C   UNL A   1      32.612  24.947  25.105  1.00  0.00     0.175 C 
BRANCH  14  15
ATOM     15  N   UNL A   1      32.262  24.371  23.809  1.00  0.00    -0.342 N 
ATOM     16  C   UNL A   1      32.265  23.061  23.425  1.00  0.00     0.240 C 
ATOM     17  H   UNL A   1      31.984  25.017  23.119  1.00  0.00     0.164 HD
ATOM     18  O   UNL A   1      32.405  22.791  22.231  1.00  0.00    -0.273 OA
BRANCH  16  19
ATOM     19  C   UNL A   1      32.148  21.966  24.480  1.00  0.00     0.216 C 
BRANCH  19  20
ATOM     20  N   UNL A   1      31.980  20.693  23.818  1.00  0.00    -0.342 N 
ATOM     21  C   UNL A   1      32.586  19.512  24.124  1.00  0.00     0.275 C 
ATOM     22  H   UNL A   1      31.355  20.678  23.057  1.00  0.00     0.164 HD
ATOM     23  O   UNL A   1      32.436  18.553  23.367  1.00  0.00    -0.268 OA
BRANCH  21  24
ATOM     24  C   UNL A   1      33.462  19.420  25.377  1.00  0.00     0.360 C 
BRANCH  24  25
ATOM     25  N   UNL A   1      32.784  18.632  26.422  1.00  0.00    -0.350 N 
ATOM     26  H   UNL A   1      33.324  18.679  27.286  1.00  0.00     0.344 HD
ATOM     27  H   UNL A   1      32.706  17.662  26.120  1.00  0.00     0.344 HD
ATOM     28  H   UNL A   1      31.852  19.015  26.584  1.00  0.00     0.344 HD
ENDBRANCH  24  25
ENDBRANCH  21  24
ENDBRANCH  19  20
ENDBRANCH  16  19
ENDBRANCH  14  15
BRANCH  14  29
ATOM     29  C   UNL A   1      34.106  25.439  25.075  1.00  0.00     0.070 C 
BRANCH  29  30
ATOM     30  C   UNL A   1      35.093  24.302  25.297  1.00  0.00    -0.045 A 
ATOM     31  C   UNL A   1      34.918  23.452  26.404  1.00  0.00     0.004 A 
ATOM     32  C   UNL A   1      36.027  23.958  24.317  1.00  0.00     0.004 A 
ATOM     33  C   UNL A   1      35.540  22.206  26.444  1.00  0.00     0.000 A 
ATOM     34  C   UNL A   1      36.695  22.733  24.391  1.00  0.00     0.000 A 
ATOM     35  C   UNL A   1      36.419  21.841  25.429  1.00  0.00     0.000 A 
ENDBRANCH  29  30
ENDBRANCH  14  29
ENDBRANCH  11  14
ENDBRANCH   5  10
ENDBRANCH   1   5
BRANCH   3  36
ATOM     36  C   UNL A   1      31.542  29.971  25.929  1.00  0.00     0.116 C 
BRANCH  36  37
ATOM     37  C   UNL A   1      32.290  30.100  27.249  1.00  0.00     0.023 C 
BRANCH  37  38
ATOM     38  C   UNL A   1      33.774  29.754  27.174  1.00  0.00     0.023 C 
BRANCH  38  39
ATOM     39  C   UNL A   1      34.719  30.931  27.390  1.00  0.00     0.116 C 
BRANCH  39  40
ATOM     40  N   UNL A   1      34.405  31.696  28.589  1.00  0.00    -0.352 N 
ATOM     41  C   UNL A   1      35.119  31.788  29.765  1.00  0.00     0.251 C 
ATOM     42  H   UNL A   1      33.572  32.220  28.554  1.00  0.00     0.163 HD
ATOM     43  O   UNL A   1      34.646  32.367  30.728  1.00  0.00    -0.269 OA
BRANCH  41  44
ATOM     44  C   UNL A   1      36.449  31.143  29.836  1.00  0.00     0.039 A 
ATOM     45  C   UNL A   1      37.564  31.821  29.343  1.00  0.00     0.014 A 
ATOM     46  C   UNL A   1      36.593  29.903  30.466  1.00  0.00     0.014 A 
ATOM     47  C   UNL A   1      38.839  31.291  29.558  1.00  0.00     0.010 A 
ATOM     48  C   UNL A   1      37.865  29.425  30.755  1.00  0.00     0.010 A 
ATOM     49  C   UNL A   1      39.003  30.112  30.304  1.00  0.00    -0.014 A 
BRANCH  49  50
ATOM     50  C   UNL A   1      40.352  29.586  30.642  1.00  0.00     0.031 A 
ATOM     51  C   UNL A   1      40.964  28.487  29.815  1.00  0.00     0.074 A 
ATOM     52  C   UNL A   1      40.984  30.025  31.751  1.00  0.00     0.049 A 
ATOM     53  N   UNL A   1      42.095  27.854  29.993  1.00  0.00    -0.248 NA
ATOM     54  C   UNL A   1      40.189  28.014  28.656  1.00  0.00     0.031 C 
ATOM     55  C   UNL A   1      40.459  31.023  32.686  1.00  0.00     0.029 A 
ATOM     56  N   UNL A   1      42.193  29.669  32.295  1.00  0.00    -0.354 N 
ATOM     57  C   UNL A   1      42.148  26.887  28.997  1.00  0.00     0.074 A 
ATOM     58  C   UNL A   1      40.920  26.989  28.241  1.00  0.00     0.031 C 
ATOM     59  C   UNL A   1      41.344  31.203  33.681  1.00  0.00     0.029 A 
ATOM     60  C   UNL A   1      42.481  30.314  33.475  1.00  0.00     0.049 A 
ATOM     61  H   UNL A   1      42.796  29.011  31.879  1.00  0.00     0.167 HD
ATOM     62  C   UNL A   1      43.143  26.015  28.713  1.00  0.00     0.034 A 
ATOM     63  C   UNL A   1      43.539  30.197  34.302  1.00  0.00     0.034 A 
ATOM     64  C   UNL A   1      44.384  25.946  29.435  1.00  0.00     0.049 A 
ATOM     65  C   UNL A   1      44.650  29.249  33.940  1.00  0.00     0.074 A 
ATOM     66  C   UNL A   1      45.493  25.163  29.167  1.00  0.00     0.029 A 
ATOM     67  N   UNL A   1      44.678  26.680  30.573  1.00  0.00    -0.354 N 
ATOM     68  N   UNL A   1      44.756  28.461  32.898  1.00  0.00    -0.248 NA
ATOM     69  C   UNL A   1      45.806  29.201  34.847  1.00  0.00     0.031 C 
ATOM     70  C   UNL A   1      46.448  25.404  30.160  1.00  0.00     0.029 A 
ATOM     71  C   UNL A   1      45.947  26.362  31.027  1.00  0.00     0.049 A 
ATOM     72  H   UNL A   1      44.074  27.332  30.997  1.00  0.00     0.167 HD
ATOM     73  C   UNL A   1      46.002  27.854  33.004  1.00  0.00     0.074 A 
ATOM     74  C   UNL A   1      46.623  28.381  34.201  1.00  0.00     0.031 C 
ATOM     75  C   UNL A   1      46.575  26.933  32.190  1.00  0.00     0.034 A 
BRANCH  62  76
ATOM     76  C   UNL A   1      42.951  25.094  27.535  1.00  0.00     0.023 A 
ATOM     77  C   UNL A   1      43.406  25.489  26.259  1.00  0.00     0.012 A 
ATOM     78  C   UNL A   1      42.376  23.819  27.697  1.00  0.00     0.148 A 
ATOM     79  C   UNL A   1      43.256  24.649  25.158  1.00  0.00     0.002 A 
ATOM     80  C   UNL A   1      42.274  22.966  26.604  1.00  0.00     0.091 A 
ATOM     81  F   UNL A   1      41.930  23.468  28.912  1.00  0.00    -0.205 F 
ATOM     82  C   UNL A   1      42.701  23.384  25.333  1.00  0.00     0.022 A 
BRANCH  80  83
ATOM     83  S   UNL A   1      41.649  21.288  26.738  1.00  0.00     0.127 S 
ATOM     84  O   UNL A   1      40.204  21.514  26.778  1.00  0.00    -0.237 OA
ATOM     85  O   UNL A   1      42.137  20.678  25.501  1.00  0.00    -0.237 OA
ATOM     86  O   UNL A   1      42.227  20.739  27.956  1.00  0.00    -0.744 OA
ENDBRANCH  80  83
ENDBRANCH  62  76
BRANCH  63  87
ATOM     87  C   UNL A   1      43.631  31.049  35.523  1.00  0.00     0.023 A 
ATOM     88  C   UNL A   1      43.087  30.581  36.736  1.00  0.00     0.012 A 
ATOM     89  C   UNL A   1      44.266  32.305  35.496  1.00  0.00     0.148 A 
ATOM     90  C   UNL A   1      43.142  31.363  37.890  1.00  0.00     0.002 A 
ATOM     91  C   UNL A   1      44.368  33.054  36.663  1.00  0.00     0.091 A 
ATOM     92  F   UNL A   1      44.768  32.737  34.331  1.00  0.00    -0.205 F 
ATOM     93  C   UNL A   1      43.790  32.594  37.856  1.00  0.00     0.022 A 
BRANCH  91  94
ATOM     94  S   UNL A   1      45.298  34.588  36.744  1.00  0.00     0.127 S 
ATOM     95  O   UNL A   1      44.387  35.526  36.094  1.00  0.00    -0.237 OA
ATOM     96  O   UNL A   1      45.448  34.773  38.187  1.00  0.00    -0.237 OA
ATOM     97  O   UNL A   1      46.547  34.328  36.041  1.00  0.00    -0.744 OA
ENDBRANCH  91  94
ENDBRANCH  63  87
BRANCH  75  98
ATOM     98  C   UNL A   1      47.963  26.460  32.534  1.00  0.00     0.023 A 
ATOM     99  C   UNL A   1      48.141  25.271  33.267  1.00  0.00     0.012 A 
ATOM    100  C   UNL A   1      49.094  27.156  32.062  1.00  0.00     0.148 A 
ATOM    101  C   UNL A   1      49.422  24.800  33.555  1.00  0.00     0.002 A 
ATOM    102  C   UNL A   1      50.366  26.653  32.306  1.00  0.00     0.091 A 
ATOM    103  F   UNL A   1      48.904  28.297  31.381  1.00  0.00    -0.205 F 
ATOM    104  C   UNL A   1      50.532  25.483  33.064  1.00  0.00     0.022 A 
BRANCH 102 105
ATOM    105  S   UNL A   1      51.847  27.412  31.630  1.00  0.00     0.127 S 
ATOM    106  O   UNL A   1      52.858  26.394  31.911  1.00  0.00    -0.237 OA
ATOM    107  O   UNL A   1      51.502  27.555  30.215  1.00  0.00    -0.237 OA
ATOM    108  O   UNL A   1      52.015  28.672  32.342  1.00  0.00    -0.744 OA
ENDBRANCH 102 105
ENDBRANCH  75  98
ENDBRANCH  49  50
ENDBRANCH  41  44
ENDBRANCH  39  40
ENDBRANCH  38  39
ENDBRANCH  37  38
ENDBRANCH  36  37
ENDBRANCH   3  36
TORSDOF 25
ENDMDL
MODEL 3
REMARK VINA RESULT:      -9.5      4.868     10.738
REMARK SMILES CC(C)C[C@H](NC(=O)[C@H](Cc1ccccc1)NC(=O)CNC(=O)C[NH3+])C(=O)NCCCCNC(=O)c1ccc(-c2c3nc(c(-c4cccc(S(=O)(=O)[O-])c4F)c4ccc([nH]4)c(-c4cccc(S(=O)(=O)[O-])c4F)c4nc(c(-c5cccc(S(=O)(=O)[O-])c5F)c5ccc2[nH]5)C=C4)C=C3)cc1
REMARK SMILES IDX 26 1 27 2 28 3 5 5 4 6 2 7 1 8 3 9 6 10 7 11 8 13 9 14 17 15
REMARK SMILES IDX 18 16 19 18 20 19 21 20 22 21 23 23 24 24 25 25 10 29 11 30
REMARK SMILES IDX 12 31 16 32 13 33 15 34 14 35 29 36 30 37 31 38 32 39 33 40
REMARK SMILES IDX 34 41 35 43 36 44 37 45 98 46 38 47 97 48 39 49 40 50 41 51
REMARK SMILES IDX 91 52 42 53 96 54 90 55 92 56 43 57 95 58 89 59 88 60 44 62
REMARK SMILES IDX 76 63 56 64 75 65 57 66 60 67 74 68 93 69 58 70 59 71 73 73
REMARK SMILES IDX 94 74 61 75 45 76 46 77 54 78 47 79 49 80 55 81 48 82 50 83
REMARK SMILES IDX 51 84 52 85 53 86 77 87 78 88 86 89 79 90 81 91 87 92 80 93
REMARK SMILES IDX 82 94 83 95 84 96 85 97 62 98 63 99 71 100 64 101 66 102
REMARK SMILES IDX 72 103 65 104 67 105 68 106 69 107 70 108
REMARK H PARENT 28 4 6 12 17 17 21 22 25 26 25 27 25 28 33 42 92 61 60 72
REMARK Flexibility Score: inf
ROOT
ATOM      1  C   UNL A   1      37.855  31.565  36.107  1.00  0.00     0.242 C 
ATOM      2  O   UNL A   1      38.572  30.568  36.223  1.00  0.00    -0.273 OA
ATOM      3  N   UNL A   1      37.394  31.892  34.867  1.00  0.00    -0.354 N 
ATOM      4  H   UNL A   1      37.597  31.243  34.155  1.00  0.00     0.163 HD
ENDROOT
BRANCH   1   5
ATOM      5  C   UNL A   1      37.492  32.423  37.330  1.00  0.00     0.171 C 
BRANCH   5   6
ATOM      6  C   UNL A   1      38.143  33.795  37.309  1.00  0.00     0.038 C 
BRANCH   6   7
ATOM      7  C   UNL A   1      39.650  34.019  37.079  1.00  0.00    -0.015 C 
ATOM      8  C   UNL A   1      40.072  34.273  35.640  1.00  0.00     0.007 C 
ATOM      9  C   UNL A   1      40.093  35.208  37.950  1.00  0.00     0.007 C 
ENDBRANCH   6   7
ENDBRANCH   5   6
BRANCH   5  10
ATOM     10  N   UNL A   1      37.666  31.581  38.551  1.00  0.00    -0.343 N 
ATOM     11  C   UNL A   1      37.165  31.406  39.802  1.00  0.00     0.243 C 
ATOM     12  H   UNL A   1      38.390  30.933  38.398  1.00  0.00     0.164 HD
ATOM     13  O   UNL A   1      37.615  30.401  40.376  1.00  0.00    -0.273 OA
BRANCH  11  14
ATOM     14  C   UNL A   1      36.355  32.443  40.636  1.00  0.00     0.175 C 
BRANCH  14  15
ATOM     15  N   UNL A   1      36.987  33.722  40.949  1.00  0.00    -0.342 N 
ATOM     16  C   UNL A   1      37.517  34.149  42.132  1.00  0.00     0.240 C 
ATOM     17  H   UNL A   1      37.038  34.364  40.203  1.00  0.00     0.164 HD
ATOM     18  O   UNL A   1      37.572  35.359  42.359  1.00  0.00    -0.273 OA
BRANCH  16  19
ATOM     19  C   UNL A   1      37.980  33.125  43.164  1.00  0.00     0.216 C 
BRANCH  19  20
ATOM     20  N   UNL A   1      37.076  33.154  44.291  1.00  0.00    -0.342 N 
ATOM     21  C   UNL A   1      36.477  32.094  44.901  1.00  0.00     0.275 C 
ATOM     22  H   UNL A   1      36.869  34.043  44.660  1.00  0.00     0.164 HD
ATOM     23  O   UNL A   1      35.623  32.307  45.761  1.00  0.00    -0.268 OA
BRANCH  21  24
ATOM     24  C   UNL A   1      36.856  30.671  44.478  1.00  0.00     0.360 C 
BRANCH  24  25
ATOM     25  N   UNL A   1      36.644  29.730  45.592  1.00  0.00    -0.350 N 
ATOM     26  H   UNL A   1      35.951  30.113  46.234  1.00  0.00     0.344 HD
ATOM     27  H   UNL A   1      37.524  29.584  46.087  1.00  0.00     0.344 HD
ATOM     28  H   UNL A   1      36.309  28.839  45.224  1.00  0.00     0.344 HD
ENDBRANCH  24  25
ENDBRANCH  21  24
ENDBRANCH  19  20
ENDBRANCH  16  19
ENDBRANCH  14  15
BRANCH  14  29
ATOM     29  C   UNL A   1      34.929  32.696  40.024  1.00  0.00     0.070 C 
BRANCH  29  30
ATOM     30  C   UNL A   1      33.990  33.375  41.010  1.00  0.00    -0.045 A 
ATOM     31  C   UNL A   1      32.978  34.219  40.519  1.00  0.00     0.004 A 
ATOM     32  C   UNL A   1      33.974  33.009  42.359  1.00  0.00     0.004 A 
ATOM     33  C   UNL A   1      31.885  34.552  41.316  1.00  0.00     0.000 A 
ATOM     34  C   UNL A   1      32.906  33.395  43.172  1.00  0.00     0.000 A 
ATOM     35  C   UNL A   1      31.844  34.128  42.641  1.00  0.00     0.000 A 
ENDBRANCH  29  30
ENDBRANCH  14  29
ENDBRANCH  11  14
ENDBRANCH   5  10
ENDBRANCH   1   5
BRANCH   3  36
ATOM     36  C   UNL A   1      36.647  33.061  34.454  1.00  0.00     0.116 C 
BRANCH  36  37
ATOM     37  C   UNL A   1      36.971  33.454  33.019  1.00  0.00     0.023 C 
BRANCH  37  38
ATOM     38  C   UNL A   1      35.751  33.744  32.149  1.00  0.00     0.023 C 
BRANCH  38  39
ATOM     39  C   UNL A   1      34.858  32.540  31.875  1.00  0.00     0.116 C 
BRANCH  39  40
ATOM     40  N   UNL A   1      34.348  32.513  30.510  1.00  0.00    -0.352 N 
ATOM     41  C   UNL A   1      34.938  31.986  29.380  1.00  0.00     0.251 C 
ATOM     42  H   UNL A   1      33.463  32.922  30.378  1.00  0.00     0.163 HD
ATOM     43  O   UNL A   1      34.436  32.168  28.284  1.00  0.00    -0.269 OA
BRANCH  41  44
ATOM     44  C   UNL A   1      36.201  31.231  29.528  1.00  0.00     0.039 A 
ATOM     45  C   UNL A   1      37.407  31.844  29.182  1.00  0.00     0.014 A 
ATOM     46  C   UNL A   1      36.191  29.950  30.086  1.00  0.00     0.014 A 
ATOM     47  C   UNL A   1      38.612  31.200  29.476  1.00  0.00     0.010 A 
ATOM     48  C   UNL A   1      37.390  29.353  30.457  1.00  0.00     0.010 A 
ATOM     49  C   UNL A   1      38.614  29.970  30.156  1.00  0.00    -0.014 A 
BRANCH  49  50
ATOM     50  C   UNL A   1      39.881  29.317  30.579  1.00  0.00     0.031 A 
ATOM     51  C   UNL A   1      40.607  29.800  31.806  1.00  0.00     0.074 A 
ATOM     52  C   UNL A   1      40.431  28.358  29.806  1.00  0.00     0.049 A 
ATOM     53  N   UNL A   1      41.754  29.404  32.294  1.00  0.00    -0.248 NA
ATOM     54  C   UNL A   1      39.978  30.892  32.567  1.00  0.00     0.031 C 
ATOM     55  C   UNL A   1      39.873  27.862  28.545  1.00  0.00     0.029 A 
ATOM     56  N   UNL A   1      41.597  27.648  29.951  1.00  0.00    -0.354 N 
ATOM     57  C   UNL A   1      42.003  30.222  33.390  1.00  0.00     0.074 A 
ATOM     58  C   UNL A   1      40.907  31.161  33.474  1.00  0.00     0.031 C 
ATOM     59  C   UNL A   1      40.692  26.925  28.039  1.00  0.00     0.029 A 
ATOM     60  C   UNL A   1      41.847  26.775  28.917  1.00  0.00     0.049 A 
ATOM     61  H   UNL A   1      42.199  27.754  30.723  1.00  0.00     0.167 HD
ATOM     62  C   UNL A   1      43.031  30.175  34.269  1.00  0.00     0.034 A 
ATOM     63  C   UNL A   1      42.891  25.952  28.697  1.00  0.00     0.034 A 
ATOM     64  C   UNL A   1      44.095  29.211  34.212  1.00  0.00     0.049 A 
ATOM     65  C   UNL A   1      44.001  25.890  29.712  1.00  0.00     0.074 A 
ATOM     66  C   UNL A   1      45.131  29.020  35.109  1.00  0.00     0.029 A 
ATOM     67  N   UNL A   1      44.267  28.281  33.198  1.00  0.00    -0.354 N 
ATOM     68  N   UNL A   1      44.132  26.557  30.833  1.00  0.00    -0.248 NA
ATOM     69  C   UNL A   1      45.089  24.936  29.453  1.00  0.00     0.031 C 
ATOM     70  C   UNL A   1      45.945  27.992  34.623  1.00  0.00     0.029 A 
ATOM     71  C   UNL A   1      45.397  27.521  33.441  1.00  0.00     0.049 A 
ATOM     72  H   UNL A   1      43.672  28.177  32.420  1.00  0.00     0.167 HD
ATOM     73  C   UNL A   1      45.292  26.078  31.429  1.00  0.00     0.074 A 
ATOM     74  C   UNL A   1      45.816  25.049  30.555  1.00  0.00     0.031 C 
ATOM     75  C   UNL A   1      45.879  26.463  32.590  1.00  0.00     0.034 A 
BRANCH  62  76
ATOM     76  C   UNL A   1      43.028  31.168  35.403  1.00  0.00     0.023 A 
ATOM     77  C   UNL A   1      42.462  30.807  36.644  1.00  0.00     0.012 A 
ATOM     78  C   UNL A   1      43.632  32.432  35.261  1.00  0.00     0.148 A 
ATOM     79  C   UNL A   1      42.462  31.702  37.712  1.00  0.00     0.002 A 
ATOM     80  C   UNL A   1      43.672  33.300  36.347  1.00  0.00     0.091 A 
ATOM     81  F   UNL A   1      44.146  32.766  34.069  1.00  0.00    -0.205 F 
ATOM     82  C   UNL A   1      43.077  32.942  37.567  1.00  0.00     0.022 A 
BRANCH  80  83
ATOM     83  S   UNL A   1      44.510  34.888  36.288  1.00  0.00     0.127 S 
ATOM     84  O   UNL A   1      43.625  35.656  35.412  1.00  0.00    -0.237 OA
ATOM     85  O   UNL A   1      44.487  35.300  37.691  1.00  0.00    -0.237 OA
ATOM     86  O   UNL A   1      45.838  34.622  35.754  1.00  0.00    -0.744 OA
ENDBRANCH  80  83
ENDBRANCH  62  76
BRANCH  63  87
ATOM     87  C   UNL A   1      42.907  25.068  27.496  1.00  0.00     0.023 A 
ATOM     88  C   UNL A   1      43.500  25.531  26.305  1.00  0.00     0.012 A 
ATOM     89  C   UNL A   1      42.358  23.772  27.531  1.00  0.00     0.148 A 
ATOM     90  C   UNL A   1      43.513  24.733  25.159  1.00  0.00     0.002 A 
ATOM     91  C   UNL A   1      42.425  22.961  26.403  1.00  0.00     0.091 A 
ATOM     92  F   UNL A   1      41.789  23.354  28.670  1.00  0.00    -0.205 F 
ATOM     93  C   UNL A   1      42.985  23.446  25.211  1.00  0.00     0.022 A 
BRANCH  91  94
ATOM     94  S   UNL A   1      41.892  21.246  26.417  1.00  0.00     0.127 S 
ATOM     95  O   UNL A   1      42.242  20.835  27.774  1.00  0.00    -0.237 OA
ATOM     96  O   UNL A   1      40.457  21.376  26.161  1.00  0.00    -0.237 OA
ATOM     97  O   UNL A   1      42.635  20.595  25.347  1.00  0.00    -0.744 OA
ENDBRANCH  91  94
ENDBRANCH  63  87
BRANCH  75  98
ATOM     98  C   UNL A   1      47.134  25.745  33.014  1.00  0.00     0.023 A 
ATOM     99  C   UNL A   1      48.393  26.238  32.623  1.00  0.00     0.012 A 
ATOM    100  C   UNL A   1      47.063  24.624  33.865  1.00  0.00     0.148 A 
ATOM    101  C   UNL A   1      49.564  25.607  33.045  1.00  0.00     0.002 A 
ATOM    102  C   UNL A   1      48.234  24.033  34.324  1.00  0.00     0.091 A 
ATOM    103  F   UNL A   1      45.854  24.159  34.211  1.00  0.00    -0.205 F 
ATOM    104  C   UNL A   1      49.484  24.514  33.905  1.00  0.00     0.022 A 
BRANCH 102 105
ATOM    105  S   UNL A   1      48.229  22.685  35.511  1.00  0.00     0.127 S 
ATOM    106  O   UNL A   1      47.575  21.620  34.751  1.00  0.00    -0.237 OA
ATOM    107  O   UNL A   1      49.658  22.475  35.747  1.00  0.00    -0.237 OA
ATOM    108  O   UNL A   1      47.489  23.170  36.669  1.00  0.00    -0.744 OA
ENDBRANCH 102 105
ENDBRANCH  75  98
ENDBRANCH  49  50
ENDBRANCH  41  44
ENDBRANCH  39  40
ENDBRANCH  38  39
ENDBRANCH  37  38
ENDBRANCH  36  37
ENDBRANCH   3  36
TORSDOF 25
ENDMDL
