MODEL 1
REMARK VINA RESULT:     -11.4      0.000      0.000
REMARK SMILES Cn1ncc(C(=O)NCCCCNC(=O)c2ccc(-c3c4nc(c(-c5cccc(S(=O)(=O)[O-])c5F)c5ccc([nH]5)c(-c5cccc(S(=O)(=O)[O-])c5F)c5nc(c(-c6cccc(S(=O)(=O)[O-])c6F)c6ccc3[nH]6)C=C5)C=C4)cc2)c1NS(=O)(=O)[C@@H]1CCS(=O)(=O)C1
REMARK SMILES IDX 10 1 9 2 8 3 6 4 7 5 5 7 1 8 2 9 3 10 79 11 4 12 80 13 81 15
REMARK SMILES IDX 82 16 83 17 84 18 85 19 90 20 86 21 87 22 88 23 89 24 11 25
REMARK SMILES IDX 12 26 13 27 14 28 15 30 16 31 17 32 78 33 18 34 77 35 19 36
REMARK SMILES IDX 20 37 21 38 71 39 22 40 76 41 70 42 72 43 23 44 75 45 69 46
REMARK SMILES IDX 68 47 24 49 56 50 36 51 55 52 37 53 40 54 54 55 73 56 38 57
REMARK SMILES IDX 39 58 53 60 74 61 41 62 25 63 26 64 34 65 27 66 29 67 35 68
REMARK SMILES IDX 28 69 30 70 31 71 32 72 33 73 57 74 58 75 66 76 59 77 61 78
REMARK SMILES IDX 67 79 60 80 62 81 63 82 64 83 65 84 42 85 43 86 51 87 44 88
REMARK SMILES IDX 46 89 52 90 45 91 47 92 48 93 49 94 50 95
REMARK H PARENT 8 6 80 14 13 29 72 48 40 59
REMARK Flexibility Score: inf
ROOT
ATOM      1  C   UNL A   1      33.554  25.990  25.696  1.00  0.00     0.023 C 
ENDROOT
BRANCH   1   2
ATOM      2  C   UNL A   1      34.869  25.064  25.546  1.00  0.00     0.116 C 
BRANCH   2   3
ATOM      3  N   UNL A   1      35.423  24.392  24.326  1.00  0.00    -0.352 N 
ATOM      4  C   UNL A   1      35.133  23.336  23.488  1.00  0.00     0.256 C 
ATOM      5  O   UNL A   1      35.938  22.989  22.627  1.00  0.00    -0.269 OA
ATOM      6  H   UNL A   1      36.248  24.843  24.033  1.00  0.00     0.163 HD
BRANCH   4   7
ATOM      7  C   UNL A   1      33.893  22.690  23.664  1.00  0.00     0.102 A 
ATOM      8  C   UNL A   1      30.698  23.444  24.430  1.00  0.00     0.176 C 
ATOM      9  N   UNL A   1      31.770  22.639  23.877  1.00  0.00    -0.251 N 
ATOM     10  N   UNL A   1      32.183  21.598  24.646  1.00  0.00    -0.179 NA
ATOM     11  C   UNL A   1      32.759  23.028  22.977  1.00  0.00     0.150 A 
ATOM     12  C   UNL A   1      33.513  21.649  24.531  1.00  0.00     0.151 A 
BRANCH  11  13
ATOM     13  N   UNL A   1      32.746  23.800  21.800  1.00  0.00    -0.267 N 
ATOM     14  H   UNL A   1      32.735  23.315  20.942  1.00  0.00     0.181 HD
BRANCH  13  15
ATOM     15  S   UNL A   1      32.751  25.481  21.733  1.00  0.00     0.237 S 
ATOM     16  O   UNL A   1      34.112  25.897  22.015  1.00  0.00    -0.206 OA
ATOM     17  O   UNL A   1      32.268  25.690  20.378  1.00  0.00    -0.206 OA
BRANCH  15  18
ATOM     18  C   UNL A   1      31.695  26.569  22.752  1.00  0.00     0.145 C 
ATOM     19  C   UNL A   1      30.254  26.408  23.243  1.00  0.00     0.039 C 
ATOM     20  C   UNL A   1      31.976  28.065  22.552  1.00  0.00     0.158 C 
ATOM     21  C   UNL A   1      29.413  27.671  23.157  1.00  0.00     0.138 C 
ATOM     22  S   UNL A   1      30.519  29.006  22.951  1.00  0.00     0.151 S 
ATOM     23  O   UNL A   1      30.102  29.725  21.768  1.00  0.00    -0.229 OA
ATOM     24  O   UNL A   1      30.711  29.622  24.241  1.00  0.00    -0.229 OA
ENDBRANCH  15  18
ENDBRANCH  13  15
ENDBRANCH  11  13
ENDBRANCH   4   7
ENDBRANCH   2   3
ENDBRANCH   1   2
BRANCH   1  25
ATOM     25  C   UNL A   1      33.487  27.328  26.518  1.00  0.00     0.023 C 
BRANCH  25  26
ATOM     26  C   UNL A   1      33.793  28.734  25.869  1.00  0.00     0.116 C 
BRANCH  26  27
ATOM     27  N   UNL A   1      33.546  29.952  26.630  1.00  0.00    -0.352 N 
ATOM     28  C   UNL A   1      34.351  30.603  27.571  1.00  0.00     0.251 C 
ATOM     29  H   UNL A   1      32.678  30.382  26.455  1.00  0.00     0.163 HD
ATOM     30  O   UNL A   1      33.889  31.621  28.094  1.00  0.00    -0.269 OA
BRANCH  28  31
ATOM     31  C   UNL A   1      35.716  30.148  28.009  1.00  0.00     0.039 A 
ATOM     32  C   UNL A   1      35.868  29.609  29.299  1.00  0.00     0.014 A 
ATOM     33  C   UNL A   1      36.881  30.391  27.275  1.00  0.00     0.014 A 
ATOM     34  C   UNL A   1      37.139  29.240  29.803  1.00  0.00     0.010 A 
ATOM     35  C   UNL A   1      38.154  30.001  27.773  1.00  0.00     0.010 A 
ATOM     36  C   UNL A   1      38.307  29.401  29.038  1.00  0.00    -0.014 A 
BRANCH  36  37
ATOM     37  C   UNL A   1      39.640  28.890  29.534  1.00  0.00     0.031 A 
ATOM     38  C   UNL A   1      40.417  29.568  30.646  1.00  0.00     0.074 A 
ATOM     39  C   UNL A   1      40.210  27.811  28.952  1.00  0.00     0.049 A 
ATOM     40  N   UNL A   1      41.572  29.235  31.177  1.00  0.00    -0.248 NA
ATOM     41  C   UNL A   1      39.827  30.780  31.229  1.00  0.00     0.031 C 
ATOM     42  C   UNL A   1      39.643  27.070  27.826  1.00  0.00     0.029 A 
ATOM     43  N   UNL A   1      41.402  27.161  29.205  1.00  0.00    -0.354 N 
ATOM     44  C   UNL A   1      41.863  30.207  32.132  1.00  0.00     0.074 A 
ATOM     45  C   UNL A   1      40.764  31.153  32.094  1.00  0.00     0.031 C 
ATOM     46  C   UNL A   1      40.479  26.075  27.485  1.00  0.00     0.029 A 
ATOM     47  C   UNL A   1      41.660  26.114  28.347  1.00  0.00     0.049 A 
ATOM     48  H   UNL A   1      42.012  27.422  29.931  1.00  0.00     0.167 HD
ATOM     49  C   UNL A   1      42.924  30.301  32.979  1.00  0.00     0.034 A 
ATOM     50  C   UNL A   1      42.716  25.277  28.245  1.00  0.00     0.034 A 
ATOM     51  C   UNL A   1      44.012  29.356  33.062  1.00  0.00     0.049 A 
ATOM     52  C   UNL A   1      43.864  25.381  29.215  1.00  0.00     0.074 A 
ATOM     53  C   UNL A   1      45.074  29.342  33.953  1.00  0.00     0.029 A 
ATOM     54  N   UNL A   1      44.191  28.268  32.224  1.00  0.00    -0.354 N 
ATOM     55  N   UNL A   1      44.027  26.210  30.215  1.00  0.00    -0.248 NA
ATOM     56  C   UNL A   1      44.958  24.404  29.066  1.00  0.00     0.031 C 
ATOM     57  C   UNL A   1      45.904  28.259  33.641  1.00  0.00     0.029 A 
ATOM     58  C   UNL A   1      45.347  27.583  32.570  1.00  0.00     0.049 A 
ATOM     59  H   UNL A   1      43.585  28.016  31.490  1.00  0.00     0.167 HD
ATOM     60  C   UNL A   1      45.219  25.837  30.832  1.00  0.00     0.074 A 
ATOM     61  C   UNL A   1      45.727  24.692  30.108  1.00  0.00     0.031 C 
ATOM     62  C   UNL A   1      45.839  26.409  31.895  1.00  0.00     0.034 A 
BRANCH  49  63
ATOM     63  C   UNL A   1      42.944  31.460  33.951  1.00  0.00     0.023 A 
ATOM     64  C   UNL A   1      43.521  32.683  33.553  1.00  0.00     0.012 A 
ATOM     65  C   UNL A   1      42.327  31.371  35.215  1.00  0.00     0.148 A 
ATOM     66  C   UNL A   1      43.522  33.783  34.411  1.00  0.00     0.002 A 
ATOM     67  C   UNL A   1      42.298  32.484  36.050  1.00  0.00     0.091 A 
ATOM     68  F   UNL A   1      41.787  30.200  35.584  1.00  0.00    -0.205 F 
ATOM     69  C   UNL A   1      42.906  33.686  35.654  1.00  0.00     0.022 A 
BRANCH  67  70
ATOM     70  S   UNL A   1      41.462  32.479  37.642  1.00  0.00     0.127 S 
ATOM     71  O   UNL A   1      42.249  31.493  38.383  1.00  0.00    -0.237 OA
ATOM     72  O   UNL A   1      41.637  33.860  38.092  1.00  0.00    -0.237 OA
ATOM     73  O   UNL A   1      40.082  32.103  37.366  1.00  0.00    -0.744 OA
ENDBRANCH  67  70
ENDBRANCH  49  63
BRANCH  50  74
ATOM     74  C   UNL A   1      42.710  24.206  27.204  1.00  0.00     0.023 A 
ATOM     75  C   UNL A   1      43.394  24.415  25.991  1.00  0.00     0.012 A 
ATOM     76  C   UNL A   1      42.058  22.975  27.419  1.00  0.00     0.148 A 
ATOM     77  C   UNL A   1      43.409  23.430  25.001  1.00  0.00     0.002 A 
ATOM     78  C   UNL A   1      42.127  21.976  26.455  1.00  0.00     0.091 A 
ATOM     79  F   UNL A   1      41.395  22.801  28.572  1.00  0.00    -0.205 F 
ATOM     80  C   UNL A   1      42.787  22.208  25.239  1.00  0.00     0.022 A 
BRANCH  78  81
ATOM     81  S   UNL A   1      41.477  20.323  26.728  1.00  0.00     0.127 S 
ATOM     82  O   UNL A   1      41.834  19.649  25.483  1.00  0.00    -0.237 OA
ATOM     83  O   UNL A   1      42.237  19.891  27.902  1.00  0.00    -0.237 OA
ATOM     84  O   UNL A   1      40.051  20.492  26.971  1.00  0.00    -0.744 OA
ENDBRANCH  78  81
ENDBRANCH  50  74
BRANCH  62  85
ATOM     85  C   UNL A   1      47.132  25.797  32.377  1.00  0.00     0.023 A 
ATOM     86  C   UNL A   1      48.358  26.216  31.822  1.00  0.00     0.012 A 
ATOM     87  C   UNL A   1      47.141  24.859  33.431  1.00  0.00     0.148 A 
ATOM     88  C   UNL A   1      49.566  25.692  32.285  1.00  0.00     0.002 A 
ATOM     89  C   UNL A   1      48.352  24.374  33.917  1.00  0.00     0.091 A 
ATOM     90  F   UNL A   1      45.967  24.453  33.935  1.00  0.00    -0.205 F 
ATOM     91  C   UNL A   1      49.564  24.782  33.339  1.00  0.00     0.022 A 
BRANCH  89  92
ATOM     92  S   UNL A   1      48.450  23.266  35.329  1.00  0.00     0.127 S 
ATOM     93  O   UNL A   1      47.794  24.052  36.372  1.00  0.00    -0.237 OA
ATOM     94  O   UNL A   1      47.688  22.105  34.868  1.00  0.00    -0.237 OA
ATOM     95  O   UNL A   1      49.869  23.010  35.537  1.00  0.00    -0.744 OA
ENDBRANCH  89  92
ENDBRANCH  62  85
ENDBRANCH  36  37
ENDBRANCH  28  31
ENDBRANCH  26  27
ENDBRANCH  25  26
ENDBRANCH   1  25
TORSDOF 17
ENDMDL
MODEL 2
REMARK VINA RESULT:     -11.1      1.387      2.794
REMARK SMILES Cn1ncc(C(=O)NCCCCNC(=O)c2ccc(-c3c4nc(c(-c5cccc(S(=O)(=O)[O-])c5F)c5ccc([nH]5)c(-c5cccc(S(=O)(=O)[O-])c5F)c5nc(c(-c6cccc(S(=O)(=O)[O-])c6F)c6ccc3[nH]6)C=C5)C=C4)cc2)c1NS(=O)(=O)[C@@H]1CCS(=O)(=O)C1
REMARK SMILES IDX 10 1 9 2 8 3 6 4 7 5 5 7 1 8 2 9 3 10 79 11 4 12 80 13 81 15
REMARK SMILES IDX 82 16 83 17 84 18 85 19 90 20 86 21 87 22 88 23 89 24 11 25
REMARK SMILES IDX 12 26 13 27 14 28 15 30 16 31 17 32 78 33 18 34 77 35 19 36
REMARK SMILES IDX 20 37 21 38 71 39 22 40 76 41 70 42 72 43 23 44 75 45 69 46
REMARK SMILES IDX 68 47 24 49 56 50 36 51 55 52 37 53 40 54 54 55 73 56 38 57
REMARK SMILES IDX 39 58 53 60 74 61 41 62 25 63 26 64 34 65 27 66 29 67 35 68
REMARK SMILES IDX 28 69 30 70 31 71 32 72 33 73 57 74 58 75 66 76 59 77 61 78
REMARK SMILES IDX 67 79 60 80 62 81 63 82 64 83 65 84 42 85 43 86 51 87 44 88
REMARK SMILES IDX 46 89 52 90 45 91 47 92 48 93 49 94 50 95
REMARK H PARENT 8 6 80 14 13 29 72 48 40 59
REMARK Flexibility Score: inf
ROOT
ATOM      1  C   UNL A   1      31.910  27.491  26.974  1.00  0.00     0.023 C 
ENDROOT
BRANCH   1   2
ATOM      2  C   UNL A   1      30.762  26.407  26.634  1.00  0.00     0.116 C 
BRANCH   2   3
ATOM      3  N   UNL A   1      30.588  25.559  25.410  1.00  0.00    -0.352 N 
ATOM      4  C   UNL A   1      30.407  25.705  24.051  1.00  0.00     0.256 C 
ATOM      5  O   UNL A   1      30.155  24.727  23.352  1.00  0.00    -0.269 OA
ATOM      6  H   UNL A   1      30.610  24.604  25.651  1.00  0.00     0.163 HD
BRANCH   4   7
ATOM      7  C   UNL A   1      30.523  27.004  23.517  1.00  0.00     0.102 A 
ATOM      8  C   UNL A   1      32.916  29.160  22.523  1.00  0.00     0.176 C 
ATOM      9  N   UNL A   1      31.578  28.605  22.579  1.00  0.00    -0.251 N 
ATOM     10  N   UNL A   1      30.706  29.248  23.398  1.00  0.00    -0.179 NA
ATOM     11  C   UNL A   1      31.185  27.287  22.354  1.00  0.00     0.150 A 
ATOM     12  C   UNL A   1      30.066  28.243  24.002  1.00  0.00     0.151 A 
BRANCH  11  13
ATOM     13  N   UNL A   1      31.532  26.327  21.385  1.00  0.00    -0.267 N 
ATOM     14  H   UNL A   1      30.870  26.138  20.680  1.00  0.00     0.181 HD
BRANCH  13  15
ATOM     15  S   UNL A   1      32.980  25.471  21.331  1.00  0.00     0.237 S 
ATOM     16  O   UNL A   1      33.134  25.016  19.962  1.00  0.00    -0.206 OA
ATOM     17  O   UNL A   1      33.905  26.495  21.790  1.00  0.00    -0.206 OA
BRANCH  15  18
ATOM     18  C   UNL A   1      33.374  24.021  22.368  1.00  0.00     0.145 C 
ATOM     19  C   UNL A   1      32.741  22.629  22.442  1.00  0.00     0.039 C 
ATOM     20  C   UNL A   1      33.911  24.386  23.760  1.00  0.00     0.158 C 
ATOM     21  C   UNL A   1      32.563  22.091  23.853  1.00  0.00     0.138 C 
ATOM     22  S   UNL A   1      33.569  23.062  24.899  1.00  0.00     0.151 S 
ATOM     23  O   UNL A   1      32.720  23.572  25.951  1.00  0.00    -0.229 OA
ATOM     24  O   UNL A   1      34.792  22.333  25.134  1.00  0.00    -0.229 OA
ENDBRANCH  15  18
ENDBRANCH  13  15
ENDBRANCH  11  13
ENDBRANCH   4   7
ENDBRANCH   2   3
ENDBRANCH   1   2
BRANCH   1  25
ATOM     25  C   UNL A   1      33.320  27.554  26.281  1.00  0.00     0.023 C 
BRANCH  25  26
ATOM     26  C   UNL A   1      33.962  28.911  25.792  1.00  0.00     0.116 C 
BRANCH  26  27
ATOM     27  N   UNL A   1      33.702  30.141  26.529  1.00  0.00    -0.352 N 
ATOM     28  C   UNL A   1      34.447  30.759  27.538  1.00  0.00     0.251 C 
ATOM     29  H   UNL A   1      32.873  30.609  26.276  1.00  0.00     0.163 HD
ATOM     30  O   UNL A   1      33.987  31.798  28.018  1.00  0.00    -0.269 OA
BRANCH  28  31
ATOM     31  C   UNL A   1      35.746  30.245  28.097  1.00  0.00     0.039 A 
ATOM     32  C   UNL A   1      36.895  30.287  27.287  1.00  0.00     0.014 A 
ATOM     33  C   UNL A   1      35.845  29.565  29.315  1.00  0.00     0.014 A 
ATOM     34  C   UNL A   1      38.127  29.742  27.721  1.00  0.00     0.010 A 
ATOM     35  C   UNL A   1      37.089  29.039  29.759  1.00  0.00     0.010 A 
ATOM     36  C   UNL A   1      38.258  29.132  28.981  1.00  0.00    -0.014 A 
BRANCH  36  37
ATOM     37  C   UNL A   1      39.605  28.668  29.486  1.00  0.00     0.031 A 
ATOM     38  C   UNL A   1      40.358  29.385  30.591  1.00  0.00     0.074 A 
ATOM     39  C   UNL A   1      40.209  27.600  28.919  1.00  0.00     0.049 A 
ATOM     40  N   UNL A   1      41.522  29.094  31.128  1.00  0.00    -0.248 NA
ATOM     41  C   UNL A   1      39.731  30.585  31.156  1.00  0.00     0.031 C 
ATOM     42  C   UNL A   1      39.667  26.827  27.802  1.00  0.00     0.029 A 
ATOM     43  N   UNL A   1      41.419  26.990  29.182  1.00  0.00    -0.354 N 
ATOM     44  C   UNL A   1      41.781  30.086  32.071  1.00  0.00     0.074 A 
ATOM     45  C   UNL A   1      40.654  30.997  32.018  1.00  0.00     0.031 C 
ATOM     46  C   UNL A   1      40.534  25.854  27.475  1.00  0.00     0.029 A 
ATOM     47  C   UNL A   1      41.711  25.940  28.338  1.00  0.00     0.049 A 
ATOM     48  H   UNL A   1      42.020  27.279  29.906  1.00  0.00     0.167 HD
ATOM     49  C   UNL A   1      42.836  30.224  32.918  1.00  0.00     0.034 A 
ATOM     50  C   UNL A   1      42.792  25.135  28.250  1.00  0.00     0.034 A 
ATOM     51  C   UNL A   1      43.953  29.314  33.015  1.00  0.00     0.049 A 
ATOM     52  C   UNL A   1      43.935  25.286  29.220  1.00  0.00     0.074 A 
ATOM     53  C   UNL A   1      45.013  29.344  33.909  1.00  0.00     0.029 A 
ATOM     54  N   UNL A   1      44.167  28.220  32.193  1.00  0.00    -0.354 N 
ATOM     55  N   UNL A   1      44.071  26.132  30.210  1.00  0.00    -0.248 NA
ATOM     56  C   UNL A   1      45.058  24.342  29.086  1.00  0.00     0.031 C 
ATOM     57  C   UNL A   1      45.876  28.282  33.613  1.00  0.00     0.029 A 
ATOM     58  C   UNL A   1      45.342  27.576  32.549  1.00  0.00     0.049 A 
ATOM     59  H   UNL A   1      43.570  27.941  31.461  1.00  0.00     0.167 HD
ATOM     60  C   UNL A   1      45.272  25.805  30.833  1.00  0.00     0.074 A 
ATOM     61  C   UNL A   1      45.816  24.666  30.126  1.00  0.00     0.031 C 
ATOM     62  C   UNL A   1      45.871  26.409  31.890  1.00  0.00     0.034 A 
BRANCH  49  63
ATOM     63  C   UNL A   1      42.819  31.396  33.875  1.00  0.00     0.023 A 
ATOM     64  C   UNL A   1      43.417  32.612  33.486  1.00  0.00     0.012 A 
ATOM     65  C   UNL A   1      42.148  31.325  35.113  1.00  0.00     0.148 A 
ATOM     66  C   UNL A   1      43.385  33.723  34.329  1.00  0.00     0.002 A 
ATOM     67  C   UNL A   1      42.087  32.448  35.931  1.00  0.00     0.091 A 
ATOM     68  F   UNL A   1      41.588  30.160  35.473  1.00  0.00    -0.205 F 
ATOM     69  C   UNL A   1      42.716  33.644  35.546  1.00  0.00     0.022 A 
BRANCH  67  70
ATOM     70  S   UNL A   1      41.184  32.467  37.485  1.00  0.00     0.127 S 
ATOM     71  O   UNL A   1      41.123  33.900  37.773  1.00  0.00    -0.237 OA
ATOM     72  O   UNL A   1      39.902  31.867  37.111  1.00  0.00    -0.237 OA
ATOM     73  O   UNL A   1      41.975  31.671  38.415  1.00  0.00    -0.744 OA
ENDBRANCH  67  70
ENDBRANCH  49  63
BRANCH  50  74
ATOM     74  C   UNL A   1      42.822  24.050  27.223  1.00  0.00     0.023 A 
ATOM     75  C   UNL A   1      43.519  24.258  26.016  1.00  0.00     0.012 A 
ATOM     76  C   UNL A   1      42.191  22.811  27.445  1.00  0.00     0.148 A 
ATOM     77  C   UNL A   1      43.566  23.261  25.040  1.00  0.00     0.002 A 
ATOM     78  C   UNL A   1      42.292  21.801  26.495  1.00  0.00     0.091 A 
ATOM     79  F   UNL A   1      41.515  22.638  28.591  1.00  0.00    -0.205 F 
ATOM     80  C   UNL A   1      42.964  22.030  25.284  1.00  0.00     0.022 A 
BRANCH  78  81
ATOM     81  S   UNL A   1      41.671  20.139  26.781  1.00  0.00     0.127 S 
ATOM     82  O   UNL A   1      41.783  19.542  25.453  1.00  0.00    -0.237 OA
ATOM     83  O   UNL A   1      42.622  19.627  27.769  1.00  0.00    -0.237 OA
ATOM     84  O   UNL A   1      40.316  20.304  27.288  1.00  0.00    -0.744 OA
ENDBRANCH  78  81
ENDBRANCH  50  74
BRANCH  62  85
ATOM     85  C   UNL A   1      47.182  25.843  32.383  1.00  0.00     0.023 A 
ATOM     86  C   UNL A   1      48.396  26.297  31.830  1.00  0.00     0.012 A 
ATOM     87  C   UNL A   1      47.217  24.914  33.444  1.00  0.00     0.148 A 
ATOM     88  C   UNL A   1      49.618  25.817  32.302  1.00  0.00     0.002 A 
ATOM     89  C   UNL A   1      48.440  24.473  33.939  1.00  0.00     0.091 A 
ATOM     90  F   UNL A   1      46.054  24.475  33.947  1.00  0.00    -0.205 F 
ATOM     91  C   UNL A   1      49.641  24.915  33.363  1.00  0.00     0.022 A 
BRANCH  89  92
ATOM     92  S   UNL A   1      48.568  23.379  35.360  1.00  0.00     0.127 S 
ATOM     93  O   UNL A   1      47.868  24.145  36.390  1.00  0.00    -0.237 OA
ATOM     94  O   UNL A   1      47.858  22.185  34.900  1.00  0.00    -0.237 OA
ATOM     95  O   UNL A   1      49.993  23.183  35.586  1.00  0.00    -0.744 OA
ENDBRANCH  89  92
ENDBRANCH  62  85
ENDBRANCH  36  37
ENDBRANCH  28  31
ENDBRANCH  26  27
ENDBRANCH  25  26
ENDBRANCH   1  25
TORSDOF 17
ENDMDL
MODEL 3
REMARK VINA RESULT:     -11.1      4.590      9.526
REMARK SMILES Cn1ncc(C(=O)NCCCCNC(=O)c2ccc(-c3c4nc(c(-c5cccc(S(=O)(=O)[O-])c5F)c5ccc([nH]5)c(-c5cccc(S(=O)(=O)[O-])c5F)c5nc(c(-c6cccc(S(=O)(=O)[O-])c6F)c6ccc3[nH]6)C=C5)C=C4)cc2)c1NS(=O)(=O)[C@@H]1CCS(=O)(=O)C1
REMARK SMILES IDX 10 1 9 2 8 3 6 4 7 5 5 7 1 8 2 9 3 10 79 11 4 12 80 13 81 15
REMARK SMILES IDX 82 16 83 17 84 18 85 19 90 20 86 21 87 22 88 23 89 24 11 25
REMARK SMILES IDX 12 26 13 27 14 28 15 30 16 31 17 32 78 33 18 34 77 35 19 36
REMARK SMILES IDX 20 37 21 38 71 39 22 40 76 41 70 42 72 43 23 44 75 45 69 46
REMARK SMILES IDX 68 47 24 49 56 50 36 51 55 52 37 53 40 54 54 55 73 56 38 57
REMARK SMILES IDX 39 58 53 60 74 61 41 62 25 63 26 64 34 65 27 66 29 67 35 68
REMARK SMILES IDX 28 69 30 70 31 71 32 72 33 73 57 74 58 75 66 76 59 77 61 78
REMARK SMILES IDX 67 79 60 80 62 81 63 82 64 83 65 84 42 85 43 86 51 87 44 88
REMARK SMILES IDX 46 89 52 90 45 91 47 92 48 93 49 94 50 95
REMARK H PARENT 8 6 80 14 13 29 72 48 40 59
REMARK Flexibility Score: inf
ROOT
ATOM      1  C   UNL A   1      34.588  24.828  25.323  1.00  0.00     0.023 C 
ENDROOT
BRANCH   1   2
ATOM      2  C   UNL A   1      34.016  26.304  25.646  1.00  0.00     0.116 C 
BRANCH   2   3
ATOM      3  N   UNL A   1      32.922  26.716  26.584  1.00  0.00    -0.352 N 
ATOM      4  C   UNL A   1      31.587  27.059  26.551  1.00  0.00     0.256 C 
ATOM      5  O   UNL A   1      31.034  27.491  27.559  1.00  0.00    -0.269 OA
ATOM      6  H   UNL A   1      33.261  26.753  27.508  1.00  0.00     0.163 HD
BRANCH   4   7
ATOM      7  C   UNL A   1      30.905  26.893  25.329  1.00  0.00     0.102 A 
ATOM      8  C   UNL A   1      30.845  24.790  22.695  1.00  0.00     0.176 C 
ATOM      9  N   UNL A   1      30.316  25.796  23.595  1.00  0.00    -0.251 N 
ATOM     10  N   UNL A   1      30.372  27.077  23.146  1.00  0.00    -0.179 NA
ATOM     11  C   UNL A   1      30.238  25.748  24.985  1.00  0.00     0.150 A 
ATOM     12  C   UNL A   1      30.766  27.756  24.227  1.00  0.00     0.151 A 
BRANCH  11  13
ATOM     13  N   UNL A   1      29.858  24.747  25.898  1.00  0.00    -0.267 N 
ATOM     14  H   UNL A   1      28.943  24.791  26.261  1.00  0.00     0.181 HD
BRANCH  13  15
ATOM     15  S   UNL A   1      30.835  23.482  26.425  1.00  0.00     0.237 S 
ATOM     16  O   UNL A   1      31.606  24.000  27.540  1.00  0.00    -0.206 OA
ATOM     17  O   UNL A   1      29.825  22.483  26.733  1.00  0.00    -0.206 OA
BRANCH  15  18
ATOM     18  C   UNL A   1      32.038  22.590  25.381  1.00  0.00     0.145 C 
ATOM     19  C   UNL A   1      31.947  22.085  23.938  1.00  0.00     0.039 C 
ATOM     20  C   UNL A   1      32.957  21.645  26.169  1.00  0.00     0.158 C 
ATOM     21  C   UNL A   1      32.533  20.700  23.716  1.00  0.00     0.138 C 
ATOM     22  S   UNL A   1      33.530  20.340  25.103  1.00  0.00     0.151 S 
ATOM     23  O   UNL A   1      33.072  19.078  25.639  1.00  0.00    -0.229 OA
ATOM     24  O   UNL A   1      34.900  20.612  24.743  1.00  0.00    -0.229 OA
ENDBRANCH  15  18
ENDBRANCH  13  15
ENDBRANCH  11  13
ENDBRANCH   4   7
ENDBRANCH   2   3
ENDBRANCH   1   2
BRANCH   1  25
ATOM     25  C   UNL A   1      36.049  24.342  25.640  1.00  0.00     0.023 C 
BRANCH  25  26
ATOM     26  C   UNL A   1      36.856  23.398  24.665  1.00  0.00     0.116 C 
BRANCH  26  27
ATOM     27  N   UNL A   1      37.779  22.413  25.212  1.00  0.00    -0.352 N 
ATOM     28  C   UNL A   1      38.867  22.581  26.075  1.00  0.00     0.251 C 
ATOM     29  H   UNL A   1      37.611  21.485  24.929  1.00  0.00     0.163 HD
ATOM     30  O   UNL A   1      39.508  21.571  26.372  1.00  0.00    -0.269 OA
BRANCH  28  31
ATOM     31  C   UNL A   1      39.325  23.895  26.648  1.00  0.00     0.039 A 
ATOM     32  C   UNL A   1      40.004  24.798  25.810  1.00  0.00     0.014 A 
ATOM     33  C   UNL A   1      39.273  24.202  28.011  1.00  0.00     0.014 A 
ATOM     34  C   UNL A   1      40.536  26.013  26.306  1.00  0.00     0.010 A 
ATOM     35  C   UNL A   1      39.787  25.432  28.504  1.00  0.00     0.010 A 
ATOM     36  C   UNL A   1      40.412  26.370  27.660  1.00  0.00    -0.014 A 
BRANCH  36  37
ATOM     37  C   UNL A   1      40.870  27.722  28.154  1.00  0.00     0.031 A 
ATOM     38  C   UNL A   1      42.331  28.127  28.201  1.00  0.00     0.074 A 
ATOM     39  C   UNL A   1      39.968  28.614  28.621  1.00  0.00     0.049 A 
ATOM     40  N   UNL A   1      42.869  29.259  28.598  1.00  0.00    -0.248 NA
ATOM     41  C   UNL A   1      43.314  27.131  27.758  1.00  0.00     0.031 C 
ATOM     42  C   UNL A   1      38.528  28.376  28.715  1.00  0.00     0.029 A 
ATOM     43  N   UNL A   1      40.122  29.889  29.128  1.00  0.00    -0.354 N 
ATOM     44  C   UNL A   1      44.248  29.105  28.481  1.00  0.00     0.074 A 
ATOM     45  C   UNL A   1      44.463  27.757  27.989  1.00  0.00     0.031 C 
ATOM     46  C   UNL A   1      37.934  29.458  29.244  1.00  0.00     0.029 A 
ATOM     47  C   UNL A   1      38.946  30.466  29.556  1.00  0.00     0.049 A 
ATOM     48  H   UNL A   1      40.993  30.343  29.181  1.00  0.00     0.167 HD
ATOM     49  C   UNL A   1      45.246  29.995  28.732  1.00  0.00     0.034 A 
ATOM     50  C   UNL A   1      38.693  31.659  30.137  1.00  0.00     0.034 A 
ATOM     51  C   UNL A   1      45.059  31.351  29.187  1.00  0.00     0.049 A 
ATOM     52  C   UNL A   1      39.810  32.642  30.375  1.00  0.00     0.074 A 
ATOM     53  C   UNL A   1      46.017  32.335  29.380  1.00  0.00     0.029 A 
ATOM     54  N   UNL A   1      43.843  31.918  29.533  1.00  0.00    -0.354 N 
ATOM     55  N   UNL A   1      41.084  32.526  30.097  1.00  0.00    -0.248 NA
ATOM     56  C   UNL A   1      39.446  33.939  30.973  1.00  0.00     0.031 C 
ATOM     57  C   UNL A   1      45.383  33.487  29.861  1.00  0.00     0.029 A 
ATOM     58  C   UNL A   1      44.026  33.229  29.946  1.00  0.00     0.049 A 
ATOM     59  H   UNL A   1      42.974  31.456  29.491  1.00  0.00     0.167 HD
ATOM     60  C   UNL A   1      41.667  33.740  30.454  1.00  0.00     0.074 A 
ATOM     61  C   UNL A   1      40.603  34.588  30.947  1.00  0.00     0.031 C 
ATOM     62  C   UNL A   1      42.972  34.106  30.389  1.00  0.00     0.034 A 
BRANCH  49  63
ATOM     63  C   UNL A   1      46.667  29.550  28.464  1.00  0.00     0.023 A 
ATOM     64  C   UNL A   1      47.251  29.825  27.211  1.00  0.00     0.012 A 
ATOM     65  C   UNL A   1      47.448  28.939  29.467  1.00  0.00     0.148 A 
ATOM     66  C   UNL A   1      48.571  29.462  26.945  1.00  0.00     0.002 A 
ATOM     67  C   UNL A   1      48.776  28.616  29.207  1.00  0.00     0.091 A 
ATOM     68  F   UNL A   1      46.879  28.678  30.653  1.00  0.00    -0.205 F 
ATOM     69  C   UNL A   1      49.335  28.865  27.943  1.00  0.00     0.022 A 
BRANCH  67  70
ATOM     70  S   UNL A   1      49.863  27.911  30.454  1.00  0.00     0.127 S 
ATOM     71  O   UNL A   1      51.112  27.768  29.707  1.00  0.00    -0.237 OA
ATOM     72  O   UNL A   1      49.883  28.955  31.479  1.00  0.00    -0.237 OA
ATOM     73  O   UNL A   1      49.234  26.666  30.872  1.00  0.00    -0.744 OA
ENDBRANCH  67  70
ENDBRANCH  49  63
BRANCH  50  74
ATOM     74  C   UNL A   1      37.287  32.027  30.484  1.00  0.00     0.023 A 
ATOM     75  C   UNL A   1      36.792  31.732  31.770  1.00  0.00     0.012 A 
ATOM     76  C   UNL A   1      36.451  32.688  29.563  1.00  0.00     0.148 A 
ATOM     77  C   UNL A   1      35.483  32.067  32.123  1.00  0.00     0.002 A 
ATOM     78  C   UNL A   1      35.169  33.072  29.941  1.00  0.00     0.091 A 
ATOM     79  F   UNL A   1      36.933  32.943  28.337  1.00  0.00    -0.205 F 
ATOM     80  C   UNL A   1      34.678  32.747  31.214  1.00  0.00     0.022 A 
BRANCH  78  81
ATOM     81  S   UNL A   1      34.111  34.073  28.889  1.00  0.00     0.127 S 
ATOM     82  O   UNL A   1      33.597  33.083  27.947  1.00  0.00    -0.237 OA
ATOM     83  O   UNL A   1      33.128  34.581  29.847  1.00  0.00    -0.237 OA
ATOM     84  O   UNL A   1      34.974  35.100  28.320  1.00  0.00    -0.744 OA
ENDBRANCH  78  81
ENDBRANCH  50  74
BRANCH  62  85
ATOM     85  C   UNL A   1      43.342  35.500  30.834  1.00  0.00     0.023 A 
ATOM     86  C   UNL A   1      43.731  35.731  32.169  1.00  0.00     0.012 A 
ATOM     87  C   UNL A   1      43.374  36.570  29.915  1.00  0.00     0.148 A 
ATOM     88  C   UNL A   1      44.117  37.006  32.588  1.00  0.00     0.002 A 
ATOM     89  C   UNL A   1      43.802  37.827  30.329  1.00  0.00     0.091 A 
ATOM     90  F   UNL A   1      42.981  36.341  28.654  1.00  0.00    -0.205 F 
ATOM     91  C   UNL A   1      44.164  38.050  31.668  1.00  0.00     0.022 A 
BRANCH  89  92
ATOM     92  S   UNL A   1      43.979  39.210  29.194  1.00  0.00     0.127 S 
ATOM     93  O   UNL A   1      42.594  39.443  28.790  1.00  0.00    -0.237 OA
ATOM     94  O   UNL A   1      44.548  40.249  30.053  1.00  0.00    -0.237 OA
ATOM     95  O   UNL A   1      44.870  38.748  28.138  1.00  0.00    -0.744 OA
ENDBRANCH  89  92
ENDBRANCH  62  85
ENDBRANCH  36  37
ENDBRANCH  28  31
ENDBRANCH  26  27
ENDBRANCH  25  26
ENDBRANCH   1  25
TORSDOF 17
ENDMDL
