MODEL 1
REMARK VINA RESULT:     -12.3      0.000      0.000
REMARK SMILES Cc1cc(S(=O)(=O)Nc2ccc(F)c(F)c2)sc1C(=O)NCCCCNC(=O)c1ccc(-c2c3nc(c(-c4cccc(S(=O)(=O)[O-])c4F)c4ccc([nH]4)c(-c4cccc(S(=O)(=O)[O-])c4F)c4nc(c(-c5cccc(S(=O)(=O)[O-])c5F)c5ccc2[nH]5)C=C4)C=C3)cc1
REMARK SMILES IDX 23 1 22 2 21 3 19 4 20 5 18 7 1 8 2 9 3 10 4 11 17 12 5 13
REMARK SMILES IDX 6 14 7 15 8 16 9 18 10 19 16 20 11 21 14 22 12 23 15 24
REMARK SMILES IDX 13 25 24 26 25 27 26 28 27 29 28 31 29 32 30 33 91 34 31 35
REMARK SMILES IDX 90 36 32 37 33 38 34 39 84 40 35 41 89 42 83 43 85 44 36 45
REMARK SMILES IDX 88 46 82 47 81 48 37 50 69 51 49 52 68 53 50 54 53 55 67 56
REMARK SMILES IDX 86 57 51 58 52 59 66 61 87 62 54 63 38 64 39 65 47 66 40 67
REMARK SMILES IDX 42 68 48 69 41 70 43 71 44 72 45 73 46 74 70 75 71 76 79 77
REMARK SMILES IDX 72 78 74 79 80 80 73 81 75 82 76 83 77 84 78 85 55 86 56 87
REMARK SMILES IDX 64 88 57 89 59 90 65 91 58 92 60 93 61 94 62 95 63 96
REMARK H PARENT 21 6 8 17 26 30 85 49 53 60
REMARK Flexibility Score: inf
ROOT
ATOM      1  C   UNL A   1      32.783  29.034  23.830  1.00  0.00     0.023 C 
ENDROOT
BRANCH   1   2
ATOM      2  C   UNL A   1      33.648  27.771  23.898  1.00  0.00     0.116 C 
BRANCH   2   3
ATOM      3  N   UNL A   1      33.682  27.116  22.614  1.00  0.00    -0.351 N 
ATOM      4  C   UNL A   1      33.092  25.998  22.094  1.00  0.00     0.261 C 
ATOM      5  O   UNL A   1      33.369  25.827  20.899  1.00  0.00    -0.268 OA
ATOM      6  H   UNL A   1      34.260  27.580  21.965  1.00  0.00     0.163 HD
BRANCH   4   7
ATOM      7  C   UNL A   1      32.226  25.053  22.811  1.00  0.00     0.096 A 
ATOM      8  C   UNL A   1      29.978  26.086  23.713  1.00  0.00     0.046 C 
ATOM      9  C   UNL A   1      31.035  25.056  23.543  1.00  0.00    -0.026 A 
ATOM     10  C   UNL A   1      30.921  23.851  24.337  1.00  0.00     0.038 A 
ATOM     11  C   UNL A   1      31.936  22.947  24.134  1.00  0.00     0.141 A 
ATOM     12  S   UNL A   1      32.859  23.423  22.797  1.00  0.00    -0.116 S 
BRANCH  11  13
ATOM     13  S   UNL A   1      32.302  21.391  24.899  1.00  0.00     0.271 S 
ATOM     14  O   UNL A   1      31.062  21.014  25.547  1.00  0.00    -0.200 OA
ATOM     15  O   UNL A   1      32.860  20.553  23.857  1.00  0.00    -0.200 OA
BRANCH  13  16
ATOM     16  N   UNL A   1      33.451  21.477  26.149  1.00  0.00    -0.279 N 
ATOM     17  H   UNL A   1      33.252  21.090  27.033  1.00  0.00     0.180 HD
BRANCH  16  18
ATOM     18  C   UNL A   1      34.703  22.116  25.908  1.00  0.00     0.052 A 
ATOM     19  C   UNL A   1      34.798  23.488  26.173  1.00  0.00     0.030 A 
ATOM     20  C   UNL A   1      35.799  21.417  25.404  1.00  0.00     0.069 A 
ATOM     21  C   UNL A   1      35.993  24.168  25.936  1.00  0.00     0.044 A 
ATOM     22  C   UNL A   1      36.995  22.103  25.191  1.00  0.00     0.160 A 
ATOM     23  C   UNL A   1      37.091  23.467  25.453  1.00  0.00     0.158 A 
ATOM     24  F   UNL A   1      38.063  21.430  24.738  1.00  0.00    -0.204 F 
ATOM     25  F   UNL A   1      38.249  24.112  25.255  1.00  0.00    -0.204 F 
ENDBRANCH  16  18
ENDBRANCH  13  16
ENDBRANCH  11  13
ENDBRANCH   4   7
ENDBRANCH   2   3
ENDBRANCH   1   2
BRANCH   1  26
ATOM     26  C   UNL A   1      32.139  29.472  25.142  1.00  0.00     0.023 C 
BRANCH  26  27
ATOM     27  C   UNL A   1      33.132  29.887  26.222  1.00  0.00     0.116 C 
BRANCH  27  28
ATOM     28  N   UNL A   1      32.924  31.235  26.734  1.00  0.00    -0.352 N 
ATOM     29  C   UNL A   1      33.763  31.976  27.541  1.00  0.00     0.251 C 
ATOM     30  H   UNL A   1      32.081  31.671  26.472  1.00  0.00     0.163 HD
ATOM     31  O   UNL A   1      33.432  33.072  27.948  1.00  0.00    -0.269 OA
BRANCH  29  32
ATOM     32  C   UNL A   1      35.050  31.370  27.941  1.00  0.00     0.039 A 
ATOM     33  C   UNL A   1      36.169  32.195  28.061  1.00  0.00     0.014 A 
ATOM     34  C   UNL A   1      35.113  30.021  28.294  1.00  0.00     0.014 A 
ATOM     35  C   UNL A   1      37.340  31.680  28.619  1.00  0.00     0.010 A 
ATOM     36  C   UNL A   1      36.251  29.533  28.921  1.00  0.00     0.010 A 
ATOM     37  C   UNL A   1      37.373  30.358  29.095  1.00  0.00    -0.014 A 
BRANCH  37  38
ATOM     38  C   UNL A   1      38.563  29.819  29.796  1.00  0.00     0.031 A 
ATOM     39  C   UNL A   1      38.918  30.322  31.167  1.00  0.00     0.074 A 
ATOM     40  C   UNL A   1      39.382  28.962  29.153  1.00  0.00     0.049 A 
ATOM     41  N   UNL A   1      39.956  30.034  31.906  1.00  0.00    -0.248 NA
ATOM     42  C   UNL A   1      38.005  31.307  31.772  1.00  0.00     0.031 C 
ATOM     43  C   UNL A   1      39.196  28.477  27.784  1.00  0.00     0.029 A 
ATOM     44  N   UNL A   1      40.554  28.372  29.556  1.00  0.00    -0.354 N 
ATOM     45  C   UNL A   1      39.843  30.828  33.041  1.00  0.00     0.074 A 
ATOM     46  C   UNL A   1      38.657  31.637  32.876  1.00  0.00     0.031 C 
ATOM     47  C   UNL A   1      40.212  27.660  27.463  1.00  0.00     0.029 A 
ATOM     48  C   UNL A   1      41.134  27.581  28.592  1.00  0.00     0.049 A 
ATOM     49  H   UNL A   1      40.942  28.503  30.451  1.00  0.00     0.167 HD
ATOM     50  C   UNL A   1      40.637  30.855  34.137  1.00  0.00     0.034 A 
ATOM     51  C   UNL A   1      42.279  26.871  28.617  1.00  0.00     0.034 A 
ATOM     52  C   UNL A   1      41.778  30.002  34.322  1.00  0.00     0.049 A 
ATOM     53  C   UNL A   1      43.101  26.860  29.877  1.00  0.00     0.074 A 
ATOM     54  C   UNL A   1      42.588  29.879  35.435  1.00  0.00     0.029 A 
ATOM     55  N   UNL A   1      42.269  29.123  33.369  1.00  0.00    -0.354 N 
ATOM     56  N   UNL A   1      42.884  27.487  31.008  1.00  0.00    -0.248 NA
ATOM     57  C   UNL A   1      44.303  26.012  29.882  1.00  0.00     0.031 C 
ATOM     58  C   UNL A   1      43.574  28.928  35.154  1.00  0.00     0.029 A 
ATOM     59  C   UNL A   1      43.370  28.451  33.869  1.00  0.00     0.049 A 
ATOM     60  H   UNL A   1      41.889  28.995  32.469  1.00  0.00     0.167 HD
ATOM     61  C   UNL A   1      43.897  27.083  31.870  1.00  0.00     0.074 A 
ATOM     62  C   UNL A   1      44.719  26.143  31.135  1.00  0.00     0.031 C 
ATOM     63  C   UNL A   1      44.136  27.467  33.147  1.00  0.00     0.034 A 
BRANCH  50  64
ATOM     64  C   UNL A   1      40.252  31.788  35.253  1.00  0.00     0.023 A 
ATOM     65  C   UNL A   1      40.878  33.048  35.346  1.00  0.00     0.012 A 
ATOM     66  C   UNL A   1      39.244  31.446  36.174  1.00  0.00     0.148 A 
ATOM     67  C   UNL A   1      40.531  33.941  36.359  1.00  0.00     0.002 A 
ATOM     68  C   UNL A   1      38.873  32.359  37.156  1.00  0.00     0.091 A 
ATOM     69  F   UNL A   1      38.679  30.234  36.086  1.00  0.00    -0.205 F 
ATOM     70  C   UNL A   1      39.523  33.600  37.256  1.00  0.00     0.022 A 
BRANCH  68  71
ATOM     71  S   UNL A   1      37.534  32.043  38.311  1.00  0.00     0.127 S 
ATOM     72  O   UNL A   1      37.256  30.631  38.061  1.00  0.00    -0.237 OA
ATOM     73  O   UNL A   1      38.166  32.322  39.601  1.00  0.00    -0.237 OA
ATOM     74  O   UNL A   1      36.469  32.968  37.948  1.00  0.00    -0.744 OA
ENDBRANCH  68  71
ENDBRANCH  50  64
BRANCH  51  75
ATOM     75  C   UNL A   1      42.663  26.037  27.442  1.00  0.00     0.023 A 
ATOM     76  C   UNL A   1      43.511  26.585  26.460  1.00  0.00     0.012 A 
ATOM     77  C   UNL A   1      42.229  24.705  27.309  1.00  0.00     0.148 A 
ATOM     78  C   UNL A   1      43.895  25.831  25.351  1.00  0.00     0.002 A 
ATOM     79  C   UNL A   1      42.657  23.942  26.227  1.00  0.00     0.091 A 
ATOM     80  F   UNL A   1      41.411  24.205  28.247  1.00  0.00    -0.205 F 
ATOM     81  C   UNL A   1      43.477  24.508  25.239  1.00  0.00     0.022 A 
BRANCH  79  82
ATOM     82  S   UNL A   1      42.276  22.193  26.077  1.00  0.00     0.127 S 
ATOM     83  O   UNL A   1      43.020  21.827  24.874  1.00  0.00    -0.237 OA
ATOM     84  O   UNL A   1      42.816  21.653  27.325  1.00  0.00    -0.237 OA
ATOM     85  O   UNL A   1      40.824  22.120  25.975  1.00  0.00    -0.744 OA
ENDBRANCH  79  82
ENDBRANCH  51  75
BRANCH  63  86
ATOM     86  C   UNL A   1      45.307  26.848  33.859  1.00  0.00     0.023 A 
ATOM     87  C   UNL A   1      46.566  27.479  33.809  1.00  0.00     0.012 A 
ATOM     88  C   UNL A   1      45.139  25.697  34.653  1.00  0.00     0.148 A 
ATOM     89  C   UNL A   1      47.645  26.958  34.522  1.00  0.00     0.002 A 
ATOM     90  C   UNL A   1      46.208  25.210  35.395  1.00  0.00     0.091 A 
ATOM     91  F   UNL A   1      43.937  25.101  34.670  1.00  0.00    -0.205 F 
ATOM     92  C   UNL A   1      47.463  25.834  35.324  1.00  0.00     0.022 A 
BRANCH  90  93
ATOM     93  S   UNL A   1      46.037  23.824  36.527  1.00  0.00     0.127 S 
ATOM     94  O   UNL A   1      45.673  22.740  35.617  1.00  0.00    -0.237 OA
ATOM     95  O   UNL A   1      47.382  23.718  37.096  1.00  0.00    -0.237 OA
ATOM     96  O   UNL A   1      45.010  24.215  37.483  1.00  0.00    -0.744 OA
ENDBRANCH  90  93
ENDBRANCH  63  86
ENDBRANCH  37  38
ENDBRANCH  29  32
ENDBRANCH  27  28
ENDBRANCH  26  27
ENDBRANCH   1  26
TORSDOF 17
ENDMDL
MODEL 2
REMARK VINA RESULT:     -12.0      5.028     10.184
REMARK SMILES Cc1cc(S(=O)(=O)Nc2ccc(F)c(F)c2)sc1C(=O)NCCCCNC(=O)c1ccc(-c2c3nc(c(-c4cccc(S(=O)(=O)[O-])c4F)c4ccc([nH]4)c(-c4cccc(S(=O)(=O)[O-])c4F)c4nc(c(-c5cccc(S(=O)(=O)[O-])c5F)c5ccc2[nH]5)C=C4)C=C3)cc1
REMARK SMILES IDX 23 1 22 2 21 3 19 4 20 5 18 7 1 8 2 9 3 10 4 11 17 12 5 13
REMARK SMILES IDX 6 14 7 15 8 16 9 18 10 19 16 20 11 21 14 22 12 23 15 24
REMARK SMILES IDX 13 25 24 26 25 27 26 28 27 29 28 31 29 32 30 33 91 34 31 35
REMARK SMILES IDX 90 36 32 37 33 38 34 39 84 40 35 41 89 42 83 43 85 44 36 45
REMARK SMILES IDX 88 46 82 47 81 48 37 50 69 51 49 52 68 53 50 54 53 55 67 56
REMARK SMILES IDX 86 57 51 58 52 59 66 61 87 62 54 63 38 64 39 65 47 66 40 67
REMARK SMILES IDX 42 68 48 69 41 70 43 71 44 72 45 73 46 74 70 75 71 76 79 77
REMARK SMILES IDX 72 78 74 79 80 80 73 81 75 82 76 83 77 84 78 85 55 86 56 87
REMARK SMILES IDX 64 88 57 89 59 90 65 91 58 92 60 93 61 94 62 95 63 96
REMARK H PARENT 21 6 8 17 26 30 85 49 53 60
REMARK Flexibility Score: inf
ROOT
ATOM      1  C   UNL A   1      35.829  20.581  25.193  1.00  0.00     0.023 C 
ENDROOT
BRANCH   1   2
ATOM      2  C   UNL A   1      34.359  20.627  25.626  1.00  0.00     0.116 C 
BRANCH   2   3
ATOM      3  N   UNL A   1      33.500  20.276  24.522  1.00  0.00    -0.351 N 
ATOM      4  C   UNL A   1      32.681  20.982  23.686  1.00  0.00     0.261 C 
ATOM      5  O   UNL A   1      32.152  20.267  22.824  1.00  0.00    -0.268 OA
ATOM      6  H   UNL A   1      33.506  19.311  24.327  1.00  0.00     0.163 HD
BRANCH   4   7
ATOM      7  C   UNL A   1      32.400  22.423  23.747  1.00  0.00     0.096 A 
ATOM      8  C   UNL A   1      30.784  23.148  25.696  1.00  0.00     0.046 C 
ATOM      9  C   UNL A   1      31.594  23.314  24.461  1.00  0.00    -0.026 A 
ATOM     10  C   UNL A   1      31.487  24.576  23.762  1.00  0.00     0.038 A 
ATOM     11  C   UNL A   1      32.256  24.657  22.625  1.00  0.00     0.141 A 
ATOM     12  S   UNL A   1      33.307  23.331  22.559  1.00  0.00    -0.116 S 
BRANCH  11  13
ATOM     13  S   UNL A   1      32.418  25.922  21.395  1.00  0.00     0.271 S 
ATOM     14  O   UNL A   1      33.279  25.332  20.390  1.00  0.00    -0.200 OA
ATOM     15  O   UNL A   1      31.068  26.320  21.050  1.00  0.00    -0.200 OA
BRANCH  13  16
ATOM     16  N   UNL A   1      33.237  27.314  21.924  1.00  0.00    -0.279 N 
ATOM     17  H   UNL A   1      33.967  27.695  21.384  1.00  0.00     0.180 HD
BRANCH  16  18
ATOM     18  C   UNL A   1      32.860  27.923  23.157  1.00  0.00     0.052 A 
ATOM     19  C   UNL A   1      33.618  27.617  24.295  1.00  0.00     0.030 A 
ATOM     20  C   UNL A   1      31.764  28.778  23.249  1.00  0.00     0.069 A 
ATOM     21  C   UNL A   1      33.281  28.169  25.532  1.00  0.00     0.044 A 
ATOM     22  C   UNL A   1      31.450  29.341  24.486  1.00  0.00     0.160 A 
ATOM     23  C   UNL A   1      32.201  29.038  25.618  1.00  0.00     0.158 A 
ATOM     24  F   UNL A   1      30.416  30.191  24.574  1.00  0.00    -0.204 F 
ATOM     25  F   UNL A   1      31.895  29.594  26.799  1.00  0.00    -0.204 F 
ENDBRANCH  16  18
ENDBRANCH  13  16
ENDBRANCH  11  13
ENDBRANCH   4   7
ENDBRANCH   2   3
ENDBRANCH   1   2
BRANCH   1  26
ATOM     26  C   UNL A   1      36.351  21.824  24.478  1.00  0.00     0.023 C 
BRANCH  26  27
ATOM     27  C   UNL A   1      37.672  22.354  25.022  1.00  0.00     0.116 C 
BRANCH  27  28
ATOM     28  N   UNL A   1      38.587  21.315  25.478  1.00  0.00    -0.352 N 
ATOM     29  C   UNL A   1      39.668  21.447  26.325  1.00  0.00     0.251 C 
ATOM     30  H   UNL A   1      38.411  20.407  25.140  1.00  0.00     0.163 HD
ATOM     31  O   UNL A   1      40.388  20.499  26.573  1.00  0.00    -0.269 OA
BRANCH  29  32
ATOM     32  C   UNL A   1      39.956  22.788  26.874  1.00  0.00     0.039 A 
ATOM     33  C   UNL A   1      40.890  22.903  27.905  1.00  0.00     0.014 A 
ATOM     34  C   UNL A   1      39.383  23.923  26.297  1.00  0.00     0.014 A 
ATOM     35  C   UNL A   1      41.315  24.171  28.303  1.00  0.00     0.010 A 
ATOM     36  C   UNL A   1      39.866  25.179  26.639  1.00  0.00     0.010 A 
ATOM     37  C   UNL A   1      40.839  25.315  27.641  1.00  0.00    -0.014 A 
BRANCH  37  38
ATOM     38  C   UNL A   1      41.357  26.666  27.963  1.00  0.00     0.031 A 
ATOM     39  C   UNL A   1      42.795  27.004  27.684  1.00  0.00     0.074 A 
ATOM     40  C   UNL A   1      40.565  27.546  28.607  1.00  0.00     0.049 A 
ATOM     41  N   UNL A   1      43.453  28.098  27.965  1.00  0.00    -0.248 NA
ATOM     42  C   UNL A   1      43.610  25.963  27.036  1.00  0.00     0.031 C 
ATOM     43  C   UNL A   1      39.181  27.298  29.020  1.00  0.00     0.029 A 
ATOM     44  N   UNL A   1      40.819  28.818  29.056  1.00  0.00    -0.354 N 
ATOM     45  C   UNL A   1      44.763  27.863  27.568  1.00  0.00     0.074 A 
ATOM     46  C   UNL A   1      44.816  26.510  27.061  1.00  0.00     0.031 C 
ATOM     47  C   UNL A   1      38.708  28.382  29.655  1.00  0.00     0.029 A 
ATOM     48  C   UNL A   1      39.759  29.393  29.717  1.00  0.00     0.049 A 
ATOM     49  H   UNL A   1      41.680  29.274  28.919  1.00  0.00     0.167 HD
ATOM     50  C   UNL A   1      45.819  28.709  27.590  1.00  0.00     0.034 A 
ATOM     51  C   UNL A   1      39.647  30.601  30.305  1.00  0.00     0.034 A 
ATOM     52  C   UNL A   1      45.744  30.073  28.035  1.00  0.00     0.049 A 
ATOM     53  C   UNL A   1      40.813  31.550  30.246  1.00  0.00     0.074 A 
ATOM     54  C   UNL A   1      46.728  31.043  28.004  1.00  0.00     0.029 A 
ATOM     55  N   UNL A   1      44.617  30.662  28.589  1.00  0.00    -0.354 N 
ATOM     56  N   UNL A   1      41.996  31.370  29.710  1.00  0.00    -0.248 NA
ATOM     57  C   UNL A   1      40.619  32.883  30.836  1.00  0.00     0.031 C 
ATOM     58  C   UNL A   1      46.199  32.219  28.546  1.00  0.00     0.029 A 
ATOM     59  C   UNL A   1      44.881  31.983  28.903  1.00  0.00     0.049 A 
ATOM     60  H   UNL A   1      43.757  30.206  28.737  1.00  0.00     0.167 HD
ATOM     61  C   UNL A   1      42.673  32.574  29.863  1.00  0.00     0.074 A 
ATOM     62  C   UNL A   1      41.761  33.483  30.527  1.00  0.00     0.031 C 
ATOM     63  C   UNL A   1      43.939  32.894  29.501  1.00  0.00     0.034 A 
BRANCH  50  64
ATOM     64  C   UNL A   1      47.129  28.203  27.049  1.00  0.00     0.023 A 
ATOM     65  C   UNL A   1      48.177  27.906  27.943  1.00  0.00     0.012 A 
ATOM     66  C   UNL A   1      47.309  27.975  25.672  1.00  0.00     0.148 A 
ATOM     67  C   UNL A   1      49.396  27.420  27.474  1.00  0.00     0.002 A 
ATOM     68  C   UNL A   1      48.514  27.451  25.215  1.00  0.00     0.091 A 
ATOM     69  F   UNL A   1      46.311  28.289  24.834  1.00  0.00    -0.205 F 
ATOM     70  C   UNL A   1      49.560  27.183  26.112  1.00  0.00     0.022 A 
BRANCH  68  71
ATOM     71  S   UNL A   1      48.795  27.040  23.488  1.00  0.00     0.127 S 
ATOM     72  O   UNL A   1      48.022  25.808  23.349  1.00  0.00    -0.237 OA
ATOM     73  O   UNL A   1      48.225  28.199  22.798  1.00  0.00    -0.237 OA
ATOM     74  O   UNL A   1      50.237  26.898  23.343  1.00  0.00    -0.744 OA
ENDBRANCH  68  71
ENDBRANCH  50  64
BRANCH  51  75
ATOM     75  C   UNL A   1      38.351  31.014  30.914  1.00  0.00     0.023 A 
ATOM     76  C   UNL A   1      38.131  30.779  32.285  1.00  0.00     0.012 A 
ATOM     77  C   UNL A   1      37.356  31.667  30.161  1.00  0.00     0.148 A 
ATOM     78  C   UNL A   1      36.932  31.157  32.889  1.00  0.00     0.002 A 
ATOM     79  C   UNL A   1      36.184  32.088  30.781  1.00  0.00     0.091 A 
ATOM     80  F   UNL A   1      37.578  31.871  28.854  1.00  0.00    -0.205 F 
ATOM     81  C   UNL A   1      35.963  31.821  32.141  1.00  0.00     0.022 A 
BRANCH  79  82
ATOM     82  S   UNL A   1      34.945  33.067  29.923  1.00  0.00     0.127 S 
ATOM     83  O   UNL A   1      34.395  32.094  28.982  1.00  0.00    -0.237 OA
ATOM     84  O   UNL A   1      34.045  33.447  31.014  1.00  0.00    -0.237 OA
ATOM     85  O   UNL A   1      35.672  34.183  29.334  1.00  0.00    -0.744 OA
ENDBRANCH  79  82
ENDBRANCH  51  75
BRANCH  63  86
ATOM     86  C   UNL A   1      44.414  34.295  29.774  1.00  0.00     0.023 A 
ATOM     87  C   UNL A   1      45.093  34.579  30.975  1.00  0.00     0.012 A 
ATOM     88  C   UNL A   1      44.271  35.304  28.802  1.00  0.00     0.148 A 
ATOM     89  C   UNL A   1      45.604  35.855  31.213  1.00  0.00     0.002 A 
ATOM     90  C   UNL A   1      44.821  36.560  29.027  1.00  0.00     0.091 A 
ATOM     91  F   UNL A   1      43.603  35.017  27.674  1.00  0.00    -0.205 F 
ATOM     92  C   UNL A   1      45.479  36.839  30.235  1.00  0.00     0.022 A 
BRANCH  90  93
ATOM     93  S   UNL A   1      44.790  37.857  27.784  1.00  0.00     0.127 S 
ATOM     94  O   UNL A   1      43.401  38.306  27.856  1.00  0.00    -0.237 OA
ATOM     95  O   UNL A   1      45.768  38.813  28.306  1.00  0.00    -0.237 OA
ATOM     96  O   UNL A   1      45.181  37.221  26.534  1.00  0.00    -0.744 OA
ENDBRANCH  90  93
ENDBRANCH  63  86
ENDBRANCH  37  38
ENDBRANCH  29  32
ENDBRANCH  27  28
ENDBRANCH  26  27
ENDBRANCH   1  26
TORSDOF 17
ENDMDL
MODEL 3
REMARK VINA RESULT:     -12.0      1.973      2.496
REMARK SMILES Cc1cc(S(=O)(=O)Nc2ccc(F)c(F)c2)sc1C(=O)NCCCCNC(=O)c1ccc(-c2c3nc(c(-c4cccc(S(=O)(=O)[O-])c4F)c4ccc([nH]4)c(-c4cccc(S(=O)(=O)[O-])c4F)c4nc(c(-c5cccc(S(=O)(=O)[O-])c5F)c5ccc2[nH]5)C=C4)C=C3)cc1
REMARK SMILES IDX 23 1 22 2 21 3 19 4 20 5 18 7 1 8 2 9 3 10 4 11 17 12 5 13
REMARK SMILES IDX 6 14 7 15 8 16 9 18 10 19 16 20 11 21 14 22 12 23 15 24
REMARK SMILES IDX 13 25 24 26 25 27 26 28 27 29 28 31 29 32 30 33 91 34 31 35
REMARK SMILES IDX 90 36 32 37 33 38 34 39 84 40 35 41 89 42 83 43 85 44 36 45
REMARK SMILES IDX 88 46 82 47 81 48 37 50 69 51 49 52 68 53 50 54 53 55 67 56
REMARK SMILES IDX 86 57 51 58 52 59 66 61 87 62 54 63 38 64 39 65 47 66 40 67
REMARK SMILES IDX 42 68 48 69 41 70 43 71 44 72 45 73 46 74 70 75 71 76 79 77
REMARK SMILES IDX 72 78 74 79 80 80 73 81 75 82 76 83 77 84 78 85 55 86 56 87
REMARK SMILES IDX 64 88 57 89 59 90 65 91 58 92 60 93 61 94 62 95 63 96
REMARK H PARENT 21 6 8 17 26 30 85 49 53 60
REMARK Flexibility Score: inf
ROOT
ATOM      1  C   UNL A   1      32.054  29.286  23.446  1.00  0.00     0.023 C 
ENDROOT
BRANCH   1   2
ATOM      2  C   UNL A   1      33.173  28.284  23.140  1.00  0.00     0.116 C 
BRANCH   2   3
ATOM      3  N   UNL A   1      32.794  27.428  22.045  1.00  0.00    -0.351 N 
ATOM      4  C   UNL A   1      31.919  26.387  21.902  1.00  0.00     0.261 C 
ATOM      5  O   UNL A   1      31.874  25.960  20.741  1.00  0.00    -0.268 OA
ATOM      6  H   UNL A   1      33.271  27.642  21.211  1.00  0.00     0.163 HD
BRANCH   4   7
ATOM      7  C   UNL A   1      31.101  25.781  22.962  1.00  0.00     0.096 A 
ATOM      8  C   UNL A   1      28.968  27.171  23.636  1.00  0.00     0.046 C 
ATOM      9  C   UNL A   1      29.982  26.090  23.741  1.00  0.00    -0.026 A 
ATOM     10  C   UNL A   1      29.915  25.227  24.900  1.00  0.00     0.038 A 
ATOM     11  C   UNL A   1      30.887  24.256  24.936  1.00  0.00     0.141 A 
ATOM     12  S   UNL A   1      31.694  24.210  23.448  1.00  0.00    -0.116 S 
BRANCH  11  13
ATOM     13  S   UNL A   1      31.286  23.028  26.149  1.00  0.00     0.271 S 
ATOM     14  O   UNL A   1      31.519  23.789  27.361  1.00  0.00    -0.200 OA
ATOM     15  O   UNL A   1      30.216  22.052  26.100  1.00  0.00    -0.200 OA
BRANCH  13  16
ATOM     16  N   UNL A   1      32.741  22.199  25.856  1.00  0.00    -0.279 N 
ATOM     17  H   UNL A   1      33.601  22.599  26.120  1.00  0.00     0.180 HD
BRANCH  16  18
ATOM     18  C   UNL A   1      32.705  20.922  25.223  1.00  0.00     0.052 A 
ATOM     19  C   UNL A   1      32.451  20.882  23.846  1.00  0.00     0.030 A 
ATOM     20  C   UNL A   1      32.893  19.741  25.941  1.00  0.00     0.069 A 
ATOM     21  C   UNL A   1      32.385  19.658  23.180  1.00  0.00     0.044 A 
ATOM     22  C   UNL A   1      32.846  18.525  25.260  1.00  0.00     0.160 A 
ATOM     23  C   UNL A   1      32.592  18.482  23.892  1.00  0.00     0.158 A 
ATOM     24  F   UNL A   1      33.058  17.387  25.938  1.00  0.00    -0.204 F 
ATOM     25  F   UNL A   1      32.560  17.308  23.248  1.00  0.00    -0.204 F 
ENDBRANCH  16  18
ENDBRANCH  13  16
ENDBRANCH  11  13
ENDBRANCH   4   7
ENDBRANCH   2   3
ENDBRANCH   1   2
BRANCH   1  26
ATOM     26  C   UNL A   1      31.625  29.380  24.908  1.00  0.00     0.023 C 
BRANCH  26  27
ATOM     27  C   UNL A   1      32.692  29.937  25.842  1.00  0.00     0.116 C 
BRANCH  27  28
ATOM     28  N   UNL A   1      32.364  31.238  26.410  1.00  0.00    -0.352 N 
ATOM     29  C   UNL A   1      33.104  31.987  27.301  1.00  0.00     0.251 C 
ATOM     30  H   UNL A   1      31.509  31.632  26.121  1.00  0.00     0.163 HD
ATOM     31  O   UNL A   1      32.677  33.036  27.743  1.00  0.00    -0.269 OA
BRANCH  29  32
ATOM     32  C   UNL A   1      34.405  31.445  27.746  1.00  0.00     0.039 A 
ATOM     33  C   UNL A   1      35.483  32.322  27.884  1.00  0.00     0.014 A 
ATOM     34  C   UNL A   1      34.519  30.105  28.121  1.00  0.00     0.014 A 
ATOM     35  C   UNL A   1      36.659  31.868  28.482  1.00  0.00     0.010 A 
ATOM     36  C   UNL A   1      35.659  29.678  28.786  1.00  0.00     0.010 A 
ATOM     37  C   UNL A   1      36.738  30.555  28.978  1.00  0.00    -0.014 A 
BRANCH  37  38
ATOM     38  C   UNL A   1      37.930  30.080  29.720  1.00  0.00     0.031 A 
ATOM     39  C   UNL A   1      38.205  30.592  31.106  1.00  0.00     0.074 A 
ATOM     40  C   UNL A   1      38.821  29.277  29.103  1.00  0.00     0.049 A 
ATOM     41  N   UNL A   1      39.230  30.359  31.882  1.00  0.00    -0.248 NA
ATOM     42  C   UNL A   1      37.215  31.517  31.682  1.00  0.00     0.031 C 
ATOM     43  C   UNL A   1      38.713  28.792  27.725  1.00  0.00     0.029 A 
ATOM     44  N   UNL A   1      40.009  28.751  29.545  1.00  0.00    -0.354 N 
ATOM     45  C   UNL A   1      39.031  31.135  33.016  1.00  0.00     0.074 A 
ATOM     46  C   UNL A   1      37.806  31.876  32.812  1.00  0.00     0.031 C 
ATOM     47  C   UNL A   1      39.786  28.038  27.438  1.00  0.00     0.029 A 
ATOM     48  C   UNL A   1      40.669  28.003  28.599  1.00  0.00     0.049 A 
ATOM     49  H   UNL A   1      40.356  28.898  30.455  1.00  0.00     0.167 HD
ATOM     50  C   UNL A   1      39.781  31.200  34.141  1.00  0.00     0.034 A 
ATOM     51  C   UNL A   1      41.852  27.360  28.662  1.00  0.00     0.034 A 
ATOM     52  C   UNL A   1      40.961  30.412  34.363  1.00  0.00     0.049 A 
ATOM     53  C   UNL A   1      42.626  27.386  29.952  1.00  0.00     0.074 A 
ATOM     54  C   UNL A   1      41.736  30.327  35.505  1.00  0.00     0.029 A 
ATOM     55  N   UNL A   1      41.537  29.570  33.423  1.00  0.00    -0.354 N 
ATOM     56  N   UNL A   1      42.332  27.991  31.078  1.00  0.00    -0.248 NA
ATOM     57  C   UNL A   1      43.874  26.610  29.997  1.00  0.00     0.031 C 
ATOM     58  C   UNL A   1      42.785  29.437  35.255  1.00  0.00     0.029 A 
ATOM     59  C   UNL A   1      42.656  28.959  33.960  1.00  0.00     0.049 A 
ATOM     60  H   UNL A   1      41.199  29.428  32.510  1.00  0.00     0.167 HD
ATOM     61  C   UNL A   1      43.334  27.639  31.974  1.00  0.00     0.074 A 
ATOM     62  C   UNL A   1      44.236  26.754  31.265  1.00  0.00     0.031 C 
ATOM     63  C   UNL A   1      43.503  28.027  33.262  1.00  0.00     0.034 A 
BRANCH  50  64
ATOM     64  C   UNL A   1      39.301  32.100  35.247  1.00  0.00     0.023 A 
ATOM     65  C   UNL A   1      38.344  31.618  36.163  1.00  0.00     0.012 A 
ATOM     66  C   UNL A   1      39.828  33.395  35.413  1.00  0.00     0.148 A 
ATOM     67  C   UNL A   1      37.892  32.422  37.208  1.00  0.00     0.002 A 
ATOM     68  C   UNL A   1      39.403  34.176  36.483  1.00  0.00     0.091 A 
ATOM     69  F   UNL A   1      40.717  33.845  34.518  1.00  0.00    -0.205 F 
ATOM     70  C   UNL A   1      38.429  33.696  37.373  1.00  0.00     0.022 A 
BRANCH  68  71
ATOM     71  S   UNL A   1      40.090  35.800  36.825  1.00  0.00     0.127 S 
ATOM     72  O   UNL A   1      41.517  35.500  36.927  1.00  0.00    -0.237 OA
ATOM     73  O   UNL A   1      39.709  36.555  35.630  1.00  0.00    -0.237 OA
ATOM     74  O   UNL A   1      39.453  36.252  38.054  1.00  0.00    -0.744 OA
ENDBRANCH  68  71
ENDBRANCH  50  64
BRANCH  51  75
ATOM     75  C   UNL A   1      42.326  26.559  27.498  1.00  0.00     0.023 A 
ATOM     76  C   UNL A   1      43.070  27.195  26.485  1.00  0.00     0.012 A 
ATOM     77  C   UNL A   1      42.080  25.176  27.404  1.00  0.00     0.148 A 
ATOM     78  C   UNL A   1      43.534  26.475  25.384  1.00  0.00     0.002 A 
ATOM     79  C   UNL A   1      42.591  24.454  26.330  1.00  0.00     0.091 A 
ATOM     80  F   UNL A   1      41.360  24.591  28.371  1.00  0.00    -0.205 F 
ATOM     81  C   UNL A   1      43.304  25.104  25.311  1.00  0.00     0.022 A 
BRANCH  79  82
ATOM     82  S   UNL A   1      42.456  22.665  26.227  1.00  0.00     0.127 S 
ATOM     83  O   UNL A   1      43.139  22.243  27.447  1.00  0.00    -0.237 OA
ATOM     84  O   UNL A   1      41.006  22.467  26.231  1.00  0.00    -0.237 OA
ATOM     85  O   UNL A   1      43.103  22.299  24.974  1.00  0.00    -0.744 OA
ENDBRANCH  79  82
ENDBRANCH  51  75
BRANCH  63  86
ATOM     86  C   UNL A   1      44.682  27.470  34.013  1.00  0.00     0.023 A 
ATOM     87  C   UNL A   1      45.917  28.146  33.972  1.00  0.00     0.012 A 
ATOM     88  C   UNL A   1      44.540  26.334  34.833  1.00  0.00     0.148 A 
ATOM     89  C   UNL A   1      47.000  27.685  34.719  1.00  0.00     0.002 A 
ATOM     90  C   UNL A   1      45.610  25.907  35.609  1.00  0.00     0.091 A 
ATOM     91  F   UNL A   1      43.361  25.694  34.842  1.00  0.00    -0.205 F 
ATOM     92  C   UNL A   1      46.843  26.576  35.547  1.00  0.00     0.022 A 
BRANCH  90  93
ATOM     93  S   UNL A   1      45.467  24.546  36.774  1.00  0.00     0.127 S 
ATOM     94  O   UNL A   1      44.045  24.585  37.105  1.00  0.00    -0.237 OA
ATOM     95  O   UNL A   1      45.875  23.397  35.963  1.00  0.00    -0.237 OA
ATOM     96  O   UNL A   1      46.376  24.860  37.868  1.00  0.00    -0.744 OA
ENDBRANCH  90  93
ENDBRANCH  63  86
ENDBRANCH  37  38
ENDBRANCH  29  32
ENDBRANCH  27  28
ENDBRANCH  26  27
ENDBRANCH   1  26
TORSDOF 17
ENDMDL
