MODEL 1
REMARK VINA RESULT:     -14.0      0.000      0.000
REMARK SMILES CC(=O)Nc1cnc(N2CC=C(c3ccccc3C)CC2)c(C(=O)NCCCCNC(=O)c2ccc(-c3c4nc(c(-c5cccc(S(=O)(=O)[O-])c5F)c5ccc([nH]5)c(-c5cccc(S(=O)(=O)[O-])c5F)c5nc(c(-c6cccc(S(=O)(=O)[O-])c6F)c6ccc3[nH]6)C=C5)C=C4)cc2)c1
REMARK SMILES IDX 28 1 27 2 26 3 25 4 23 5 24 6 22 8 5 9 6 10 96 11 7 12 8 13
REMARK SMILES IDX 4 14 1 15 2 16 3 17 9 19 10 20 21 21 11 22 20 23 12 24 13 25
REMARK SMILES IDX 14 26 18 27 15 28 17 29 19 30 16 31 29 32 30 33 31 34 32 36
REMARK SMILES IDX 33 37 34 38 95 39 35 40 94 41 36 42 37 43 38 44 88 45 39 46
REMARK SMILES IDX 93 47 87 48 89 49 40 50 92 51 86 52 85 53 41 55 73 56 53 57
REMARK SMILES IDX 72 58 54 59 57 60 71 61 90 62 55 63 56 64 70 66 91 67 58 68
REMARK SMILES IDX 42 69 43 70 51 71 44 72 46 73 52 74 45 75 47 76 48 77 49 78
REMARK SMILES IDX 50 79 74 80 75 81 83 82 76 83 78 84 84 85 77 86 79 87 80 88
REMARK SMILES IDX 81 89 82 90 59 91 60 92 68 93 61 94 63 95 69 96 62 97 64 98
REMARK SMILES IDX 65 99 66 100 67 101
REMARK H PARENT 25 7 4 18 30 35 89 54 57 65
REMARK Flexibility Score: inf
ROOT
ATOM      1  C   UNL A   1      34.080  29.104  27.323  1.00  0.00     0.023 C 
ENDROOT
BRANCH   1   2
ATOM      2  C   UNL A   1      33.107  28.229  26.512  1.00  0.00     0.023 C 
BRANCH   2   3
ATOM      3  C   UNL A   1      31.838  27.790  27.241  1.00  0.00     0.116 C 
BRANCH   3   4
ATOM      4  N   UNL A   1      31.348  26.498  26.804  1.00  0.00    -0.352 N 
ATOM      5  C   UNL A   1      30.878  25.935  25.644  1.00  0.00     0.255 C 
ATOM      6  O   UNL A   1      30.713  24.718  25.740  1.00  0.00    -0.269 OA
ATOM      7  H   UNL A   1      31.356  25.845  27.541  1.00  0.00     0.163 HD
BRANCH   5   8
ATOM      8  C   UNL A   1      30.620  26.647  24.341  1.00  0.00     0.084 A 
ATOM      9  C   UNL A   1      29.352  28.301  23.063  1.00  0.00     0.060 A 
ATOM     10  C   UNL A   1      30.320  28.224  22.088  1.00  0.00     0.139 A 
ATOM     11  C   UNL A   1      29.487  27.453  24.158  1.00  0.00     0.045 A 
ATOM     12  N   UNL A   1      31.399  27.425  22.182  1.00  0.00    -0.236 NA
ATOM     13  C   UNL A   1      31.566  26.638  23.288  1.00  0.00     0.141 A 
BRANCH   9  14
ATOM     14  N   UNL A   1      28.270  29.182  22.913  1.00  0.00    -0.325 N 
ATOM     15  C   UNL A   1      29.335  31.225  23.859  1.00  0.00     0.114 C 
ATOM     16  C   UNL A   1      28.124  30.460  23.384  1.00  0.00     0.221 C 
ATOM     17  O   UNL A   1      27.013  30.991  23.339  1.00  0.00    -0.275 OA
ATOM     18  H   UNL A   1      27.509  28.833  22.396  1.00  0.00     0.169 HD
ENDBRANCH   9  14
BRANCH  13  19
ATOM     19  N   UNL A   1      32.685  25.850  23.208  1.00  0.00    -0.352 N 
ATOM     20  C   UNL A   1      32.681  24.757  22.251  1.00  0.00     0.146 C 
ATOM     21  C   UNL A   1      33.941  26.178  23.864  1.00  0.00     0.123 C 
ATOM     22  C   UNL A   1      33.572  23.638  22.724  1.00  0.00    -0.002 C 
ATOM     23  C   UNL A   1      34.428  24.954  24.650  1.00  0.00     0.057 C 
ATOM     24  C   UNL A   1      34.355  23.693  23.820  1.00  0.00    -0.041 C 
BRANCH  24  25
ATOM     25  C   UNL A   1      35.152  22.517  24.226  1.00  0.00    -0.020 A 
ATOM     26  C   UNL A   1      36.554  22.599  24.132  1.00  0.00     0.008 A 
ATOM     27  C   UNL A   1      34.569  21.310  24.669  1.00  0.00    -0.044 A 
ATOM     28  C   UNL A   1      37.366  21.512  24.459  1.00  0.00     0.001 A 
ATOM     29  C   UNL A   1      35.402  20.229  25.008  1.00  0.00     0.004 A 
ATOM     30  C   UNL A   1      33.082  21.131  24.804  1.00  0.00     0.045 C 
ATOM     31  C   UNL A   1      36.789  20.325  24.895  1.00  0.00     0.000 A 
ENDBRANCH  24  25
ENDBRANCH  13  19
ENDBRANCH   5   8
ENDBRANCH   3   4
ENDBRANCH   2   3
ENDBRANCH   1   2
BRANCH   1  32
ATOM     32  C   UNL A   1      33.624  30.531  27.600  1.00  0.00     0.116 C 
BRANCH  32  33
ATOM     33  N   UNL A   1      34.720  31.483  27.488  1.00  0.00    -0.352 N 
ATOM     34  C   UNL A   1      35.877  31.535  28.228  1.00  0.00     0.251 C 
ATOM     35  H   UNL A   1      34.620  32.175  26.795  1.00  0.00     0.163 HD
ATOM     36  O   UNL A   1      36.223  32.650  28.658  1.00  0.00    -0.269 OA
BRANCH  34  37
ATOM     37  C   UNL A   1      36.756  30.357  28.364  1.00  0.00     0.039 A 
ATOM     38  C   UNL A   1      36.856  29.683  29.590  1.00  0.00     0.014 A 
ATOM     39  C   UNL A   1      37.664  30.060  27.356  1.00  0.00     0.014 A 
ATOM     40  C   UNL A   1      37.984  28.908  29.851  1.00  0.00     0.010 A 
ATOM     41  C   UNL A   1      38.670  29.172  27.545  1.00  0.00     0.010 A 
ATOM     42  C   UNL A   1      38.925  28.765  28.840  1.00  0.00    -0.014 A 
BRANCH  42  43
ATOM     43  C   UNL A   1      40.266  28.254  28.965  1.00  0.00     0.031 A 
ATOM     44  C   UNL A   1      40.470  26.822  28.810  1.00  0.00     0.074 A 
ATOM     45  C   UNL A   1      41.269  29.162  28.922  1.00  0.00     0.049 A 
ATOM     46  N   UNL A   1      41.530  26.214  29.192  1.00  0.00    -0.248 NA
ATOM     47  C   UNL A   1      39.461  25.951  28.219  1.00  0.00     0.031 C 
ATOM     48  C   UNL A   1      42.654  28.975  28.514  1.00  0.00     0.029 A 
ATOM     49  N   UNL A   1      41.247  30.519  29.209  1.00  0.00    -0.354 N 
ATOM     50  C   UNL A   1      41.494  24.974  28.601  1.00  0.00     0.074 A 
ATOM     51  C   UNL A   1      40.129  24.796  28.173  1.00  0.00     0.031 C 
ATOM     52  C   UNL A   1      43.365  30.063  28.871  1.00  0.00     0.029 A 
ATOM     53  C   UNL A   1      42.499  30.891  29.691  1.00  0.00     0.049 A 
ATOM     54  H   UNL A   1      40.474  31.119  29.093  1.00  0.00     0.167 HD
ATOM     55  C   UNL A   1      42.682  24.358  28.348  1.00  0.00     0.034 A 
ATOM     56  C   UNL A   1      42.712  31.193  31.014  1.00  0.00     0.034 A 
ATOM     57  C   UNL A   1      43.804  25.206  28.815  1.00  0.00     0.049 A 
ATOM     58  C   UNL A   1      43.605  30.163  31.709  1.00  0.00     0.074 A 
ATOM     59  C   UNL A   1      44.683  26.065  28.169  1.00  0.00     0.029 A 
ATOM     60  N   UNL A   1      43.899  25.523  30.166  1.00  0.00    -0.354 N 
ATOM     61  N   UNL A   1      44.106  29.100  31.140  1.00  0.00    -0.248 NA
ATOM     62  C   UNL A   1      43.933  30.222  33.129  1.00  0.00     0.031 C 
ATOM     63  C   UNL A   1      45.291  26.908  29.150  1.00  0.00     0.029 A 
ATOM     64  C   UNL A   1      44.811  26.548  30.397  1.00  0.00     0.049 A 
ATOM     65  H   UNL A   1      43.383  25.076  30.875  1.00  0.00     0.167 HD
ATOM     66  C   UNL A   1      44.641  28.257  32.084  1.00  0.00     0.074 A 
ATOM     67  C   UNL A   1      44.536  29.034  33.313  1.00  0.00     0.031 C 
ATOM     68  C   UNL A   1      45.057  26.982  31.775  1.00  0.00     0.034 A 
BRANCH  55  69
ATOM     69  C   UNL A   1      42.859  23.182  27.399  1.00  0.00     0.023 A 
ATOM     70  C   UNL A   1      42.116  22.015  27.685  1.00  0.00     0.012 A 
ATOM     71  C   UNL A   1      43.709  23.105  26.268  1.00  0.00     0.148 A 
ATOM     72  C   UNL A   1      42.271  20.826  26.963  1.00  0.00     0.002 A 
ATOM     73  C   UNL A   1      43.910  21.903  25.581  1.00  0.00     0.091 A 
ATOM     74  F   UNL A   1      44.272  24.210  25.777  1.00  0.00    -0.205 F 
ATOM     75  C   UNL A   1      43.191  20.759  25.930  1.00  0.00     0.022 A 
BRANCH  73  76
ATOM     76  S   UNL A   1      45.122  21.727  24.256  1.00  0.00     0.127 S 
ATOM     77  O   UNL A   1      46.374  21.581  25.002  1.00  0.00    -0.237 OA
ATOM     78  O   UNL A   1      44.675  20.512  23.580  1.00  0.00    -0.237 OA
ATOM     79  O   UNL A   1      45.046  22.949  23.464  1.00  0.00    -0.744 OA
ENDBRANCH  73  76
ENDBRANCH  55  69
BRANCH  56  80
ATOM     80  C   UNL A   1      41.510  31.843  31.647  1.00  0.00     0.023 A 
ATOM     81  C   UNL A   1      40.967  32.961  30.964  1.00  0.00     0.012 A 
ATOM     82  C   UNL A   1      40.673  31.106  32.500  1.00  0.00     0.148 A 
ATOM     83  C   UNL A   1      39.583  33.136  30.894  1.00  0.00     0.002 A 
ATOM     84  C   UNL A   1      39.297  31.312  32.455  1.00  0.00     0.091 A 
ATOM     85  F   UNL A   1      41.206  30.171  33.295  1.00  0.00    -0.205 F 
ATOM     86  C   UNL A   1      38.743  32.269  31.591  1.00  0.00     0.022 A 
BRANCH  84  87
ATOM     87  S   UNL A   1      38.219  30.269  33.440  1.00  0.00     0.127 S 
ATOM     88  O   UNL A   1      36.904  30.617  32.907  1.00  0.00    -0.237 OA
ATOM     89  O   UNL A   1      38.665  28.916  33.105  1.00  0.00    -0.237 OA
ATOM     90  O   UNL A   1      38.491  30.667  34.810  1.00  0.00    -0.744 OA
ENDBRANCH  84  87
ENDBRANCH  56  80
BRANCH  68  91
ATOM     91  C   UNL A   1      45.682  25.969  32.742  1.00  0.00     0.023 A 
ATOM     92  C   UNL A   1      47.057  25.688  32.774  1.00  0.00     0.012 A 
ATOM     93  C   UNL A   1      44.885  25.202  33.642  1.00  0.00     0.148 A 
ATOM     94  C   UNL A   1      47.629  24.830  33.722  1.00  0.00     0.002 A 
ATOM     95  C   UNL A   1      45.450  24.364  34.599  1.00  0.00     0.091 A 
ATOM     96  F   UNL A   1      43.553  25.198  33.530  1.00  0.00    -0.205 F 
ATOM     97  C   UNL A   1      46.829  24.193  34.657  1.00  0.00     0.022 A 
BRANCH  95  98
ATOM     98  S   UNL A   1      44.449  23.465  35.792  1.00  0.00     0.127 S 
ATOM     99  O   UNL A   1      43.677  24.548  36.400  1.00  0.00    -0.237 OA
ATOM    100  O   UNL A   1      43.673  22.576  34.925  1.00  0.00    -0.237 OA
ATOM    101  O   UNL A   1      45.381  22.783  36.676  1.00  0.00    -0.744 OA
ENDBRANCH  95  98
ENDBRANCH  68  91
ENDBRANCH  42  43
ENDBRANCH  34  37
ENDBRANCH  32  33
ENDBRANCH   1  32
TORSDOF 17
ENDMDL
MODEL 2
REMARK VINA RESULT:     -13.8      1.775      4.658
REMARK SMILES CC(=O)Nc1cnc(N2CC=C(c3ccccc3C)CC2)c(C(=O)NCCCCNC(=O)c2ccc(-c3c4nc(c(-c5cccc(S(=O)(=O)[O-])c5F)c5ccc([nH]5)c(-c5cccc(S(=O)(=O)[O-])c5F)c5nc(c(-c6cccc(S(=O)(=O)[O-])c6F)c6ccc3[nH]6)C=C5)C=C4)cc2)c1
REMARK SMILES IDX 28 1 27 2 26 3 25 4 23 5 24 6 22 8 5 9 6 10 96 11 7 12 8 13
REMARK SMILES IDX 4 14 1 15 2 16 3 17 9 19 10 20 21 21 11 22 20 23 12 24 13 25
REMARK SMILES IDX 14 26 18 27 15 28 17 29 19 30 16 31 29 32 30 33 31 34 32 36
REMARK SMILES IDX 33 37 34 38 95 39 35 40 94 41 36 42 37 43 38 44 88 45 39 46
REMARK SMILES IDX 93 47 87 48 89 49 40 50 92 51 86 52 85 53 41 55 73 56 53 57
REMARK SMILES IDX 72 58 54 59 57 60 71 61 90 62 55 63 56 64 70 66 91 67 58 68
REMARK SMILES IDX 42 69 43 70 51 71 44 72 46 73 52 74 45 75 47 76 48 77 49 78
REMARK SMILES IDX 50 79 74 80 75 81 83 82 76 83 78 84 84 85 77 86 79 87 80 88
REMARK SMILES IDX 81 89 82 90 59 91 60 92 68 93 61 94 63 95 69 96 62 97 64 98
REMARK SMILES IDX 65 99 66 100 67 101
REMARK H PARENT 25 7 4 18 30 35 89 54 57 65
REMARK Flexibility Score: inf
ROOT
ATOM      1  C   UNL A   1      34.136  28.674  27.137  1.00  0.00     0.023 C 
ENDROOT
BRANCH   1   2
ATOM      2  C   UNL A   1      34.197  28.125  25.699  1.00  0.00     0.023 C 
BRANCH   2   3
ATOM      3  C   UNL A   1      33.951  26.625  25.548  1.00  0.00     0.116 C 
BRANCH   3   4
ATOM      4  N   UNL A   1      34.131  26.152  24.189  1.00  0.00    -0.352 N 
ATOM      5  C   UNL A   1      34.012  24.966  23.508  1.00  0.00     0.255 C 
ATOM      6  O   UNL A   1      34.140  25.104  22.290  1.00  0.00    -0.269 OA
ATOM      7  H   UNL A   1      34.416  26.881  23.592  1.00  0.00     0.163 HD
BRANCH   5   8
ATOM      8  C   UNL A   1      33.704  23.616  24.103  1.00  0.00     0.084 A 
ATOM      9  C   UNL A   1      34.493  21.471  24.970  1.00  0.00     0.060 A 
ATOM     10  C   UNL A   1      33.238  21.274  25.500  1.00  0.00     0.139 A 
ATOM     11  C   UNL A   1      34.689  22.624  24.216  1.00  0.00     0.045 A 
ATOM     12  N   UNL A   1      32.237  22.165  25.373  1.00  0.00    -0.236 NA
ATOM     13  C   UNL A   1      32.447  23.329  24.686  1.00  0.00     0.141 A 
BRANCH   9  14
ATOM     14  N   UNL A   1      35.500  20.515  25.172  1.00  0.00    -0.325 N 
ATOM     15  C   UNL A   1      37.475  22.007  24.905  1.00  0.00     0.114 C 
ATOM     16  C   UNL A   1      36.854  20.636  25.006  1.00  0.00     0.221 C 
ATOM     17  O   UNL A   1      37.552  19.621  25.019  1.00  0.00    -0.275 OA
ATOM     18  H   UNL A   1      35.189  19.632  25.476  1.00  0.00     0.169 HD
ENDBRANCH   9  14
BRANCH  13  19
ATOM     19  N   UNL A   1      31.318  24.103  24.605  1.00  0.00    -0.352 N 
ATOM     20  C   UNL A   1      30.539  24.044  23.380  1.00  0.00     0.146 C 
ATOM     21  C   UNL A   1      30.745  24.801  25.744  1.00  0.00     0.123 C 
ATOM     22  C   UNL A   1      29.818  25.347  23.151  1.00  0.00    -0.002 C 
ATOM     23  C   UNL A   1      30.494  26.264  25.359  1.00  0.00     0.057 C 
ATOM     24  C   UNL A   1      29.801  26.377  24.021  1.00  0.00    -0.041 C 
BRANCH  24  25
ATOM     25  C   UNL A   1      29.104  27.633  23.675  1.00  0.00    -0.020 A 
ATOM     26  C   UNL A   1      27.698  27.615  23.599  1.00  0.00     0.008 A 
ATOM     27  C   UNL A   1      29.785  28.835  23.385  1.00  0.00    -0.044 A 
ATOM     28  C   UNL A   1      26.979  28.754  23.237  1.00  0.00     0.001 A 
ATOM     29  C   UNL A   1      29.045  29.978  23.036  1.00  0.00     0.004 A 
ATOM     30  C   UNL A   1      31.284  28.950  23.444  1.00  0.00     0.045 C 
ATOM     31  C   UNL A   1      27.653  29.936  22.953  1.00  0.00     0.000 A 
ENDBRANCH  24  25
ENDBRANCH  13  19
ENDBRANCH   5   8
ENDBRANCH   3   4
ENDBRANCH   2   3
ENDBRANCH   1   2
BRANCH   1  32
ATOM     32  C   UNL A   1      33.555  30.073  27.294  1.00  0.00     0.116 C 
BRANCH  32  33
ATOM     33  N   UNL A   1      34.590  31.098  27.256  1.00  0.00    -0.352 N 
ATOM     34  C   UNL A   1      35.697  31.214  28.061  1.00  0.00     0.251 C 
ATOM     35  H   UNL A   1      34.482  31.793  26.568  1.00  0.00     0.163 HD
ATOM     36  O   UNL A   1      35.943  32.342  28.524  1.00  0.00    -0.269 OA
BRANCH  34  37
ATOM     37  C   UNL A   1      36.645  30.095  28.231  1.00  0.00     0.039 A 
ATOM     38  C   UNL A   1      36.761  29.445  29.469  1.00  0.00     0.014 A 
ATOM     39  C   UNL A   1      37.590  29.841  27.245  1.00  0.00     0.014 A 
ATOM     40  C   UNL A   1      37.930  28.746  29.763  1.00  0.00     0.010 A 
ATOM     41  C   UNL A   1      38.644  29.019  27.467  1.00  0.00     0.010 A 
ATOM     42  C   UNL A   1      38.898  28.647  28.772  1.00  0.00    -0.014 A 
BRANCH  42  43
ATOM     43  C   UNL A   1      40.265  28.222  28.931  1.00  0.00     0.031 A 
ATOM     44  C   UNL A   1      40.572  26.814  28.730  1.00  0.00     0.074 A 
ATOM     45  C   UNL A   1      41.205  29.196  28.962  1.00  0.00     0.049 A 
ATOM     46  N   UNL A   1      41.656  26.264  29.130  1.00  0.00    -0.248 NA
ATOM     47  C   UNL A   1      39.647  25.902  28.068  1.00  0.00     0.031 C 
ATOM     48  C   UNL A   1      42.613  29.118  28.602  1.00  0.00     0.029 A 
ATOM     49  N   UNL A   1      41.080  30.535  29.299  1.00  0.00    -0.354 N 
ATOM     50  C   UNL A   1      41.727  25.048  28.492  1.00  0.00     0.074 A 
ATOM     51  C   UNL A   1      40.393  24.797  28.004  1.00  0.00     0.031 C 
ATOM     52  C   UNL A   1      43.235  30.236  29.027  1.00  0.00     0.029 A 
ATOM     53  C   UNL A   1      42.285  30.971  29.843  1.00  0.00     0.049 A 
ATOM     54  H   UNL A   1      40.273  31.087  29.175  1.00  0.00     0.167 HD
ATOM     55  C   UNL A   1      42.962  24.523  28.262  1.00  0.00     0.034 A 
ATOM     56  C   UNL A   1      42.429  31.233  31.184  1.00  0.00     0.034 A 
ATOM     57  C   UNL A   1      44.006  25.426  28.805  1.00  0.00     0.049 A 
ATOM     58  C   UNL A   1      43.364  30.237  31.875  1.00  0.00     0.074 A 
ATOM     59  C   UNL A   1      44.847  26.366  28.227  1.00  0.00     0.029 A 
ATOM     60  N   UNL A   1      44.030  25.693  30.170  1.00  0.00    -0.354 N 
ATOM     61  N   UNL A   1      43.957  29.234  31.286  1.00  0.00    -0.248 NA
ATOM     62  C   UNL A   1      43.634  30.260  33.307  1.00  0.00     0.031 C 
ATOM     63  C   UNL A   1      45.360  27.207  29.262  1.00  0.00     0.029 A 
ATOM     64  C   UNL A   1      44.860  26.766  30.475  1.00  0.00     0.049 A 
ATOM     65  H   UNL A   1      43.519  25.184  30.841  1.00  0.00     0.167 HD
ATOM     66  C   UNL A   1      44.512  28.391  32.218  1.00  0.00     0.074 A 
ATOM     67  C   UNL A   1      44.310  29.109  33.470  1.00  0.00     0.031 C 
ATOM     68  C   UNL A   1      45.026  27.160  31.877  1.00  0.00     0.034 A 
BRANCH  55  69
ATOM     69  C   UNL A   1      43.253  23.401  27.278  1.00  0.00     0.023 A 
ATOM     70  C   UNL A   1      44.127  23.702  26.209  1.00  0.00     0.012 A 
ATOM     71  C   UNL A   1      42.727  22.086  27.287  1.00  0.00     0.148 A 
ATOM     72  C   UNL A   1      44.388  22.800  25.171  1.00  0.00     0.002 A 
ATOM     73  C   UNL A   1      42.938  21.203  26.223  1.00  0.00     0.091 A 
ATOM     74  F   UNL A   1      42.084  21.628  28.363  1.00  0.00    -0.205 F 
ATOM     75  C   UNL A   1      43.769  21.560  25.160  1.00  0.00     0.022 A 
BRANCH  73  76
ATOM     76  S   UNL A   1      42.133  19.591  26.117  1.00  0.00     0.127 S 
ATOM     77  O   UNL A   1      42.770  19.007  24.934  1.00  0.00    -0.237 OA
ATOM     78  O   UNL A   1      42.514  18.965  27.380  1.00  0.00    -0.237 OA
ATOM     79  O   UNL A   1      40.709  19.853  25.952  1.00  0.00    -0.744 OA
ENDBRANCH  73  76
ENDBRANCH  55  69
BRANCH  56  80
ATOM     80  C   UNL A   1      41.162  31.775  31.793  1.00  0.00     0.023 A 
ATOM     81  C   UNL A   1      40.574  32.885  31.136  1.00  0.00     0.012 A 
ATOM     82  C   UNL A   1      40.343  30.948  32.579  1.00  0.00     0.148 A 
ATOM     83  C   UNL A   1      39.185  32.975  31.017  1.00  0.00     0.002 A 
ATOM     84  C   UNL A   1      38.959  31.067  32.484  1.00  0.00     0.091 A 
ATOM     85  F   UNL A   1      40.905  30.013  33.355  1.00  0.00    -0.205 F 
ATOM     86  C   UNL A   1      38.378  32.025  31.640  1.00  0.00     0.022 A 
BRANCH  84  87
ATOM     87  S   UNL A   1      37.915  29.914  33.378  1.00  0.00     0.127 S 
ATOM     88  O   UNL A   1      36.601  30.203  32.809  1.00  0.00    -0.237 OA
ATOM     89  O   UNL A   1      38.460  28.608  33.003  1.00  0.00    -0.237 OA
ATOM     90  O   UNL A   1      38.109  30.264  34.775  1.00  0.00    -0.744 OA
ENDBRANCH  84  87
ENDBRANCH  56  80
BRANCH  68  91
ATOM     91  C   UNL A   1      45.682  26.153  32.829  1.00  0.00     0.023 A 
ATOM     92  C   UNL A   1      47.061  25.890  32.835  1.00  0.00     0.012 A 
ATOM     93  C   UNL A   1      44.912  25.372  33.742  1.00  0.00     0.148 A 
ATOM     94  C   UNL A   1      47.662  25.037  33.769  1.00  0.00     0.002 A 
ATOM     95  C   UNL A   1      45.507  24.539  34.684  1.00  0.00     0.091 A 
ATOM     96  F   UNL A   1      43.579  25.350  33.654  1.00  0.00    -0.205 F 
ATOM     97  C   UNL A   1      46.889  24.387  34.717  1.00  0.00     0.022 A 
BRANCH  95  98
ATOM     98  S   UNL A   1      44.540  23.623  35.893  1.00  0.00     0.127 S 
ATOM     99  O   UNL A   1      43.777  22.719  35.033  1.00  0.00    -0.237 OA
ATOM    100  O   UNL A   1      45.586  22.973  36.686  1.00  0.00    -0.237 OA
ATOM    101  O   UNL A   1      43.756  24.609  36.621  1.00  0.00    -0.744 OA
ENDBRANCH  95  98
ENDBRANCH  68  91
ENDBRANCH  42  43
ENDBRANCH  34  37
ENDBRANCH  32  33
ENDBRANCH   1  32
TORSDOF 17
ENDMDL
MODEL 3
REMARK VINA RESULT:     -13.6      2.638      3.493
REMARK SMILES CC(=O)Nc1cnc(N2CC=C(c3ccccc3C)CC2)c(C(=O)NCCCCNC(=O)c2ccc(-c3c4nc(c(-c5cccc(S(=O)(=O)[O-])c5F)c5ccc([nH]5)c(-c5cccc(S(=O)(=O)[O-])c5F)c5nc(c(-c6cccc(S(=O)(=O)[O-])c6F)c6ccc3[nH]6)C=C5)C=C4)cc2)c1
REMARK SMILES IDX 28 1 27 2 26 3 25 4 23 5 24 6 22 8 5 9 6 10 96 11 7 12 8 13
REMARK SMILES IDX 4 14 1 15 2 16 3 17 9 19 10 20 21 21 11 22 20 23 12 24 13 25
REMARK SMILES IDX 14 26 18 27 15 28 17 29 19 30 16 31 29 32 30 33 31 34 32 36
REMARK SMILES IDX 33 37 34 38 95 39 35 40 94 41 36 42 37 43 38 44 88 45 39 46
REMARK SMILES IDX 93 47 87 48 89 49 40 50 92 51 86 52 85 53 41 55 73 56 53 57
REMARK SMILES IDX 72 58 54 59 57 60 71 61 90 62 55 63 56 64 70 66 91 67 58 68
REMARK SMILES IDX 42 69 43 70 51 71 44 72 46 73 52 74 45 75 47 76 48 77 49 78
REMARK SMILES IDX 50 79 74 80 75 81 83 82 76 83 78 84 84 85 77 86 79 87 80 88
REMARK SMILES IDX 81 89 82 90 59 91 60 92 68 93 61 94 63 95 69 96 62 97 64 98
REMARK SMILES IDX 65 99 66 100 67 101
REMARK H PARENT 25 7 4 18 30 35 89 54 57 65
REMARK Flexibility Score: inf
ROOT
ATOM      1  C   UNL A   1      32.861  30.676  27.134  1.00  0.00     0.023 C 
ENDROOT
BRANCH   1   2
ATOM      2  C   UNL A   1      32.741  29.144  27.032  1.00  0.00     0.023 C 
BRANCH   2   3
ATOM      3  C   UNL A   1      31.473  28.534  27.626  1.00  0.00     0.116 C 
BRANCH   3   4
ATOM      4  N   UNL A   1      31.175  27.215  27.102  1.00  0.00    -0.352 N 
ATOM      5  C   UNL A   1      30.926  26.648  25.877  1.00  0.00     0.255 C 
ATOM      6  O   UNL A   1      30.869  25.418  25.927  1.00  0.00    -0.269 OA
ATOM      7  H   UNL A   1      31.145  26.543  27.821  1.00  0.00     0.163 HD
BRANCH   5   8
ATOM      8  C   UNL A   1      30.782  27.373  24.564  1.00  0.00     0.084 A 
ATOM      9  C   UNL A   1      29.619  29.030  23.193  1.00  0.00     0.060 A 
ATOM     10  C   UNL A   1      30.674  28.975  22.311  1.00  0.00     0.139 A 
ATOM     11  C   UNL A   1      29.662  28.170  24.286  1.00  0.00     0.045 A 
ATOM     12  N   UNL A   1      31.748  28.185  22.495  1.00  0.00    -0.236 NA
ATOM     13  C   UNL A   1      31.821  27.386  23.603  1.00  0.00     0.141 A 
BRANCH   9  14
ATOM     14  N   UNL A   1      28.546  29.903  22.954  1.00  0.00    -0.325 N 
ATOM     15  C   UNL A   1      29.397  31.875  24.213  1.00  0.00     0.114 C 
ATOM     16  C   UNL A   1      28.293  31.133  23.500  1.00  0.00     0.221 C 
ATOM     17  O   UNL A   1      27.187  31.647  23.331  1.00  0.00    -0.275 OA
ATOM     18  H   UNL A   1      27.882  29.585  22.302  1.00  0.00     0.169 HD
ENDBRANCH   9  14
BRANCH  13  19
ATOM     19  N   UNL A   1      32.951  26.610  23.618  1.00  0.00    -0.352 N 
ATOM     20  C   UNL A   1      33.207  25.758  22.470  1.00  0.00     0.146 C 
ATOM     21  C   UNL A   1      34.006  26.756  24.608  1.00  0.00     0.123 C 
ATOM     22  C   UNL A   1      33.995  24.541  22.881  1.00  0.00    -0.002 C 
ATOM     23  C   UNL A   1      34.332  25.377  25.196  1.00  0.00     0.057 C 
ATOM     24  C   UNL A   1      34.496  24.334  24.116  1.00  0.00    -0.041 C 
BRANCH  24  25
ATOM     25  C   UNL A   1      35.211  23.079  24.428  1.00  0.00    -0.020 A 
ATOM     26  C   UNL A   1      36.607  23.046  24.248  1.00  0.00     0.008 A 
ATOM     27  C   UNL A   1      34.553  21.909  24.865  1.00  0.00    -0.044 A 
ATOM     28  C   UNL A   1      37.339  21.882  24.484  1.00  0.00     0.001 A 
ATOM     29  C   UNL A   1      35.308  20.748  25.112  1.00  0.00     0.004 A 
ATOM     30  C   UNL A   1      33.067  21.851  25.088  1.00  0.00     0.045 C 
ATOM     31  C   UNL A   1      36.689  20.732  24.914  1.00  0.00     0.000 A 
ENDBRANCH  24  25
ENDBRANCH  13  19
ENDBRANCH   5   8
ENDBRANCH   3   4
ENDBRANCH   2   3
ENDBRANCH   1   2
BRANCH   1  32
ATOM     32  C   UNL A   1      34.149  31.206  27.751  1.00  0.00     0.116 C 
BRANCH  32  33
ATOM     33  N   UNL A   1      34.047  32.619  28.089  1.00  0.00    -0.352 N 
ATOM     34  C   UNL A   1      34.430  33.241  29.253  1.00  0.00     0.251 C 
ATOM     35  H   UNL A   1      33.655  33.200  27.398  1.00  0.00     0.163 HD
ATOM     36  O   UNL A   1      33.626  34.050  29.752  1.00  0.00    -0.269 OA
BRANCH  34  37
ATOM     37  C   UNL A   1      35.795  33.089  29.794  1.00  0.00     0.039 A 
ATOM     38  C   UNL A   1      36.900  33.574  29.079  1.00  0.00     0.014 A 
ATOM     39  C   UNL A   1      36.009  32.257  30.885  1.00  0.00     0.014 A 
ATOM     40  C   UNL A   1      38.162  33.038  29.332  1.00  0.00     0.010 A 
ATOM     41  C   UNL A   1      37.256  31.867  31.246  1.00  0.00     0.010 A 
ATOM     42  C   UNL A   1      38.281  32.104  30.352  1.00  0.00    -0.014 A 
BRANCH  42  43
ATOM     43  C   UNL A   1      39.401  31.233  30.607  1.00  0.00     0.031 A 
ATOM     44  C   UNL A   1      39.421  29.934  29.953  1.00  0.00     0.074 A 
ATOM     45  C   UNL A   1      40.485  31.795  31.192  1.00  0.00     0.049 A 
ATOM     46  N   UNL A   1      40.177  28.970  30.323  1.00  0.00    -0.248 NA
ATOM     47  C   UNL A   1      38.555  29.617  28.824  1.00  0.00     0.031 C 
ATOM     48  C   UNL A   1      41.878  31.381  31.120  1.00  0.00     0.029 A 
ATOM     49  N   UNL A   1      40.575  32.932  31.980  1.00  0.00    -0.354 N 
ATOM     50  C   UNL A   1      40.156  28.053  29.299  1.00  0.00     0.074 A 
ATOM     51  C   UNL A   1      39.011  28.406  28.497  1.00  0.00     0.031 C 
ATOM     52  C   UNL A   1      42.583  32.053  32.052  1.00  0.00     0.029 A 
ATOM     53  C   UNL A   1      41.627  32.768  32.878  1.00  0.00     0.049 A 
ATOM     54  H   UNL A   1      39.993  33.725  31.916  1.00  0.00     0.167 HD
ATOM     55  C   UNL A   1      41.247  27.254  29.140  1.00  0.00     0.034 A 
ATOM     56  C   UNL A   1      41.415  32.548  34.217  1.00  0.00     0.034 A 
ATOM     57  C   UNL A   1      42.257  27.561  30.182  1.00  0.00     0.049 A 
ATOM     58  C   UNL A   1      41.843  31.144  34.651  1.00  0.00     0.074 A 
ATOM     59  C   UNL A   1      43.426  28.309  30.185  1.00  0.00     0.029 A 
ATOM     60  N   UNL A   1      41.929  27.377  31.521  1.00  0.00    -0.354 N 
ATOM     61  N   UNL A   1      42.339  30.234  33.857  1.00  0.00    -0.248 NA
ATOM     62  C   UNL A   1      41.667  30.641  36.008  1.00  0.00     0.031 C 
ATOM     63  C   UNL A   1      43.782  28.582  31.541  1.00  0.00     0.029 A 
ATOM     64  C   UNL A   1      42.852  27.978  32.369  1.00  0.00     0.049 A 
ATOM     65  H   UNL A   1      41.137  26.880  31.831  1.00  0.00     0.167 HD
ATOM     66  C   UNL A   1      42.378  29.015  34.491  1.00  0.00     0.074 A 
ATOM     67  C   UNL A   1      41.978  29.342  35.854  1.00  0.00     0.031 C 
ATOM     68  C   UNL A   1      42.673  27.850  33.819  1.00  0.00     0.034 A 
BRANCH  55  69
ATOM     69  C   UNL A   1      41.555  26.455  27.884  1.00  0.00     0.023 A 
ATOM     70  C   UNL A   1      41.680  27.183  26.680  1.00  0.00     0.012 A 
ATOM     71  C   UNL A   1      41.706  25.051  27.768  1.00  0.00     0.148 A 
ATOM     72  C   UNL A   1      41.847  26.563  25.436  1.00  0.00     0.002 A 
ATOM     73  C   UNL A   1      41.815  24.423  26.523  1.00  0.00     0.091 A 
ATOM     74  F   UNL A   1      41.837  24.299  28.863  1.00  0.00    -0.205 F 
ATOM     75  C   UNL A   1      41.883  25.180  25.352  1.00  0.00     0.022 A 
BRANCH  73  76
ATOM     76  S   UNL A   1      41.822  22.629  26.330  1.00  0.00     0.127 S 
ATOM     77  O   UNL A   1      42.581  22.197  27.506  1.00  0.00    -0.237 OA
ATOM     78  O   UNL A   1      40.399  22.302  26.375  1.00  0.00    -0.237 OA
ATOM     79  O   UNL A   1      42.489  22.354  25.063  1.00  0.00    -0.744 OA
ENDBRANCH  73  76
ENDBRANCH  55  69
BRANCH  56  80
ATOM     80  C   UNL A   1      40.185  33.256  34.720  1.00  0.00     0.023 A 
ATOM     81  C   UNL A   1      38.955  32.569  34.561  1.00  0.00     0.012 A 
ATOM     82  C   UNL A   1      40.287  34.223  35.733  1.00  0.00     0.148 A 
ATOM     83  C   UNL A   1      37.986  32.621  35.566  1.00  0.00     0.002 A 
ATOM     84  C   UNL A   1      39.299  34.296  36.711  1.00  0.00     0.091 A 
ATOM     85  F   UNL A   1      41.366  35.013  35.780  1.00  0.00    -0.205 F 
ATOM     86  C   UNL A   1      38.189  33.439  36.676  1.00  0.00     0.022 A 
BRANCH  84  87
ATOM     87  S   UNL A   1      39.505  35.433  38.085  1.00  0.00     0.127 S 
ATOM     88  O   UNL A   1      38.358  35.094  38.923  1.00  0.00    -0.237 OA
ATOM     89  O   UNL A   1      40.799  35.046  38.649  1.00  0.00    -0.237 OA
ATOM     90  O   UNL A   1      39.491  36.748  37.466  1.00  0.00    -0.744 OA
ENDBRANCH  84  87
ENDBRANCH  56  80
BRANCH  68  91
ATOM     91  C   UNL A   1      42.761  26.446  34.428  1.00  0.00     0.023 A 
ATOM     92  C   UNL A   1      41.856  25.971  35.392  1.00  0.00     0.012 A 
ATOM     93  C   UNL A   1      43.814  25.546  34.089  1.00  0.00     0.148 A 
ATOM     94  C   UNL A   1      41.891  24.656  35.874  1.00  0.00     0.002 A 
ATOM     95  C   UNL A   1      43.841  24.233  34.551  1.00  0.00     0.091 A 
ATOM     96  F   UNL A   1      44.865  25.972  33.383  1.00  0.00    -0.205 F 
ATOM     97  C   UNL A   1      42.863  23.776  35.428  1.00  0.00     0.022 A 
BRANCH  95  98
ATOM     98  S   UNL A   1      45.120  23.072  34.052  1.00  0.00     0.127 S 
ATOM     99  O   UNL A   1      44.959  23.067  32.598  1.00  0.00    -0.237 OA
ATOM    100  O   UNL A   1      46.334  23.738  34.528  1.00  0.00    -0.237 OA
ATOM    101  O   UNL A   1      44.817  21.817  34.723  1.00  0.00    -0.744 OA
ENDBRANCH  95  98
ENDBRANCH  68  91
ENDBRANCH  42  43
ENDBRANCH  34  37
ENDBRANCH  32  33
ENDBRANCH   1  32
TORSDOF 17
ENDMDL
