MODEL 1
REMARK VINA RESULT:     -11.3      0.000      0.000
REMARK SMILES Cc1ccc(/C=C/C(=O)NC[C@H]2CC[C@@H](C(=O)NCCCCNC(=O)c3ccc(-c4c5nc(c(-c6cccc(S(=O)(=O)[O-])c6F)c6ccc([nH]6)c(-c6cccc(S(=O)(=O)[O-])c6F)c6nc(c(-c7cccc(S(=O)(=O)[O-])c7F)c7ccc4[nH]7)C=C6)C=C5)cc3)CC2)s1
REMARK SMILES IDX 20 1 19 2 18 3 16 4 17 5 15 7 12 8 13 9 90 10 14 11 89 12
REMARK SMILES IDX 11 13 10 14 8 15 9 16 7 18 6 19 5 20 1 21 2 22 3 23 91 24
REMARK SMILES IDX 4 25 21 26 22 27 23 28 24 29 25 31 26 32 27 33 88 34 28 35
REMARK SMILES IDX 87 36 29 37 30 38 31 39 81 40 32 41 86 42 80 43 82 44 33 45
REMARK SMILES IDX 85 46 79 47 78 48 34 50 66 51 46 52 65 53 47 54 50 55 64 56
REMARK SMILES IDX 83 57 48 58 49 59 63 61 84 62 51 63 35 64 36 65 44 66 37 67
REMARK SMILES IDX 39 68 45 69 38 70 40 71 41 72 42 73 43 74 67 75 68 76 76 77
REMARK SMILES IDX 69 78 71 79 77 80 70 81 72 82 73 83 74 84 75 85 52 86 53 87
REMARK SMILES IDX 61 88 54 89 56 90 62 91 55 92 57 93 58 94 59 95 60 96
REMARK H PARENT 18 6 10 17 23 30 82 49 50 60
REMARK Flexibility Score: inf
ROOT
ATOM      1  C   UNL A   1      32.323  28.394  27.271  1.00  0.00     0.023 C 
ENDROOT
BRANCH   1   2
ATOM      2  C   UNL A   1      31.508  28.035  26.011  1.00  0.00     0.116 C 
BRANCH   2   3
ATOM      3  N   UNL A   1      31.447  29.053  24.958  1.00  0.00    -0.356 N 
ATOM      4  C   UNL A   1      30.437  29.256  24.057  1.00  0.00     0.223 C 
ATOM      5  O   UNL A   1      29.925  30.383  24.034  1.00  0.00    -0.275 OA
ATOM      6  H   UNL A   1      32.220  29.659  24.892  1.00  0.00     0.163 HD
BRANCH   4   7
ATOM      7  C   UNL A   1      29.984  28.225  23.008  1.00  0.00     0.078 C 
ATOM      8  C   UNL A   1      30.419  25.275  23.235  1.00  0.00     0.008 C 
ATOM      9  C   UNL A   1      29.456  26.034  24.150  1.00  0.00     0.006 C 
ATOM     10  C   UNL A   1      31.518  26.173  22.630  1.00  0.00     0.006 C 
ATOM     11  C   UNL A   1      28.890  27.273  23.489  1.00  0.00     0.014 C 
ATOM     12  C   UNL A   1      31.036  27.539  22.141  1.00  0.00     0.014 C 
BRANCH   8  13
ATOM     13  C   UNL A   1      30.924  24.013  23.970  1.00  0.00     0.119 C 
BRANCH  13  14
ATOM     14  N   UNL A   1      31.115  22.855  23.140  1.00  0.00    -0.352 N 
ATOM     15  C   UNL A   1      32.121  21.984  22.959  1.00  0.00     0.244 C 
ATOM     16  O   UNL A   1      32.008  21.256  21.966  1.00  0.00    -0.270 OA
ATOM     17  H   UNL A   1      30.333  22.655  22.577  1.00  0.00     0.163 HD
BRANCH  15  18
ATOM     18  C   UNL A   1      33.408  21.952  23.710  1.00  0.00     0.072 C 
ATOM     19  C   UNL A   1      34.046  21.230  24.648  1.00  0.00     0.024 C 
BRANCH  19  20
ATOM     20  C   UNL A   1      35.403  21.563  25.065  1.00  0.00     0.027 A 
ATOM     21  C   UNL A   1      38.372  23.976  26.153  1.00  0.00     0.056 C 
ATOM     22  C   UNL A   1      37.481  22.836  25.767  1.00  0.00     0.002 A 
ATOM     23  C   UNL A   1      37.770  21.573  25.304  1.00  0.00     0.016 A 
ATOM     24  S   UNL A   1      35.810  23.017  25.906  1.00  0.00    -0.141 S 
ATOM     25  C   UNL A   1      36.583  20.842  24.924  1.00  0.00     0.020 A 
ENDBRANCH  19  20
ENDBRANCH  15  18
ENDBRANCH  13  14
ENDBRANCH   8  13
ENDBRANCH   4   7
ENDBRANCH   2   3
ENDBRANCH   1   2
BRANCH   1  26
ATOM     26  C   UNL A   1      33.646  29.244  27.274  1.00  0.00     0.023 C 
BRANCH  26  27
ATOM     27  C   UNL A   1      33.915  30.779  27.154  1.00  0.00     0.116 C 
BRANCH  27  28
ATOM     28  N   UNL A   1      33.823  31.651  28.316  1.00  0.00    -0.352 N 
ATOM     29  C   UNL A   1      34.764  31.852  29.327  1.00  0.00     0.251 C 
ATOM     30  H   UNL A   1      32.988  32.166  28.399  1.00  0.00     0.163 HD
ATOM     31  O   UNL A   1      34.597  32.672  30.210  1.00  0.00    -0.269 OA
BRANCH  29  32
ATOM     32  C   UNL A   1      36.004  31.041  29.344  1.00  0.00     0.039 A 
ATOM     33  C   UNL A   1      37.108  31.451  28.602  1.00  0.00     0.014 A 
ATOM     34  C   UNL A   1      36.068  29.858  30.077  1.00  0.00     0.014 A 
ATOM     35  C   UNL A   1      38.321  30.762  28.732  1.00  0.00     0.010 A 
ATOM     36  C   UNL A   1      37.296  29.217  30.269  1.00  0.00     0.010 A 
ATOM     37  C   UNL A   1      38.454  29.698  29.646  1.00  0.00    -0.014 A 
BRANCH  37  38
ATOM     38  C   UNL A   1      39.812  29.229  30.061  1.00  0.00     0.031 A 
ATOM     39  C   UNL A   1      40.594  29.867  31.180  1.00  0.00     0.074 A 
ATOM     40  C   UNL A   1      40.394  28.246  29.337  1.00  0.00     0.049 A 
ATOM     41  N   UNL A   1      41.750  29.507  31.680  1.00  0.00    -0.248 NA
ATOM     42  C   UNL A   1      40.033  31.079  31.795  1.00  0.00     0.031 C 
ATOM     43  C   UNL A   1      39.824  27.636  28.132  1.00  0.00     0.029 A 
ATOM     44  N   UNL A   1      41.589  27.585  29.499  1.00  0.00    -0.354 N 
ATOM     45  C   UNL A   1      42.068  30.455  32.646  1.00  0.00     0.074 A 
ATOM     46  C   UNL A   1      41.000  31.432  32.633  1.00  0.00     0.031 C 
ATOM     47  C   UNL A   1      40.637  26.662  27.697  1.00  0.00     0.029 A 
ATOM     48  C   UNL A   1      41.802  26.589  28.571  1.00  0.00     0.049 A 
ATOM     49  H   UNL A   1      42.233  27.804  30.210  1.00  0.00     0.167 HD
ATOM     50  C   UNL A   1      43.129  30.492  33.490  1.00  0.00     0.034 A 
ATOM     51  C   UNL A   1      42.806  25.699  28.444  1.00  0.00     0.034 A 
ATOM     52  C   UNL A   1      44.166  29.493  33.537  1.00  0.00     0.049 A 
ATOM     53  C   UNL A   1      43.917  25.699  29.457  1.00  0.00     0.074 A 
ATOM     54  C   UNL A   1      45.215  29.381  34.434  1.00  0.00     0.029 A 
ATOM     55  N   UNL A   1      44.290  28.436  32.648  1.00  0.00    -0.354 N 
ATOM     56  N   UNL A   1      44.080  26.476  30.500  1.00  0.00    -0.248 NA
ATOM     57  C   UNL A   1      44.960  24.674  29.301  1.00  0.00     0.031 C 
ATOM     58  C   UNL A   1      45.982  28.266  34.077  1.00  0.00     0.029 A 
ATOM     59  C   UNL A   1      45.399  27.672  32.970  1.00  0.00     0.049 A 
ATOM     60  H   UNL A   1      43.678  28.255  31.899  1.00  0.00     0.167 HD
ATOM     61  C   UNL A   1      45.223  26.013  31.143  1.00  0.00     0.074 A 
ATOM     62  C   UNL A   1      45.696  24.872  30.386  1.00  0.00     0.031 C 
ATOM     63  C   UNL A   1      45.832  26.502  32.250  1.00  0.00     0.034 A 
BRANCH  50  64
ATOM     64  C   UNL A   1      43.188  31.617  34.494  1.00  0.00     0.023 A 
ATOM     65  C   UNL A   1      43.879  32.801  34.160  1.00  0.00     0.012 A 
ATOM     66  C   UNL A   1      42.515  31.538  35.729  1.00  0.00     0.148 A 
ATOM     67  C   UNL A   1      43.935  33.870  35.054  1.00  0.00     0.002 A 
ATOM     68  C   UNL A   1      42.541  32.624  36.598  1.00  0.00     0.091 A 
ATOM     69  F   UNL A   1      41.872  30.403  36.037  1.00  0.00    -0.205 F 
ATOM     70  C   UNL A   1      43.261  33.785  36.268  1.00  0.00     0.022 A 
BRANCH  68  71
ATOM     71  S   UNL A   1      41.644  32.645  38.155  1.00  0.00     0.127 S 
ATOM     72  O   UNL A   1      41.849  34.023  38.596  1.00  0.00    -0.237 OA
ATOM     73  O   UNL A   1      40.278  32.339  37.730  1.00  0.00    -0.237 OA
ATOM     74  O   UNL A   1      42.263  31.622  38.987  1.00  0.00    -0.744 OA
ENDBRANCH  68  71
ENDBRANCH  50  64
BRANCH  51  75
ATOM     75  C   UNL A   1      42.752  24.661  27.374  1.00  0.00     0.023 A 
ATOM     76  C   UNL A   1      43.317  24.942  26.115  1.00  0.00     0.012 A 
ATOM     77  C   UNL A   1      42.171  23.397  27.599  1.00  0.00     0.148 A 
ATOM     78  C   UNL A   1      43.272  24.000  25.086  1.00  0.00     0.002 A 
ATOM     79  C   UNL A   1      42.178  22.444  26.586  1.00  0.00     0.091 A 
ATOM     80  F   UNL A   1      41.632  23.151  28.800  1.00  0.00    -0.205 F 
ATOM     81  C   UNL A   1      42.712  22.748  25.324  1.00  0.00     0.022 A 
BRANCH  79  82
ATOM     82  S   UNL A   1      41.596  20.764  26.847  1.00  0.00     0.127 S 
ATOM     83  O   UNL A   1      42.484  20.301  27.909  1.00  0.00    -0.237 OA
ATOM     84  O   UNL A   1      40.208  20.983  27.253  1.00  0.00    -0.237 OA
ATOM     85  O   UNL A   1      41.743  20.098  25.558  1.00  0.00    -0.744 OA
ENDBRANCH  79  82
ENDBRANCH  51  75
BRANCH  63  86
ATOM     86  C   UNL A   1      47.068  25.795  32.740  1.00  0.00     0.023 A 
ATOM     87  C   UNL A   1      48.335  26.194  32.270  1.00  0.00     0.012 A 
ATOM     88  C   UNL A   1      46.982  24.791  33.724  1.00  0.00     0.148 A 
ATOM     89  C   UNL A   1      49.495  25.587  32.753  1.00  0.00     0.002 A 
ATOM     90  C   UNL A   1      48.143  24.224  34.235  1.00  0.00     0.091 A 
ATOM     91  F   UNL A   1      45.766  24.408  34.143  1.00  0.00    -0.205 F 
ATOM     92  C   UNL A   1      49.399  24.613  33.743  1.00  0.00     0.022 A 
BRANCH  90  93
ATOM     93  S   UNL A   1      48.120  23.034  35.581  1.00  0.00     0.127 S 
ATOM     94  O   UNL A   1      49.543  22.735  35.740  1.00  0.00    -0.237 OA
ATOM     95  O   UNL A   1      47.534  23.811  36.675  1.00  0.00    -0.237 OA
ATOM     96  O   UNL A   1      47.294  21.926  35.121  1.00  0.00    -0.744 OA
ENDBRANCH  90  93
ENDBRANCH  63  86
ENDBRANCH  37  38
ENDBRANCH  29  32
ENDBRANCH  27  28
ENDBRANCH  26  27
ENDBRANCH   1  26
TORSDOF 18
ENDMDL
MODEL 2
REMARK VINA RESULT:     -11.2      5.192      8.665
REMARK SMILES Cc1ccc(/C=C/C(=O)NC[C@H]2CC[C@@H](C(=O)NCCCCNC(=O)c3ccc(-c4c5nc(c(-c6cccc(S(=O)(=O)[O-])c6F)c6ccc([nH]6)c(-c6cccc(S(=O)(=O)[O-])c6F)c6nc(c(-c7cccc(S(=O)(=O)[O-])c7F)c7ccc4[nH]7)C=C6)C=C5)cc3)CC2)s1
REMARK SMILES IDX 20 1 19 2 18 3 16 4 17 5 15 7 12 8 13 9 90 10 14 11 89 12
REMARK SMILES IDX 11 13 10 14 8 15 9 16 7 18 6 19 5 20 1 21 2 22 3 23 91 24
REMARK SMILES IDX 4 25 21 26 22 27 23 28 24 29 25 31 26 32 27 33 88 34 28 35
REMARK SMILES IDX 87 36 29 37 30 38 31 39 81 40 32 41 86 42 80 43 82 44 33 45
REMARK SMILES IDX 85 46 79 47 78 48 34 50 66 51 46 52 65 53 47 54 50 55 64 56
REMARK SMILES IDX 83 57 48 58 49 59 63 61 84 62 51 63 35 64 36 65 44 66 37 67
REMARK SMILES IDX 39 68 45 69 38 70 40 71 41 72 42 73 43 74 67 75 68 76 76 77
REMARK SMILES IDX 69 78 71 79 77 80 70 81 72 82 73 83 74 84 75 85 52 86 53 87
REMARK SMILES IDX 61 88 54 89 56 90 62 91 55 92 57 93 58 94 59 95 60 96
REMARK H PARENT 18 6 10 17 23 30 82 49 50 60
REMARK Flexibility Score: inf
ROOT
ATOM      1  C   UNL A   1      35.446  22.750  23.176  1.00  0.00     0.023 C 
ENDROOT
BRANCH   1   2
ATOM      2  C   UNL A   1      33.949  22.445  23.392  1.00  0.00     0.116 C 
BRANCH   2   3
ATOM      3  N   UNL A   1      33.629  21.338  24.297  1.00  0.00    -0.356 N 
ATOM      4  C   UNL A   1      32.555  21.237  25.139  1.00  0.00     0.223 C 
ATOM      5  O   UNL A   1      31.823  20.249  24.999  1.00  0.00    -0.275 OA
ATOM      6  H   UNL A   1      34.257  20.579  24.297  1.00  0.00     0.163 HD
BRANCH   4   7
ATOM      7  C   UNL A   1      32.272  22.198  26.307  1.00  0.00     0.078 C 
ATOM      8  C   UNL A   1      32.117  25.174  26.054  1.00  0.00     0.008 C 
ATOM      9  C   UNL A   1      31.065  24.244  25.445  1.00  0.00     0.006 C 
ATOM     10  C   UNL A   1      33.482  24.487  26.274  1.00  0.00     0.006 C 
ATOM     11  C   UNL A   1      30.941  22.941  26.206  1.00  0.00     0.014 C 
ATOM     12  C   UNL A   1      33.405  23.070  26.842  1.00  0.00     0.014 C 
BRANCH   8  13
ATOM     13  C   UNL A   1      32.160  26.488  25.241  1.00  0.00     0.119 C 
BRANCH  13  14
ATOM     14  N   UNL A   1      32.568  27.652  25.979  1.00  0.00    -0.352 N 
ATOM     15  C   UNL A   1      32.279  28.961  25.903  1.00  0.00     0.244 C 
ATOM     16  O   UNL A   1      33.026  29.698  26.558  1.00  0.00    -0.270 OA
ATOM     17  H   UNL A   1      33.202  27.443  26.702  1.00  0.00     0.163 HD
BRANCH  15  18
ATOM     18  C   UNL A   1      31.297  29.598  24.980  1.00  0.00     0.072 C 
ATOM     19  C   UNL A   1      30.623  29.343  23.845  1.00  0.00     0.024 C 
BRANCH  19  20
ATOM     20  C   UNL A   1      29.667  30.302  23.302  1.00  0.00     0.027 A 
ATOM     21  C   UNL A   1      27.809  32.343  20.437  1.00  0.00     0.056 C 
ATOM     22  C   UNL A   1      28.323  31.752  21.715  1.00  0.00     0.002 A 
ATOM     23  C   UNL A   1      28.281  32.213  23.010  1.00  0.00     0.016 A 
ATOM     24  S   UNL A   1      29.087  30.250  21.675  1.00  0.00    -0.141 S 
ATOM     25  C   UNL A   1      29.031  31.374  23.917  1.00  0.00     0.020 A 
ENDBRANCH  19  20
ENDBRANCH  15  18
ENDBRANCH  13  14
ENDBRANCH   8  13
ENDBRANCH   4   7
ENDBRANCH   2   3
ENDBRANCH   1   2
BRANCH   1  26
ATOM     26  C   UNL A   1      36.516  22.856  24.324  1.00  0.00     0.023 C 
BRANCH  26  27
ATOM     27  C   UNL A   1      36.892  21.910  25.509  1.00  0.00     0.116 C 
BRANCH  27  28
ATOM     28  N   UNL A   1      38.044  21.025  25.428  1.00  0.00    -0.352 N 
ATOM     29  C   UNL A   1      39.311  21.197  25.986  1.00  0.00     0.251 C 
ATOM     30  H   UNL A   1      37.912  20.197  24.911  1.00  0.00     0.163 HD
ATOM     31  O   UNL A   1      40.172  20.340  25.910  1.00  0.00    -0.269 OA
BRANCH  29  32
ATOM     32  C   UNL A   1      39.636  22.460  26.690  1.00  0.00     0.039 A 
ATOM     33  C   UNL A   1      40.691  22.494  27.597  1.00  0.00     0.014 A 
ATOM     34  C   UNL A   1      38.879  23.608  26.471  1.00  0.00     0.014 A 
ATOM     35  C   UNL A   1      41.085  23.719  28.152  1.00  0.00     0.010 A 
ATOM     36  C   UNL A   1      39.318  24.842  26.961  1.00  0.00     0.010 A 
ATOM     37  C   UNL A   1      40.465  24.923  27.760  1.00  0.00    -0.014 A 
BRANCH  37  38
ATOM     38  C   UNL A   1      41.123  26.235  28.046  1.00  0.00     0.031 A 
ATOM     39  C   UNL A   1      40.425  27.364  28.759  1.00  0.00     0.074 A 
ATOM     40  C   UNL A   1      42.368  26.441  27.561  1.00  0.00     0.049 A 
ATOM     41  N   UNL A   1      40.911  28.523  29.128  1.00  0.00    -0.248 NA
ATOM     42  C   UNL A   1      38.998  27.193  29.068  1.00  0.00     0.031 C 
ATOM     43  C   UNL A   1      43.113  25.498  26.720  1.00  0.00     0.029 A 
ATOM     44  N   UNL A   1      43.232  27.503  27.697  1.00  0.00    -0.354 N 
ATOM     45  C   UNL A   1      39.851  29.228  29.688  1.00  0.00     0.074 A 
ATOM     46  C   UNL A   1      38.683  28.379  29.572  1.00  0.00     0.031 C 
ATOM     47  C   UNL A   1      44.331  25.996  26.462  1.00  0.00     0.029 A 
ATOM     48  C   UNL A   1      44.453  27.305  27.092  1.00  0.00     0.049 A 
ATOM     49  H   UNL A   1      42.998  28.328  28.181  1.00  0.00     0.167 HD
ATOM     50  C   UNL A   1      39.853  30.450  30.275  1.00  0.00     0.034 A 
ATOM     51  C   UNL A   1      45.560  28.074  27.062  1.00  0.00     0.034 A 
ATOM     52  C   UNL A   1      41.024  31.273  30.436  1.00  0.00     0.049 A 
ATOM     53  C   UNL A   1      45.565  29.378  27.810  1.00  0.00     0.074 A 
ATOM     54  C   UNL A   1      41.150  32.470  31.120  1.00  0.00     0.029 A 
ATOM     55  N   UNL A   1      42.272  30.989  29.901  1.00  0.00    -0.354 N 
ATOM     56  N   UNL A   1      44.609  29.923  28.521  1.00  0.00    -0.248 NA
ATOM     57  C   UNL A   1      46.815  30.154  27.787  1.00  0.00     0.031 C 
ATOM     58  C   UNL A   1      42.469  32.918  30.986  1.00  0.00     0.029 A 
ATOM     59  C   UNL A   1      43.170  31.990  30.234  1.00  0.00     0.049 A 
ATOM     60  H   UNL A   1      42.488  30.193  29.365  1.00  0.00     0.167 HD
ATOM     61  C   UNL A   1      45.151  31.086  29.058  1.00  0.00     0.074 A 
ATOM     62  C   UNL A   1      46.527  31.153  28.610  1.00  0.00     0.031 C 
ATOM     63  C   UNL A   1      44.554  32.021  29.836  1.00  0.00     0.034 A 
BRANCH  50  64
ATOM     64  C   UNL A   1      38.556  30.949  30.864  1.00  0.00     0.023 A 
ATOM     65  C   UNL A   1      38.335  30.817  32.251  1.00  0.00     0.012 A 
ATOM     66  C   UNL A   1      37.590  31.601  30.072  1.00  0.00     0.148 A 
ATOM     67  C   UNL A   1      37.157  31.287  32.833  1.00  0.00     0.002 A 
ATOM     68  C   UNL A   1      36.437  32.104  30.666  1.00  0.00     0.091 A 
ATOM     69  F   UNL A   1      37.810  31.710  28.754  1.00  0.00    -0.205 F 
ATOM     70  C   UNL A   1      36.214  31.936  32.043  1.00  0.00     0.022 A 
BRANCH  68  71
ATOM     71  S   UNL A   1      35.193  33.022  29.751  1.00  0.00     0.127 S 
ATOM     72  O   UNL A   1      34.255  33.386  30.812  1.00  0.00    -0.237 OA
ATOM     73  O   UNL A   1      35.967  34.141  29.213  1.00  0.00    -0.237 OA
ATOM     74  O   UNL A   1      34.677  32.103  28.746  1.00  0.00    -0.744 OA
ENDBRANCH  68  71
ENDBRANCH  50  64
BRANCH  51  75
ATOM     75  C   UNL A   1      46.794  27.580  26.385  1.00  0.00     0.023 A 
ATOM     76  C   UNL A   1      47.710  26.797  27.114  1.00  0.00     0.012 A 
ATOM     77  C   UNL A   1      47.054  27.856  25.029  1.00  0.00     0.148 A 
ATOM     78  C   UNL A   1      48.883  26.329  26.516  1.00  0.00     0.002 A 
ATOM     79  C   UNL A   1      48.196  27.342  24.426  1.00  0.00     0.091 A 
ATOM     80  F   UNL A   1      46.175  28.609  24.354  1.00  0.00    -0.205 F 
ATOM     81  C   UNL A   1      49.121  26.593  25.171  1.00  0.00     0.022 A 
BRANCH  79  82
ATOM     82  S   UNL A   1      48.517  27.524  22.667  1.00  0.00     0.127 S 
ATOM     83  O   UNL A   1      47.355  28.292  22.229  1.00  0.00    -0.237 OA
ATOM     84  O   UNL A   1      49.782  28.259  22.662  1.00  0.00    -0.237 OA
ATOM     85  O   UNL A   1      48.615  26.165  22.148  1.00  0.00    -0.744 OA
ENDBRANCH  79  82
ENDBRANCH  51  75
BRANCH  63  86
ATOM     86  C   UNL A   1      45.386  33.193  30.286  1.00  0.00     0.023 A 
ATOM     87  C   UNL A   1      46.136  33.103  31.476  1.00  0.00     0.012 A 
ATOM     88  C   UNL A   1      45.489  34.352  29.491  1.00  0.00     0.148 A 
ATOM     89  C   UNL A   1      46.954  34.158  31.880  1.00  0.00     0.002 A 
ATOM     90  C   UNL A   1      46.343  35.379  29.875  1.00  0.00     0.091 A 
ATOM     91  F   UNL A   1      44.751  34.429  28.374  1.00  0.00    -0.205 F 
ATOM     92  C   UNL A   1      47.067  35.289  31.075  1.00  0.00     0.022 A 
BRANCH  90  93
ATOM     93  S   UNL A   1      46.626  36.828  28.851  1.00  0.00     0.127 S 
ATOM     94  O   UNL A   1      47.113  36.225  27.610  1.00  0.00    -0.237 OA
ATOM     95  O   UNL A   1      45.287  37.413  28.760  1.00  0.00    -0.237 OA
ATOM     96  O   UNL A   1      47.592  37.645  29.573  1.00  0.00    -0.744 OA
ENDBRANCH  90  93
ENDBRANCH  63  86
ENDBRANCH  37  38
ENDBRANCH  29  32
ENDBRANCH  27  28
ENDBRANCH  26  27
ENDBRANCH   1  26
TORSDOF 18
ENDMDL
MODEL 3
REMARK VINA RESULT:     -11.0      2.623      3.578
REMARK SMILES Cc1ccc(/C=C/C(=O)NC[C@H]2CC[C@@H](C(=O)NCCCCNC(=O)c3ccc(-c4c5nc(c(-c6cccc(S(=O)(=O)[O-])c6F)c6ccc([nH]6)c(-c6cccc(S(=O)(=O)[O-])c6F)c6nc(c(-c7cccc(S(=O)(=O)[O-])c7F)c7ccc4[nH]7)C=C6)C=C5)cc3)CC2)s1
REMARK SMILES IDX 20 1 19 2 18 3 16 4 17 5 15 7 12 8 13 9 90 10 14 11 89 12
REMARK SMILES IDX 11 13 10 14 8 15 9 16 7 18 6 19 5 20 1 21 2 22 3 23 91 24
REMARK SMILES IDX 4 25 21 26 22 27 23 28 24 29 25 31 26 32 27 33 88 34 28 35
REMARK SMILES IDX 87 36 29 37 30 38 31 39 81 40 32 41 86 42 80 43 82 44 33 45
REMARK SMILES IDX 85 46 79 47 78 48 34 50 66 51 46 52 65 53 47 54 50 55 64 56
REMARK SMILES IDX 83 57 48 58 49 59 63 61 84 62 51 63 35 64 36 65 44 66 37 67
REMARK SMILES IDX 39 68 45 69 38 70 40 71 41 72 42 73 43 74 67 75 68 76 76 77
REMARK SMILES IDX 69 78 71 79 77 80 70 81 72 82 73 83 74 84 75 85 52 86 53 87
REMARK SMILES IDX 61 88 54 89 56 90 62 91 55 92 57 93 58 94 59 95 60 96
REMARK H PARENT 18 6 10 17 23 30 82 49 50 60
REMARK Flexibility Score: inf
ROOT
ATOM      1  C   UNL A   1      32.839  27.929  27.039  1.00  0.00     0.023 C 
ENDROOT
BRANCH   1   2
ATOM      2  C   UNL A   1      32.197  26.561  26.730  1.00  0.00     0.116 C 
BRANCH   2   3
ATOM      3  N   UNL A   1      30.737  26.486  26.824  1.00  0.00    -0.356 N 
ATOM      4  C   UNL A   1      29.884  25.814  25.992  1.00  0.00     0.223 C 
ATOM      5  O   UNL A   1      29.137  24.975  26.512  1.00  0.00    -0.275 OA
ATOM      6  H   UNL A   1      30.322  26.975  27.572  1.00  0.00     0.163 HD
BRANCH   4   7
ATOM      7  C   UNL A   1      29.716  26.112  24.491  1.00  0.00     0.078 C 
ATOM      8  C   UNL A   1      31.805  25.596  22.416  1.00  0.00     0.008 C 
ATOM      9  C   UNL A   1      31.075  24.464  23.143  1.00  0.00     0.006 C 
ATOM     10  C   UNL A   1      31.812  26.921  23.205  1.00  0.00     0.006 C 
ATOM     11  C   UNL A   1      29.691  24.873  23.599  1.00  0.00     0.014 C 
ATOM     12  C   UNL A   1      30.485  27.277  23.876  1.00  0.00     0.014 C 
BRANCH   8  13
ATOM     13  C   UNL A   1      33.192  25.089  21.958  1.00  0.00     0.119 C 
BRANCH  13  14
ATOM     14  N   UNL A   1      34.176  24.970  22.999  1.00  0.00    -0.352 N 
ATOM     15  C   UNL A   1      34.573  23.974  23.807  1.00  0.00     0.244 C 
ATOM     16  O   UNL A   1      35.283  24.325  24.757  1.00  0.00    -0.270 OA
ATOM     17  H   UNL A   1      34.670  25.807  23.155  1.00  0.00     0.163 HD
BRANCH  15  18
ATOM     18  C   UNL A   1      34.089  22.565  23.776  1.00  0.00     0.072 C 
ATOM     19  C   UNL A   1      33.274  21.731  24.445  1.00  0.00     0.024 C 
BRANCH  19  20
ATOM     20  C   UNL A   1      33.053  20.362  23.990  1.00  0.00     0.027 A 
ATOM     21  C   UNL A   1      33.934  16.512  23.522  1.00  0.00     0.056 C 
ATOM     22  C   UNL A   1      33.341  17.887  23.521  1.00  0.00     0.002 A 
ATOM     23  C   UNL A   1      32.406  18.473  22.699  1.00  0.00     0.016 A 
ATOM     24  S   UNL A   1      33.818  18.987  24.706  1.00  0.00    -0.141 S 
ATOM     25  C   UNL A   1      32.228  19.879  22.982  1.00  0.00     0.020 A 
ENDBRANCH  19  20
ENDBRANCH  15  18
ENDBRANCH  13  14
ENDBRANCH   8  13
ENDBRANCH   4   7
ENDBRANCH   2   3
ENDBRANCH   1   2
BRANCH   1  26
ATOM     26  C   UNL A   1      32.102  29.314  26.930  1.00  0.00     0.023 C 
BRANCH  26  27
ATOM     27  C   UNL A   1      32.461  30.647  26.198  1.00  0.00     0.116 C 
BRANCH  27  28
ATOM     28  N   UNL A   1      32.283  31.935  26.852  1.00  0.00    -0.352 N 
ATOM     29  C   UNL A   1      33.203  32.655  27.615  1.00  0.00     0.251 C 
ATOM     30  H   UNL A   1      31.398  32.352  26.741  1.00  0.00     0.163 HD
ATOM     31  O   UNL A   1      32.955  33.766  28.047  1.00  0.00    -0.269 OA
BRANCH  29  32
ATOM     32  C   UNL A   1      34.524  32.059  27.925  1.00  0.00     0.039 A 
ATOM     33  C   UNL A   1      35.654  32.869  27.974  1.00  0.00     0.014 A 
ATOM     34  C   UNL A   1      34.649  30.689  28.143  1.00  0.00     0.014 A 
ATOM     35  C   UNL A   1      36.872  32.329  28.406  1.00  0.00     0.010 A 
ATOM     36  C   UNL A   1      35.843  30.165  28.649  1.00  0.00     0.010 A 
ATOM     37  C   UNL A   1      36.955  30.992  28.845  1.00  0.00    -0.014 A 
BRANCH  37  38
ATOM     38  C   UNL A   1      38.129  30.538  29.652  1.00  0.00     0.031 A 
ATOM     39  C   UNL A   1      38.389  31.009  31.060  1.00  0.00     0.074 A 
ATOM     40  C   UNL A   1      39.042  29.740  29.053  1.00  0.00     0.049 A 
ATOM     41  N   UNL A   1      39.333  30.634  31.887  1.00  0.00    -0.248 NA
ATOM     42  C   UNL A   1      37.507  32.054  31.599  1.00  0.00     0.031 C 
ATOM     43  C   UNL A   1      39.007  29.325  27.647  1.00  0.00     0.029 A 
ATOM     44  N   UNL A   1      40.176  29.133  29.539  1.00  0.00    -0.354 N 
ATOM     45  C   UNL A   1      39.177  31.409  33.031  1.00  0.00     0.074 A 
ATOM     46  C   UNL A   1      38.070  32.306  32.774  1.00  0.00     0.031 C 
ATOM     47  C   UNL A   1      40.031  28.496  27.400  1.00  0.00     0.029 A 
ATOM     48  C   UNL A   1      40.818  28.337  28.616  1.00  0.00     0.049 A 
ATOM     49  H   UNL A   1      40.501  29.258  30.460  1.00  0.00     0.167 HD
ATOM     50  C   UNL A   1      39.864  31.356  34.199  1.00  0.00     0.034 A 
ATOM     51  C   UNL A   1      41.903  27.546  28.735  1.00  0.00     0.034 A 
ATOM     52  C   UNL A   1      40.932  30.429  34.473  1.00  0.00     0.049 A 
ATOM     53  C   UNL A   1      42.583  27.430  30.070  1.00  0.00     0.074 A 
ATOM     54  C   UNL A   1      41.608  30.220  35.663  1.00  0.00     0.029 A 
ATOM     55  N   UNL A   1      41.485  29.560  33.544  1.00  0.00    -0.354 N 
ATOM     56  N   UNL A   1      42.277  28.013  31.203  1.00  0.00    -0.248 NA
ATOM     57  C   UNL A   1      43.731  26.514  30.156  1.00  0.00     0.031 C 
ATOM     58  C   UNL A   1      42.581  29.236  35.450  1.00  0.00     0.029 A 
ATOM     59  C   UNL A   1      42.497  28.819  34.132  1.00  0.00     0.049 A 
ATOM     60  H   UNL A   1      41.200  29.482  32.606  1.00  0.00     0.167 HD
ATOM     61  C   UNL A   1      43.171  27.510  32.143  1.00  0.00     0.074 A 
ATOM     62  C   UNL A   1      44.013  26.556  31.451  1.00  0.00     0.031 C 
ATOM     63  C   UNL A   1      43.292  27.827  33.454  1.00  0.00     0.034 A 
BRANCH  50  64
ATOM     64  C   UNL A   1      39.433  32.282  35.310  1.00  0.00     0.023 A 
ATOM     65  C   UNL A   1      38.550  31.803  36.300  1.00  0.00     0.012 A 
ATOM     66  C   UNL A   1      39.942  33.592  35.417  1.00  0.00     0.148 A 
ATOM     67  C   UNL A   1      38.148  32.624  37.354  1.00  0.00     0.002 A 
ATOM     68  C   UNL A   1      39.569  34.390  36.493  1.00  0.00     0.091 A 
ATOM     69  F   UNL A   1      40.772  34.036  34.462  1.00  0.00    -0.205 F 
ATOM     70  C   UNL A   1      38.663  33.912  37.455  1.00  0.00     0.022 A 
BRANCH  68  71
ATOM     71  S   UNL A   1      40.233  36.039  36.756  1.00  0.00     0.127 S 
ATOM     72  O   UNL A   1      39.519  36.456  37.962  1.00  0.00    -0.237 OA
ATOM     73  O   UNL A   1      41.658  35.772  36.954  1.00  0.00    -0.237 OA
ATOM     74  O   UNL A   1      39.919  36.793  35.551  1.00  0.00    -0.744 OA
ENDBRANCH  68  71
ENDBRANCH  50  64
BRANCH  51  75
ATOM     75  C   UNL A   1      42.352  26.717  27.578  1.00  0.00     0.023 A 
ATOM     76  C   UNL A   1      43.183  27.297  26.599  1.00  0.00     0.012 A 
ATOM     77  C   UNL A   1      41.985  25.363  27.452  1.00  0.00     0.148 A 
ATOM     78  C   UNL A   1      43.610  26.556  25.496  1.00  0.00     0.002 A 
ATOM     79  C   UNL A   1      42.459  24.616  26.379  1.00  0.00     0.091 A 
ATOM     80  F   UNL A   1      41.188  24.832  28.388  1.00  0.00    -0.205 F 
ATOM     81  C   UNL A   1      43.257  25.214  25.391  1.00  0.00     0.022 A 
BRANCH  79  82
ATOM     82  S   UNL A   1      42.160  22.850  26.234  1.00  0.00     0.127 S 
ATOM     83  O   UNL A   1      40.701  22.792  26.240  1.00  0.00    -0.237 OA
ATOM     84  O   UNL A   1      42.785  22.541  24.948  1.00  0.00    -0.237 OA
ATOM     85  O   UNL A   1      42.827  22.248  27.381  1.00  0.00    -0.744 OA
ENDBRANCH  79  82
ENDBRANCH  51  75
BRANCH  63  86
ATOM     86  C   UNL A   1      44.356  27.118  34.251  1.00  0.00     0.023 A 
ATOM     87  C   UNL A   1      44.082  25.859  34.820  1.00  0.00     0.012 A 
ATOM     88  C   UNL A   1      45.651  27.662  34.367  1.00  0.00     0.148 A 
ATOM     89  C   UNL A   1      45.072  25.164  35.515  1.00  0.00     0.002 A 
ATOM     90  C   UNL A   1      46.645  26.943  35.020  1.00  0.00     0.091 A 
ATOM     91  F   UNL A   1      45.887  28.872  33.840  1.00  0.00    -0.205 F 
ATOM     92  C   UNL A   1      46.354  25.699  35.604  1.00  0.00     0.022 A 
BRANCH  90  93
ATOM     93  S   UNL A   1      48.348  27.509  35.097  1.00  0.00     0.127 S 
ATOM     94  O   UNL A   1      48.676  27.277  36.504  1.00  0.00    -0.237 OA
ATOM     95  O   UNL A   1      49.020  26.609  34.159  1.00  0.00    -0.237 OA
ATOM     96  O   UNL A   1      48.325  28.904  34.681  1.00  0.00    -0.744 OA
ENDBRANCH  90  93
ENDBRANCH  63  86
ENDBRANCH  37  38
ENDBRANCH  29  32
ENDBRANCH  27  28
ENDBRANCH  26  27
ENDBRANCH   1  26
TORSDOF 18
ENDMDL
