MODEL 1
REMARK VINA RESULT:     -12.2      0.000      0.000
REMARK SMILES C[C@H](Nc1ncccc1C(=O)NCCCCNC(=O)c1ccc(-c2c3nc(c(-c4cccc(S(=O)(=O)[O-])c4F)c4ccc([nH]4)c(-c4cccc(S(=O)(=O)[O-])c4F)c4nc(c(-c5cccc(S(=O)(=O)[O-])c5F)c5ccc2[nH]5)C=C4)C=C3)cc1)c1ccc(Cl)cc1
REMARK SMILES IDX 14 1 13 2 12 3 10 4 11 5 9 7 4 8 5 9 6 10 8 11 7 12 3 13
REMARK SMILES IDX 2 15 1 16 83 17 84 18 89 19 85 20 88 21 86 22 87 23 15 24
REMARK SMILES IDX 16 25 17 26 18 27 19 29 20 30 21 31 82 32 22 33 81 34 23 35
REMARK SMILES IDX 24 36 25 37 75 38 26 39 80 40 74 41 76 42 27 43 79 44 73 45
REMARK SMILES IDX 72 46 28 48 60 49 40 50 59 51 41 52 44 53 58 54 77 55 42 56
REMARK SMILES IDX 43 57 57 59 78 60 45 61 29 62 30 63 38 64 31 65 33 66 39 67
REMARK SMILES IDX 32 68 34 69 35 70 36 71 37 72 61 73 62 74 70 75 63 76 65 77
REMARK SMILES IDX 71 78 64 79 66 80 67 81 68 82 69 83 46 84 47 85 55 86 48 87
REMARK SMILES IDX 50 88 56 89 49 90 51 91 52 92 53 93 54 94
REMARK H PARENT 12 6 3 14 17 28 76 47 44 58
REMARK Flexibility Score: inf
ROOT
ATOM      1  C   UNL A   1      31.786  27.836  27.072  1.00  0.00     0.023 C 
ENDROOT
BRANCH   1   2
ATOM      2  C   UNL A   1      32.252  26.490  26.526  1.00  0.00     0.116 C 
BRANCH   2   3
ATOM      3  N   UNL A   1      31.321  25.427  26.837  1.00  0.00    -0.352 N 
ATOM      4  C   UNL A   1      31.248  24.070  26.646  1.00  0.00     0.255 C 
ATOM      5  O   UNL A   1      30.308  23.554  27.253  1.00  0.00    -0.269 OA
ATOM      6  H   UNL A   1      30.528  25.768  27.311  1.00  0.00     0.163 HD
BRANCH   4   7
ATOM      7  C   UNL A   1      32.198  23.222  25.846  1.00  0.00     0.082 A 
ATOM      8  C   UNL A   1      32.110  23.160  24.440  1.00  0.00     0.139 A 
ATOM      9  N   UNL A   1      32.758  22.203  23.716  1.00  0.00    -0.239 NA
ATOM     10  C   UNL A   1      33.586  21.354  24.346  1.00  0.00     0.113 A 
ATOM     11  C   UNL A   1      33.150  22.380  26.437  1.00  0.00     0.019 A 
ATOM     12  C   UNL A   1      33.846  21.431  25.691  1.00  0.00     0.021 A 
BRANCH   8  13
ATOM     13  N   UNL A   1      31.487  24.027  23.583  1.00  0.00    -0.363 N 
ATOM     14  H   UNL A   1      30.595  23.763  23.261  1.00  0.00     0.162 HD
BRANCH  13  15
ATOM     15  C   UNL A   1      32.007  25.302  23.098  1.00  0.00     0.108 C 
ATOM     16  C   UNL A   1      32.608  25.233  21.688  1.00  0.00     0.036 C 
BRANCH  15  17
ATOM     17  C   UNL A   1      30.858  26.314  23.118  1.00  0.00    -0.026 A 
ATOM     18  C   UNL A   1      30.988  27.537  22.441  1.00  0.00     0.007 A 
ATOM     19  C   UNL A   1      29.664  26.050  23.815  1.00  0.00     0.007 A 
ATOM     20  C   UNL A   1      29.943  28.464  22.440  1.00  0.00     0.021 A 
ATOM     21  C   UNL A   1      28.620  26.977  23.812  1.00  0.00     0.021 A 
ATOM     22  C   UNL A   1      28.762  28.178  23.122  1.00  0.00     0.041 A 
ATOM     23  Cl  UNL A   1      27.472  29.317  23.118  1.00  0.00    -0.084 Cl
ENDBRANCH  15  17
ENDBRANCH  13  15
ENDBRANCH   8  13
ENDBRANCH   4   7
ENDBRANCH   2   3
ENDBRANCH   1   2
BRANCH   1  24
ATOM     24  C   UNL A   1      31.561  28.911  25.998  1.00  0.00     0.023 C 
BRANCH  24  25
ATOM     25  C   UNL A   1      32.720  29.885  25.779  1.00  0.00     0.116 C 
BRANCH  25  26
ATOM     26  N   UNL A   1      32.440  31.232  26.253  1.00  0.00    -0.352 N 
ATOM     27  C   UNL A   1      33.139  31.990  27.165  1.00  0.00     0.251 C 
ATOM     28  H   UNL A   1      31.642  31.660  25.869  1.00  0.00     0.163 HD
ATOM     29  O   UNL A   1      32.705  33.081  27.509  1.00  0.00    -0.269 OA
BRANCH  27  30
ATOM     30  C   UNL A   1      34.387  31.461  27.752  1.00  0.00     0.039 A 
ATOM     31  C   UNL A   1      35.459  32.339  27.938  1.00  0.00     0.014 A 
ATOM     32  C   UNL A   1      34.500  30.122  28.131  1.00  0.00     0.014 A 
ATOM     33  C   UNL A   1      36.622  31.886  28.565  1.00  0.00     0.010 A 
ATOM     34  C   UNL A   1      35.636  29.688  28.812  1.00  0.00     0.010 A 
ATOM     35  C   UNL A   1      36.707  30.565  29.037  1.00  0.00    -0.014 A 
BRANCH  35  36
ATOM     36  C   UNL A   1      37.898  30.106  29.796  1.00  0.00     0.031 A 
ATOM     37  C   UNL A   1      38.146  30.588  31.199  1.00  0.00     0.074 A 
ATOM     38  C   UNL A   1      38.801  29.312  29.186  1.00  0.00     0.049 A 
ATOM     39  N   UNL A   1      39.133  30.297  32.006  1.00  0.00    -0.248 NA
ATOM     40  C   UNL A   1      37.176  31.541  31.763  1.00  0.00     0.031 C 
ATOM     41  C   UNL A   1      38.726  28.859  27.794  1.00  0.00     0.029 A 
ATOM     42  N   UNL A   1      39.972  28.764  29.648  1.00  0.00    -0.354 N 
ATOM     43  C   UNL A   1      38.924  31.051  33.155  1.00  0.00     0.074 A 
ATOM     44  C   UNL A   1      37.731  31.837  32.931  1.00  0.00     0.031 C 
ATOM     45  C   UNL A   1      39.799  28.101  27.519  1.00  0.00     0.029 A 
ATOM     46  C   UNL A   1      40.648  28.027  28.703  1.00  0.00     0.049 A 
ATOM     47  H   UNL A   1      40.297  28.886  30.570  1.00  0.00     0.167 HD
ATOM     48  C   UNL A   1      39.643  31.064  34.302  1.00  0.00     0.034 A 
ATOM     49  C   UNL A   1      41.819  27.365  28.783  1.00  0.00     0.034 A 
ATOM     50  C   UNL A   1      40.798  30.241  34.540  1.00  0.00     0.049 A 
ATOM     51  C   UNL A   1      42.554  27.338  30.096  1.00  0.00     0.074 A 
ATOM     52  C   UNL A   1      41.530  30.102  35.706  1.00  0.00     0.029 A 
ATOM     53  N   UNL A   1      41.394  29.421  33.595  1.00  0.00    -0.354 N 
ATOM     54  N   UNL A   1      42.232  27.907  31.232  1.00  0.00    -0.248 NA
ATOM     55  C   UNL A   1      43.788  26.542  30.151  1.00  0.00     0.031 C 
ATOM     56  C   UNL A   1      42.580  29.212  35.460  1.00  0.00     0.029 A 
ATOM     57  C   UNL A   1      42.489  28.780  34.148  1.00  0.00     0.049 A 
ATOM     58  H   UNL A   1      41.084  29.311  32.666  1.00  0.00     0.167 HD
ATOM     59  C   UNL A   1      43.205  27.512  32.144  1.00  0.00     0.074 A 
ATOM     60  C   UNL A   1      44.109  26.631  31.434  1.00  0.00     0.031 C 
ATOM     61  C   UNL A   1      43.348  27.862  33.446  1.00  0.00     0.034 A 
BRANCH  48  62
ATOM     62  C   UNL A   1      39.167  31.950  35.423  1.00  0.00     0.023 A 
ATOM     63  C   UNL A   1      38.269  31.433  36.380  1.00  0.00     0.012 A 
ATOM     64  C   UNL A   1      39.669  33.256  35.582  1.00  0.00     0.148 A 
ATOM     65  C   UNL A   1      37.860  32.209  37.463  1.00  0.00     0.002 A 
ATOM     66  C   UNL A   1      39.290  34.009  36.687  1.00  0.00     0.091 A 
ATOM     67  F   UNL A   1      40.507  33.736  34.652  1.00  0.00    -0.205 F 
ATOM     68  C   UNL A   1      38.379  33.491  37.623  1.00  0.00     0.022 A 
BRANCH  66  69
ATOM     69  S   UNL A   1      39.960  35.641  37.030  1.00  0.00     0.127 S 
ATOM     70  O   UNL A   1      39.239  36.005  38.248  1.00  0.00    -0.237 OA
ATOM     71  O   UNL A   1      41.381  35.353  37.224  1.00  0.00    -0.237 OA
ATOM     72  O   UNL A   1      39.657  36.454  35.861  1.00  0.00    -0.744 OA
ENDBRANCH  66  69
ENDBRANCH  48  62
BRANCH  49  73
ATOM     73  C   UNL A   1      42.333  26.610  27.605  1.00  0.00     0.023 A 
ATOM     74  C   UNL A   1      43.130  27.275  26.652  1.00  0.00     0.012 A 
ATOM     75  C   UNL A   1      42.051  25.242  27.428  1.00  0.00     0.148 A 
ATOM     76  C   UNL A   1      43.604  26.600  25.525  1.00  0.00     0.002 A 
ATOM     77  C   UNL A   1      42.573  24.563  26.333  1.00  0.00     0.091 A 
ATOM     78  F   UNL A   1      41.279  24.629  28.336  1.00  0.00    -0.205 F 
ATOM     79  C   UNL A   1      43.334  25.244  25.370  1.00  0.00     0.022 A 
BRANCH  77  80
ATOM     80  S   UNL A   1      42.388  22.787  26.136  1.00  0.00     0.127 S 
ATOM     81  O   UNL A   1      43.053  22.281  27.333  1.00  0.00    -0.237 OA
ATOM     82  O   UNL A   1      40.933  22.629  26.126  1.00  0.00    -0.237 OA
ATOM     83  O   UNL A   1      43.028  22.471  24.866  1.00  0.00    -0.744 OA
ENDBRANCH  77  80
ENDBRANCH  49  73
BRANCH  61  84
ATOM     84  C   UNL A   1      44.508  27.270  34.203  1.00  0.00     0.023 A 
ATOM     85  C   UNL A   1      45.726  27.974  34.277  1.00  0.00     0.012 A 
ATOM     86  C   UNL A   1      44.372  26.049  34.891  1.00  0.00     0.148 A 
ATOM     87  C   UNL A   1      46.802  27.454  34.993  1.00  0.00     0.002 A 
ATOM     88  C   UNL A   1      45.433  25.561  35.644  1.00  0.00     0.091 A 
ATOM     89  F   UNL A   1      43.211  25.383  34.793  1.00  0.00    -0.205 F 
ATOM     90  C   UNL A   1      46.653  26.255  35.686  1.00  0.00     0.022 A 
BRANCH  88  91
ATOM     91  S   UNL A   1      45.294  24.075  36.644  1.00  0.00     0.127 S 
ATOM     92  O   UNL A   1      44.430  24.527  37.733  1.00  0.00    -0.237 OA
ATOM     93  O   UNL A   1      44.665  23.131  35.719  1.00  0.00    -0.237 OA
ATOM     94  O   UNL A   1      46.656  23.724  37.027  1.00  0.00    -0.744 OA
ENDBRANCH  88  91
ENDBRANCH  61  84
ENDBRANCH  35  36
ENDBRANCH  27  30
ENDBRANCH  25  26
ENDBRANCH  24  25
ENDBRANCH   1  24
TORSDOF 17
ENDMDL
MODEL 2
REMARK VINA RESULT:     -11.8      2.619      3.880
REMARK SMILES C[C@H](Nc1ncccc1C(=O)NCCCCNC(=O)c1ccc(-c2c3nc(c(-c4cccc(S(=O)(=O)[O-])c4F)c4ccc([nH]4)c(-c4cccc(S(=O)(=O)[O-])c4F)c4nc(c(-c5cccc(S(=O)(=O)[O-])c5F)c5ccc2[nH]5)C=C4)C=C3)cc1)c1ccc(Cl)cc1
REMARK SMILES IDX 14 1 13 2 12 3 10 4 11 5 9 7 4 8 5 9 6 10 8 11 7 12 3 13
REMARK SMILES IDX 2 15 1 16 83 17 84 18 89 19 85 20 88 21 86 22 87 23 15 24
REMARK SMILES IDX 16 25 17 26 18 27 19 29 20 30 21 31 82 32 22 33 81 34 23 35
REMARK SMILES IDX 24 36 25 37 75 38 26 39 80 40 74 41 76 42 27 43 79 44 73 45
REMARK SMILES IDX 72 46 28 48 60 49 40 50 59 51 41 52 44 53 58 54 77 55 42 56
REMARK SMILES IDX 43 57 57 59 78 60 45 61 29 62 30 63 38 64 31 65 33 66 39 67
REMARK SMILES IDX 32 68 34 69 35 70 36 71 37 72 61 73 62 74 70 75 63 76 65 77
REMARK SMILES IDX 71 78 64 79 66 80 67 81 68 82 69 83 46 84 47 85 55 86 48 87
REMARK SMILES IDX 50 88 56 89 49 90 51 91 52 92 53 93 54 94
REMARK H PARENT 12 6 3 14 17 28 76 47 44 58
REMARK Flexibility Score: inf
ROOT
ATOM      1  C   UNL A   1      31.635  27.728  26.825  1.00  0.00     0.023 C 
ENDROOT
BRANCH   1   2
ATOM      2  C   UNL A   1      31.611  26.235  26.514  1.00  0.00     0.116 C 
BRANCH   2   3
ATOM      3  N   UNL A   1      30.739  25.928  25.400  1.00  0.00    -0.352 N 
ATOM      4  C   UNL A   1      30.757  26.092  24.038  1.00  0.00     0.255 C 
ATOM      5  O   UNL A   1      29.833  25.501  23.475  1.00  0.00    -0.269 OA
ATOM      6  H   UNL A   1      29.913  25.484  25.700  1.00  0.00     0.163 HD
BRANCH   4   7
ATOM      7  C   UNL A   1      31.780  26.848  23.237  1.00  0.00     0.082 A 
ATOM      8  C   UNL A   1      32.824  26.175  22.570  1.00  0.00     0.139 A 
ATOM      9  N   UNL A   1      33.912  26.834  22.079  1.00  0.00    -0.239 NA
ATOM     10  C   UNL A   1      33.949  28.175  22.138  1.00  0.00     0.113 A 
ATOM     11  C   UNL A   1      31.822  28.249  23.181  1.00  0.00     0.019 A 
ATOM     12  C   UNL A   1      32.913  28.924  22.639  1.00  0.00     0.021 A 
BRANCH   8  13
ATOM     13  N   UNL A   1      32.907  24.852  22.228  1.00  0.00    -0.363 N 
ATOM     14  H   UNL A   1      32.968  24.648  21.266  1.00  0.00     0.162 HD
BRANCH  13  15
ATOM     15  C   UNL A   1      32.917  23.712  23.140  1.00  0.00     0.108 C 
ATOM     16  C   UNL A   1      32.675  22.363  22.452  1.00  0.00     0.036 C 
BRANCH  15  17
ATOM     17  C   UNL A   1      34.274  23.692  23.849  1.00  0.00    -0.026 A 
ATOM     18  C   UNL A   1      34.399  24.233  25.139  1.00  0.00     0.007 A 
ATOM     19  C   UNL A   1      35.414  23.149  23.231  1.00  0.00     0.007 A 
ATOM     20  C   UNL A   1      35.628  24.210  25.803  1.00  0.00     0.021 A 
ATOM     21  C   UNL A   1      36.642  23.126  23.896  1.00  0.00     0.021 A 
ATOM     22  C   UNL A   1      36.742  23.653  25.180  1.00  0.00     0.041 A 
ATOM     23  Cl  UNL A   1      38.255  23.621  26.000  1.00  0.00    -0.084 Cl
ENDBRANCH  15  17
ENDBRANCH  13  15
ENDBRANCH   8  13
ENDBRANCH   4   7
ENDBRANCH   2   3
ENDBRANCH   1   2
BRANCH   1  24
ATOM     24  C   UNL A   1      32.995  28.250  27.314  1.00  0.00     0.023 C 
BRANCH  24  25
ATOM     25  C   UNL A   1      33.733  29.184  26.352  1.00  0.00     0.116 C 
BRANCH  25  26
ATOM     26  N   UNL A   1      33.752  30.571  26.794  1.00  0.00    -0.352 N 
ATOM     27  C   UNL A   1      34.658  31.205  27.611  1.00  0.00     0.251 C 
ATOM     28  H   UNL A   1      33.016  31.132  26.461  1.00  0.00     0.163 HD
ATOM     29  O   UNL A   1      34.467  32.366  27.947  1.00  0.00    -0.269 OA
BRANCH  27  30
ATOM     30  C   UNL A   1      35.835  30.464  28.113  1.00  0.00     0.039 A 
ATOM     31  C   UNL A   1      37.000  30.467  27.341  1.00  0.00     0.014 A 
ATOM     32  C   UNL A   1      35.800  29.788  29.334  1.00  0.00     0.014 A 
ATOM     33  C   UNL A   1      38.152  29.844  27.828  1.00  0.00     0.010 A 
ATOM     34  C   UNL A   1      36.966  29.221  29.845  1.00  0.00     0.010 A 
ATOM     35  C   UNL A   1      38.153  29.245  29.099  1.00  0.00    -0.014 A 
BRANCH  35  36
ATOM     36  C   UNL A   1      39.401  28.673  29.667  1.00  0.00     0.031 A 
ATOM     37  C   UNL A   1      40.039  29.282  30.885  1.00  0.00     0.074 A 
ATOM     38  C   UNL A   1      40.002  27.646  29.031  1.00  0.00     0.049 A 
ATOM     39  N   UNL A   1      41.128  28.917  31.511  1.00  0.00    -0.248 NA
ATOM     40  C   UNL A   1      39.387  30.469  31.462  1.00  0.00     0.031 C 
ATOM     41  C   UNL A   1      39.536  27.034  27.783  1.00  0.00     0.029 A 
ATOM     42  N   UNL A   1      41.147  26.951  29.332  1.00  0.00    -0.354 N 
ATOM     43  C   UNL A   1      41.312  29.844  32.530  1.00  0.00     0.074 A 
ATOM     44  C   UNL A   1      40.237  30.807  32.422  1.00  0.00     0.031 C 
ATOM     45  C   UNL A   1      40.384  26.055  27.430  1.00  0.00     0.029 A 
ATOM     46  C   UNL A   1      41.462  25.980  28.410  1.00  0.00     0.049 A 
ATOM     47  H   UNL A   1      41.691  27.131  30.133  1.00  0.00     0.167 HD
ATOM     48  C   UNL A   1      42.269  29.874  33.486  1.00  0.00     0.034 A 
ATOM     49  C   UNL A   1      42.501  25.122  28.363  1.00  0.00     0.034 A 
ATOM     50  C   UNL A   1      43.304  28.884  33.622  1.00  0.00     0.049 A 
ATOM     51  C   UNL A   1      43.507  25.132  29.482  1.00  0.00     0.074 A 
ATOM     52  C   UNL A   1      44.256  28.766  34.620  1.00  0.00     0.029 A 
ATOM     53  N   UNL A   1      43.530  27.847  32.731  1.00  0.00    -0.354 N 
ATOM     54  N   UNL A   1      43.550  25.899  30.545  1.00  0.00    -0.248 NA
ATOM     55  C   UNL A   1      44.579  24.129  29.421  1.00  0.00     0.031 C 
ATOM     56  C   UNL A   1      45.068  27.667  34.322  1.00  0.00     0.029 A 
ATOM     57  C   UNL A   1      44.608  27.089  33.151  1.00  0.00     0.049 A 
ATOM     58  H   UNL A   1      43.000  27.675  31.919  1.00  0.00     0.167 HD
ATOM     59  C   UNL A   1      44.633  25.451  31.293  1.00  0.00     0.074 A 
ATOM     60  C   UNL A   1      45.198  24.327  30.576  1.00  0.00     0.031 C 
ATOM     61  C   UNL A   1      45.127  25.938  32.458  1.00  0.00     0.034 A 
BRANCH  48  62
ATOM     62  C   UNL A   1      42.211  30.976  34.511  1.00  0.00     0.023 A 
ATOM     63  C   UNL A   1      41.541  30.751  35.731  1.00  0.00     0.012 A 
ATOM     64  C   UNL A   1      42.886  32.195  34.308  1.00  0.00     0.148 A 
ATOM     65  C   UNL A   1      41.524  31.730  36.724  1.00  0.00     0.002 A 
ATOM     66  C   UNL A   1      42.901  33.150  35.318  1.00  0.00     0.091 A 
ATOM     67  F   UNL A   1      43.502  32.396  33.134  1.00  0.00    -0.205 F 
ATOM     68  C   UNL A   1      42.212  32.923  36.522  1.00  0.00     0.022 A 
BRANCH  66  69
ATOM     69  S   UNL A   1      43.823  34.686  35.192  1.00  0.00     0.127 S 
ATOM     70  O   UNL A   1      43.686  35.224  36.544  1.00  0.00    -0.237 OA
ATOM     71  O   UNL A   1      45.166  34.211  34.858  1.00  0.00    -0.237 OA
ATOM     72  O   UNL A   1      43.173  35.462  34.145  1.00  0.00    -0.744 OA
ENDBRANCH  66  69
ENDBRANCH  48  62
BRANCH  49  73
ATOM     73  C   UNL A   1      42.603  24.133  27.253  1.00  0.00     0.023 A 
ATOM     74  C   UNL A   1      43.325  24.469  26.090  1.00  0.00     0.012 A 
ATOM     75  C   UNL A   1      42.005  22.862  27.344  1.00  0.00     0.148 A 
ATOM     76  C   UNL A   1      43.416  23.572  25.024  1.00  0.00     0.002 A 
ATOM     77  C   UNL A   1      42.148  21.952  26.302  1.00  0.00     0.091 A 
ATOM     78  F   UNL A   1      41.310  22.563  28.451  1.00  0.00    -0.205 F 
ATOM     79  C   UNL A   1      42.836  22.312  25.133  1.00  0.00     0.022 A 
BRANCH  77  80
ATOM     80  S   UNL A   1      41.551  20.262  26.423  1.00  0.00     0.127 S 
ATOM     81  O   UNL A   1      40.124  20.429  26.161  1.00  0.00    -0.237 OA
ATOM     82  O   UNL A   1      42.300  19.594  25.357  1.00  0.00    -0.237 OA
ATOM     83  O   UNL A   1      41.908  19.823  27.765  1.00  0.00    -0.744 OA
ENDBRANCH  77  80
ENDBRANCH  49  73
BRANCH  61  84
ATOM     84  C   UNL A   1      46.323  25.242  33.053  1.00  0.00     0.023 A 
ATOM     85  C   UNL A   1      47.618  25.733  32.792  1.00  0.00     0.012 A 
ATOM     86  C   UNL A   1      46.161  24.142  33.917  1.00  0.00     0.148 A 
ATOM     87  C   UNL A   1      48.735  25.118  33.353  1.00  0.00     0.002 A 
ATOM     88  C   UNL A   1      47.276  23.565  34.512  1.00  0.00     0.091 A 
ATOM     89  F   UNL A   1      44.923  23.677  34.138  1.00  0.00    -0.205 F 
ATOM     90  C   UNL A   1      48.564  24.042  34.222  1.00  0.00     0.022 A 
BRANCH  88  91
ATOM     91  S   UNL A   1      47.139  22.239  35.717  1.00  0.00     0.127 S 
ATOM     92  O   UNL A   1      48.536  22.031  36.092  1.00  0.00    -0.237 OA
ATOM     93  O   UNL A   1      46.312  22.847  36.761  1.00  0.00    -0.237 OA
ATOM     94  O   UNL A   1      46.504  21.129  35.017  1.00  0.00    -0.744 OA
ENDBRANCH  88  91
ENDBRANCH  61  84
ENDBRANCH  35  36
ENDBRANCH  27  30
ENDBRANCH  25  26
ENDBRANCH  24  25
ENDBRANCH   1  24
TORSDOF 17
ENDMDL
MODEL 3
REMARK VINA RESULT:     -11.7      2.548      8.103
REMARK SMILES C[C@H](Nc1ncccc1C(=O)NCCCCNC(=O)c1ccc(-c2c3nc(c(-c4cccc(S(=O)(=O)[O-])c4F)c4ccc([nH]4)c(-c4cccc(S(=O)(=O)[O-])c4F)c4nc(c(-c5cccc(S(=O)(=O)[O-])c5F)c5ccc2[nH]5)C=C4)C=C3)cc1)c1ccc(Cl)cc1
REMARK SMILES IDX 14 1 13 2 12 3 10 4 11 5 9 7 4 8 5 9 6 10 8 11 7 12 3 13
REMARK SMILES IDX 2 15 1 16 83 17 84 18 89 19 85 20 88 21 86 22 87 23 15 24
REMARK SMILES IDX 16 25 17 26 18 27 19 29 20 30 21 31 82 32 22 33 81 34 23 35
REMARK SMILES IDX 24 36 25 37 75 38 26 39 80 40 74 41 76 42 27 43 79 44 73 45
REMARK SMILES IDX 72 46 28 48 60 49 40 50 59 51 41 52 44 53 58 54 77 55 42 56
REMARK SMILES IDX 43 57 57 59 78 60 45 61 29 62 30 63 38 64 31 65 33 66 39 67
REMARK SMILES IDX 32 68 34 69 35 70 36 71 37 72 61 73 62 74 70 75 63 76 65 77
REMARK SMILES IDX 71 78 64 79 66 80 67 81 68 82 69 83 46 84 47 85 55 86 48 87
REMARK SMILES IDX 50 88 56 89 49 90 51 91 52 92 53 93 54 94
REMARK H PARENT 12 6 3 14 17 28 76 47 44 58
REMARK Flexibility Score: inf
ROOT
ATOM      1  C   UNL A   1      34.567  30.967  28.004  1.00  0.00     0.023 C 
ENDROOT
BRANCH   1   2
ATOM      2  C   UNL A   1      34.433  29.564  27.418  1.00  0.00     0.116 C 
BRANCH   2   3
ATOM      3  N   UNL A   1      33.120  29.002  27.654  1.00  0.00    -0.352 N 
ATOM      4  C   UNL A   1      32.369  27.966  27.157  1.00  0.00     0.255 C 
ATOM      5  O   UNL A   1      31.342  27.769  27.808  1.00  0.00    -0.269 OA
ATOM      6  H   UNL A   1      32.637  29.494  28.356  1.00  0.00     0.163 HD
BRANCH   4   7
ATOM      7  C   UNL A   1      32.714  27.086  25.988  1.00  0.00     0.082 A 
ATOM      8  C   UNL A   1      31.756  26.780  25.000  1.00  0.00     0.139 A 
ATOM      9  N   UNL A   1      31.944  25.777  24.095  1.00  0.00    -0.239 NA
ATOM     10  C   UNL A   1      33.119  25.126  24.074  1.00  0.00     0.113 A 
ATOM     11  C   UNL A   1      33.955  26.447  25.855  1.00  0.00     0.019 A 
ATOM     12  C   UNL A   1      34.164  25.453  24.901  1.00  0.00     0.021 A 
BRANCH   8  13
ATOM     13  N   UNL A   1      30.585  27.428  24.715  1.00  0.00    -0.363 N 
ATOM     14  H   UNL A   1      30.348  28.188  25.296  1.00  0.00     0.162 HD
BRANCH  13  15
ATOM     15  C   UNL A   1      29.649  27.112  23.639  1.00  0.00     0.108 C 
ATOM     16  C   UNL A   1      28.402  26.349  24.103  1.00  0.00     0.036 C 
BRANCH  15  17
ATOM     17  C   UNL A   1      29.231  28.430  22.980  1.00  0.00    -0.026 A 
ATOM     18  C   UNL A   1      30.163  29.165  22.231  1.00  0.00     0.007 A 
ATOM     19  C   UNL A   1      27.925  28.933  23.117  1.00  0.00     0.007 A 
ATOM     20  C   UNL A   1      29.792  30.363  21.614  1.00  0.00     0.021 A 
ATOM     21  C   UNL A   1      27.555  30.129  22.499  1.00  0.00     0.021 A 
ATOM     22  C   UNL A   1      28.489  30.837  21.748  1.00  0.00     0.041 A 
ATOM     23  Cl  UNL A   1      28.030  32.310  20.984  1.00  0.00    -0.084 Cl
ENDBRANCH  15  17
ENDBRANCH  13  15
ENDBRANCH   8  13
ENDBRANCH   4   7
ENDBRANCH   2   3
ENDBRANCH   1   2
BRANCH   1  24
ATOM     24  C   UNL A   1      33.286  31.811  27.924  1.00  0.00     0.023 C 
BRANCH  24  25
ATOM     25  C   UNL A   1      33.360  33.048  27.026  1.00  0.00     0.116 C 
BRANCH  25  26
ATOM     26  N   UNL A   1      32.805  34.244  27.642  1.00  0.00    -0.352 N 
ATOM     27  C   UNL A   1      33.187  34.873  28.805  1.00  0.00     0.251 C 
ATOM     28  H   UNL A   1      32.054  34.660  27.162  1.00  0.00     0.163 HD
ATOM     29  O   UNL A   1      32.545  35.830  29.218  1.00  0.00    -0.269 OA
BRANCH  27  30
ATOM     30  C   UNL A   1      34.345  34.363  29.568  1.00  0.00     0.039 A 
ATOM     31  C   UNL A   1      34.106  33.703  30.776  1.00  0.00     0.014 A 
ATOM     32  C   UNL A   1      35.650  34.517  29.095  1.00  0.00     0.014 A 
ATOM     33  C   UNL A   1      35.175  33.140  31.478  1.00  0.00     0.010 A 
ATOM     34  C   UNL A   1      36.706  33.902  29.764  1.00  0.00     0.010 A 
ATOM     35  C   UNL A   1      36.479  33.206  30.960  1.00  0.00    -0.014 A 
BRANCH  35  36
ATOM     36  C   UNL A   1      37.604  32.520  31.647  1.00  0.00     0.031 A 
ATOM     37  C   UNL A   1      38.328  31.381  30.983  1.00  0.00     0.074 A 
ATOM     38  C   UNL A   1      37.920  32.878  32.908  1.00  0.00     0.049 A 
ATOM     39  N   UNL A   1      39.325  30.666  31.436  1.00  0.00    -0.248 NA
ATOM     40  C   UNL A   1      37.856  30.972  29.650  1.00  0.00     0.031 C 
ATOM     41  C   UNL A   1      37.225  33.899  33.698  1.00  0.00     0.029 A 
ATOM     42  N   UNL A   1      38.890  32.407  33.758  1.00  0.00    -0.354 N 
ATOM     43  C   UNL A   1      39.579  29.705  30.465  1.00  0.00     0.074 A 
ATOM     44  C   UNL A   1      38.612  29.908  29.409  1.00  0.00     0.031 C 
ATOM     45  C   UNL A   1      37.795  33.980  34.911  1.00  0.00     0.029 A 
ATOM     46  C   UNL A   1      38.878  33.007  34.996  1.00  0.00     0.049 A 
ATOM     47  H   UNL A   1      39.534  31.707  33.505  1.00  0.00     0.167 HD
ATOM     48  C   UNL A   1      40.547  28.760  30.440  1.00  0.00     0.034 A 
ATOM     49  C   UNL A   1      39.656  32.799  36.077  1.00  0.00     0.034 A 
ATOM     50  C   UNL A   1      41.541  28.596  31.468  1.00  0.00     0.049 A 
ATOM     51  C   UNL A   1      40.772  31.793  35.990  1.00  0.00     0.074 A 
ATOM     52  C   UNL A   1      42.628  27.740  31.485  1.00  0.00     0.029 A 
ATOM     53  N   UNL A   1      41.565  29.297  32.664  1.00  0.00    -0.354 N 
ATOM     54  N   UNL A   1      41.114  31.028  34.983  1.00  0.00    -0.248 NA
ATOM     55  C   UNL A   1      41.637  31.656  37.170  1.00  0.00     0.031 C 
ATOM     56  C   UNL A   1      43.300  27.911  32.700  1.00  0.00     0.029 A 
ATOM     57  C   UNL A   1      42.644  28.888  33.429  1.00  0.00     0.049 A 
ATOM     58  H   UNL A   1      40.912  29.984  32.929  1.00  0.00     0.167 HD
ATOM     59  C   UNL A   1      42.252  30.343  35.396  1.00  0.00     0.074 A 
ATOM     60  C   UNL A   1      42.556  30.807  36.733  1.00  0.00     0.031 C 
ATOM     61  C   UNL A   1      42.969  29.399  34.736  1.00  0.00     0.034 A 
BRANCH  48  62
ATOM     62  C   UNL A   1      40.631  27.864  29.232  1.00  0.00     0.023 A 
ATOM     63  C   UNL A   1      39.737  26.780  29.112  1.00  0.00     0.012 A 
ATOM     64  C   UNL A   1      41.526  28.142  28.182  1.00  0.00     0.148 A 
ATOM     65  C   UNL A   1      39.749  25.972  27.976  1.00  0.00     0.002 A 
ATOM     66  C   UNL A   1      41.504  27.359  27.034  1.00  0.00     0.091 A 
ATOM     67  F   UNL A   1      42.379  29.166  28.323  1.00  0.00    -0.205 F 
ATOM     68  C   UNL A   1      40.623  26.267  26.933  1.00  0.00     0.022 A 
BRANCH  66  69
ATOM     69  S   UNL A   1      42.532  27.701  25.601  1.00  0.00     0.127 S 
ATOM     70  O   UNL A   1      42.295  26.516  24.778  1.00  0.00    -0.237 OA
ATOM     71  O   UNL A   1      41.935  28.932  25.083  1.00  0.00    -0.237 OA
ATOM     72  O   UNL A   1      43.890  27.847  26.105  1.00  0.00    -0.744 OA
ENDBRANCH  66  69
ENDBRANCH  48  62
BRANCH  49  73
ATOM     73  C   UNL A   1      39.454  33.610  37.311  1.00  0.00     0.023 A 
ATOM     74  C   UNL A   1      40.039  34.889  37.402  1.00  0.00     0.012 A 
ATOM     75  C   UNL A   1      38.678  33.134  38.385  1.00  0.00     0.148 A 
ATOM     76  C   UNL A   1      39.889  35.660  38.556  1.00  0.00     0.002 A 
ATOM     77  C   UNL A   1      38.484  33.931  39.507  1.00  0.00     0.091 A 
ATOM     78  F   UNL A   1      38.139  31.910  38.288  1.00  0.00    -0.205 F 
ATOM     79  C   UNL A   1      39.105  35.187  39.603  1.00  0.00     0.022 A 
BRANCH  77  80
ATOM     80  S   UNL A   1      37.376  33.452  40.837  1.00  0.00     0.127 S 
ATOM     81  O   UNL A   1      38.160  32.432  41.528  1.00  0.00    -0.237 OA
ATOM     82  O   UNL A   1      37.216  34.708  41.572  1.00  0.00    -0.237 OA
ATOM     83  O   UNL A   1      36.161  32.990  40.179  1.00  0.00    -0.744 OA
ENDBRANCH  77  80
ENDBRANCH  49  73
BRANCH  61  84
ATOM     84  C   UNL A   1      44.172  28.824  35.434  1.00  0.00     0.023 A 
ATOM     85  C   UNL A   1      45.451  29.356  35.176  1.00  0.00     0.012 A 
ATOM     86  C   UNL A   1      44.030  27.799  36.389  1.00  0.00     0.148 A 
ATOM     87  C   UNL A   1      46.573  28.854  35.831  1.00  0.00     0.002 A 
ATOM     88  C   UNL A   1      45.147  27.337  37.075  1.00  0.00     0.091 A 
ATOM     89  F   UNL A   1      42.808  27.291  36.607  1.00  0.00    -0.205 F 
ATOM     90  C   UNL A   1      46.421  27.853  36.788  1.00  0.00     0.022 A 
BRANCH  88  91
ATOM     91  S   UNL A   1      45.027  26.120  38.391  1.00  0.00     0.127 S 
ATOM     92  O   UNL A   1      44.538  24.947  37.669  1.00  0.00    -0.237 OA
ATOM     93  O   UNL A   1      46.412  26.018  38.853  1.00  0.00    -0.237 OA
ATOM     94  O   UNL A   1      44.106  26.684  39.371  1.00  0.00    -0.744 OA
ENDBRANCH  88  91
ENDBRANCH  61  84
ENDBRANCH  35  36
ENDBRANCH  27  30
ENDBRANCH  25  26
ENDBRANCH  24  25
ENDBRANCH   1  24
TORSDOF 17
ENDMDL
