MODEL 1
REMARK VINA RESULT:     -13.9      0.000      0.000
REMARK SMILES CC1(C)[C@H](O)CC[C@@]2(C)[C@@H]1CC[C@@]1(C)Oc3oc(C(=O)NCCCCNC(=O)c4ccc(-c5c6nc(c(-c7cccc(S(=O)(=O)[O-])c7F)c7ccc([nH]7)c(-c7cccc(S(=O)(=O)[O-])c7F)c7nc(c(-c8cccc(S(=O)(=O)[O-])c8F)c8ccc5[nH]8)C=C7)C=C6)cc4)cc(=O)c3C[C@@H]21
REMARK SMILES IDX 24 1 23 2 22 3 21 4 19 5 20 6 18 8 1 9 2 10 4 11 10 12 3 13
REMARK SMILES IDX 6 14 8 15 11 16 7 17 97 18 9 19 12 20 13 21 96 22 15 23
REMARK SMILES IDX 14 24 95 25 16 26 93 27 17 28 92 29 94 30 5 31 25 33 26 34
REMARK SMILES IDX 27 35 28 37 29 38 30 39 91 40 31 41 90 42 32 43 33 44 34 45
REMARK SMILES IDX 84 46 35 47 89 48 83 49 85 50 36 51 88 52 82 53 81 54 37 56
REMARK SMILES IDX 69 57 49 58 68 59 50 60 53 61 67 62 86 63 51 64 52 65 66 67
REMARK SMILES IDX 87 68 54 69 38 70 39 71 47 72 40 73 42 74 48 75 41 76 43 77
REMARK SMILES IDX 44 78 45 79 46 80 70 81 71 82 79 83 72 84 74 85 80 86 73 87
REMARK SMILES IDX 75 88 76 89 77 90 78 91 55 92 56 93 64 94 57 95 59 96 65 97
REMARK SMILES IDX 58 98 60 99 61 100 62 101 63 102
REMARK H PARENT 21 7 5 32 26 36 85 55 53 66
REMARK Flexibility Score: inf
ROOT
ATOM      1  C   UNL A   1      38.229  20.404  24.934  1.00  0.00     0.023 C 
ENDROOT
BRANCH   1   2
ATOM      2  C   UNL A   1      37.411  19.112  24.881  1.00  0.00     0.023 C 
BRANCH   2   3
ATOM      3  C   UNL A   1      35.892  19.278  24.948  1.00  0.00     0.116 C 
BRANCH   3   4
ATOM      4  N   UNL A   1      35.128  18.057  24.653  1.00  0.00    -0.349 N 
ATOM      5  C   UNL A   1      33.790  17.870  24.340  1.00  0.00     0.287 C 
ATOM      6  O   UNL A   1      33.348  16.738  24.182  1.00  0.00    -0.266 OA
ATOM      7  H   UNL A   1      35.659  17.229  24.682  1.00  0.00     0.163 HD
BRANCH   5   8
ATOM      8  C   UNL A   1      32.902  19.061  24.189  1.00  0.00     0.199 A 
ATOM      9  C   UNL A   1      33.480  28.789  23.945  1.00  0.00     0.014 C 
ATOM     10  C   UNL A   1      32.497  27.714  23.396  1.00  0.00    -0.006 C 
ATOM     11  C   UNL A   1      33.348  26.989  22.211  1.00  0.00     0.120 C 
ATOM     12  C   UNL A   1      31.899  26.580  24.761  1.00  0.00     0.004 C 
ATOM     13  C   UNL A   1      31.363  28.545  22.705  1.00  0.00     0.014 C 
ATOM     14  C   UNL A   1      32.559  25.873  21.599  1.00  0.00     0.033 C 
ATOM     15  C   UNL A   1      32.436  25.297  24.113  1.00  0.00    -0.022 C 
ATOM     16  C   UNL A   1      30.500  25.893  25.382  1.00  0.00     0.009 C 
ATOM     17  C   UNL A   1      31.697  25.396  22.700  1.00  0.00     0.010 C 
ATOM     18  C   UNL A   1      32.350  23.806  24.580  1.00  0.00     0.044 C 
ATOM     19  C   UNL A   1      33.944  25.518  24.562  1.00  0.00     0.012 C 
ATOM     20  C   UNL A   1      30.333  24.329  25.753  1.00  0.00     0.049 C 
ATOM     21  C   UNL A   1      31.641  23.506  25.881  1.00  0.00     0.113 C 
ATOM     22  C   UNL A   1      31.780  22.923  23.464  1.00  0.00     0.055 C 
ATOM     23  O   UNL A   1      31.575  22.023  26.077  1.00  0.00    -0.458 OA
ATOM     24  C   UNL A   1      32.336  23.983  27.170  1.00  0.00     0.057 C 
ATOM     25  C   UNL A   1      31.903  21.524  23.780  1.00  0.00     0.081 A 
ATOM     26  C   UNL A   1      31.967  21.128  25.043  1.00  0.00     0.292 A 
ATOM     27  C   UNL A   1      32.060  20.629  22.630  1.00  0.00     0.192 A 
ATOM     28  O   UNL A   1      32.490  19.839  25.305  1.00  0.00    -0.420 OA
ATOM     29  C   UNL A   1      32.514  19.291  22.931  1.00  0.00     0.105 A 
ATOM     30  O   UNL A   1      31.908  20.995  21.474  1.00  0.00    -0.289 OA
BRANCH  11  31
ATOM     31  O   UNL A   1      33.795  27.835  21.159  1.00  0.00    -0.393 OA
ATOM     32  H   UNL A   1      33.268  28.649  21.153  1.00  0.00     0.210 HD
ENDBRANCH  11  31
ENDBRANCH   5   8
ENDBRANCH   3   4
ENDBRANCH   2   3
ENDBRANCH   1   2
BRANCH   1  33
ATOM     33  C   UNL A   1      39.266  20.486  26.053  1.00  0.00     0.116 C 
BRANCH  33  34
ATOM     34  N   UNL A   1      40.253  19.414  25.997  1.00  0.00    -0.352 N 
ATOM     35  C   UNL A   1      41.627  19.491  26.056  1.00  0.00     0.251 C 
ATOM     36  H   UNL A   1      39.884  18.506  25.905  1.00  0.00     0.163 HD
ATOM     37  O   UNL A   1      42.309  18.491  25.855  1.00  0.00    -0.269 OA
BRANCH  35  38
ATOM     38  C   UNL A   1      42.280  20.788  26.335  1.00  0.00     0.039 A 
ATOM     39  C   UNL A   1      42.632  21.616  25.265  1.00  0.00     0.014 A 
ATOM     40  C   UNL A   1      42.531  21.190  27.650  1.00  0.00     0.014 A 
ATOM     41  C   UNL A   1      43.168  22.882  25.518  1.00  0.00     0.010 A 
ATOM     42  C   UNL A   1      43.012  22.473  27.902  1.00  0.00     0.010 A 
ATOM     43  C   UNL A   1      43.334  23.330  26.838  1.00  0.00    -0.014 A 
BRANCH  43  44
ATOM     44  C   UNL A   1      43.861  24.687  27.129  1.00  0.00     0.031 A 
ATOM     45  C   UNL A   1      42.941  25.748  27.665  1.00  0.00     0.074 A 
ATOM     46  C   UNL A   1      45.145  24.985  26.851  1.00  0.00     0.049 A 
ATOM     47  N   UNL A   1      43.202  26.999  27.940  1.00  0.00    -0.248 NA
ATOM     48  C   UNL A   1      41.542  25.358  27.912  1.00  0.00     0.031 C 
ATOM     49  C   UNL A   1      46.124  24.060  26.278  1.00  0.00     0.029 A 
ATOM     50  N   UNL A   1      45.842  26.159  26.994  1.00  0.00    -0.354 N 
ATOM     51  C   UNL A   1      42.002  27.550  28.369  1.00  0.00     0.074 A 
ATOM     52  C   UNL A   1      41.003  26.508  28.293  1.00  0.00     0.031 C 
ATOM     53  C   UNL A   1      47.294  24.699  26.121  1.00  0.00     0.029 A 
ATOM     54  C   UNL A   1      47.146  26.085  26.563  1.00  0.00     0.049 A 
ATOM     55  H   UNL A   1      45.445  26.978  27.370  1.00  0.00     0.167 HD
ATOM     56  C   UNL A   1      41.760  28.803  28.815  1.00  0.00     0.034 A 
ATOM     57  C   UNL A   1      48.113  27.023  26.527  1.00  0.00     0.034 A 
ATOM     58  C   UNL A   1      42.759  29.828  28.933  1.00  0.00     0.049 A 
ATOM     59  C   UNL A   1      47.822  28.405  27.043  1.00  0.00     0.074 A 
ATOM     60  C   UNL A   1      42.617  31.105  29.444  1.00  0.00     0.029 A 
ATOM     61  N   UNL A   1      44.078  29.696  28.534  1.00  0.00    -0.354 N 
ATOM     62  N   UNL A   1      46.711  28.872  27.557  1.00  0.00    -0.248 NA
ATOM     63  C   UNL A   1      48.921  29.383  26.999  1.00  0.00     0.031 C 
ATOM     64  C   UNL A   1      43.852  31.752  29.344  1.00  0.00     0.029 A 
ATOM     65  C   UNL A   1      44.762  30.872  28.783  1.00  0.00     0.049 A 
ATOM     66  H   UNL A   1      44.470  28.888  28.133  1.00  0.00     0.167 HD
ATOM     67  C   UNL A   1      46.982  30.185  27.923  1.00  0.00     0.074 A 
ATOM     68  C   UNL A   1      48.365  30.440  27.579  1.00  0.00     0.031 C 
ATOM     69  C   UNL A   1      46.152  31.098  28.482  1.00  0.00     0.034 A 
BRANCH  56  70
ATOM     70  C   UNL A   1      40.369  29.127  29.282  1.00  0.00     0.023 A 
ATOM     71  C   UNL A   1      39.414  29.556  28.340  1.00  0.00     0.012 A 
ATOM     72  C   UNL A   1      39.984  28.914  30.618  1.00  0.00     0.148 A 
ATOM     73  C   UNL A   1      38.093  29.777  28.723  1.00  0.00     0.002 A 
ATOM     74  C   UNL A   1      38.658  29.108  30.987  1.00  0.00     0.091 A 
ATOM     75  F   UNL A   1      40.917  28.521  31.497  1.00  0.00    -0.205 F 
ATOM     76  C   UNL A   1      37.714  29.543  30.041  1.00  0.00     0.022 A 
BRANCH  74  77
ATOM     77  S   UNL A   1      38.051  28.786  32.646  1.00  0.00     0.127 S 
ATOM     78  O   UNL A   1      36.675  29.274  32.555  1.00  0.00    -0.237 OA
ATOM     79  O   UNL A   1      38.178  27.333  32.741  1.00  0.00    -0.237 OA
ATOM     80  O   UNL A   1      38.913  29.539  33.546  1.00  0.00    -0.744 OA
ENDBRANCH  74  77
ENDBRANCH  56  70
BRANCH  57  81
ATOM     81  C   UNL A   1      49.473  26.653  26.048  1.00  0.00     0.023 A 
ATOM     82  C   UNL A   1      50.273  25.811  26.843  1.00  0.00     0.012 A 
ATOM     83  C   UNL A   1      49.949  27.078  24.794  1.00  0.00     0.148 A 
ATOM     84  C   UNL A   1      51.531  25.403  26.400  1.00  0.00     0.002 A 
ATOM     85  C   UNL A   1      51.188  26.638  24.341  1.00  0.00     0.091 A 
ATOM     86  F   UNL A   1      49.166  27.880  24.058  1.00  0.00    -0.205 F 
ATOM     87  C   UNL A   1      51.985  25.809  25.147  1.00  0.00     0.022 A 
BRANCH  85  88
ATOM     88  S   UNL A   1      51.821  27.027  22.706  1.00  0.00     0.127 S 
ATOM     89  O   UNL A   1      52.225  28.423  22.866  1.00  0.00    -0.237 OA
ATOM     90  O   UNL A   1      52.926  26.076  22.582  1.00  0.00    -0.237 OA
ATOM     91  O   UNL A   1      50.715  26.799  21.787  1.00  0.00    -0.744 OA
ENDBRANCH  85  88
ENDBRANCH  57  81
BRANCH  69  92
ATOM     92  C   UNL A   1      46.696  32.466  28.786  1.00  0.00     0.023 A 
ATOM     93  C   UNL A   1      47.327  32.699  30.023  1.00  0.00     0.012 A 
ATOM     94  C   UNL A   1      46.715  33.466  27.794  1.00  0.00     0.148 A 
ATOM     95  C   UNL A   1      47.968  33.912  30.270  1.00  0.00     0.002 A 
ATOM     96  C   UNL A   1      47.386  34.659  28.035  1.00  0.00     0.091 A 
ATOM     97  F   UNL A   1      46.102  33.219  26.628  1.00  0.00    -0.205 F 
ATOM     98  C   UNL A   1      48.009  34.885  29.273  1.00  0.00     0.022 A 
BRANCH  96  99
ATOM     99  S   UNL A   1      47.562  35.941  26.789  1.00  0.00     0.127 S 
ATOM    100  O   UNL A   1      48.321  36.959  27.514  1.00  0.00    -0.237 OA
ATOM    101  O   UNL A   1      48.313  35.251  25.740  1.00  0.00    -0.237 OA
ATOM    102  O   UNL A   1      46.209  36.330  26.413  1.00  0.00    -0.744 OA
ENDBRANCH  96  99
ENDBRANCH  69  92
ENDBRANCH  43  44
ENDBRANCH  35  38
ENDBRANCH  33  34
ENDBRANCH   1  33
TORSDOF 15
ENDMDL
MODEL 2
REMARK VINA RESULT:     -13.6      1.664      7.417
REMARK SMILES CC1(C)[C@H](O)CC[C@@]2(C)[C@@H]1CC[C@@]1(C)Oc3oc(C(=O)NCCCCNC(=O)c4ccc(-c5c6nc(c(-c7cccc(S(=O)(=O)[O-])c7F)c7ccc([nH]7)c(-c7cccc(S(=O)(=O)[O-])c7F)c7nc(c(-c8cccc(S(=O)(=O)[O-])c8F)c8ccc5[nH]8)C=C7)C=C6)cc4)cc(=O)c3C[C@@H]21
REMARK SMILES IDX 24 1 23 2 22 3 21 4 19 5 20 6 18 8 1 9 2 10 4 11 10 12 3 13
REMARK SMILES IDX 6 14 8 15 11 16 7 17 97 18 9 19 12 20 13 21 96 22 15 23
REMARK SMILES IDX 14 24 95 25 16 26 93 27 17 28 92 29 94 30 5 31 25 33 26 34
REMARK SMILES IDX 27 35 28 37 29 38 30 39 91 40 31 41 90 42 32 43 33 44 34 45
REMARK SMILES IDX 84 46 35 47 89 48 83 49 85 50 36 51 88 52 82 53 81 54 37 56
REMARK SMILES IDX 69 57 49 58 68 59 50 60 53 61 67 62 86 63 51 64 52 65 66 67
REMARK SMILES IDX 87 68 54 69 38 70 39 71 47 72 40 73 42 74 48 75 41 76 43 77
REMARK SMILES IDX 44 78 45 79 46 80 70 81 71 82 79 83 72 84 74 85 80 86 73 87
REMARK SMILES IDX 75 88 76 89 77 90 78 91 55 92 56 93 64 94 57 95 59 96 65 97
REMARK SMILES IDX 58 98 60 99 61 100 62 101 63 102
REMARK H PARENT 21 7 5 32 26 36 85 55 53 66
REMARK Flexibility Score: inf
ROOT
ATOM      1  C   UNL A   1      38.292  20.272  25.001  1.00  0.00     0.023 C 
ENDROOT
BRANCH   1   2
ATOM      2  C   UNL A   1      37.394  19.034  24.965  1.00  0.00     0.023 C 
BRANCH   2   3
ATOM      3  C   UNL A   1      35.907  19.292  24.714  1.00  0.00     0.116 C 
BRANCH   3   4
ATOM      4  N   UNL A   1      35.080  18.080  24.629  1.00  0.00    -0.349 N 
ATOM      5  C   UNL A   1      33.712  17.917  24.472  1.00  0.00     0.287 C 
ATOM      6  O   UNL A   1      33.221  16.794  24.481  1.00  0.00    -0.266 OA
ATOM      7  H   UNL A   1      35.585  17.238  24.696  1.00  0.00     0.163 HD
BRANCH   5   8
ATOM      8  C   UNL A   1      32.850  19.122  24.280  1.00  0.00     0.199 A 
ATOM      9  C   UNL A   1      33.585  28.841  24.096  1.00  0.00     0.014 C 
ATOM     10  C   UNL A   1      32.615  27.782  23.495  1.00  0.00    -0.006 C 
ATOM     11  C   UNL A   1      33.514  27.047  22.352  1.00  0.00     0.120 C 
ATOM     12  C   UNL A   1      31.933  26.653  24.824  1.00  0.00     0.004 C 
ATOM     13  C   UNL A   1      31.529  28.632  22.750  1.00  0.00     0.014 C 
ATOM     14  C   UNL A   1      32.740  25.945  21.697  1.00  0.00     0.033 C 
ATOM     15  C   UNL A   1      32.482  25.364  24.200  1.00  0.00    -0.022 C 
ATOM     16  C   UNL A   1      30.494  25.986  25.372  1.00  0.00     0.009 C 
ATOM     17  C   UNL A   1      31.817  25.477  22.752  1.00  0.00     0.010 C 
ATOM     18  C   UNL A   1      32.351  23.874  24.658  1.00  0.00     0.044 C 
ATOM     19  C   UNL A   1      33.969  25.561  24.725  1.00  0.00     0.012 C 
ATOM     20  C   UNL A   1      30.285  24.424  25.729  1.00  0.00     0.049 C 
ATOM     21  C   UNL A   1      31.573  23.581  25.920  1.00  0.00     0.113 C 
ATOM     22  C   UNL A   1      31.824  23.002  23.512  1.00  0.00     0.055 C 
ATOM     23  O   UNL A   1      31.475  22.099  26.108  1.00  0.00    -0.458 OA
ATOM     24  C   UNL A   1      32.209  24.044  27.245  1.00  0.00     0.057 C 
ATOM     25  C   UNL A   1      31.910  21.600  23.828  1.00  0.00     0.081 A 
ATOM     26  C   UNL A   1      31.905  21.201  25.092  1.00  0.00     0.292 A 
ATOM     27  C   UNL A   1      32.111  20.706  22.686  1.00  0.00     0.192 A 
ATOM     28  O   UNL A   1      32.395  19.903  25.376  1.00  0.00    -0.420 OA
ATOM     29  C   UNL A   1      32.530  19.361  23.004  1.00  0.00     0.105 A 
ATOM     30  O   UNL A   1      32.023  21.077  21.524  1.00  0.00    -0.289 OA
BRANCH  11  31
ATOM     31  O   UNL A   1      34.025  27.889  21.326  1.00  0.00    -0.393 OA
ATOM     32  H   UNL A   1      33.305  28.425  20.959  1.00  0.00     0.210 HD
ENDBRANCH  11  31
ENDBRANCH   5   8
ENDBRANCH   3   4
ENDBRANCH   2   3
ENDBRANCH   1   2
BRANCH   1  33
ATOM     33  C   UNL A   1      39.239  20.369  26.197  1.00  0.00     0.116 C 
BRANCH  33  34
ATOM     34  N   UNL A   1      40.401  19.496  26.078  1.00  0.00    -0.352 N 
ATOM     35  C   UNL A   1      41.739  19.815  26.127  1.00  0.00     0.251 C 
ATOM     36  H   UNL A   1      40.199  18.542  25.944  1.00  0.00     0.163 HD
ATOM     37  O   UNL A   1      42.586  18.966  25.870  1.00  0.00    -0.269 OA
BRANCH  35  38
ATOM     38  C   UNL A   1      42.154  21.194  26.464  1.00  0.00     0.039 A 
ATOM     39  C   UNL A   1      42.329  22.124  25.434  1.00  0.00     0.014 A 
ATOM     40  C   UNL A   1      42.358  21.572  27.795  1.00  0.00     0.014 A 
ATOM     41  C   UNL A   1      42.634  23.451  25.744  1.00  0.00     0.010 A 
ATOM     42  C   UNL A   1      42.606  22.907  28.105  1.00  0.00     0.010 A 
ATOM     43  C   UNL A   1      42.746  23.859  27.083  1.00  0.00    -0.014 A 
BRANCH  43  44
ATOM     44  C   UNL A   1      43.026  25.272  27.436  1.00  0.00     0.031 A 
ATOM     45  C   UNL A   1      44.422  25.813  27.311  1.00  0.00     0.074 A 
ATOM     46  C   UNL A   1      42.043  26.050  27.930  1.00  0.00     0.049 A 
ATOM     47  N   UNL A   1      44.873  27.003  27.610  1.00  0.00    -0.248 NA
ATOM     48  C   UNL A   1      45.452  24.893  26.795  1.00  0.00     0.031 C 
ATOM     49  C   UNL A   1      40.659  25.627  28.152  1.00  0.00     0.029 A 
ATOM     50  N   UNL A   1      42.064  27.355  28.356  1.00  0.00    -0.354 N 
ATOM     51  C   UNL A   1      46.234  26.970  27.342  1.00  0.00     0.074 A 
ATOM     52  C   UNL A   1      46.547  25.636  26.882  1.00  0.00     0.031 C 
ATOM     53  C   UNL A   1      39.964  26.654  28.669  1.00  0.00     0.029 A 
ATOM     54  C   UNL A   1      40.855  27.800  28.835  1.00  0.00     0.049 A 
ATOM     55  H   UNL A   1      42.870  27.920  28.323  1.00  0.00     0.167 HD
ATOM     56  C   UNL A   1      47.139  27.971  27.440  1.00  0.00     0.034 A 
ATOM     57  C   UNL A   1      40.500  28.995  29.349  1.00  0.00     0.034 A 
ATOM     58  C   UNL A   1      46.824  29.309  27.855  1.00  0.00     0.049 A 
ATOM     59  C   UNL A   1      41.521  30.096  29.435  1.00  0.00     0.074 A 
ATOM     60  C   UNL A   1      47.664  30.406  27.913  1.00  0.00     0.029 A 
ATOM     61  N   UNL A   1      45.577  29.732  28.282  1.00  0.00    -0.354 N 
ATOM     62  N   UNL A   1      42.778  30.080  29.062  1.00  0.00    -0.248 NA
ATOM     63  C   UNL A   1      41.074  31.385  29.985  1.00  0.00     0.031 C 
ATOM     64  C   UNL A   1      46.926  31.494  28.389  1.00  0.00     0.029 A 
ATOM     65  C   UNL A   1      45.625  31.074  28.611  1.00  0.00     0.049 A 
ATOM     66  H   UNL A   1      44.776  29.164  28.342  1.00  0.00     0.167 HD
ATOM     67  C   UNL A   1      43.264  31.359  29.306  1.00  0.00     0.074 A 
ATOM     68  C   UNL A   1      42.166  32.129  29.851  1.00  0.00     0.031 C 
ATOM     69  C   UNL A   1      44.513  31.843  29.106  1.00  0.00     0.034 A 
BRANCH  56  70
ATOM     70  C   UNL A   1      48.554  27.683  27.025  1.00  0.00     0.023 A 
ATOM     71  C   UNL A   1      49.466  27.211  27.989  1.00  0.00     0.012 A 
ATOM     72  C   UNL A   1      48.950  27.783  25.679  1.00  0.00     0.148 A 
ATOM     73  C   UNL A   1      50.759  26.849  27.620  1.00  0.00     0.002 A 
ATOM     74  C   UNL A   1      50.233  27.392  25.313  1.00  0.00     0.091 A 
ATOM     75  F   UNL A   1      48.066  28.250  24.786  1.00  0.00    -0.205 F 
ATOM     76  C   UNL A   1      51.138  26.929  26.283  1.00  0.00     0.022 A 
BRANCH  74  77
ATOM     77  S   UNL A   1      50.807  27.406  23.612  1.00  0.00     0.127 S 
ATOM     78  O   UNL A   1      50.905  28.841  23.347  1.00  0.00    -0.237 OA
ATOM     79  O   UNL A   1      52.092  26.716  23.718  1.00  0.00    -0.237 OA
ATOM     80  O   UNL A   1      49.795  26.704  22.837  1.00  0.00    -0.744 OA
ENDBRANCH  74  77
ENDBRANCH  56  70
BRANCH  57  81
ATOM     81  C   UNL A   1      39.086  29.228  29.754  1.00  0.00     0.023 A 
ATOM     82  C   UNL A   1      38.693  28.923  31.071  1.00  0.00     0.012 A 
ATOM     83  C   UNL A   1      38.155  29.799  28.868  1.00  0.00     0.148 A 
ATOM     84  C   UNL A   1      37.390  29.178  31.498  1.00  0.00     0.002 A 
ATOM     85  C   UNL A   1      36.868  30.084  29.310  1.00  0.00     0.091 A 
ATOM     86  F   UNL A   1      38.556  30.078  27.620  1.00  0.00    -0.205 F 
ATOM     87  C   UNL A   1      36.481  29.765  30.622  1.00  0.00     0.022 A 
BRANCH  85  88
ATOM     88  S   UNL A   1      35.651  30.925  28.291  1.00  0.00     0.127 S 
ATOM     89  O   UNL A   1      35.255  29.866  27.364  1.00  0.00    -0.237 OA
ATOM     90  O   UNL A   1      34.638  31.291  29.279  1.00  0.00    -0.237 OA
ATOM     91  O   UNL A   1      36.350  32.052  27.688  1.00  0.00    -0.744 OA
ENDBRANCH  85  88
ENDBRANCH  57  81
BRANCH  69  92
ATOM     92  C   UNL A   1      44.786  33.281  29.454  1.00  0.00     0.023 A 
ATOM     93  C   UNL A   1      45.305  33.597  30.723  1.00  0.00     0.012 A 
ATOM     94  C   UNL A   1      44.669  34.288  28.476  1.00  0.00     0.148 A 
ATOM     95  C   UNL A   1      45.704  34.900  31.017  1.00  0.00     0.002 A 
ATOM     96  C   UNL A   1      45.101  35.578  28.765  1.00  0.00     0.091 A 
ATOM     97  F   UNL A   1      44.167  33.960  27.278  1.00  0.00    -0.205 F 
ATOM     98  C   UNL A   1      45.614  35.886  30.036  1.00  0.00     0.022 A 
BRANCH  96  99
ATOM     99  S   UNL A   1      45.100  36.897  27.546  1.00  0.00     0.127 S 
ATOM    100  O   UNL A   1      43.676  37.009  27.230  1.00  0.00    -0.237 OA
ATOM    101  O   UNL A   1      45.647  38.020  28.305  1.00  0.00    -0.237 OA
ATOM    102  O   UNL A   1      45.941  36.435  26.449  1.00  0.00    -0.744 OA
ENDBRANCH  96  99
ENDBRANCH  69  92
ENDBRANCH  43  44
ENDBRANCH  35  38
ENDBRANCH  33  34
ENDBRANCH   1  33
TORSDOF 15
ENDMDL
MODEL 3
REMARK VINA RESULT:     -12.8      2.462      7.434
REMARK SMILES CC1(C)[C@H](O)CC[C@@]2(C)[C@@H]1CC[C@@]1(C)Oc3oc(C(=O)NCCCCNC(=O)c4ccc(-c5c6nc(c(-c7cccc(S(=O)(=O)[O-])c7F)c7ccc([nH]7)c(-c7cccc(S(=O)(=O)[O-])c7F)c7nc(c(-c8cccc(S(=O)(=O)[O-])c8F)c8ccc5[nH]8)C=C7)C=C6)cc4)cc(=O)c3C[C@@H]21
REMARK SMILES IDX 24 1 23 2 22 3 21 4 19 5 20 6 18 8 1 9 2 10 4 11 10 12 3 13
REMARK SMILES IDX 6 14 8 15 11 16 7 17 97 18 9 19 12 20 13 21 96 22 15 23
REMARK SMILES IDX 14 24 95 25 16 26 93 27 17 28 92 29 94 30 5 31 25 33 26 34
REMARK SMILES IDX 27 35 28 37 29 38 30 39 91 40 31 41 90 42 32 43 33 44 34 45
REMARK SMILES IDX 84 46 35 47 89 48 83 49 85 50 36 51 88 52 82 53 81 54 37 56
REMARK SMILES IDX 69 57 49 58 68 59 50 60 53 61 67 62 86 63 51 64 52 65 66 67
REMARK SMILES IDX 87 68 54 69 38 70 39 71 47 72 40 73 42 74 48 75 41 76 43 77
REMARK SMILES IDX 44 78 45 79 46 80 70 81 71 82 79 83 72 84 74 85 80 86 73 87
REMARK SMILES IDX 75 88 76 89 77 90 78 91 55 92 56 93 64 94 57 95 59 96 65 97
REMARK SMILES IDX 58 98 60 99 61 100 62 101 63 102
REMARK H PARENT 21 7 5 32 26 36 85 55 53 66
REMARK Flexibility Score: inf
ROOT
ATOM      1  C   UNL A   1      38.256  20.180  24.977  1.00  0.00     0.023 C 
ENDROOT
BRANCH   1   2
ATOM      2  C   UNL A   1      37.342  18.954  24.997  1.00  0.00     0.023 C 
BRANCH   2   3
ATOM      3  C   UNL A   1      35.856  19.221  24.750  1.00  0.00     0.116 C 
BRANCH   3   4
ATOM      4  N   UNL A   1      35.029  18.013  24.618  1.00  0.00    -0.349 N 
ATOM      5  C   UNL A   1      33.662  17.857  24.440  1.00  0.00     0.287 C 
ATOM      6  O   UNL A   1      33.171  16.735  24.407  1.00  0.00    -0.266 OA
ATOM      7  H   UNL A   1      35.533  17.169  24.662  1.00  0.00     0.163 HD
BRANCH   5   8
ATOM      8  C   UNL A   1      32.804  19.068  24.278  1.00  0.00     0.199 A 
ATOM      9  C   UNL A   1      33.616  28.778  23.981  1.00  0.00     0.014 C 
ATOM     10  C   UNL A   1      32.611  27.723  23.434  1.00  0.00    -0.006 C 
ATOM     11  C   UNL A   1      33.450  26.972  22.257  1.00  0.00     0.120 C 
ATOM     12  C   UNL A   1      31.980  26.612  24.802  1.00  0.00     0.004 C 
ATOM     13  C   UNL A   1      31.500  28.578  22.733  1.00  0.00     0.014 C 
ATOM     14  C   UNL A   1      32.637  25.872  21.647  1.00  0.00     0.033 C 
ATOM     15  C   UNL A   1      32.488  25.313  24.164  1.00  0.00    -0.022 C 
ATOM     16  C   UNL A   1      30.562  25.962  25.420  1.00  0.00     0.009 C 
ATOM     17  C   UNL A   1      31.759  25.421  22.747  1.00  0.00     0.010 C 
ATOM     18  C   UNL A   1      32.365  23.827  24.640  1.00  0.00     0.044 C 
ATOM     19  C   UNL A   1      33.999  25.500  24.619  1.00  0.00     0.012 C 
ATOM     20  C   UNL A   1      30.355  24.405  25.799  1.00  0.00     0.049 C 
ATOM     21  C   UNL A   1      31.643  23.552  25.938  1.00  0.00     0.113 C 
ATOM     22  C   UNL A   1      31.779  22.952  23.526  1.00  0.00     0.055 C 
ATOM     23  O   UNL A   1      31.540  22.072  26.142  1.00  0.00    -0.458 OA
ATOM     24  C   UNL A   1      32.343  24.019  27.228  1.00  0.00     0.057 C 
ATOM     25  C   UNL A   1      31.867  21.552  23.850  1.00  0.00     0.081 A 
ATOM     26  C   UNL A   1      31.915  21.162  25.115  1.00  0.00     0.292 A 
ATOM     27  C   UNL A   1      32.007  20.647  22.706  1.00  0.00     0.192 A 
ATOM     28  O   UNL A   1      32.406  19.862  25.387  1.00  0.00    -0.420 OA
ATOM     29  C   UNL A   1      32.428  19.300  23.016  1.00  0.00     0.105 A 
ATOM     30  O   UNL A   1      31.870  21.010  21.547  1.00  0.00    -0.289 OA
BRANCH  11  31
ATOM     31  O   UNL A   1      33.922  27.801  21.203  1.00  0.00    -0.393 OA
ATOM     32  H   UNL A   1      33.797  28.732  21.443  1.00  0.00     0.210 HD
ENDBRANCH  11  31
ENDBRANCH   5   8
ENDBRANCH   3   4
ENDBRANCH   2   3
ENDBRANCH   1   2
BRANCH   1  33
ATOM     33  C   UNL A   1      39.227  20.302  26.151  1.00  0.00     0.116 C 
BRANCH  33  34
ATOM     34  N   UNL A   1      40.383  19.423  26.031  1.00  0.00    -0.352 N 
ATOM     35  C   UNL A   1      41.724  19.734  26.084  1.00  0.00     0.251 C 
ATOM     36  H   UNL A   1      40.176  18.471  25.892  1.00  0.00     0.163 HD
ATOM     37  O   UNL A   1      42.566  18.881  25.825  1.00  0.00    -0.269 OA
BRANCH  35  38
ATOM     38  C   UNL A   1      42.146  21.109  26.429  1.00  0.00     0.039 A 
ATOM     39  C   UNL A   1      42.327  22.042  25.404  1.00  0.00     0.014 A 
ATOM     40  C   UNL A   1      42.351  21.478  27.762  1.00  0.00     0.014 A 
ATOM     41  C   UNL A   1      42.639  23.367  25.721  1.00  0.00     0.010 A 
ATOM     42  C   UNL A   1      42.606  22.810  28.079  1.00  0.00     0.010 A 
ATOM     43  C   UNL A   1      42.752  23.766  27.063  1.00  0.00    -0.014 A 
BRANCH  43  44
ATOM     44  C   UNL A   1      43.040  25.176  27.423  1.00  0.00     0.031 A 
ATOM     45  C   UNL A   1      44.436  25.715  27.283  1.00  0.00     0.074 A 
ATOM     46  C   UNL A   1      42.066  25.952  27.937  1.00  0.00     0.049 A 
ATOM     47  N   UNL A   1      44.893  26.902  27.586  1.00  0.00    -0.248 NA
ATOM     48  C   UNL A   1      45.457  24.798  26.746  1.00  0.00     0.031 C 
ATOM     49  C   UNL A   1      40.684  25.530  28.174  1.00  0.00     0.029 A 
ATOM     50  N   UNL A   1      42.096  27.254  28.374  1.00  0.00    -0.354 N 
ATOM     51  C   UNL A   1      46.251  26.869  27.299  1.00  0.00     0.074 A 
ATOM     52  C   UNL A   1      46.554  25.538  26.824  1.00  0.00     0.031 C 
ATOM     53  C   UNL A   1      39.998  26.554  28.709  1.00  0.00     0.029 A 
ATOM     54  C   UNL A   1      40.894  27.697  28.873  1.00  0.00     0.049 A 
ATOM     55  H   UNL A   1      42.902  27.817  28.334  1.00  0.00     0.167 HD
ATOM     56  C   UNL A   1      47.159  27.867  27.393  1.00  0.00     0.034 A 
ATOM     57  C   UNL A   1      40.549  28.889  29.401  1.00  0.00     0.034 A 
ATOM     58  C   UNL A   1      46.852  29.202  27.823  1.00  0.00     0.049 A 
ATOM     59  C   UNL A   1      41.573  29.987  29.482  1.00  0.00     0.074 A 
ATOM     60  C   UNL A   1      47.696  30.297  27.879  1.00  0.00     0.029 A 
ATOM     61  N   UNL A   1      45.612  29.624  28.270  1.00  0.00    -0.354 N 
ATOM     62  N   UNL A   1      42.825  29.971  29.092  1.00  0.00    -0.248 NA
ATOM     63  C   UNL A   1      41.136  31.272  30.049  1.00  0.00     0.031 C 
ATOM     64  C   UNL A   1      46.967  31.382  28.373  1.00  0.00     0.029 A 
ATOM     65  C   UNL A   1      45.667  30.964  28.610  1.00  0.00     0.049 A 
ATOM     66  H   UNL A   1      44.811  29.057  28.337  1.00  0.00     0.167 HD
ATOM     67  C   UNL A   1      43.317  31.247  29.339  1.00  0.00     0.074 A 
ATOM     68  C   UNL A   1      42.228  32.015  29.906  1.00  0.00     0.031 C 
ATOM     69  C   UNL A   1      44.564  31.730  29.126  1.00  0.00     0.034 A 
BRANCH  56  70
ATOM     70  C   UNL A   1      48.567  27.580  26.956  1.00  0.00     0.023 A 
ATOM     71  C   UNL A   1      48.913  27.759  25.602  1.00  0.00     0.012 A 
ATOM     72  C   UNL A   1      49.560  27.233  27.890  1.00  0.00     0.148 A 
ATOM     73  C   UNL A   1      50.230  27.589  25.181  1.00  0.00     0.002 A 
ATOM     74  C   UNL A   1      50.877  27.095  27.468  1.00  0.00     0.091 A 
ATOM     75  F   UNL A   1      49.200  27.055  29.169  1.00  0.00    -0.205 F 
ATOM     76  C   UNL A   1      51.212  27.268  26.114  1.00  0.00     0.022 A 
BRANCH  74  77
ATOM     77  S   UNL A   1      52.228  26.734  28.595  1.00  0.00     0.127 S 
ATOM     78  O   UNL A   1      53.149  26.002  27.726  1.00  0.00    -0.237 OA
ATOM     79  O   UNL A   1      52.679  28.074  28.969  1.00  0.00    -0.237 OA
ATOM     80  O   UNL A   1      51.653  25.953  29.680  1.00  0.00    -0.744 OA
ENDBRANCH  74  77
ENDBRANCH  56  70
BRANCH  57  81
ATOM     81  C   UNL A   1      39.141  29.120  29.827  1.00  0.00     0.023 A 
ATOM     82  C   UNL A   1      38.756  28.771  31.135  1.00  0.00     0.012 A 
ATOM     83  C   UNL A   1      38.208  29.735  28.972  1.00  0.00     0.148 A 
ATOM     84  C   UNL A   1      37.460  29.023  31.584  1.00  0.00     0.002 A 
ATOM     85  C   UNL A   1      36.929  30.017  29.437  1.00  0.00     0.091 A 
ATOM     86  F   UNL A   1      38.602  30.056  27.732  1.00  0.00    -0.205 F 
ATOM     87  C   UNL A   1      36.549  29.652  30.739  1.00  0.00     0.022 A 
BRANCH  85  88
ATOM     88  S   UNL A   1      35.713  30.908  28.460  1.00  0.00     0.127 S 
ATOM     89  O   UNL A   1      34.830  31.441  29.496  1.00  0.00    -0.237 OA
ATOM     90  O   UNL A   1      36.545  31.904  27.787  1.00  0.00    -0.237 OA
ATOM     91  O   UNL A   1      35.111  29.919  27.576  1.00  0.00    -0.744 OA
ENDBRANCH  85  88
ENDBRANCH  57  81
BRANCH  69  92
ATOM     92  C   UNL A   1      44.844  33.165  29.482  1.00  0.00     0.023 A 
ATOM     93  C   UNL A   1      44.607  34.171  28.527  1.00  0.00     0.012 A 
ATOM     94  C   UNL A   1      45.195  33.520  30.799  1.00  0.00     0.148 A 
ATOM     95  C   UNL A   1      44.717  35.516  28.879  1.00  0.00     0.002 A 
ATOM     96  C   UNL A   1      45.270  34.863  31.151  1.00  0.00     0.091 A 
ATOM     97  F   UNL A   1      45.421  32.540  31.686  1.00  0.00    -0.205 F 
ATOM     98  C   UNL A   1      45.035  35.861  30.191  1.00  0.00     0.022 A 
BRANCH  96  99
ATOM     99  S   UNL A   1      45.595  35.408  32.831  1.00  0.00     0.127 S 
ATOM    100  O   UNL A   1      46.972  34.959  33.029  1.00  0.00    -0.237 OA
ATOM    101  O   UNL A   1      45.435  36.858  32.722  1.00  0.00    -0.237 OA
ATOM    102  O   UNL A   1      44.604  34.747  33.670  1.00  0.00    -0.744 OA
ENDBRANCH  96  99
ENDBRANCH  69  92
ENDBRANCH  43  44
ENDBRANCH  35  38
ENDBRANCH  33  34
ENDBRANCH   1  33
TORSDOF 15
ENDMDL
