MODEL 1
REMARK VINA RESULT:     -13.6      0.000      0.000
REMARK SMILES CN1C(=O)[C@@H]2CC=CC[C@]2(C(=O)NCCCCNC(=O)c2ccc(-c3c4nc(c(-c5cccc(S(=O)(=O)[O-])c5F)c5ccc([nH]5)c(-c5cccc(S(=O)(=O)[O-])c5F)c5nc(c(-c6cccc(S(=O)(=O)[O-])c6F)c6ccc3[nH]6)C=C5)C=C4)cc2)[C@H]1c1ccccc1
REMARK SMILES IDX 16 1 15 2 14 3 13 4 11 5 12 6 10 8 1 9 2 10 3 11 84 12 4 13
REMARK SMILES IDX 5 14 6 15 9 16 7 17 8 18 85 19 86 20 90 21 87 22 89 23 88 24
REMARK SMILES IDX 17 25 18 26 19 27 20 29 21 30 22 31 83 32 23 33 82 34 24 35
REMARK SMILES IDX 25 36 26 37 76 38 27 39 81 40 75 41 77 42 28 43 80 44 74 45
REMARK SMILES IDX 73 46 29 48 61 49 41 50 60 51 42 52 45 53 59 54 78 55 43 56
REMARK SMILES IDX 44 57 58 59 79 60 46 61 30 62 31 63 39 64 32 65 34 66 40 67
REMARK SMILES IDX 33 68 35 69 36 70 37 71 38 72 62 73 63 74 71 75 64 76 66 77
REMARK SMILES IDX 72 78 65 79 67 80 68 81 69 82 70 83 47 84 48 85 56 86 49 87
REMARK SMILES IDX 51 88 57 89 50 90 52 91 53 92 54 93 55 94
REMARK H PARENT 13 7 18 28 77 47 45 58
REMARK Flexibility Score: inf
ROOT
ATOM      1  C   UNL A   1      31.849  29.890  25.377  1.00  0.00     0.023 C 
ENDROOT
BRANCH   1   2
ATOM      2  C   UNL A   1      32.868  29.317  24.399  1.00  0.00     0.023 C 
BRANCH   2   3
ATOM      3  C   UNL A   1      33.492  27.976  24.767  1.00  0.00     0.116 C 
BRANCH   3   4
ATOM      4  N   UNL A   1      33.944  27.044  23.735  1.00  0.00    -0.356 N 
ATOM      5  C   UNL A   1      33.286  25.951  23.170  1.00  0.00     0.229 C 
ATOM      6  O   UNL A   1      33.550  25.657  22.003  1.00  0.00    -0.274 OA
ATOM      7  H   UNL A   1      34.847  27.214  23.386  1.00  0.00     0.163 HD
BRANCH   5   8
ATOM      8  C   UNL A   1      32.369  25.041  24.029  1.00  0.00     0.089 C 
ATOM      9  C   UNL A   1      32.585  21.726  25.813  1.00  0.00     0.147 C 
ATOM     10  N   UNL A   1      32.467  23.123  25.454  1.00  0.00    -0.337 N 
ATOM     11  C   UNL A   1      31.937  24.108  26.251  1.00  0.00     0.227 C 
ATOM     12  C   UNL A   1      33.057  23.648  24.259  1.00  0.00     0.131 C 
ATOM     13  O   UNL A   1      31.470  23.932  27.361  1.00  0.00    -0.275 OA
ATOM     14  C   UNL A   1      32.107  25.450  25.529  1.00  0.00     0.101 C 
ATOM     15  C   UNL A   1      30.944  26.370  25.902  1.00  0.00     0.041 C 
ATOM     16  C   UNL A   1      31.040  25.023  23.203  1.00  0.00     0.047 C 
ATOM     17  C   UNL A   1      29.872  26.492  24.884  1.00  0.00    -0.030 C 
ATOM     18  C   UNL A   1      29.913  25.891  23.692  1.00  0.00    -0.030 C 
BRANCH  12  19
ATOM     19  C   UNL A   1      34.601  23.622  24.364  1.00  0.00    -0.024 A 
ATOM     20  C   UNL A   1      35.424  22.978  23.426  1.00  0.00     0.006 A 
ATOM     21  C   UNL A   1      35.221  24.128  25.526  1.00  0.00     0.006 A 
ATOM     22  C   UNL A   1      36.760  22.688  23.714  1.00  0.00     0.000 A 
ATOM     23  C   UNL A   1      36.551  23.821  25.823  1.00  0.00     0.000 A 
ATOM     24  C   UNL A   1      37.312  23.073  24.930  1.00  0.00     0.000 A 
ENDBRANCH  12  19
ENDBRANCH   5   8
ENDBRANCH   3   4
ENDBRANCH   2   3
ENDBRANCH   1   2
BRANCH   1  25
ATOM     25  C   UNL A   1      32.350  30.309  26.755  1.00  0.00     0.116 C 
BRANCH  25  26
ATOM     26  N   UNL A   1      32.247  31.729  27.080  1.00  0.00    -0.352 N 
ATOM     27  C   UNL A   1      33.263  32.533  27.570  1.00  0.00     0.251 C 
ATOM     28  H   UNL A   1      31.371  32.156  26.936  1.00  0.00     0.163 HD
ATOM     29  O   UNL A   1      33.079  33.719  27.816  1.00  0.00    -0.269 OA
BRANCH  27  30
ATOM     30  C   UNL A   1      34.572  31.896  27.835  1.00  0.00     0.039 A 
ATOM     31  C   UNL A   1      35.704  32.700  27.983  1.00  0.00     0.014 A 
ATOM     32  C   UNL A   1      34.618  30.534  28.143  1.00  0.00     0.014 A 
ATOM     33  C   UNL A   1      36.859  32.154  28.549  1.00  0.00     0.010 A 
ATOM     34  C   UNL A   1      35.732  30.025  28.799  1.00  0.00     0.010 A 
ATOM     35  C   UNL A   1      36.863  30.829  29.018  1.00  0.00    -0.014 A 
BRANCH  35  36
ATOM     36  C   UNL A   1      38.024  30.269  29.760  1.00  0.00     0.031 A 
ATOM     37  C   UNL A   1      38.295  30.709  31.173  1.00  0.00     0.074 A 
ATOM     38  C   UNL A   1      38.889  29.442  29.137  1.00  0.00     0.049 A 
ATOM     39  N   UNL A   1      39.283  30.379  31.965  1.00  0.00    -0.248 NA
ATOM     40  C   UNL A   1      37.352  31.673  31.763  1.00  0.00     0.031 C 
ATOM     41  C   UNL A   1      38.792  29.004  27.743  1.00  0.00     0.029 A 
ATOM     42  N   UNL A   1      40.037  28.838  29.591  1.00  0.00    -0.354 N 
ATOM     43  C   UNL A   1      39.097  31.117  33.128  1.00  0.00     0.074 A 
ATOM     44  C   UNL A   1      37.935  31.952  32.918  1.00  0.00     0.031 C 
ATOM     45  C   UNL A   1      39.821  28.189  27.462  1.00  0.00     0.029 A 
ATOM     46  C   UNL A   1      40.673  28.072  28.641  1.00  0.00     0.049 A 
ATOM     47  H   UNL A   1      40.372  28.943  30.510  1.00  0.00     0.167 HD
ATOM     48  C   UNL A   1      39.805  31.081  34.281  1.00  0.00     0.034 A 
ATOM     49  C   UNL A   1      41.816  27.360  28.709  1.00  0.00     0.034 A 
ATOM     50  C   UNL A   1      40.941  30.229  34.499  1.00  0.00     0.049 A 
ATOM     51  C   UNL A   1      42.578  27.319  30.007  1.00  0.00     0.074 A 
ATOM     52  C   UNL A   1      41.677  30.057  35.658  1.00  0.00     0.029 A 
ATOM     53  N   UNL A   1      41.517  29.417  33.535  1.00  0.00    -0.354 N 
ATOM     54  N   UNL A   1      42.296  27.903  31.147  1.00  0.00    -0.248 NA
ATOM     55  C   UNL A   1      43.794  26.495  30.040  1.00  0.00     0.031 C 
ATOM     56  C   UNL A   1      42.721  29.166  35.383  1.00  0.00     0.029 A 
ATOM     57  C   UNL A   1      42.608  28.751  34.065  1.00  0.00     0.049 A 
ATOM     58  H   UNL A   1      41.196  29.326  32.609  1.00  0.00     0.167 HD
ATOM     59  C   UNL A   1      43.276  27.486  32.042  1.00  0.00     0.074 A 
ATOM     60  C   UNL A   1      44.149  26.587  31.315  1.00  0.00     0.031 C 
ATOM     61  C   UNL A   1      43.443  27.824  33.345  1.00  0.00     0.034 A 
BRANCH  48  62
ATOM     62  C   UNL A   1      39.338  31.966  35.408  1.00  0.00     0.023 A 
ATOM     63  C   UNL A   1      38.423  31.465  36.358  1.00  0.00     0.012 A 
ATOM     64  C   UNL A   1      39.821  33.281  35.545  1.00  0.00     0.148 A 
ATOM     65  C   UNL A   1      37.957  32.274  37.394  1.00  0.00     0.002 A 
ATOM     66  C   UNL A   1      39.393  34.064  36.610  1.00  0.00     0.091 A 
ATOM     67  F   UNL A   1      40.674  33.749  34.622  1.00  0.00    -0.205 F 
ATOM     68  C   UNL A   1      38.449  33.568  37.525  1.00  0.00     0.022 A 
BRANCH  66  69
ATOM     69  S   UNL A   1      40.031  35.715  36.916  1.00  0.00     0.127 S 
ATOM     70  O   UNL A   1      39.362  36.061  38.170  1.00  0.00    -0.237 OA
ATOM     71  O   UNL A   1      41.468  35.470  37.038  1.00  0.00    -0.237 OA
ATOM     72  O   UNL A   1      39.647  36.514  35.761  1.00  0.00    -0.744 OA
ENDBRANCH  66  69
ENDBRANCH  48  62
BRANCH  49  73
ATOM     73  C   UNL A   1      42.277  26.570  27.529  1.00  0.00     0.023 A 
ATOM     74  C   UNL A   1      43.067  27.194  26.544  1.00  0.00     0.012 A 
ATOM     75  C   UNL A   1      41.961  25.205  27.391  1.00  0.00     0.148 A 
ATOM     76  C   UNL A   1      43.506  26.483  25.426  1.00  0.00     0.002 A 
ATOM     77  C   UNL A   1      42.447  24.488  26.304  1.00  0.00     0.091 A 
ATOM     78  F   UNL A   1      41.202  24.632  28.335  1.00  0.00    -0.205 F 
ATOM     79  C   UNL A   1      43.204  25.129  25.310  1.00  0.00     0.022 A 
BRANCH  77  80
ATOM     80  S   UNL A   1      42.221  22.715  26.136  1.00  0.00     0.127 S 
ATOM     81  O   UNL A   1      42.883  22.447  24.862  1.00  0.00    -0.237 OA
ATOM     82  O   UNL A   1      42.925  22.211  27.315  1.00  0.00    -0.237 OA
ATOM     83  O   UNL A   1      40.780  22.496  26.155  1.00  0.00    -0.744 OA
ENDBRANCH  77  80
ENDBRANCH  49  73
BRANCH  61  84
ATOM     84  C   UNL A   1      44.585  27.188  34.094  1.00  0.00     0.023 A 
ATOM     85  C   UNL A   1      45.848  27.813  34.123  1.00  0.00     0.012 A 
ATOM     86  C   UNL A   1      44.380  26.008  34.837  1.00  0.00     0.148 A 
ATOM     87  C   UNL A   1      46.898  27.254  34.851  1.00  0.00     0.002 A 
ATOM     88  C   UNL A   1      45.416  25.488  35.605  1.00  0.00     0.091 A 
ATOM     89  F   UNL A   1      43.176  25.421  34.784  1.00  0.00    -0.205 F 
ATOM     90  C   UNL A   1      46.678  26.101  35.601  1.00  0.00     0.022 A 
BRANCH  88  91
ATOM     91  S   UNL A   1      45.198  24.066  36.680  1.00  0.00     0.127 S 
ATOM     92  O   UNL A   1      46.575  23.780  37.078  1.00  0.00    -0.237 OA
ATOM     93  O   UNL A   1      44.355  24.612  37.745  1.00  0.00    -0.237 OA
ATOM     94  O   UNL A   1      44.558  23.040  35.867  1.00  0.00    -0.744 OA
ENDBRANCH  88  91
ENDBRANCH  61  84
ENDBRANCH  35  36
ENDBRANCH  27  30
ENDBRANCH  25  26
ENDBRANCH   1  25
TORSDOF 15
ENDMDL
MODEL 2
REMARK VINA RESULT:     -13.3      4.635     10.037
REMARK SMILES CN1C(=O)[C@@H]2CC=CC[C@]2(C(=O)NCCCCNC(=O)c2ccc(-c3c4nc(c(-c5cccc(S(=O)(=O)[O-])c5F)c5ccc([nH]5)c(-c5cccc(S(=O)(=O)[O-])c5F)c5nc(c(-c6cccc(S(=O)(=O)[O-])c6F)c6ccc3[nH]6)C=C5)C=C4)cc2)[C@H]1c1ccccc1
REMARK SMILES IDX 16 1 15 2 14 3 13 4 11 5 12 6 10 8 1 9 2 10 3 11 84 12 4 13
REMARK SMILES IDX 5 14 6 15 9 16 7 17 8 18 85 19 86 20 90 21 87 22 89 23 88 24
REMARK SMILES IDX 17 25 18 26 19 27 20 29 21 30 22 31 83 32 23 33 82 34 24 35
REMARK SMILES IDX 25 36 26 37 76 38 27 39 81 40 75 41 77 42 28 43 80 44 74 45
REMARK SMILES IDX 73 46 29 48 61 49 41 50 60 51 42 52 45 53 59 54 78 55 43 56
REMARK SMILES IDX 44 57 58 59 79 60 46 61 30 62 31 63 39 64 32 65 34 66 40 67
REMARK SMILES IDX 33 68 35 69 36 70 37 71 38 72 62 73 63 74 71 75 64 76 66 77
REMARK SMILES IDX 72 78 65 79 67 80 68 81 69 82 70 83 47 84 48 85 56 86 49 87
REMARK SMILES IDX 51 88 57 89 50 90 52 91 53 92 54 93 55 94
REMARK H PARENT 13 7 18 28 77 47 45 58
REMARK Flexibility Score: inf
ROOT
ATOM      1  C   UNL A   1      35.943  20.954  25.115  1.00  0.00     0.023 C 
ENDROOT
BRANCH   1   2
ATOM      2  C   UNL A   1      34.950  21.568  26.095  1.00  0.00     0.023 C 
BRANCH   2   3
ATOM      3  C   UNL A   1      34.816  23.086  26.073  1.00  0.00     0.116 C 
BRANCH   3   4
ATOM      4  N   UNL A   1      33.689  23.754  26.722  1.00  0.00    -0.356 N 
ATOM      5  C   UNL A   1      32.426  24.064  26.219  1.00  0.00     0.229 C 
ATOM      6  O   UNL A   1      31.479  24.094  27.009  1.00  0.00    -0.274 OA
ATOM      7  H   UNL A   1      33.846  24.025  27.655  1.00  0.00     0.163 HD
BRANCH   5   8
ATOM      8  C   UNL A   1      32.241  24.511  24.745  1.00  0.00     0.089 C 
ATOM      9  C   UNL A   1      31.645  27.707  22.836  1.00  0.00     0.147 C 
ATOM     10  N   UNL A   1      32.179  26.486  23.397  1.00  0.00    -0.337 N 
ATOM     11  C   UNL A   1      33.201  25.741  22.858  1.00  0.00     0.227 C 
ATOM     12  C   UNL A   1      31.785  26.013  24.691  1.00  0.00     0.131 C 
ATOM     13  O   UNL A   1      33.779  25.998  21.819  1.00  0.00    -0.275 OA
ATOM     14  C   UNL A   1      33.520  24.596  23.827  1.00  0.00     0.101 C 
ATOM     15  C   UNL A   1      33.998  23.383  23.028  1.00  0.00     0.041 C 
ATOM     16  C   UNL A   1      31.217  23.461  24.199  1.00  0.00     0.047 C 
ATOM     17  C   UNL A   1      32.991  22.310  22.830  1.00  0.00    -0.030 C 
ATOM     18  C   UNL A   1      31.760  22.348  23.345  1.00  0.00    -0.030 C 
BRANCH  12  19
ATOM     19  C   UNL A   1      32.313  26.961  25.795  1.00  0.00    -0.024 A 
ATOM     20  C   UNL A   1      31.474  27.617  26.709  1.00  0.00     0.006 A 
ATOM     21  C   UNL A   1      33.678  27.315  25.803  1.00  0.00     0.006 A 
ATOM     22  C   UNL A   1      31.932  28.701  27.462  1.00  0.00     0.000 A 
ATOM     23  C   UNL A   1      34.132  28.412  26.541  1.00  0.00     0.000 A 
ATOM     24  C   UNL A   1      33.250  29.124  27.346  1.00  0.00     0.000 A 
ENDBRANCH  12  19
ENDBRANCH   5   8
ENDBRANCH   3   4
ENDBRANCH   2   3
ENDBRANCH   1   2
BRANCH   1  25
ATOM     25  C   UNL A   1      37.378  21.472  25.145  1.00  0.00     0.116 C 
BRANCH  25  26
ATOM     26  N   UNL A   1      38.426  20.471  25.323  1.00  0.00    -0.352 N 
ATOM     27  C   UNL A   1      39.584  20.622  26.070  1.00  0.00     0.251 C 
ATOM     28  H   UNL A   1      38.298  19.606  24.871  1.00  0.00     0.163 HD
ATOM     29  O   UNL A   1      40.411  19.722  26.158  1.00  0.00    -0.269 OA
BRANCH  27  30
ATOM     30  C   UNL A   1      39.814  21.932  26.718  1.00  0.00     0.039 A 
ATOM     31  C   UNL A   1      40.780  22.035  27.721  1.00  0.00     0.014 A 
ATOM     32  C   UNL A   1      39.222  23.075  26.176  1.00  0.00     0.014 A 
ATOM     33  C   UNL A   1      41.234  23.300  28.104  1.00  0.00     0.010 A 
ATOM     34  C   UNL A   1      39.749  24.322  26.485  1.00  0.00     0.010 A 
ATOM     35  C   UNL A   1      40.766  24.451  27.446  1.00  0.00    -0.014 A 
BRANCH  35  36
ATOM     36  C   UNL A   1      41.340  25.795  27.725  1.00  0.00     0.031 A 
ATOM     37  C   UNL A   1      42.745  26.116  27.293  1.00  0.00     0.074 A 
ATOM     38  C   UNL A   1      40.639  26.692  28.450  1.00  0.00     0.049 A 
ATOM     39  N   UNL A   1      43.440  27.207  27.491  1.00  0.00    -0.248 NA
ATOM     40  C   UNL A   1      43.478  25.062  26.574  1.00  0.00     0.031 C 
ATOM     41  C   UNL A   1      39.301  26.476  29.004  1.00  0.00     0.029 A 
ATOM     42  N   UNL A   1      40.965  27.961  28.865  1.00  0.00    -0.354 N 
ATOM     43  C   UNL A   1      44.696  26.957  26.952  1.00  0.00     0.074 A 
ATOM     44  C   UNL A   1      44.685  25.594  26.468  1.00  0.00     0.031 C 
ATOM     45  C   UNL A   1      38.913  27.578  29.667  1.00  0.00     0.029 A 
ATOM     46  C   UNL A   1      39.986  28.567  29.619  1.00  0.00     0.049 A 
ATOM     47  H   UNL A   1      41.819  28.396  28.643  1.00  0.00     0.167 HD
ATOM     48  C   UNL A   1      45.754  27.794  26.835  1.00  0.00     0.034 A 
ATOM     49  C   UNL A   1      39.956  29.779  30.209  1.00  0.00     0.034 A 
ATOM     50  C   UNL A   1      45.754  29.157  27.289  1.00  0.00     0.049 A 
ATOM     51  C   UNL A   1      41.137  30.700  30.050  1.00  0.00     0.074 A 
ATOM     52  C   UNL A   1      46.744  30.111  27.145  1.00  0.00     0.029 A 
ATOM     53  N   UNL A   1      44.719  29.756  27.990  1.00  0.00    -0.354 N 
ATOM     54  N   UNL A   1      42.257  30.500  29.399  1.00  0.00    -0.248 NA
ATOM     55  C   UNL A   1      41.036  32.025  30.678  1.00  0.00     0.031 C 
ATOM     56  C   UNL A   1      46.322  31.279  27.790  1.00  0.00     0.029 A 
ATOM     57  C   UNL A   1      45.050  31.064  28.298  1.00  0.00     0.049 A 
ATOM     58  H   UNL A   1      43.871  29.317  28.230  1.00  0.00     0.167 HD
ATOM     59  C   UNL A   1      42.977  31.685  29.505  1.00  0.00     0.074 A 
ATOM     60  C   UNL A   1      42.157  32.603  30.268  1.00  0.00     0.031 C 
ATOM     61  C   UNL A   1      44.208  31.984  29.020  1.00  0.00     0.034 A 
BRANCH  48  62
ATOM     62  C   UNL A   1      46.987  27.259  26.152  1.00  0.00     0.023 A 
ATOM     63  C   UNL A   1      47.141  27.422  24.759  1.00  0.00     0.012 A 
ATOM     64  C   UNL A   1      48.004  26.621  26.887  1.00  0.00     0.148 A 
ATOM     65  C   UNL A   1      48.260  26.913  24.102  1.00  0.00     0.002 A 
ATOM     66  C   UNL A   1      49.142  26.163  26.233  1.00  0.00     0.091 A 
ATOM     67  F   UNL A   1      47.833  26.456  28.207  1.00  0.00    -0.205 F 
ATOM     68  C   UNL A   1      49.263  26.293  24.839  1.00  0.00     0.022 A 
BRANCH  66  69
ATOM     69  S   UNL A   1      50.529  25.427  27.104  1.00  0.00     0.127 S 
ATOM     70  O   UNL A   1      51.455  25.155  26.006  1.00  0.00    -0.237 OA
ATOM     71  O   UNL A   1      50.940  26.512  27.996  1.00  0.00    -0.237 OA
ATOM     72  O   UNL A   1      50.000  24.252  27.782  1.00  0.00    -0.744 OA
ENDBRANCH  66  69
ENDBRANCH  48  62
BRANCH  49  73
ATOM     73  C   UNL A   1      38.737  30.221  30.948  1.00  0.00     0.023 A 
ATOM     74  C   UNL A   1      38.610  29.915  32.318  1.00  0.00     0.012 A 
ATOM     75  C   UNL A   1      37.720  30.960  30.313  1.00  0.00     0.148 A 
ATOM     76  C   UNL A   1      37.478  30.309  33.033  1.00  0.00     0.002 A 
ATOM     77  C   UNL A   1      36.622  31.397  31.045  1.00  0.00     0.091 A 
ATOM     78  F   UNL A   1      37.858  31.234  29.009  1.00  0.00    -0.205 F 
ATOM     79  C   UNL A   1      36.490  31.057  32.401  1.00  0.00     0.022 A 
BRANCH  77  80
ATOM     80  S   UNL A   1      35.365  32.474  30.350  1.00  0.00     0.127 S 
ATOM     81  O   UNL A   1      36.138  33.669  30.024  1.00  0.00    -0.237 OA
ATOM     82  O   UNL A   1      34.913  31.697  29.195  1.00  0.00    -0.237 OA
ATOM     83  O   UNL A   1      34.362  32.638  31.394  1.00  0.00    -0.744 OA
ENDBRANCH  77  80
ENDBRANCH  49  73
BRANCH  61  84
ATOM     84  C   UNL A   1      44.737  33.375  29.255  1.00  0.00     0.023 A 
ATOM     85  C   UNL A   1      45.479  33.662  30.419  1.00  0.00     0.012 A 
ATOM     86  C   UNL A   1      44.563  34.377  28.281  1.00  0.00     0.148 A 
ATOM     87  C   UNL A   1      46.011  34.934  30.623  1.00  0.00     0.002 A 
ATOM     88  C   UNL A   1      45.143  35.626  28.465  1.00  0.00     0.091 A 
ATOM     89  F   UNL A   1      43.841  34.088  27.189  1.00  0.00    -0.205 F 
ATOM     90  C   UNL A   1      45.855  35.911  29.642  1.00  0.00     0.022 A 
BRANCH  88  91
ATOM     91  S   UNL A   1      45.080  36.913  27.213  1.00  0.00     0.127 S 
ATOM     92  O   UNL A   1      45.632  38.058  27.936  1.00  0.00    -0.237 OA
ATOM     93  O   UNL A   1      45.952  36.371  26.171  1.00  0.00    -0.237 OA
ATOM     94  O   UNL A   1      43.680  37.034  26.830  1.00  0.00    -0.744 OA
ENDBRANCH  88  91
ENDBRANCH  61  84
ENDBRANCH  35  36
ENDBRANCH  27  30
ENDBRANCH  25  26
ENDBRANCH   1  25
TORSDOF 15
ENDMDL
MODEL 3
REMARK VINA RESULT:     -13.2      5.021      7.911
REMARK SMILES CN1C(=O)[C@@H]2CC=CC[C@]2(C(=O)NCCCCNC(=O)c2ccc(-c3c4nc(c(-c5cccc(S(=O)(=O)[O-])c5F)c5ccc([nH]5)c(-c5cccc(S(=O)(=O)[O-])c5F)c5nc(c(-c6cccc(S(=O)(=O)[O-])c6F)c6ccc3[nH]6)C=C5)C=C4)cc2)[C@H]1c1ccccc1
REMARK SMILES IDX 16 1 15 2 14 3 13 4 11 5 12 6 10 8 1 9 2 10 3 11 84 12 4 13
REMARK SMILES IDX 5 14 6 15 9 16 7 17 8 18 85 19 86 20 90 21 87 22 89 23 88 24
REMARK SMILES IDX 17 25 18 26 19 27 20 29 21 30 22 31 83 32 23 33 82 34 24 35
REMARK SMILES IDX 25 36 26 37 76 38 27 39 81 40 75 41 77 42 28 43 80 44 74 45
REMARK SMILES IDX 73 46 29 48 61 49 41 50 60 51 42 52 45 53 59 54 78 55 43 56
REMARK SMILES IDX 44 57 58 59 79 60 46 61 30 62 31 63 39 64 32 65 34 66 40 67
REMARK SMILES IDX 33 68 35 69 36 70 37 71 38 72 62 73 63 74 71 75 64 76 66 77
REMARK SMILES IDX 72 78 65 79 67 80 68 81 69 82 70 83 47 84 48 85 56 86 49 87
REMARK SMILES IDX 51 88 57 89 50 90 52 91 53 92 54 93 55 94
REMARK H PARENT 13 7 18 28 77 47 45 58
REMARK Flexibility Score: inf
ROOT
ATOM      1  C   UNL A   1      35.705  20.929  25.331  1.00  0.00     0.023 C 
ENDROOT
BRANCH   1   2
ATOM      2  C   UNL A   1      34.675  21.562  26.260  1.00  0.00     0.023 C 
BRANCH   2   3
ATOM      3  C   UNL A   1      34.560  23.081  26.222  1.00  0.00     0.116 C 
BRANCH   3   4
ATOM      4  N   UNL A   1      33.393  23.766  26.775  1.00  0.00    -0.356 N 
ATOM      5  C   UNL A   1      32.175  24.081  26.172  1.00  0.00     0.229 C 
ATOM      6  O   UNL A   1      31.170  24.127  26.885  1.00  0.00    -0.274 OA
ATOM      7  H   UNL A   1      33.478  24.044  27.715  1.00  0.00     0.163 HD
BRANCH   5   8
ATOM      8  C   UNL A   1      32.111  24.514  24.684  1.00  0.00     0.089 C 
ATOM      9  C   UNL A   1      31.796  27.708  22.702  1.00  0.00     0.147 C 
ATOM     10  N   UNL A   1      32.234  26.471  23.313  1.00  0.00    -0.337 N 
ATOM     11  C   UNL A   1      33.252  25.671  22.852  1.00  0.00     0.227 C 
ATOM     12  C   UNL A   1      31.732  26.035  24.582  1.00  0.00     0.131 C 
ATOM     13  O   UNL A   1      33.910  25.886  21.851  1.00  0.00    -0.275 OA
ATOM     14  C   UNL A   1      33.451  24.527  23.853  1.00  0.00     0.101 C 
ATOM     15  C   UNL A   1      33.922  23.281  23.102  1.00  0.00     0.041 C 
ATOM     16  C   UNL A   1      31.077  23.506  24.082  1.00  0.00     0.047 C 
ATOM     17  C   UNL A   1      32.881  22.254  22.849  1.00  0.00    -0.030 C 
ATOM     18  C   UNL A   1      31.622  22.357  23.279  1.00  0.00    -0.030 C 
BRANCH  12  19
ATOM     19  C   UNL A   1      32.230  26.973  25.708  1.00  0.00    -0.024 A 
ATOM     20  C   UNL A   1      31.367  27.611  26.613  1.00  0.00     0.006 A 
ATOM     21  C   UNL A   1      33.591  27.338  25.748  1.00  0.00     0.006 A 
ATOM     22  C   UNL A   1      31.801  28.689  27.389  1.00  0.00     0.000 A 
ATOM     23  C   UNL A   1      34.021  28.429  26.509  1.00  0.00     0.000 A 
ATOM     24  C   UNL A   1      33.118  29.125  27.305  1.00  0.00     0.000 A 
ENDBRANCH  12  19
ENDBRANCH   5   8
ENDBRANCH   3   4
ENDBRANCH   2   3
ENDBRANCH   1   2
BRANCH   1  25
ATOM     25  C   UNL A   1      37.138  21.445  25.411  1.00  0.00     0.116 C 
BRANCH  25  26
ATOM     26  N   UNL A   1      38.192  20.434  25.426  1.00  0.00    -0.352 N 
ATOM     27  C   UNL A   1      39.435  20.557  26.025  1.00  0.00     0.251 C 
ATOM     28  H   UNL A   1      38.001  19.584  24.968  1.00  0.00     0.163 HD
ATOM     29  O   UNL A   1      40.259  19.651  25.982  1.00  0.00    -0.269 OA
BRANCH  27  30
ATOM     30  C   UNL A   1      39.757  21.846  26.677  1.00  0.00     0.039 A 
ATOM     31  C   UNL A   1      40.735  21.881  27.672  1.00  0.00     0.014 A 
ATOM     32  C   UNL A   1      39.237  23.028  26.144  1.00  0.00     0.014 A 
ATOM     33  C   UNL A   1      41.274  23.111  28.057  1.00  0.00     0.010 A 
ATOM     34  C   UNL A   1      39.847  24.237  26.455  1.00  0.00     0.010 A 
ATOM     35  C   UNL A   1      40.878  24.294  27.407  1.00  0.00    -0.014 A 
BRANCH  35  36
ATOM     36  C   UNL A   1      41.542  25.596  27.688  1.00  0.00     0.031 A 
ATOM     37  C   UNL A   1      40.801  26.670  28.437  1.00  0.00     0.074 A 
ATOM     38  C   UNL A   1      42.770  25.850  27.189  1.00  0.00     0.049 A 
ATOM     39  N   UNL A   1      41.185  27.885  28.732  1.00  0.00    -0.248 NA
ATOM     40  C   UNL A   1      39.436  26.349  28.885  1.00  0.00     0.031 C 
ATOM     41  C   UNL A   1      43.563  24.928  26.373  1.00  0.00     0.029 A 
ATOM     42  N   UNL A   1      43.559  26.972  27.277  1.00  0.00    -0.354 N 
ATOM     43  C   UNL A   1      40.102  28.480  29.367  1.00  0.00     0.074 A 
ATOM     44  C   UNL A   1      39.028  27.512  29.366  1.00  0.00     0.031 C 
ATOM     45  C   UNL A   1      44.729  25.511  26.053  1.00  0.00     0.029 A 
ATOM     46  C   UNL A   1      44.756  26.861  26.607  1.00  0.00     0.049 A 
ATOM     47  H   UNL A   1      43.292  27.779  27.773  1.00  0.00     0.167 HD
ATOM     48  C   UNL A   1      40.015  29.707  29.932  1.00  0.00     0.034 A 
ATOM     49  C   UNL A   1      45.760  27.748  26.453  1.00  0.00     0.034 A 
ATOM     50  C   UNL A   1      41.093  30.656  29.959  1.00  0.00     0.049 A 
ATOM     51  C   UNL A   1      45.651  29.100  27.106  1.00  0.00     0.074 A 
ATOM     52  C   UNL A   1      41.135  31.893  30.577  1.00  0.00     0.029 A 
ATOM     53  N   UNL A   1      42.315  30.483  29.327  1.00  0.00    -0.354 N 
ATOM     54  N   UNL A   1      44.677  29.586  27.839  1.00  0.00    -0.248 NA
ATOM     55  C   UNL A   1      46.790  30.013  26.942  1.00  0.00     0.031 C 
ATOM     56  C   UNL A   1      42.370  32.483  30.289  1.00  0.00     0.029 A 
ATOM     57  C   UNL A   1      43.114  31.595  29.527  1.00  0.00     0.049 A 
ATOM     58  H   UNL A   1      42.577  29.685  28.813  1.00  0.00     0.167 HD
ATOM     59  C   UNL A   1      45.103  30.843  28.254  1.00  0.00     0.074 A 
ATOM     60  C   UNL A   1      46.429  31.036  27.706  1.00  0.00     0.031 C 
ATOM     61  C   UNL A   1      44.451  31.758  29.014  1.00  0.00     0.034 A 
BRANCH  48  62
ATOM     62  C   UNL A   1      38.716  30.070  30.603  1.00  0.00     0.023 A 
ATOM     63  C   UNL A   1      38.442  29.593  31.903  1.00  0.00     0.012 A 
ATOM     64  C   UNL A   1      37.776  30.900  29.963  1.00  0.00     0.148 A 
ATOM     65  C   UNL A   1      37.236  29.895  32.533  1.00  0.00     0.002 A 
ATOM     66  C   UNL A   1      36.598  31.240  30.618  1.00  0.00     0.091 A 
ATOM     67  F   UNL A   1      38.041  31.327  28.719  1.00  0.00    -0.205 F 
ATOM     68  C   UNL A   1      36.320  30.725  31.895  1.00  0.00     0.022 A 
BRANCH  66  69
ATOM     69  S   UNL A   1      35.392  32.370  29.918  1.00  0.00     0.127 S 
ATOM     70  O   UNL A   1      34.909  31.609  28.767  1.00  0.00    -0.237 OA
ATOM     71  O   UNL A   1      34.427  32.503  31.010  1.00  0.00    -0.237 OA
ATOM     72  O   UNL A   1      36.121  33.590  29.601  1.00  0.00    -0.744 OA
ENDBRANCH  66  69
ENDBRANCH  48  62
BRANCH  49  73
ATOM     73  C   UNL A   1      46.991  27.362  25.702  1.00  0.00     0.023 A 
ATOM     74  C   UNL A   1      47.994  26.617  26.353  1.00  0.00     0.012 A 
ATOM     75  C   UNL A   1      47.162  27.704  24.347  1.00  0.00     0.148 A 
ATOM     76  C   UNL A   1      49.159  26.249  25.679  1.00  0.00     0.002 A 
ATOM     77  C   UNL A   1      48.299  27.286  23.665  1.00  0.00     0.091 A 
ATOM     78  F   UNL A   1      46.199  28.418  23.748  1.00  0.00    -0.205 F 
ATOM     79  C   UNL A   1      49.308  26.575  24.334  1.00  0.00     0.022 A 
BRANCH  77  80
ATOM     80  S   UNL A   1      48.519  27.546  21.902  1.00  0.00     0.127 S 
ATOM     81  O   UNL A   1      49.655  28.463  21.873  1.00  0.00    -0.237 OA
ATOM     82  O   UNL A   1      48.808  26.190  21.435  1.00  0.00    -0.237 OA
ATOM     83  O   UNL A   1      47.257  28.092  21.421  1.00  0.00    -0.744 OA
ENDBRANCH  77  80
ENDBRANCH  49  73
BRANCH  61  84
ATOM     84  C   UNL A   1      45.172  33.039  29.344  1.00  0.00     0.023 A 
ATOM     85  C   UNL A   1      45.982  33.119  30.495  1.00  0.00     0.012 A 
ATOM     86  C   UNL A   1      45.108  34.139  28.466  1.00  0.00     0.148 A 
ATOM     87  C   UNL A   1      46.689  34.286  30.784  1.00  0.00     0.002 A 
ATOM     88  C   UNL A   1      45.858  35.278  28.731  1.00  0.00     0.091 A 
ATOM     89  F   UNL A   1      44.319  34.048  27.386  1.00  0.00    -0.205 F 
ATOM     90  C   UNL A   1      46.637  35.359  29.896  1.00  0.00     0.022 A 
BRANCH  88  91
ATOM     91  S   UNL A   1      45.933  36.669  27.596  1.00  0.00     0.127 S 
ATOM     92  O   UNL A   1      44.545  37.129  27.598  1.00  0.00    -0.237 OA
ATOM     93  O   UNL A   1      46.874  37.564  28.270  1.00  0.00    -0.237 OA
ATOM     94  O   UNL A   1      46.410  36.130  26.330  1.00  0.00    -0.744 OA
ENDBRANCH  88  91
ENDBRANCH  61  84
ENDBRANCH  35  36
ENDBRANCH  27  30
ENDBRANCH  25  26
ENDBRANCH   1  25
TORSDOF 15
ENDMDL
