MODEL 1
REMARK VINA RESULT:     -13.7      0.000      0.000
REMARK SMILES Cc1nc(-c2ccccc2)sc1C(=O)N[C@@H](CC1=c2ccccc2=NC1)C(=O)NCCCCNC(=O)c1ccc(-c2c3nc(c(-c4cccc(S(=O)(=O)[O-])c4F)c4ccc([nH]4)c(-c4cccc(S(=O)(=O)[O-])c4F)c4nc(c(-c5cccc(S(=O)(=O)[O-])c5F)c5ccc2[nH]5)C=C4)C=C3)cc1
REMARK SMILES IDX 31 1 30 2 29 3 27 4 28 5 16 7 15 8 13 9 14 10 12 12 1 13
REMARK SMILES IDX 2 14 3 15 4 16 11 17 5 18 6 19 10 20 7 21 9 22 8 23 17 24
REMARK SMILES IDX 18 25 19 26 26 27 20 28 24 29 25 30 21 31 23 32 22 33 32 34
REMARK SMILES IDX 33 35 34 36 35 37 36 39 37 40 38 41 99 42 39 43 98 44 40 45
REMARK SMILES IDX 41 46 42 47 92 48 43 49 97 50 91 51 93 52 44 53 96 54 90 55
REMARK SMILES IDX 89 56 45 58 77 59 57 60 76 61 58 62 61 63 75 64 94 65 59 66
REMARK SMILES IDX 60 67 74 69 95 70 62 71 46 72 47 73 55 74 48 75 50 76 56 77
REMARK SMILES IDX 49 78 51 79 52 80 53 81 54 82 78 83 79 84 87 85 80 86 82 87
REMARK SMILES IDX 88 88 81 89 83 90 84 91 85 92 86 93 63 94 64 95 72 96 65 97
REMARK SMILES IDX 67 98 73 99 66 100 68 101 69 102 70 103 71 104
REMARK H PARENT 29 6 15 11 34 38 93 57 61 68
REMARK Flexibility Score: inf
ROOT
ATOM      1  C   UNL A   1      35.338  23.293  23.822  1.00  0.00     0.023 C 
ENDROOT
BRANCH   1   2
ATOM      2  C   UNL A   1      35.035  24.265  24.948  1.00  0.00     0.116 C 
BRANCH   2   3
ATOM      3  N   UNL A   1      34.676  25.598  24.528  1.00  0.00    -0.354 N 
ATOM      4  C   UNL A   1      33.439  26.145  24.378  1.00  0.00     0.242 C 
ATOM      5  O   UNL A   1      33.350  27.372  24.504  1.00  0.00    -0.273 OA
ATOM      6  H   UNL A   1      35.432  26.195  24.322  1.00  0.00     0.163 HD
BRANCH   4   7
ATOM      7  C   UNL A   1      32.153  25.318  24.151  1.00  0.00     0.175 C 
BRANCH   7   8
ATOM      8  N   UNL A   1      31.388  24.993  25.344  1.00  0.00    -0.339 N 
ATOM      9  C   UNL A   1      31.291  23.893  26.151  1.00  0.00     0.263 C 
ATOM     10  O   UNL A   1      30.392  24.025  26.993  1.00  0.00    -0.268 OA
ATOM     11  H   UNL A   1      30.809  25.733  25.637  1.00  0.00     0.164 HD
BRANCH   9  12
ATOM     12  C   UNL A   1      32.125  22.693  26.090  1.00  0.00     0.115 A 
ATOM     13  C   UNL A   1      33.775  22.354  28.132  1.00  0.00     0.068 C 
ATOM     14  C   UNL A   1      33.095  22.036  26.851  1.00  0.00     0.062 A 
ATOM     15  N   UNL A   1      33.546  20.836  26.320  1.00  0.00    -0.241 NA
ATOM     16  C   UNL A   1      33.017  20.594  25.150  1.00  0.00     0.124 A 
ATOM     17  S   UNL A   1      31.908  21.757  24.610  1.00  0.00    -0.108 S 
BRANCH  16  18
ATOM     18  C   UNL A   1      33.341  19.405  24.374  1.00  0.00     0.010 A 
ATOM     19  C   UNL A   1      32.440  18.973  23.389  1.00  0.00     0.011 A 
ATOM     20  C   UNL A   1      34.452  18.610  24.683  1.00  0.00     0.011 A 
ATOM     21  C   UNL A   1      32.638  17.760  22.733  1.00  0.00     0.001 A 
ATOM     22  C   UNL A   1      34.642  17.389  24.031  1.00  0.00     0.001 A 
ATOM     23  C   UNL A   1      33.733  16.964  23.063  1.00  0.00     0.000 A 
ENDBRANCH  16  18
ENDBRANCH   9  12
ENDBRANCH   7   8
BRANCH   7  24
ATOM     24  C   UNL A   1      31.254  25.791  22.978  1.00  0.00     0.068 C 
BRANCH  24  25
ATOM     25  C   UNL A   1      30.055  26.631  23.295  1.00  0.00    -0.037 C 
ATOM     26  C   UNL A   1      29.804  27.905  22.996  1.00  0.00     0.001 A 
ATOM     27  C   UNL A   1      28.883  26.024  24.014  1.00  0.00     0.174 C 
ATOM     28  C   UNL A   1      30.512  28.956  22.340  1.00  0.00     0.010 A 
ATOM     29  C   UNL A   1      28.374  28.036  23.333  1.00  0.00     0.065 A 
ATOM     30  N   UNL A   1      27.801  27.030  23.919  1.00  0.00    -0.280 NA
ATOM     31  C   UNL A   1      29.832  30.043  21.941  1.00  0.00     0.001 A 
ATOM     32  C   UNL A   1      27.695  29.264  22.867  1.00  0.00     0.028 A 
ATOM     33  C   UNL A   1      28.405  30.177  22.184  1.00  0.00     0.002 A 
ENDBRANCH  24  25
ENDBRANCH   7  24
ENDBRANCH   4   7
ENDBRANCH   2   3
ENDBRANCH   1   2
BRANCH   1  34
ATOM     34  C   UNL A   1      36.209  22.103  24.207  1.00  0.00     0.023 C 
BRANCH  34  35
ATOM     35  C   UNL A   1      36.986  22.239  25.512  1.00  0.00     0.116 C 
BRANCH  35  36
ATOM     36  N   UNL A   1      38.064  21.271  25.658  1.00  0.00    -0.352 N 
ATOM     37  C   UNL A   1      39.330  21.459  26.175  1.00  0.00     0.251 C 
ATOM     38  H   UNL A   1      37.863  20.360  25.346  1.00  0.00     0.163 HD
ATOM     39  O   UNL A   1      40.168  20.568  26.119  1.00  0.00    -0.269 OA
BRANCH  37  40
ATOM     40  C   UNL A   1      39.664  22.772  26.763  1.00  0.00     0.039 A 
ATOM     41  C   UNL A   1      40.611  22.840  27.785  1.00  0.00     0.014 A 
ATOM     42  C   UNL A   1      39.105  23.936  26.231  1.00  0.00     0.014 A 
ATOM     43  C   UNL A   1      41.073  24.090  28.208  1.00  0.00     0.010 A 
ATOM     44  C   UNL A   1      39.630  25.173  26.590  1.00  0.00     0.010 A 
ATOM     45  C   UNL A   1      40.624  25.263  27.577  1.00  0.00    -0.014 A 
BRANCH  45  46
ATOM     46  C   UNL A   1      41.196  26.592  27.912  1.00  0.00     0.031 A 
ATOM     47  C   UNL A   1      42.620  26.913  27.549  1.00  0.00     0.074 A 
ATOM     48  C   UNL A   1      40.472  27.467  28.640  1.00  0.00     0.049 A 
ATOM     49  N   UNL A   1      43.319  27.985  27.822  1.00  0.00    -0.248 NA
ATOM     50  C   UNL A   1      43.371  25.880  26.816  1.00  0.00     0.031 C 
ATOM     51  C   UNL A   1      39.116  27.234  29.145  1.00  0.00     0.029 A 
ATOM     52  N   UNL A   1      40.787  28.718  29.111  1.00  0.00    -0.354 N 
ATOM     53  C   UNL A   1      44.596  27.738  27.336  1.00  0.00     0.074 A 
ATOM     54  C   UNL A   1      44.589  26.401  26.785  1.00  0.00     0.031 C 
ATOM     55  C   UNL A   1      38.714  28.309  29.843  1.00  0.00     0.029 A 
ATOM     56  C   UNL A   1      39.789  29.297  29.859  1.00  0.00     0.049 A 
ATOM     57  H   UNL A   1      41.648  29.160  28.929  1.00  0.00     0.167 HD
ATOM     58  C   UNL A   1      45.670  28.562  27.313  1.00  0.00     0.034 A 
ATOM     59  C   UNL A   1      39.741  30.490  30.484  1.00  0.00     0.034 A 
ATOM     60  C   UNL A   1      45.656  29.915  27.799  1.00  0.00     0.049 A 
ATOM     61  C   UNL A   1      40.920  31.420  30.373  1.00  0.00     0.074 A 
ATOM     62  C   UNL A   1      46.658  30.866  27.725  1.00  0.00     0.029 A 
ATOM     63  N   UNL A   1      44.584  30.510  28.444  1.00  0.00    -0.354 N 
ATOM     64  N   UNL A   1      42.060  31.234  29.752  1.00  0.00    -0.248 NA
ATOM     65  C   UNL A   1      40.792  32.738  31.010  1.00  0.00     0.031 C 
ATOM     66  C   UNL A   1      46.192  32.037  28.334  1.00  0.00     0.029 A 
ATOM     67  C   UNL A   1      44.897  31.816  28.775  1.00  0.00     0.049 A 
ATOM     68  H   UNL A   1      43.725  30.068  28.639  1.00  0.00     0.167 HD
ATOM     69  C   UNL A   1      42.770  32.421  29.894  1.00  0.00     0.074 A 
ATOM     70  C   UNL A   1      41.922  33.327  30.641  1.00  0.00     0.031 C 
ATOM     71  C   UNL A   1      44.017  32.728  29.462  1.00  0.00     0.034 A 
BRANCH  58  72
ATOM     72  C   UNL A   1      46.931  28.046  26.671  1.00  0.00     0.023 A 
ATOM     73  C   UNL A   1      47.936  27.482  27.483  1.00  0.00     0.012 A 
ATOM     74  C   UNL A   1      47.103  28.070  25.274  1.00  0.00     0.148 A 
ATOM     75  C   UNL A   1      49.110  26.984  26.919  1.00  0.00     0.002 A 
ATOM     76  C   UNL A   1      48.257  27.532  24.716  1.00  0.00     0.091 A 
ATOM     77  F   UNL A   1      46.148  28.631  24.519  1.00  0.00    -0.205 F 
ATOM     78  C   UNL A   1      49.266  26.999  25.536  1.00  0.00     0.022 A 
BRANCH  76  79
ATOM     79  S   UNL A   1      48.518  27.435  22.940  1.00  0.00     0.127 S 
ATOM     80  O   UNL A   1      48.435  25.994  22.708  1.00  0.00    -0.237 OA
ATOM     81  O   UNL A   1      47.386  28.202  22.419  1.00  0.00    -0.237 OA
ATOM     82  O   UNL A   1      49.821  28.037  22.695  1.00  0.00    -0.744 OA
ENDBRANCH  76  79
ENDBRANCH  58  72
BRANCH  59  83
ATOM     83  C   UNL A   1      38.499  30.913  31.192  1.00  0.00     0.023 A 
ATOM     84  C   UNL A   1      38.397  30.703  32.581  1.00  0.00     0.012 A 
ATOM     85  C   UNL A   1      37.440  31.546  30.513  1.00  0.00     0.148 A 
ATOM     86  C   UNL A   1      37.249  31.085  33.277  1.00  0.00     0.002 A 
ATOM     87  C   UNL A   1      36.321  31.971  31.222  1.00  0.00     0.091 A 
ATOM     88  F   UNL A   1      37.549  31.725  29.189  1.00  0.00    -0.205 F 
ATOM     89  C   UNL A   1      36.216  31.728  32.600  1.00  0.00     0.022 A 
BRANCH  87  90
ATOM     90  S   UNL A   1      35.004  32.923  30.454  1.00  0.00     0.127 S 
ATOM     91  O   UNL A   1      34.088  33.125  31.574  1.00  0.00    -0.237 OA
ATOM     92  O   UNL A   1      35.713  34.125  30.013  1.00  0.00    -0.237 OA
ATOM     93  O   UNL A   1      34.507  32.091  29.366  1.00  0.00    -0.744 OA
ENDBRANCH  87  90
ENDBRANCH  59  83
BRANCH  71  94
ATOM     94  C   UNL A   1      44.538  34.109  29.751  1.00  0.00     0.023 A 
ATOM     95  C   UNL A   1      45.249  34.350  30.943  1.00  0.00     0.012 A 
ATOM     96  C   UNL A   1      44.397  35.145  28.807  1.00  0.00     0.148 A 
ATOM     97  C   UNL A   1      45.788  35.609  31.204  1.00  0.00     0.002 A 
ATOM     98  C   UNL A   1      44.975  36.385  29.054  1.00  0.00     0.091 A 
ATOM     99  F   UNL A   1      43.698  34.902  27.688  1.00  0.00    -0.205 F 
ATOM    100  C   UNL A   1      45.661  36.622  30.256  1.00  0.00     0.022 A 
BRANCH  98 101
ATOM    101  S   UNL A   1      44.940  37.714  27.846  1.00  0.00     0.127 S 
ATOM    102  O   UNL A   1      43.509  37.999  27.755  1.00  0.00    -0.237 OA
ATOM    103  O   UNL A   1      45.728  38.757  28.503  1.00  0.00    -0.237 OA
ATOM    104  O   UNL A   1      45.551  37.170  26.640  1.00  0.00    -0.744 OA
ENDBRANCH  98 101
ENDBRANCH  71  94
ENDBRANCH  45  46
ENDBRANCH  37  40
ENDBRANCH  35  36
ENDBRANCH  34  35
ENDBRANCH   1  34
TORSDOF 19
ENDMDL
MODEL 2
REMARK VINA RESULT:     -13.5      1.930      2.362
REMARK SMILES Cc1nc(-c2ccccc2)sc1C(=O)N[C@@H](CC1=c2ccccc2=NC1)C(=O)NCCCCNC(=O)c1ccc(-c2c3nc(c(-c4cccc(S(=O)(=O)[O-])c4F)c4ccc([nH]4)c(-c4cccc(S(=O)(=O)[O-])c4F)c4nc(c(-c5cccc(S(=O)(=O)[O-])c5F)c5ccc2[nH]5)C=C4)C=C3)cc1
REMARK SMILES IDX 31 1 30 2 29 3 27 4 28 5 16 7 15 8 13 9 14 10 12 12 1 13
REMARK SMILES IDX 2 14 3 15 4 16 11 17 5 18 6 19 10 20 7 21 9 22 8 23 17 24
REMARK SMILES IDX 18 25 19 26 26 27 20 28 24 29 25 30 21 31 23 32 22 33 32 34
REMARK SMILES IDX 33 35 34 36 35 37 36 39 37 40 38 41 99 42 39 43 98 44 40 45
REMARK SMILES IDX 41 46 42 47 92 48 43 49 97 50 91 51 93 52 44 53 96 54 90 55
REMARK SMILES IDX 89 56 45 58 77 59 57 60 76 61 58 62 61 63 75 64 94 65 59 66
REMARK SMILES IDX 60 67 74 69 95 70 62 71 46 72 47 73 55 74 48 75 50 76 56 77
REMARK SMILES IDX 49 78 51 79 52 80 53 81 54 82 78 83 79 84 87 85 80 86 82 87
REMARK SMILES IDX 88 88 81 89 83 90 84 91 85 92 86 93 63 94 64 95 72 96 65 97
REMARK SMILES IDX 67 98 73 99 66 100 68 101 69 102 70 103 71 104
REMARK H PARENT 29 6 15 11 34 38 93 57 61 68
REMARK Flexibility Score: inf
ROOT
ATOM      1  C   UNL A   1      36.701  22.962  23.807  1.00  0.00     0.023 C 
ENDROOT
BRANCH   1   2
ATOM      2  C   UNL A   1      35.243  23.382  23.740  1.00  0.00     0.116 C 
BRANCH   2   3
ATOM      3  N   UNL A   1      34.799  24.233  24.817  1.00  0.00    -0.354 N 
ATOM      4  C   UNL A   1      33.743  25.091  24.850  1.00  0.00     0.242 C 
ATOM      5  O   UNL A   1      33.249  25.327  25.959  1.00  0.00    -0.273 OA
ATOM      6  H   UNL A   1      35.335  24.187  25.641  1.00  0.00     0.163 HD
BRANCH   4   7
ATOM      7  C   UNL A   1      33.088  25.702  23.590  1.00  0.00     0.175 C 
BRANCH   7   8
ATOM      8  N   UNL A   1      31.703  25.333  23.352  1.00  0.00    -0.339 N 
ATOM      9  C   UNL A   1      30.983  24.176  23.474  1.00  0.00     0.263 C 
ATOM     10  O   UNL A   1      29.837  24.303  23.022  1.00  0.00    -0.268 OA
ATOM     11  H   UNL A   1      31.159  26.087  23.030  1.00  0.00     0.164 HD
BRANCH   9  12
ATOM     12  C   UNL A   1      31.446  22.924  24.073  1.00  0.00     0.115 A 
ATOM     13  C   UNL A   1      31.070  22.709  26.684  1.00  0.00     0.068 C 
ATOM     14  C   UNL A   1      31.480  22.294  25.319  1.00  0.00     0.062 A 
ATOM     15  N   UNL A   1      32.017  21.015  25.317  1.00  0.00    -0.241 NA
ATOM     16  C   UNL A   1      32.462  20.677  24.135  1.00  0.00     0.124 A 
ATOM     17  S   UNL A   1      32.237  21.844  22.925  1.00  0.00    -0.108 S 
BRANCH  16  18
ATOM     18  C   UNL A   1      33.088  19.389  23.872  1.00  0.00     0.010 A 
ATOM     19  C   UNL A   1      32.487  18.521  22.948  1.00  0.00     0.011 A 
ATOM     20  C   UNL A   1      34.187  18.944  24.618  1.00  0.00     0.011 A 
ATOM     21  C   UNL A   1      32.967  17.223  22.782  1.00  0.00     0.001 A 
ATOM     22  C   UNL A   1      34.659  17.639  24.456  1.00  0.00     0.001 A 
ATOM     23  C   UNL A   1      34.046  16.780  23.544  1.00  0.00     0.000 A 
ENDBRANCH  16  18
ENDBRANCH   9  12
ENDBRANCH   7   8
BRANCH   7  24
ATOM     24  C   UNL A   1      33.346  27.217  23.372  1.00  0.00     0.068 C 
BRANCH  24  25
ATOM     25  C   UNL A   1      32.481  28.198  24.101  1.00  0.00    -0.037 C 
ATOM     26  C   UNL A   1      32.674  28.795  25.277  1.00  0.00     0.001 A 
ATOM     27  C   UNL A   1      31.205  28.683  23.473  1.00  0.00     0.174 C 
ATOM     28  C   UNL A   1      33.673  28.742  26.295  1.00  0.00     0.010 A 
ATOM     29  C   UNL A   1      31.622  29.829  25.285  1.00  0.00     0.065 A 
ATOM     30  N   UNL A   1      30.758  29.814  24.318  1.00  0.00    -0.280 NA
ATOM     31  C   UNL A   1      33.703  29.713  27.221  1.00  0.00     0.001 A 
ATOM     32  C   UNL A   1      31.718  30.860  26.340  1.00  0.00     0.028 A 
ATOM     33  C   UNL A   1      32.733  30.795  27.219  1.00  0.00     0.002 A 
ENDBRANCH  24  25
ENDBRANCH   7  24
ENDBRANCH   4   7
ENDBRANCH   2   3
ENDBRANCH   1   2
BRANCH   1  34
ATOM     34  C   UNL A   1      36.940  21.498  24.157  1.00  0.00     0.023 C 
BRANCH  34  35
ATOM     35  C   UNL A   1      37.343  21.214  25.600  1.00  0.00     0.116 C 
BRANCH  35  36
ATOM     36  N   UNL A   1      38.462  20.291  25.727  1.00  0.00    -0.352 N 
ATOM     37  C   UNL A   1      39.739  20.538  26.189  1.00  0.00     0.251 C 
ATOM     38  H   UNL A   1      38.283  19.365  25.447  1.00  0.00     0.163 HD
ATOM     39  O   UNL A   1      40.607  19.677  26.122  1.00  0.00    -0.269 OA
BRANCH  37  40
ATOM     40  C   UNL A   1      40.045  21.878  26.731  1.00  0.00     0.039 A 
ATOM     41  C   UNL A   1      40.965  21.998  27.773  1.00  0.00     0.014 A 
ATOM     42  C   UNL A   1      39.490  23.014  26.136  1.00  0.00     0.014 A 
ATOM     43  C   UNL A   1      41.404  23.268  28.156  1.00  0.00     0.010 A 
ATOM     44  C   UNL A   1      39.994  24.269  26.458  1.00  0.00     0.010 A 
ATOM     45  C   UNL A   1      40.961  24.410  27.466  1.00  0.00    -0.014 A 
BRANCH  45  46
ATOM     46  C   UNL A   1      41.512  25.757  27.760  1.00  0.00     0.031 A 
ATOM     47  C   UNL A   1      42.920  26.101  27.354  1.00  0.00     0.074 A 
ATOM     48  C   UNL A   1      40.789  26.631  28.489  1.00  0.00     0.049 A 
ATOM     49  N   UNL A   1      43.601  27.193  27.587  1.00  0.00    -0.248 NA
ATOM     50  C   UNL A   1      43.674  25.071  26.621  1.00  0.00     0.031 C 
ATOM     51  C   UNL A   1      39.452  26.379  29.034  1.00  0.00     0.029 A 
ATOM     52  N   UNL A   1      41.088  27.897  28.927  1.00  0.00    -0.354 N 
ATOM     53  C   UNL A   1      44.871  26.964  27.072  1.00  0.00     0.074 A 
ATOM     54  C   UNL A   1      44.879  25.617  26.547  1.00  0.00     0.031 C 
ATOM     55  C   UNL A   1      39.044  27.458  29.722  1.00  0.00     0.029 A 
ATOM     56  C   UNL A   1      40.097  28.469  29.690  1.00  0.00     0.049 A 
ATOM     57  H   UNL A   1      41.934  28.353  28.715  1.00  0.00     0.167 HD
ATOM     58  C   UNL A   1      45.925  27.811  27.005  1.00  0.00     0.034 A 
ATOM     59  C   UNL A   1      40.039  29.673  30.294  1.00  0.00     0.034 A 
ATOM     60  C   UNL A   1      45.894  29.172  27.466  1.00  0.00     0.049 A 
ATOM     61  C   UNL A   1      41.194  30.626  30.133  1.00  0.00     0.074 A 
ATOM     62  C   UNL A   1      46.872  30.143  27.348  1.00  0.00     0.029 A 
ATOM     63  N   UNL A   1      44.826  29.757  28.127  1.00  0.00    -0.354 N 
ATOM     64  N   UNL A   1      42.321  30.452  29.487  1.00  0.00    -0.248 NA
ATOM     65  C   UNL A   1      41.053  31.953  30.749  1.00  0.00     0.031 C 
ATOM     66  C   UNL A   1      46.397  31.316  27.946  1.00  0.00     0.029 A 
ATOM     67  C   UNL A   1      45.118  31.076  28.425  1.00  0.00     0.049 A 
ATOM     68  H   UNL A   1      43.983  29.301  28.353  1.00  0.00     0.167 HD
ATOM     69  C   UNL A   1      43.008  31.656  29.587  1.00  0.00     0.074 A 
ATOM     70  C   UNL A   1      42.160  32.559  30.339  1.00  0.00     0.031 C 
ATOM     71  C   UNL A   1      44.237  31.981  29.116  1.00  0.00     0.034 A 
BRANCH  58  72
ATOM     72  C   UNL A   1      47.180  27.309  26.341  1.00  0.00     0.023 A 
ATOM     73  C   UNL A   1      47.407  27.608  24.982  1.00  0.00     0.012 A 
ATOM     74  C   UNL A   1      48.151  26.589  27.063  1.00  0.00     0.148 A 
ATOM     75  C   UNL A   1      48.564  27.167  24.341  1.00  0.00     0.002 A 
ATOM     76  C   UNL A   1      49.322  26.191  26.427  1.00  0.00     0.091 A 
ATOM     77  F   UNL A   1      47.908  26.293  28.347  1.00  0.00    -0.205 F 
ATOM     78  C   UNL A   1      49.525  26.469  25.065  1.00  0.00     0.022 A 
BRANCH  76  79
ATOM     79  S   UNL A   1      50.656  25.353  27.294  1.00  0.00     0.127 S 
ATOM     80  O   UNL A   1      51.113  26.395  28.211  1.00  0.00    -0.237 OA
ATOM     81  O   UNL A   1      49.956  24.240  27.936  1.00  0.00    -0.237 OA
ATOM     82  O   UNL A   1      51.610  24.956  26.268  1.00  0.00    -0.744 OA
ENDBRANCH  76  79
ENDBRANCH  58  72
BRANCH  59  83
ATOM     83  C   UNL A   1      38.807  30.083  31.025  1.00  0.00     0.023 A 
ATOM     84  C   UNL A   1      38.620  29.647  32.352  1.00  0.00     0.012 A 
ATOM     85  C   UNL A   1      37.841  30.921  30.437  1.00  0.00     0.148 A 
ATOM     86  C   UNL A   1      37.478  30.009  33.068  1.00  0.00     0.002 A 
ATOM     87  C   UNL A   1      36.731  31.321  31.174  1.00  0.00     0.091 A 
ATOM     88  F   UNL A   1      38.028  31.316  29.169  1.00  0.00    -0.205 F 
ATOM     89  C   UNL A   1      36.539  30.854  32.483  1.00  0.00     0.022 A 
BRANCH  87  90
ATOM     90  S   UNL A   1      35.541  32.513  30.545  1.00  0.00     0.127 S 
ATOM     91  O   UNL A   1      34.482  32.437  31.549  1.00  0.00    -0.237 OA
ATOM     92  O   UNL A   1      36.315  33.754  30.559  1.00  0.00    -0.237 OA
ATOM     93  O   UNL A   1      35.190  32.045  29.211  1.00  0.00    -0.744 OA
ENDBRANCH  87  90
ENDBRANCH  59  83
BRANCH  71  94
ATOM     94  C   UNL A   1      44.735  33.379  29.365  1.00  0.00     0.023 A 
ATOM     95  C   UNL A   1      45.410  33.675  30.566  1.00  0.00     0.012 A 
ATOM     96  C   UNL A   1      44.608  34.376  28.378  1.00  0.00     0.148 A 
ATOM     97  C   UNL A   1      45.927  34.950  30.792  1.00  0.00     0.002 A 
ATOM     98  C   UNL A   1      45.165  35.631  28.592  1.00  0.00     0.091 A 
ATOM     99  F   UNL A   1      43.943  34.082  27.251  1.00  0.00    -0.205 F 
ATOM    100  C   UNL A   1      45.815  35.924  29.802  1.00  0.00     0.022 A 
BRANCH  98 101
ATOM    101  S   UNL A   1      45.149  36.912  27.332  1.00  0.00     0.127 S 
ATOM    102  O   UNL A   1      45.949  36.299  26.273  1.00  0.00    -0.237 OA
ATOM    103  O   UNL A   1      43.724  37.034  27.026  1.00  0.00    -0.237 OA
ATOM    104  O   UNL A   1      45.732  38.091  27.958  1.00  0.00    -0.744 OA
ENDBRANCH  98 101
ENDBRANCH  71  94
ENDBRANCH  45  46
ENDBRANCH  37  40
ENDBRANCH  35  36
ENDBRANCH  34  35
ENDBRANCH   1  34
TORSDOF 19
ENDMDL
MODEL 3
REMARK VINA RESULT:     -13.3      5.192      8.992
REMARK SMILES Cc1nc(-c2ccccc2)sc1C(=O)N[C@@H](CC1=c2ccccc2=NC1)C(=O)NCCCCNC(=O)c1ccc(-c2c3nc(c(-c4cccc(S(=O)(=O)[O-])c4F)c4ccc([nH]4)c(-c4cccc(S(=O)(=O)[O-])c4F)c4nc(c(-c5cccc(S(=O)(=O)[O-])c5F)c5ccc2[nH]5)C=C4)C=C3)cc1
REMARK SMILES IDX 31 1 30 2 29 3 27 4 28 5 16 7 15 8 13 9 14 10 12 12 1 13
REMARK SMILES IDX 2 14 3 15 4 16 11 17 5 18 6 19 10 20 7 21 9 22 8 23 17 24
REMARK SMILES IDX 18 25 19 26 26 27 20 28 24 29 25 30 21 31 23 32 22 33 32 34
REMARK SMILES IDX 33 35 34 36 35 37 36 39 37 40 38 41 99 42 39 43 98 44 40 45
REMARK SMILES IDX 41 46 42 47 92 48 43 49 97 50 91 51 93 52 44 53 96 54 90 55
REMARK SMILES IDX 89 56 45 58 77 59 57 60 76 61 58 62 61 63 75 64 94 65 59 66
REMARK SMILES IDX 60 67 74 69 95 70 62 71 46 72 47 73 55 74 48 75 50 76 56 77
REMARK SMILES IDX 49 78 51 79 52 80 53 81 54 82 78 83 79 84 87 85 80 86 82 87
REMARK SMILES IDX 88 88 81 89 83 90 84 91 85 92 86 93 63 94 64 95 72 96 65 97
REMARK SMILES IDX 67 98 73 99 66 100 68 101 69 102 70 103 71 104
REMARK H PARENT 29 6 15 11 34 38 93 57 61 68
REMARK Flexibility Score: inf
ROOT
ATOM      1  C   UNL A   1      31.557  30.231  25.998  1.00  0.00     0.023 C 
ENDROOT
BRANCH   1   2
ATOM      2  C   UNL A   1      32.914  29.682  26.401  1.00  0.00     0.116 C 
BRANCH   2   3
ATOM      3  N   UNL A   1      33.836  29.467  25.312  1.00  0.00    -0.354 N 
ATOM      4  C   UNL A   1      33.913  28.418  24.449  1.00  0.00     0.242 C 
ATOM      5  O   UNL A   1      34.403  28.643  23.336  1.00  0.00    -0.273 OA
ATOM      6  H   UNL A   1      34.503  30.179  25.176  1.00  0.00     0.163 HD
BRANCH   4   7
ATOM      7  C   UNL A   1      33.350  27.010  24.752  1.00  0.00     0.175 C 
BRANCH   7   8
ATOM      8  N   UNL A   1      32.911  26.241  23.599  1.00  0.00    -0.339 N 
ATOM      9  C   UNL A   1      31.753  26.176  22.874  1.00  0.00     0.263 C 
ATOM     10  O   UNL A   1      31.789  25.260  22.041  1.00  0.00    -0.268 OA
ATOM     11  H   UNL A   1      33.605  25.628  23.265  1.00  0.00     0.164 HD
BRANCH   9  12
ATOM     12  C   UNL A   1      30.595  27.059  23.005  1.00  0.00     0.115 A 
ATOM     13  C   UNL A   1      28.493  26.002  24.219  1.00  0.00     0.068 C 
ATOM     14  C   UNL A   1      29.306  27.045  23.543  1.00  0.00     0.062 A 
ATOM     15  N   UNL A   1      28.607  28.238  23.427  1.00  0.00    -0.241 NA
ATOM     16  C   UNL A   1      29.282  29.133  22.756  1.00  0.00     0.124 A 
ATOM     17  S   UNL A   1      30.821  28.635  22.245  1.00  0.00    -0.108 S 
BRANCH  16  18
ATOM     18  C   UNL A   1      28.761  30.465  22.480  1.00  0.00     0.010 A 
ATOM     19  C   UNL A   1      28.383  30.785  21.168  1.00  0.00     0.011 A 
ATOM     20  C   UNL A   1      28.763  31.468  23.458  1.00  0.00     0.011 A 
ATOM     21  C   UNL A   1      28.025  32.090  20.834  1.00  0.00     0.001 A 
ATOM     22  C   UNL A   1      28.414  32.776  23.118  1.00  0.00     0.001 A 
ATOM     23  C   UNL A   1      28.052  33.087  21.807  1.00  0.00     0.000 A 
ENDBRANCH  16  18
ENDBRANCH   9  12
ENDBRANCH   7   8
BRANCH   7  24
ATOM     24  C   UNL A   1      34.179  26.161  25.753  1.00  0.00     0.068 C 
BRANCH  24  25
ATOM     25  C   UNL A   1      33.887  24.696  25.854  1.00  0.00    -0.037 C 
ATOM     26  C   UNL A   1      32.746  24.073  26.149  1.00  0.00     0.001 A 
ATOM     27  C   UNL A   1      34.964  23.693  25.549  1.00  0.00     0.174 C 
ATOM     28  C   UNL A   1      31.426  24.480  26.509  1.00  0.00     0.010 A 
ATOM     29  C   UNL A   1      33.052  22.671  25.809  1.00  0.00     0.065 A 
ATOM     30  N   UNL A   1      34.274  22.385  25.482  1.00  0.00    -0.280 NA
ATOM     31  C   UNL A   1      30.432  23.581  26.442  1.00  0.00     0.001 A 
ATOM     32  C   UNL A   1      31.906  21.738  25.763  1.00  0.00     0.028 A 
ATOM     33  C   UNL A   1      30.677  22.207  26.035  1.00  0.00     0.002 A 
ENDBRANCH  24  25
ENDBRANCH   7  24
ENDBRANCH   4   7
ENDBRANCH   2   3
ENDBRANCH   1   2
BRANCH   1  34
ATOM     34  C   UNL A   1      31.248  31.636  26.500  1.00  0.00     0.023 C 
BRANCH  34  35
ATOM     35  C   UNL A   1      32.406  32.628  26.461  1.00  0.00     0.116 C 
BRANCH  35  36
ATOM     36  N   UNL A   1      32.181  33.827  27.255  1.00  0.00    -0.352 N 
ATOM     37  C   UNL A   1      32.902  34.298  28.333  1.00  0.00     0.251 C 
ATOM     38  H   UNL A   1      31.410  34.376  26.987  1.00  0.00     0.163 HD
ATOM     39  O   UNL A   1      32.512  35.266  28.974  1.00  0.00    -0.269 OA
BRANCH  37  40
ATOM     40  C   UNL A   1      34.136  33.585  28.722  1.00  0.00     0.039 A 
ATOM     41  C   UNL A   1      35.352  34.269  28.706  1.00  0.00     0.014 A 
ATOM     42  C   UNL A   1      34.064  32.271  29.189  1.00  0.00     0.014 A 
ATOM     43  C   UNL A   1      36.486  33.663  29.255  1.00  0.00     0.010 A 
ATOM     44  C   UNL A   1      35.170  31.706  29.814  1.00  0.00     0.010 A 
ATOM     45  C   UNL A   1      36.391  32.398  29.861  1.00  0.00    -0.014 A 
BRANCH  45  46
ATOM     46  C   UNL A   1      37.544  31.788  30.571  1.00  0.00     0.031 A 
ATOM     47  C   UNL A   1      38.373  30.730  29.894  1.00  0.00     0.074 A 
ATOM     48  C   UNL A   1      37.776  32.102  31.861  1.00  0.00     0.049 A 
ATOM     49  N   UNL A   1      39.367  30.030  30.374  1.00  0.00    -0.248 NA
ATOM     50  C   UNL A   1      38.015  30.388  28.507  1.00  0.00     0.031 C 
ATOM     51  C   UNL A   1      36.980  33.034  32.665  1.00  0.00     0.029 A 
ATOM     52  N   UNL A   1      38.732  31.648  32.737  1.00  0.00    -0.354 N 
ATOM     53  C   UNL A   1      39.722  29.139  29.370  1.00  0.00     0.074 A 
ATOM     54  C   UNL A   1      38.814  29.359  28.266  1.00  0.00     0.031 C 
ATOM     55  C   UNL A   1      37.486  33.090  33.908  1.00  0.00     0.029 A 
ATOM     56  C   UNL A   1      38.625  32.182  34.000  1.00  0.00     0.049 A 
ATOM     57  H   UNL A   1      39.429  31.001  32.484  1.00  0.00     0.167 HD
ATOM     58  C   UNL A   1      40.738  28.243  29.349  1.00  0.00     0.034 A 
ATOM     59  C   UNL A   1      39.363  31.967  35.108  1.00  0.00     0.034 A 
ATOM     60  C   UNL A   1      41.682  28.073  30.420  1.00  0.00     0.049 A 
ATOM     61  C   UNL A   1      40.536  31.027  35.032  1.00  0.00     0.074 A 
ATOM     62  C   UNL A   1      42.808  27.270  30.454  1.00  0.00     0.029 A 
ATOM     63  N   UNL A   1      41.613  28.721  31.642  1.00  0.00    -0.354 N 
ATOM     64  N   UNL A   1      40.963  30.323  34.012  1.00  0.00    -0.248 NA
ATOM     65  C   UNL A   1      41.353  30.882  36.245  1.00  0.00     0.031 C 
ATOM     66  C   UNL A   1      43.418  27.428  31.704  1.00  0.00     0.029 A 
ATOM     67  C   UNL A   1      42.676  28.339  32.441  1.00  0.00     0.049 A 
ATOM     68  H   UNL A   1      40.912  29.361  31.904  1.00  0.00     0.167 HD
ATOM     69  C   UNL A   1      42.116  29.681  34.448  1.00  0.00     0.074 A 
ATOM     70  C   UNL A   1      42.333  30.096  35.819  1.00  0.00     0.031 C 
ATOM     71  C   UNL A   1      42.914  28.811  33.781  1.00  0.00     0.034 A 
BRANCH  58  72
ATOM     72  C   UNL A   1      40.925  27.431  28.095  1.00  0.00     0.023 A 
ATOM     73  C   UNL A   1      41.506  28.037  26.962  1.00  0.00     0.012 A 
ATOM     74  C   UNL A   1      40.575  26.068  28.047  1.00  0.00     0.148 A 
ATOM     75  C   UNL A   1      41.703  27.309  25.789  1.00  0.00     0.002 A 
ATOM     76  C   UNL A   1      40.814  25.339  26.888  1.00  0.00     0.091 A 
ATOM     77  F   UNL A   1      40.001  25.515  29.125  1.00  0.00    -0.205 F 
ATOM     78  C   UNL A   1      41.367  25.960  25.755  1.00  0.00     0.022 A 
BRANCH  76  79
ATOM     79  S   UNL A   1      40.487  23.575  26.770  1.00  0.00     0.127 S 
ATOM     80  O   UNL A   1      39.090  23.562  26.341  1.00  0.00    -0.237 OA
ATOM     81  O   UNL A   1      41.443  23.151  25.747  1.00  0.00    -0.237 OA
ATOM     82  O   UNL A   1      40.742  23.033  28.097  1.00  0.00    -0.744 OA
ENDBRANCH  76  79
ENDBRANCH  58  72
BRANCH  59  83
ATOM     83  C   UNL A   1      39.072  32.728  36.357  1.00  0.00     0.023 A 
ATOM     84  C   UNL A   1      39.605  34.022  36.510  1.00  0.00     0.012 A 
ATOM     85  C   UNL A   1      38.253  32.198  37.372  1.00  0.00     0.148 A 
ATOM     86  C   UNL A   1      39.355  34.764  37.666  1.00  0.00     0.002 A 
ATOM     87  C   UNL A   1      37.965  32.963  38.498  1.00  0.00     0.091 A 
ATOM     88  F   UNL A   1      37.765  30.959  37.215  1.00  0.00    -0.205 F 
ATOM     89  C   UNL A   1      38.528  34.239  38.655  1.00  0.00     0.022 A 
BRANCH  87  90
ATOM     90  S   UNL A   1      36.803  32.418  39.756  1.00  0.00     0.127 S 
ATOM     91  O   UNL A   1      35.564  32.304  38.991  1.00  0.00    -0.237 OA
ATOM     92  O   UNL A   1      37.386  31.144  40.178  1.00  0.00    -0.237 OA
ATOM     93  O   UNL A   1      36.827  33.452  40.781  1.00  0.00    -0.744 OA
ENDBRANCH  87  90
ENDBRANCH  59  83
BRANCH  71  94
ATOM     94  C   UNL A   1      44.118  28.270  34.504  1.00  0.00     0.023 A 
ATOM     95  C   UNL A   1      45.326  28.994  34.484  1.00  0.00     0.012 A 
ATOM     96  C   UNL A   1      44.030  27.090  35.268  1.00  0.00     0.148 A 
ATOM     97  C   UNL A   1      46.437  28.538  35.193  1.00  0.00     0.002 A 
ATOM     98  C   UNL A   1      45.127  26.665  36.008  1.00  0.00     0.091 A 
ATOM     99  F   UNL A   1      42.878  26.403  35.256  1.00  0.00    -0.205 F 
ATOM    100  C   UNL A   1      46.334  27.381  35.963  1.00  0.00     0.022 A 
BRANCH  98 101
ATOM    101  S   UNL A   1      45.051  25.240  37.099  1.00  0.00     0.127 S 
ATOM    102  O   UNL A   1      44.668  24.175  36.174  1.00  0.00    -0.237 OA
ATOM    103  O   UNL A   1      46.424  25.152  37.597  1.00  0.00    -0.237 OA
ATOM    104  O   UNL A   1      44.064  25.574  38.118  1.00  0.00    -0.744 OA
ENDBRANCH  98 101
ENDBRANCH  71  94
ENDBRANCH  45  46
ENDBRANCH  37  40
ENDBRANCH  35  36
ENDBRANCH  34  35
ENDBRANCH   1  34
TORSDOF 19
ENDMDL
