MODEL 1
REMARK VINA RESULT:     -11.3      0.000      0.000
REMARK SMILES O=C(CCN1C(=O)/C(=C2/C(=O)N(Cc3ccccc3)c3ccccc32)SC1=S)NCCCCNC(=O)c1ccc(-c2c3nc(c(-c4cccc(S(=O)(=O)[O-])c4F)c4ccc([nH]4)c(-c4cccc(S(=O)(=O)[O-])c4F)c4nc(c(-c5cccc(S(=O)(=O)[O-])c5F)c5ccc2[nH]5)C=C4)C=C3)cc1
REMARK SMILES IDX 31 1 30 2 29 3 1 4 2 5 3 7 4 8 5 9 6 10 27 11 7 12 8 13
REMARK SMILES IDX 26 14 28 15 9 16 10 17 25 18 11 19 12 20 20 21 24 22 21 23
REMARK SMILES IDX 23 24 22 25 13 26 14 27 15 28 19 29 16 30 18 31 17 32 32 33
REMARK SMILES IDX 33 34 34 35 35 36 36 38 37 39 38 40 99 41 39 42 98 43 40 44
REMARK SMILES IDX 41 45 42 46 92 47 43 48 97 49 91 50 93 51 44 52 96 53 90 54
REMARK SMILES IDX 89 55 45 57 77 58 57 59 76 60 58 61 61 62 75 63 94 64 59 65
REMARK SMILES IDX 60 66 74 68 95 69 62 70 46 71 47 72 55 73 48 74 50 75 56 76
REMARK SMILES IDX 49 77 51 78 52 79 53 80 54 81 78 82 79 83 87 84 80 85 82 86
REMARK SMILES IDX 88 87 81 88 83 89 84 90 85 91 86 92 63 93 64 94 72 95 65 96
REMARK SMILES IDX 67 97 73 98 66 99 68 100 69 101 70 102 71 103
REMARK H PARENT 29 6 34 37 93 56 61 67
REMARK Flexibility Score: inf
ROOT
ATOM      1  C   UNL A   1      39.227  22.381  26.504  1.00  0.00     0.023 C 
ENDROOT
BRANCH   1   2
ATOM      2  C   UNL A   1      38.669  21.474  25.408  1.00  0.00     0.116 C 
BRANCH   2   3
ATOM      3  N   UNL A   1      37.519  22.055  24.739  1.00  0.00    -0.356 N 
ATOM      4  O   UNL A   1      36.073  20.376  25.294  1.00  0.00    -0.275 OA
ATOM      5  C   UNL A   1      36.294  21.440  24.718  1.00  0.00     0.221 C 
ATOM      6  H   UNL A   1      37.623  22.921  24.282  1.00  0.00     0.163 HD
BRANCH   5   7
ATOM      7  C   UNL A   1      35.218  22.078  23.867  1.00  0.00     0.122 C 
BRANCH   7   8
ATOM      8  C   UNL A   1      33.763  21.749  24.171  1.00  0.00     0.137 C 
BRANCH   8   9
ATOM      9  N   UNL A   1      32.937  22.649  24.996  1.00  0.00    -0.292 N 
ATOM     10  C   UNL A   1      32.423  23.775  24.352  1.00  0.00     0.267 C 
ATOM     11  C   UNL A   1      32.768  22.650  26.365  1.00  0.00     0.148 C 
ATOM     12  O   UNL A   1      32.267  23.881  23.145  1.00  0.00    -0.268 OA
ATOM     13  C   UNL A   1      32.042  24.810  25.349  1.00  0.00     0.093 C 
ATOM     14  S   UNL A   1      31.665  23.949  26.799  1.00  0.00    -0.053 SA
ATOM     15  S   UNL A   1      33.435  21.667  27.528  1.00  0.00    -0.052 S 
ATOM     16  C   UNL A   1      32.175  26.141  25.220  1.00  0.00     0.069 C 
ATOM     17  C   UNL A   1      31.805  27.117  26.322  1.00  0.00     0.260 C 
ATOM     18  C   UNL A   1      32.744  26.951  24.126  1.00  0.00     0.012 A 
ATOM     19  O   UNL A   1      31.319  26.843  27.406  1.00  0.00    -0.269 OA
ATOM     20  N   UNL A   1      32.140  28.374  25.837  1.00  0.00    -0.303 N 
ATOM     21  C   UNL A   1      32.634  28.290  24.524  1.00  0.00     0.052 A 
ATOM     22  C   UNL A   1      33.395  26.648  22.937  1.00  0.00     0.011 A 
ATOM     23  C   UNL A   1      33.025  29.330  23.696  1.00  0.00     0.027 A 
ATOM     24  C   UNL A   1      33.873  27.690  22.133  1.00  0.00     0.001 A 
ATOM     25  C   UNL A   1      33.671  29.023  22.500  1.00  0.00     0.002 A 
BRANCH  20  26
ATOM     26  C   UNL A   1      32.071  29.580  26.646  1.00  0.00     0.161 C 
BRANCH  26  27
ATOM     27  C   UNL A   1      33.416  30.037  27.193  1.00  0.00    -0.028 A 
ATOM     28  C   UNL A   1      34.480  29.141  27.380  1.00  0.00     0.005 A 
ATOM     29  C   UNL A   1      33.648  31.391  27.480  1.00  0.00     0.005 A 
ATOM     30  C   UNL A   1      35.722  29.567  27.858  1.00  0.00     0.000 A 
ATOM     31  C   UNL A   1      34.900  31.824  27.936  1.00  0.00     0.000 A 
ATOM     32  C   UNL A   1      35.933  30.911  28.132  1.00  0.00     0.000 A 
ENDBRANCH  26  27
ENDBRANCH  20  26
ENDBRANCH   8   9
ENDBRANCH   7   8
ENDBRANCH   5   7
ENDBRANCH   2   3
ENDBRANCH   1   2
BRANCH   1  33
ATOM     33  C   UNL A   1      38.652  23.798  26.542  1.00  0.00     0.023 C 
BRANCH  33  34
ATOM     34  C   UNL A   1      39.658  24.917  26.777  1.00  0.00     0.116 C 
BRANCH  34  35
ATOM     35  N   UNL A   1      40.761  24.913  25.829  1.00  0.00    -0.352 N 
ATOM     36  C   UNL A   1      41.770  25.838  25.664  1.00  0.00     0.251 C 
ATOM     37  H   UNL A   1      40.791  24.141  25.219  1.00  0.00     0.163 HD
ATOM     38  O   UNL A   1      42.551  25.725  24.723  1.00  0.00    -0.269 OA
BRANCH  36  39
ATOM     39  C   UNL A   1      41.881  26.987  26.593  1.00  0.00     0.039 A 
ATOM     40  C   UNL A   1      41.224  28.190  26.325  1.00  0.00     0.014 A 
ATOM     41  C   UNL A   1      42.693  26.874  27.725  1.00  0.00     0.014 A 
ATOM     42  C   UNL A   1      41.535  29.325  27.066  1.00  0.00     0.010 A 
ATOM     43  C   UNL A   1      42.927  27.995  28.528  1.00  0.00     0.010 A 
ATOM     44  C   UNL A   1      42.400  29.246  28.170  1.00  0.00    -0.014 A 
BRANCH  44  45
ATOM     45  C   UNL A   1      42.745  30.483  28.924  1.00  0.00     0.031 A 
ATOM     46  C   UNL A   1      43.868  31.381  28.471  1.00  0.00     0.074 A 
ATOM     47  C   UNL A   1      42.017  30.825  30.004  1.00  0.00     0.049 A 
ATOM     48  N   UNL A   1      44.301  32.492  29.013  1.00  0.00    -0.248 NA
ATOM     49  C   UNL A   1      44.608  30.979  27.263  1.00  0.00     0.031 C 
ATOM     50  C   UNL A   1      40.914  30.039  30.559  1.00  0.00     0.029 A 
ATOM     51  N   UNL A   1      42.087  31.924  30.823  1.00  0.00    -0.354 N 
ATOM     52  C   UNL A   1      45.370  32.909  28.228  1.00  0.00     0.074 A 
ATOM     53  C   UNL A   1      45.543  31.917  27.191  1.00  0.00     0.031 C 
ATOM     54  C   UNL A   1      40.393  30.691  31.607  1.00  0.00     0.029 A 
ATOM     55  C   UNL A   1      41.156  31.915  31.833  1.00  0.00     0.049 A 
ATOM     56  H   UNL A   1      42.743  32.648  30.699  1.00  0.00     0.167 HD
ATOM     57  C   UNL A   1      46.120  34.031  28.340  1.00  0.00     0.034 A 
ATOM     58  C   UNL A   1      40.942  32.780  32.844  1.00  0.00     0.034 A 
ATOM     59  C   UNL A   1      45.926  35.042  29.344  1.00  0.00     0.049 A 
ATOM     60  C   UNL A   1      41.793  34.007  32.963  1.00  0.00     0.074 A 
ATOM     61  C   UNL A   1      46.622  36.225  29.515  1.00  0.00     0.029 A 
ATOM     62  N   UNL A   1      44.964  34.995  30.342  1.00  0.00    -0.354 N 
ATOM     63  N   UNL A   1      42.760  34.411  32.176  1.00  0.00    -0.248 NA
ATOM     64  C   UNL A   1      41.518  34.908  34.091  1.00  0.00     0.031 C 
ATOM     65  C   UNL A   1      46.090  36.890  30.624  1.00  0.00     0.029 A 
ATOM     66  C   UNL A   1      45.050  36.129  31.131  1.00  0.00     0.049 A 
ATOM     67  H   UNL A   1      44.317  34.265  30.469  1.00  0.00     0.167 HD
ATOM     68  C   UNL A   1      43.203  35.617  32.704  1.00  0.00     0.074 A 
ATOM     69  C   UNL A   1      42.387  35.888  33.869  1.00  0.00     0.031 C 
ATOM     70  C   UNL A   1      44.207  36.414  32.265  1.00  0.00     0.034 A 
BRANCH  57  71
ATOM     71  C   UNL A   1      47.194  34.264  27.311  1.00  0.00     0.023 A 
ATOM     72  C   UNL A   1      46.888  35.010  26.156  1.00  0.00     0.012 A 
ATOM     73  C   UNL A   1      48.515  33.820  27.521  1.00  0.00     0.148 A 
ATOM     74  C   UNL A   1      47.876  35.297  25.213  1.00  0.00     0.002 A 
ATOM     75  C   UNL A   1      49.501  34.136  26.592  1.00  0.00     0.091 A 
ATOM     76  F   UNL A   1      48.781  33.105  28.622  1.00  0.00    -0.205 F 
ATOM     77  C   UNL A   1      49.182  34.869  25.437  1.00  0.00     0.022 A 
BRANCH  75  78
ATOM     78  S   UNL A   1      51.225  33.676  26.804  1.00  0.00     0.127 S 
ATOM     79  O   UNL A   1      51.575  34.402  28.025  1.00  0.00    -0.237 OA
ATOM     80  O   UNL A   1      51.138  32.224  26.963  1.00  0.00    -0.237 OA
ATOM     81  O   UNL A   1      51.913  34.120  25.601  1.00  0.00    -0.744 OA
ENDBRANCH  75  78
ENDBRANCH  57  71
BRANCH  58  82
ATOM     82  C   UNL A   1      39.831  32.500  33.790  1.00  0.00     0.023 A 
ATOM     83  C   UNL A   1      40.093  31.783  34.971  1.00  0.00     0.012 A 
ATOM     84  C   UNL A   1      38.554  33.059  33.585  1.00  0.00     0.148 A 
ATOM     85  C   UNL A   1      39.101  31.634  35.941  1.00  0.00     0.002 A 
ATOM     86  C   UNL A   1      37.584  32.941  34.572  1.00  0.00     0.091 A 
ATOM     87  F   UNL A   1      38.338  33.743  32.452  1.00  0.00    -0.205 F 
ATOM     88  C   UNL A   1      37.854  32.224  35.748  1.00  0.00     0.022 A 
BRANCH  86  89
ATOM     89  S   UNL A   1      35.987  33.756  34.466  1.00  0.00     0.127 S 
ATOM     90  O   UNL A   1      35.635  33.904  35.876  1.00  0.00    -0.237 OA
ATOM     91  O   UNL A   1      36.337  35.002  33.785  1.00  0.00    -0.237 OA
ATOM     92  O   UNL A   1      35.132  32.859  33.702  1.00  0.00    -0.744 OA
ENDBRANCH  86  89
ENDBRANCH  58  82
BRANCH  70  93
ATOM     93  C   UNL A   1      44.493  37.679  33.026  1.00  0.00     0.023 A 
ATOM     94  C   UNL A   1      45.457  37.667  34.051  1.00  0.00     0.012 A 
ATOM     95  C   UNL A   1      43.910  38.899  32.632  1.00  0.00     0.148 A 
ATOM     96  C   UNL A   1      45.836  38.853  34.678  1.00  0.00     0.002 A 
ATOM     97  C   UNL A   1      44.315  40.082  33.238  1.00  0.00     0.091 A 
ATOM     98  F   UNL A   1      42.991  38.881  31.656  1.00  0.00    -0.205 F 
ATOM     99  C   UNL A   1      45.276  40.060  34.264  1.00  0.00     0.022 A 
BRANCH  97 100
ATOM    100  S   UNL A   1      43.703  41.693  32.732  1.00  0.00     0.127 S 
ATOM    101  O   UNL A   1      44.421  42.583  33.644  1.00  0.00    -0.237 OA
ATOM    102  O   UNL A   1      44.140  41.766  31.339  1.00  0.00    -0.237 OA
ATOM    103  O   UNL A   1      42.259  41.656  32.919  1.00  0.00    -0.744 OA
ENDBRANCH  97 100
ENDBRANCH  70  93
ENDBRANCH  44  45
ENDBRANCH  36  39
ENDBRANCH  34  35
ENDBRANCH  33  34
ENDBRANCH   1  33
TORSDOF 18
ENDMDL
MODEL 2
REMARK VINA RESULT:     -11.2      1.074      7.402
REMARK SMILES O=C(CCN1C(=O)/C(=C2/C(=O)N(Cc3ccccc3)c3ccccc32)SC1=S)NCCCCNC(=O)c1ccc(-c2c3nc(c(-c4cccc(S(=O)(=O)[O-])c4F)c4ccc([nH]4)c(-c4cccc(S(=O)(=O)[O-])c4F)c4nc(c(-c5cccc(S(=O)(=O)[O-])c5F)c5ccc2[nH]5)C=C4)C=C3)cc1
REMARK SMILES IDX 31 1 30 2 29 3 1 4 2 5 3 7 4 8 5 9 6 10 27 11 7 12 8 13
REMARK SMILES IDX 26 14 28 15 9 16 10 17 25 18 11 19 12 20 20 21 24 22 21 23
REMARK SMILES IDX 23 24 22 25 13 26 14 27 15 28 19 29 16 30 18 31 17 32 32 33
REMARK SMILES IDX 33 34 34 35 35 36 36 38 37 39 38 40 99 41 39 42 98 43 40 44
REMARK SMILES IDX 41 45 42 46 92 47 43 48 97 49 91 50 93 51 44 52 96 53 90 54
REMARK SMILES IDX 89 55 45 57 77 58 57 59 76 60 58 61 61 62 75 63 94 64 59 65
REMARK SMILES IDX 60 66 74 68 95 69 62 70 46 71 47 72 55 73 48 74 50 75 56 76
REMARK SMILES IDX 49 77 51 78 52 79 53 80 54 81 78 82 79 83 87 84 80 85 82 86
REMARK SMILES IDX 88 87 81 88 83 89 84 90 85 91 86 92 63 93 64 94 72 95 65 96
REMARK SMILES IDX 67 97 73 98 66 99 68 100 69 101 70 102 71 103
REMARK H PARENT 29 6 34 37 93 56 61 67
REMARK Flexibility Score: inf
ROOT
ATOM      1  C   UNL A   1      39.717  22.636  27.007  1.00  0.00     0.023 C 
ENDROOT
BRANCH   1   2
ATOM      2  C   UNL A   1      39.064  21.635  26.054  1.00  0.00     0.116 C 
BRANCH   2   3
ATOM      3  N   UNL A   1      37.918  22.196  25.361  1.00  0.00    -0.356 N 
ATOM      4  O   UNL A   1      36.880  20.192  25.002  1.00  0.00    -0.275 OA
ATOM      5  C   UNL A   1      36.907  21.414  24.865  1.00  0.00     0.221 C 
ATOM      6  H   UNL A   1      37.866  23.171  25.243  1.00  0.00     0.163 HD
BRANCH   5   7
ATOM      7  C   UNL A   1      35.844  22.107  24.039  1.00  0.00     0.122 C 
BRANCH   7   8
ATOM      8  C   UNL A   1      34.394  21.687  24.228  1.00  0.00     0.137 C 
BRANCH   8   9
ATOM      9  N   UNL A   1      33.456  22.521  25.002  1.00  0.00    -0.292 N 
ATOM     10  C   UNL A   1      32.864  23.581  24.314  1.00  0.00     0.267 C 
ATOM     11  C   UNL A   1      33.236  22.533  26.364  1.00  0.00     0.148 C 
ATOM     12  O   UNL A   1      32.744  23.648  23.100  1.00  0.00    -0.268 OA
ATOM     13  C   UNL A   1      32.351  24.595  25.273  1.00  0.00     0.093 C 
ATOM     14  S   UNL A   1      32.001  23.731  26.728  1.00  0.00    -0.053 SA
ATOM     15  S   UNL A   1      33.947  21.640  27.572  1.00  0.00    -0.052 S 
ATOM     16  C   UNL A   1      32.363  25.930  25.119  1.00  0.00     0.069 C 
ATOM     17  C   UNL A   1      31.863  26.888  26.184  1.00  0.00     0.260 C 
ATOM     18  C   UNL A   1      32.895  26.768  24.027  1.00  0.00     0.012 A 
ATOM     19  O   UNL A   1      31.364  26.591  27.255  1.00  0.00    -0.269 OA
ATOM     20  N   UNL A   1      32.096  28.161  25.682  1.00  0.00    -0.303 N 
ATOM     21  C   UNL A   1      32.645  28.099  24.391  1.00  0.00     0.052 A 
ATOM     22  C   UNL A   1      33.616  26.505  22.870  1.00  0.00     0.011 A 
ATOM     23  C   UNL A   1      32.969  29.155  23.553  1.00  0.00     0.027 A 
ATOM     24  C   UNL A   1      34.025  27.572  22.060  1.00  0.00     0.001 A 
ATOM     25  C   UNL A   1      33.685  28.887  22.389  1.00  0.00     0.002 A 
BRANCH  20  26
ATOM     26  C   UNL A   1      31.884  29.371  26.461  1.00  0.00     0.161 C 
BRANCH  26  27
ATOM     27  C   UNL A   1      33.162  29.976  27.026  1.00  0.00    -0.028 A 
ATOM     28  C   UNL A   1      34.325  29.211  27.204  1.00  0.00     0.005 A 
ATOM     29  C   UNL A   1      33.227  31.342  27.340  1.00  0.00     0.005 A 
ATOM     30  C   UNL A   1      35.504  29.774  27.699  1.00  0.00     0.000 A 
ATOM     31  C   UNL A   1      34.416  31.914  27.813  1.00  0.00     0.000 A 
ATOM     32  C   UNL A   1      35.551  31.128  28.000  1.00  0.00     0.000 A 
ENDBRANCH  26  27
ENDBRANCH  20  26
ENDBRANCH   8   9
ENDBRANCH   7   8
ENDBRANCH   5   7
ENDBRANCH   2   3
ENDBRANCH   1   2
BRANCH   1  33
ATOM     33  C   UNL A   1      39.278  24.091  26.836  1.00  0.00     0.023 C 
BRANCH  33  34
ATOM     34  C   UNL A   1      40.385  25.088  26.520  1.00  0.00     0.116 C 
BRANCH  34  35
ATOM     35  N   UNL A   1      41.483  24.511  25.760  1.00  0.00    -0.352 N 
ATOM     36  C   UNL A   1      42.697  25.073  25.422  1.00  0.00     0.251 C 
ATOM     37  H   UNL A   1      41.340  23.591  25.443  1.00  0.00     0.163 HD
ATOM     38  O   UNL A   1      43.455  24.471  24.667  1.00  0.00    -0.269 OA
BRANCH  36  39
ATOM     39  C   UNL A   1      43.059  26.416  25.932  1.00  0.00     0.039 A 
ATOM     40  C   UNL A   1      43.976  26.561  26.976  1.00  0.00     0.014 A 
ATOM     41  C   UNL A   1      42.436  27.543  25.391  1.00  0.00     0.014 A 
ATOM     42  C   UNL A   1      44.115  27.794  27.604  1.00  0.00     0.010 A 
ATOM     43  C   UNL A   1      42.654  28.801  25.963  1.00  0.00     0.010 A 
ATOM     44  C   UNL A   1      43.447  28.928  27.114  1.00  0.00    -0.014 A 
BRANCH  44  45
ATOM     45  C   UNL A   1      43.584  30.228  27.827  1.00  0.00     0.031 A 
ATOM     46  C   UNL A   1      42.612  30.628  28.908  1.00  0.00     0.074 A 
ATOM     47  C   UNL A   1      44.616  31.041  27.529  1.00  0.00     0.049 A 
ATOM     48  N   UNL A   1      42.586  31.724  29.625  1.00  0.00    -0.248 NA
ATOM     49  C   UNL A   1      41.525  29.685  29.220  1.00  0.00     0.031 C 
ATOM     50  C   UNL A   1      45.618  30.784  26.494  1.00  0.00     0.029 A 
ATOM     51  N   UNL A   1      44.998  32.243  28.071  1.00  0.00    -0.354 N 
ATOM     52  C   UNL A   1      41.476  31.612  30.454  1.00  0.00     0.074 A 
ATOM     53  C   UNL A   1      40.833  30.357  30.131  1.00  0.00     0.031 C 
ATOM     54  C   UNL A   1      46.516  31.779  26.495  1.00  0.00     0.029 A 
ATOM     55  C   UNL A   1      46.125  32.772  27.491  1.00  0.00     0.049 A 
ATOM     56  H   UNL A   1      44.510  32.684  28.804  1.00  0.00     0.167 HD
ATOM     57  C   UNL A   1      41.046  32.460  31.418  1.00  0.00     0.034 A 
ATOM     58  C   UNL A   1      46.771  33.933  27.715  1.00  0.00     0.034 A 
ATOM     59  C   UNL A   1      41.704  33.688  31.773  1.00  0.00     0.049 A 
ATOM     60  C   UNL A   1      46.271  34.868  28.774  1.00  0.00     0.074 A 
ATOM     61  C   UNL A   1      41.353  34.596  32.757  1.00  0.00     0.029 A 
ATOM     62  N   UNL A   1      42.848  34.180  31.165  1.00  0.00    -0.354 N 
ATOM     63  N   UNL A   1      45.253  34.715  29.586  1.00  0.00    -0.248 NA
ATOM     64  C   UNL A   1      47.011  36.122  28.966  1.00  0.00     0.031 C 
ATOM     65  C   UNL A   1      42.279  35.643  32.737  1.00  0.00     0.029 A 
ATOM     66  C   UNL A   1      43.216  35.378  31.753  1.00  0.00     0.049 A 
ATOM     67  H   UNL A   1      43.328  33.741  30.425  1.00  0.00     0.167 HD
ATOM     68  C   UNL A   1      45.235  35.845  30.392  1.00  0.00     0.074 A 
ATOM     69  C   UNL A   1      46.355  36.668  29.984  1.00  0.00     0.031 C 
ATOM     70  C   UNL A   1      44.356  36.172  31.370  1.00  0.00     0.034 A 
BRANCH  57  71
ATOM     71  C   UNL A   1      39.829  32.064  32.211  1.00  0.00     0.023 A 
ATOM     72  C   UNL A   1      39.991  31.288  33.377  1.00  0.00     0.012 A 
ATOM     73  C   UNL A   1      38.544  32.520  31.855  1.00  0.00     0.148 A 
ATOM     74  C   UNL A   1      38.891  30.957  34.168  1.00  0.00     0.002 A 
ATOM     75  C   UNL A   1      37.456  32.211  32.665  1.00  0.00     0.091 A 
ATOM     76  F   UNL A   1      38.413  33.248  30.737  1.00  0.00    -0.205 F 
ATOM     77  C   UNL A   1      37.628  31.426  33.817  1.00  0.00     0.022 A 
BRANCH  75  78
ATOM     78  S   UNL A   1      35.793  32.804  32.332  1.00  0.00     0.127 S 
ATOM     79  O   UNL A   1      35.166  32.672  33.647  1.00  0.00    -0.237 OA
ATOM     80  O   UNL A   1      36.038  34.184  31.909  1.00  0.00    -0.237 OA
ATOM     81  O   UNL A   1      35.253  31.934  31.298  1.00  0.00    -0.744 OA
ENDBRANCH  75  78
ENDBRANCH  57  71
BRANCH  58  82
ATOM     82  C   UNL A   1      47.992  34.228  26.921  1.00  0.00     0.023 A 
ATOM     83  C   UNL A   1      47.873  34.913  25.699  1.00  0.00     0.012 A 
ATOM     84  C   UNL A   1      49.272  33.949  27.440  1.00  0.00     0.148 A 
ATOM     85  C   UNL A   1      49.011  35.328  25.008  1.00  0.00     0.002 A 
ATOM     86  C   UNL A   1      50.400  34.400  26.768  1.00  0.00     0.091 A 
ATOM     87  F   UNL A   1      49.351  33.301  28.610  1.00  0.00    -0.205 F 
ATOM     88  C   UNL A   1      50.272  35.085  25.548  1.00  0.00     0.022 A 
BRANCH  86  89
ATOM     89  S   UNL A   1      52.059  34.233  27.435  1.00  0.00     0.127 S 
ATOM     90  O   UNL A   1      52.851  34.966  26.450  1.00  0.00    -0.237 OA
ATOM     91  O   UNL A   1      51.923  34.895  28.732  1.00  0.00    -0.237 OA
ATOM     92  O   UNL A   1      52.320  32.802  27.501  1.00  0.00    -0.744 OA
ENDBRANCH  86  89
ENDBRANCH  58  82
BRANCH  70  93
ATOM     93  C   UNL A   1      44.557  37.471  32.100  1.00  0.00     0.023 A 
ATOM     94  C   UNL A   1      45.305  37.486  33.293  1.00  0.00     0.012 A 
ATOM     95  C   UNL A   1      44.126  38.686  31.533  1.00  0.00     0.148 A 
ATOM     96  C   UNL A   1      45.619  38.694  33.914  1.00  0.00     0.002 A 
ATOM     97  C   UNL A   1      44.468  39.888  32.140  1.00  0.00     0.091 A 
ATOM     98  F   UNL A   1      43.410  38.641  30.400  1.00  0.00    -0.205 F 
ATOM     99  C   UNL A   1      45.212  39.894  33.332  1.00  0.00     0.022 A 
BRANCH  97 100
ATOM    100  S   UNL A   1      44.050  41.486  31.435  1.00  0.00     0.127 S 
ATOM    101  O   UNL A   1      44.728  41.427  30.140  1.00  0.00    -0.237 OA
ATOM    102  O   UNL A   1      42.591  41.419  31.362  1.00  0.00    -0.237 OA
ATOM    103  O   UNL A   1      44.571  42.485  32.358  1.00  0.00    -0.744 OA
ENDBRANCH  97 100
ENDBRANCH  70  93
ENDBRANCH  44  45
ENDBRANCH  36  39
ENDBRANCH  34  35
ENDBRANCH  33  34
ENDBRANCH   1  33
TORSDOF 18
ENDMDL
MODEL 3
REMARK VINA RESULT:     -10.8     10.823     15.444
REMARK SMILES O=C(CCN1C(=O)/C(=C2/C(=O)N(Cc3ccccc3)c3ccccc32)SC1=S)NCCCCNC(=O)c1ccc(-c2c3nc(c(-c4cccc(S(=O)(=O)[O-])c4F)c4ccc([nH]4)c(-c4cccc(S(=O)(=O)[O-])c4F)c4nc(c(-c5cccc(S(=O)(=O)[O-])c5F)c5ccc2[nH]5)C=C4)C=C3)cc1
REMARK SMILES IDX 31 1 30 2 29 3 1 4 2 5 3 7 4 8 5 9 6 10 27 11 7 12 8 13
REMARK SMILES IDX 26 14 28 15 9 16 10 17 25 18 11 19 12 20 20 21 24 22 21 23
REMARK SMILES IDX 23 24 22 25 13 26 14 27 15 28 19 29 16 30 18 31 17 32 32 33
REMARK SMILES IDX 33 34 34 35 35 36 36 38 37 39 38 40 99 41 39 42 98 43 40 44
REMARK SMILES IDX 41 45 42 46 92 47 43 48 97 49 91 50 93 51 44 52 96 53 90 54
REMARK SMILES IDX 89 55 45 57 77 58 57 59 76 60 58 61 61 62 75 63 94 64 59 65
REMARK SMILES IDX 60 66 74 68 95 69 62 70 46 71 47 72 55 73 48 74 50 75 56 76
REMARK SMILES IDX 49 77 51 78 52 79 53 80 54 81 78 82 79 83 87 84 80 85 82 86
REMARK SMILES IDX 88 87 81 88 83 89 84 90 85 91 86 92 63 93 64 94 72 95 65 96
REMARK SMILES IDX 67 97 73 98 66 99 68 100 69 101 70 102 71 103
REMARK H PARENT 29 6 34 37 93 56 61 67
REMARK Flexibility Score: inf
ROOT
ATOM      1  C   UNL A   1      45.486  23.798  38.650  1.00  0.00     0.023 C 
ENDROOT
BRANCH   1   2
ATOM      2  C   UNL A   1      46.711  22.883  38.650  1.00  0.00     0.116 C 
BRANCH   2   3
ATOM      3  N   UNL A   1      46.353  21.479  38.558  1.00  0.00    -0.356 N 
ATOM      4  O   UNL A   1      48.470  20.746  38.107  1.00  0.00    -0.275 OA
ATOM      5  C   UNL A   1      47.275  20.505  38.270  1.00  0.00     0.221 C 
ATOM      6  H   UNL A   1      45.416  21.217  38.706  1.00  0.00     0.163 HD
BRANCH   5   7
ATOM      7  C   UNL A   1      46.749  19.101  38.061  1.00  0.00     0.122 C 
BRANCH   7   8
ATOM      8  C   UNL A   1      46.754  18.143  39.243  1.00  0.00     0.137 C 
BRANCH   8   9
ATOM      9  N   UNL A   1      45.497  17.727  39.891  1.00  0.00    -0.292 N 
ATOM     10  C   UNL A   1      45.476  17.780  41.284  1.00  0.00     0.267 C 
ATOM     11  C   UNL A   1      44.408  17.093  39.329  1.00  0.00     0.148 C 
ATOM     12  O   UNL A   1      46.212  18.474  41.970  1.00  0.00    -0.268 OA
ATOM     13  C   UNL A   1      44.392  16.913  41.817  1.00  0.00     0.093 C 
ATOM     14  S   UNL A   1      43.193  16.844  40.575  1.00  0.00    -0.053 SA
ATOM     15  S   UNL A   1      44.152  16.584  37.768  1.00  0.00    -0.052 S 
ATOM     16  C   UNL A   1      44.433  16.164  42.932  1.00  0.00     0.069 C 
ATOM     17  C   UNL A   1      43.288  15.266  43.365  1.00  0.00     0.260 C 
ATOM     18  C   UNL A   1      45.519  15.947  43.908  1.00  0.00     0.012 A 
ATOM     19  O   UNL A   1      42.210  15.141  42.810  1.00  0.00    -0.269 OA
ATOM     20  N   UNL A   1      43.731  14.623  44.513  1.00  0.00    -0.303 N 
ATOM     21  C   UNL A   1      45.015  15.063  44.872  1.00  0.00     0.052 A 
ATOM     22  C   UNL A   1      46.848  16.343  43.977  1.00  0.00     0.011 A 
ATOM     23  C   UNL A   1      45.764  14.689  45.977  1.00  0.00     0.027 A 
ATOM     24  C   UNL A   1      47.639  15.898  45.044  1.00  0.00     0.001 A 
ATOM     25  C   UNL A   1      47.095  15.094  46.048  1.00  0.00     0.002 A 
BRANCH  20  26
ATOM     26  C   UNL A   1      42.979  13.564  45.168  1.00  0.00     0.161 C 
BRANCH  26  27
ATOM     27  C   UNL A   1      43.026  12.228  44.440  1.00  0.00    -0.028 A 
ATOM     28  C   UNL A   1      44.187  11.439  44.420  1.00  0.00     0.005 A 
ATOM     29  C   UNL A   1      41.883  11.720  43.804  1.00  0.00     0.005 A 
ATOM     30  C   UNL A   1      44.221  10.202  43.772  1.00  0.00     0.000 A 
ATOM     31  C   UNL A   1      41.908  10.468  43.175  1.00  0.00     0.000 A 
ATOM     32  C   UNL A   1      43.079   9.713  43.153  1.00  0.00     0.000 A 
ENDBRANCH  26  27
ENDBRANCH  20  26
ENDBRANCH   8   9
ENDBRANCH   7   8
ENDBRANCH   5   7
ENDBRANCH   2   3
ENDBRANCH   1   2
BRANCH   1  33
ATOM     33  C   UNL A   1      45.673  25.147  39.345  1.00  0.00     0.023 C 
BRANCH  33  34
ATOM     34  C   UNL A   1      46.081  26.308  38.446  1.00  0.00     0.116 C 
BRANCH  34  35
ATOM     35  N   UNL A   1      47.353  26.098  37.771  1.00  0.00    -0.352 N 
ATOM     36  C   UNL A   1      47.646  26.166  36.426  1.00  0.00     0.251 C 
ATOM     37  H   UNL A   1      48.110  25.876  38.359  1.00  0.00     0.163 HD
ATOM     38  O   UNL A   1      48.760  25.837  36.028  1.00  0.00    -0.269 OA
BRANCH  36  39
ATOM     39  C   UNL A   1      46.603  26.592  35.462  1.00  0.00     0.039 A 
ATOM     40  C   UNL A   1      46.780  27.731  34.673  1.00  0.00     0.014 A 
ATOM     41  C   UNL A   1      45.411  25.868  35.381  1.00  0.00     0.014 A 
ATOM     42  C   UNL A   1      45.703  28.253  33.965  1.00  0.00     0.010 A 
ATOM     43  C   UNL A   1      44.361  26.342  34.589  1.00  0.00     0.010 A 
ATOM     44  C   UNL A   1      44.475  27.572  33.923  1.00  0.00    -0.014 A 
BRANCH  44  45
ATOM     45  C   UNL A   1      43.327  28.171  33.188  1.00  0.00     0.031 A 
ATOM     46  C   UNL A   1      43.021  27.774  31.766  1.00  0.00     0.074 A 
ATOM     47  C   UNL A   1      42.525  29.051  33.818  1.00  0.00     0.049 A 
ATOM     48  N   UNL A   1      42.063  28.201  30.982  1.00  0.00    -0.248 NA
ATOM     49  C   UNL A   1      43.908  26.780  31.138  1.00  0.00     0.031 C 
ATOM     50  C   UNL A   1      42.716  29.534  35.186  1.00  0.00     0.029 A 
ATOM     51  N   UNL A   1      41.387  29.691  33.395  1.00  0.00    -0.354 N 
ATOM     52  C   UNL A   1      42.241  27.546  29.769  1.00  0.00     0.074 A 
ATOM     53  C   UNL A   1      43.419  26.717  29.907  1.00  0.00     0.031 C 
ATOM     54  C   UNL A   1      41.716  30.369  35.501  1.00  0.00     0.029 A 
ATOM     55  C   UNL A   1      40.842  30.524  34.342  1.00  0.00     0.049 A 
ATOM     56  H   UNL A   1      40.998  29.565  32.499  1.00  0.00     0.167 HD
ATOM     57  C   UNL A   1      41.480  27.604  28.651  1.00  0.00     0.034 A 
ATOM     58  C   UNL A   1      39.771  31.339  34.289  1.00  0.00     0.034 A 
ATOM     59  C   UNL A   1      40.285  28.393  28.522  1.00  0.00     0.049 A 
ATOM     60  C   UNL A   1      38.949  31.404  33.038  1.00  0.00     0.074 A 
ATOM     61  C   UNL A   1      39.434  28.490  27.434  1.00  0.00     0.029 A 
ATOM     62  N   UNL A   1      39.766  29.215  29.510  1.00  0.00    -0.354 N 
ATOM     63  N   UNL A   1      39.102  30.733  31.923  1.00  0.00    -0.248 NA
ATOM     64  C   UNL A   1      37.799  32.318  33.037  1.00  0.00     0.031 C 
ATOM     65  C   UNL A   1      38.407  29.381  27.760  1.00  0.00     0.029 A 
ATOM     66  C   UNL A   1      38.607  29.823  29.058  1.00  0.00     0.049 A 
ATOM     67  H   UNL A   1      40.162  29.346  30.402  1.00  0.00     0.167 HD
ATOM     68  C   UNL A   1      38.065  31.133  31.091  1.00  0.00     0.074 A 
ATOM     69  C   UNL A   1      37.277  32.093  31.837  1.00  0.00     0.031 C 
ATOM     70  C   UNL A   1      37.804  30.745  29.819  1.00  0.00     0.034 A 
BRANCH  57  71
ATOM     71  C   UNL A   1      41.878  26.741  27.483  1.00  0.00     0.023 A 
ATOM     72  C   UNL A   1      42.586  27.320  26.412  1.00  0.00     0.012 A 
ATOM     73  C   UNL A   1      41.625  25.354  27.480  1.00  0.00     0.148 A 
ATOM     74  C   UNL A   1      43.024  26.536  25.344  1.00  0.00     0.002 A 
ATOM     75  C   UNL A   1      42.091  24.574  26.427  1.00  0.00     0.091 A 
ATOM     76  F   UNL A   1      40.941  24.828  28.505  1.00  0.00    -0.205 F 
ATOM     77  C   UNL A   1      42.785  25.164  25.357  1.00  0.00     0.022 A 
BRANCH  75  78
ATOM     78  S   UNL A   1      41.880  22.791  26.366  1.00  0.00     0.127 S 
ATOM     79  O   UNL A   1      40.429  22.671  26.238  1.00  0.00    -0.237 OA
ATOM     80  O   UNL A   1      42.630  22.434  25.162  1.00  0.00    -0.237 OA
ATOM     81  O   UNL A   1      42.436  22.276  27.609  1.00  0.00    -0.744 OA
ENDBRANCH  75  78
ENDBRANCH  57  71
BRANCH  58  82
ATOM     82  C   UNL A   1      39.418  32.123  35.502  1.00  0.00     0.023 A 
ATOM     83  C   UNL A   1      39.754  33.487  35.564  1.00  0.00     0.012 A 
ATOM     84  C   UNL A   1      38.637  31.551  36.525  1.00  0.00     0.148 A 
ATOM     85  C   UNL A   1      39.308  34.276  36.625  1.00  0.00     0.002 A 
ATOM     86  C   UNL A   1      38.162  32.351  37.556  1.00  0.00     0.091 A 
ATOM     87  F   UNL A   1      38.328  30.250  36.433  1.00  0.00    -0.205 F 
ATOM     88  C   UNL A   1      38.502  33.712  37.612  1.00  0.00     0.022 A 
BRANCH  86  89
ATOM     89  S   UNL A   1      37.030  31.745  38.812  1.00  0.00     0.127 S 
ATOM     90  O   UNL A   1      37.790  31.981  40.037  1.00  0.00    -0.237 OA
ATOM     91  O   UNL A   1      35.880  32.628  38.622  1.00  0.00    -0.237 OA
ATOM     92  O   UNL A   1      36.789  30.346  38.490  1.00  0.00    -0.744 OA
ENDBRANCH  86  89
ENDBRANCH  58  82
BRANCH  70  93
ATOM     93  C   UNL A   1      36.607  31.337  29.128  1.00  0.00     0.023 A 
ATOM     94  C   UNL A   1      36.579  32.717  28.852  1.00  0.00     0.012 A 
ATOM     95  C   UNL A   1      35.581  30.507  28.635  1.00  0.00     0.148 A 
ATOM     96  C   UNL A   1      35.544  33.265  28.095  1.00  0.00     0.002 A 
ATOM     97  C   UNL A   1      34.570  31.053  27.855  1.00  0.00     0.091 A 
ATOM     98  F   UNL A   1      35.630  29.197  28.918  1.00  0.00    -0.205 F 
ATOM     99  C   UNL A   1      34.548  32.433  27.587  1.00  0.00     0.022 A 
BRANCH  97 100
ATOM    100  S   UNL A   1      33.279  30.058  27.100  1.00  0.00     0.127 S 
ATOM    101  O   UNL A   1      32.176  31.015  27.017  1.00  0.00    -0.237 OA
ATOM    102  O   UNL A   1      33.876  29.704  25.813  1.00  0.00    -0.237 OA
ATOM    103  O   UNL A   1      33.054  28.935  27.999  1.00  0.00    -0.744 OA
ENDBRANCH  97 100
ENDBRANCH  70  93
ENDBRANCH  44  45
ENDBRANCH  36  39
ENDBRANCH  34  35
ENDBRANCH  33  34
ENDBRANCH   1  33
TORSDOF 18
ENDMDL
