MODEL 1
REMARK VINA RESULT:     -11.8      0.000      0.000
REMARK SMILES C=C[C@@H]1[C@@H](O)C[C@H]2[C@]3(CC[C@]4(C)[C@@H]([C@H](C)CCC=C(C)C)CC[C@]24C)C[C@]13CCC(=O)NCCCCNC(=O)c1ccc(-c2c3nc(c(-c4cccc(S(=O)(=O)[O-])c4F)c4ccc([nH]4)c(-c4cccc(S(=O)(=O)[O-])c4F)c4nc(c(-c5cccc(S(=O)(=O)[O-])c5F)c5ccc2[nH]5)C=C4)C=C3)cc1
REMARK SMILES IDX 33 1 32 2 30 3 31 4 29 6 28 7 27 8 3 9 4 10 6 11 8 12 26 13
REMARK SMILES IDX 7 14 9 15 24 16 10 17 11 18 23 19 25 20 13 21 12 22 22 23
REMARK SMILES IDX 2 24 1 25 5 26 14 28 15 29 16 30 17 31 18 32 19 33 20 34
REMARK SMILES IDX 21 35 34 36 35 37 36 38 37 39 38 40 39 42 40 43 41 44 102 45
REMARK SMILES IDX 42 46 101 47 43 48 44 49 45 50 95 51 46 52 100 53 94 54
REMARK SMILES IDX 96 55 47 56 99 57 93 58 92 59 48 61 80 62 60 63 79 64 61 65
REMARK SMILES IDX 64 66 78 67 97 68 62 69 63 70 77 72 98 73 65 74 49 75 50 76
REMARK SMILES IDX 58 77 51 78 53 79 59 80 52 81 54 82 55 83 56 84 57 85 81 86
REMARK SMILES IDX 82 87 90 88 83 89 85 90 91 91 84 92 86 93 87 94 88 95 89 96
REMARK SMILES IDX 66 97 67 98 75 99 68 100 70 101 76 102 69 103 71 104 72 105
REMARK SMILES IDX 73 106 74 107
REMARK H PARENT 32 5 5 27 37 41 96 60 64 71
REMARK Flexibility Score: inf
ROOT
ATOM      1  C   UNL A   1      32.483  32.448  27.301  1.00  0.00     0.116 C 
ENDROOT
BRANCH   1   2
ATOM      2  N   UNL A   1      33.544  31.466  27.474  1.00  0.00    -0.356 N 
ATOM      3  C   UNL A   1      33.614  30.148  27.135  1.00  0.00     0.220 C 
ATOM      4  O   UNL A   1      34.559  29.483  27.566  1.00  0.00    -0.275 OA
ATOM      5  H   UNL A   1      34.352  31.815  27.915  1.00  0.00     0.163 HD
BRANCH   3   6
ATOM      6  C   UNL A   1      32.604  29.517  26.194  1.00  0.00     0.100 C 
BRANCH   6   7
ATOM      7  C   UNL A   1      33.191  29.015  24.866  1.00  0.00     0.018 C 
BRANCH   7   8
ATOM      8  C   UNL A   1      32.417  27.866  24.195  1.00  0.00    -0.014 C 
ATOM      9  C   UNL A   1      31.858  28.211  22.787  1.00  0.00     0.047 C 
ATOM     10  C   UNL A   1      31.851  27.011  21.798  1.00  0.00     0.122 C 
ATOM     11  C   UNL A   1      31.482  25.678  22.440  1.00  0.00     0.037 C 
ATOM     12  C   UNL A   1      32.739  26.372  24.555  1.00  0.00    -0.019 C 
ATOM     13  C   UNL A   1      31.544  27.051  25.101  1.00  0.00     0.016 C 
ATOM     14  C   UNL A   1      32.511  25.263  23.517  1.00  0.00     0.005 C 
ATOM     15  C   UNL A   1      33.743  26.003  25.629  1.00  0.00     0.008 C 
ATOM     16  C   UNL A   1      32.225  23.835  24.181  1.00  0.00    -0.023 C 
ATOM     17  C   UNL A   1      33.304  24.707  26.304  1.00  0.00     0.008 C 
ATOM     18  C   UNL A   1      33.261  23.511  25.348  1.00  0.00    -0.024 C 
ATOM     19  C   UNL A   1      32.588  22.728  23.157  1.00  0.00     0.008 C 
ATOM     20  C   UNL A   1      30.752  23.681  24.646  1.00  0.00     0.012 C 
ATOM     21  C   UNL A   1      34.579  23.266  24.544  1.00  0.00    -0.002 C 
ATOM     22  C   UNL A   1      32.857  22.261  26.169  1.00  0.00     0.012 C 
ATOM     23  C   UNL A   1      34.084  22.430  23.337  1.00  0.00     0.005 C 
BRANCH   9  24
ATOM     24  C   UNL A   1      30.548  28.992  22.808  1.00  0.00    -0.028 C 
ATOM     25  C   UNL A   1      30.134  29.967  21.987  1.00  0.00     0.004 C 
ENDBRANCH   9  24
BRANCH  10  26
ATOM     26  O   UNL A   1      33.130  26.865  21.163  1.00  0.00    -0.392 OA
ATOM     27  H   UNL A   1      33.166  27.429  20.375  1.00  0.00     0.210 HD
ENDBRANCH  10  26
BRANCH  21  28
ATOM     28  C   UNL A   1      35.916  22.742  25.149  1.00  0.00    -0.010 C 
ATOM     29  C   UNL A   1      37.010  23.765  25.451  1.00  0.00     0.008 C 
BRANCH  28  30
ATOM     30  C   UNL A   1      36.462  21.373  24.644  1.00  0.00     0.008 C 
BRANCH  30  31
ATOM     31  C   UNL A   1      35.926  19.978  25.023  1.00  0.00     0.027 C 
BRANCH  31  32
ATOM     32  C   UNL A   1      34.527  19.585  24.643  1.00  0.00    -0.028 C 
ATOM     33  C   UNL A   1      34.079  18.317  24.519  1.00  0.00    -0.080 C 
ATOM     34  C   UNL A   1      32.623  18.025  24.262  1.00  0.00     0.039 C 
ATOM     35  C   UNL A   1      34.943  17.089  24.628  1.00  0.00     0.039 C 
ENDBRANCH  31  32
ENDBRANCH  30  31
ENDBRANCH  28  30
ENDBRANCH  21  28
ENDBRANCH   7   8
ENDBRANCH   6   7
ENDBRANCH   3   6
ENDBRANCH   1   2
BRANCH   1  36
ATOM     36  C   UNL A   1      32.894  33.785  27.928  1.00  0.00     0.023 C 
BRANCH  36  37
ATOM     37  C   UNL A   1      34.357  33.995  28.219  1.00  0.00     0.023 C 
BRANCH  37  38
ATOM     38  C   UNL A   1      34.612  35.209  29.088  1.00  0.00     0.116 C 
BRANCH  38  39
ATOM     39  N   UNL A   1      33.429  35.753  29.770  1.00  0.00    -0.352 N 
ATOM     40  C   UNL A   1      33.122  35.698  31.117  1.00  0.00     0.251 C 
ATOM     41  H   UNL A   1      32.776  36.214  29.197  1.00  0.00     0.163 HD
ATOM     42  O   UNL A   1      32.084  36.181  31.557  1.00  0.00    -0.269 OA
BRANCH  40  43
ATOM     43  C   UNL A   1      34.064  34.984  32.000  1.00  0.00     0.039 A 
ATOM     44  C   UNL A   1      33.931  33.606  32.174  1.00  0.00     0.014 A 
ATOM     45  C   UNL A   1      35.209  35.655  32.423  1.00  0.00     0.014 A 
ATOM     46  C   UNL A   1      35.022  32.878  32.657  1.00  0.00     0.010 A 
ATOM     47  C   UNL A   1      36.334  34.909  32.725  1.00  0.00     0.010 A 
ATOM     48  C   UNL A   1      36.256  33.514  32.864  1.00  0.00    -0.014 A 
BRANCH  48  49
ATOM     49  C   UNL A   1      37.487  32.767  33.239  1.00  0.00     0.031 A 
ATOM     50  C   UNL A   1      38.166  33.081  34.548  1.00  0.00     0.074 A 
ATOM     51  C   UNL A   1      38.074  31.924  32.364  1.00  0.00     0.049 A 
ATOM     52  N   UNL A   1      39.317  32.663  35.003  1.00  0.00    -0.248 NA
ATOM     53  C   UNL A   1      37.499  34.058  35.429  1.00  0.00     0.031 C 
ATOM     54  C   UNL A   1      37.606  31.639  31.004  1.00  0.00     0.029 A 
ATOM     55  N   UNL A   1      39.217  31.172  32.479  1.00  0.00    -0.354 N 
ATOM     56  C   UNL A   1      39.541  33.384  36.170  1.00  0.00     0.074 A 
ATOM     57  C   UNL A   1      38.449  34.317  36.312  1.00  0.00     0.031 C 
ATOM     58  C   UNL A   1      38.442  30.761  30.423  1.00  0.00     0.029 A 
ATOM     59  C   UNL A   1      39.517  30.436  31.355  1.00  0.00     0.049 A 
ATOM     60  H   UNL A   1      39.772  31.160  33.292  1.00  0.00     0.167 HD
ATOM     61  C   UNL A   1      40.531  33.244  37.082  1.00  0.00     0.034 A 
ATOM     62  C   UNL A   1      40.536  29.590  31.109  1.00  0.00     0.034 A 
ATOM     63  C   UNL A   1      41.537  32.225  37.004  1.00  0.00     0.049 A 
ATOM     64  C   UNL A   1      41.537  29.324  32.204  1.00  0.00     0.074 A 
ATOM     65  C   UNL A   1      42.489  31.880  37.944  1.00  0.00     0.029 A 
ATOM     66  N   UNL A   1      41.704  31.372  35.925  1.00  0.00    -0.354 N 
ATOM     67  N   UNL A   1      41.621  29.875  33.392  1.00  0.00    -0.248 NA
ATOM     68  C   UNL A   1      42.551  28.292  31.947  1.00  0.00     0.031 C 
ATOM     69  C   UNL A   1      43.235  30.814  37.430  1.00  0.00     0.029 A 
ATOM     70  C   UNL A   1      42.741  30.494  36.175  1.00  0.00     0.049 A 
ATOM     71  H   UNL A   1      41.164  31.389  35.102  1.00  0.00     0.167 HD
ATOM     72  C   UNL A   1      42.676  29.239  34.034  1.00  0.00     0.074 A 
ATOM     73  C   UNL A   1      43.185  28.243  33.112  1.00  0.00     0.031 C 
ATOM     74  C   UNL A   1      43.192  29.469  35.267  1.00  0.00     0.034 A 
BRANCH  61  75
ATOM     75  C   UNL A   1      40.501  34.157  38.280  1.00  0.00     0.023 A 
ATOM     76  C   UNL A   1      41.268  35.342  38.273  1.00  0.00     0.012 A 
ATOM     77  C   UNL A   1      39.724  33.847  39.411  1.00  0.00     0.148 A 
ATOM     78  C   UNL A   1      41.310  36.171  39.392  1.00  0.00     0.002 A 
ATOM     79  C   UNL A   1      39.730  34.707  40.504  1.00  0.00     0.091 A 
ATOM     80  F   UNL A   1      39.022  32.705  39.417  1.00  0.00    -0.205 F 
ATOM     81  C   UNL A   1      40.534  35.858  40.503  1.00  0.00     0.022 A 
BRANCH  79  82
ATOM     82  S   UNL A   1      38.698  34.431  41.948  1.00  0.00     0.127 S 
ATOM     83  O   UNL A   1      37.515  35.225  41.622  1.00  0.00    -0.237 OA
ATOM     84  O   UNL A   1      38.489  32.982  41.909  1.00  0.00    -0.237 OA
ATOM     85  O   UNL A   1      39.480  34.895  43.086  1.00  0.00    -0.744 OA
ENDBRANCH  79  82
ENDBRANCH  61  75
BRANCH  62  86
ATOM     86  C   UNL A   1      40.596  28.856  29.812  1.00  0.00     0.023 A 
ATOM     87  C   UNL A   1      39.598  27.909  29.509  1.00  0.00     0.012 A 
ATOM     88  C   UNL A   1      41.592  29.130  28.854  1.00  0.00     0.148 A 
ATOM     89  C   UNL A   1      39.604  27.228  28.291  1.00  0.00     0.002 A 
ATOM     90  C   UNL A   1      41.564  28.486  27.622  1.00  0.00     0.091 A 
ATOM     91  F   UNL A   1      42.538  30.028  29.162  1.00  0.00    -0.205 F 
ATOM     92  C   UNL A   1      40.580  27.524  27.343  1.00  0.00     0.022 A 
BRANCH  90  93
ATOM     93  S   UNL A   1      42.698  28.900  26.289  1.00  0.00     0.127 S 
ATOM     94  O   UNL A   1      43.800  27.974  26.536  1.00  0.00    -0.237 OA
ATOM     95  O   UNL A   1      41.894  28.599  25.104  1.00  0.00    -0.237 OA
ATOM     96  O   UNL A   1      43.005  30.313  26.463  1.00  0.00    -0.744 OA
ENDBRANCH  90  93
ENDBRANCH  62  86
BRANCH  74  97
ATOM     97  C   UNL A   1      44.352  28.623  35.712  1.00  0.00     0.023 A 
ATOM     98  C   UNL A   1      45.655  28.956  35.295  1.00  0.00     0.012 A 
ATOM     99  C   UNL A   1      44.163  27.566  36.623  1.00  0.00     0.148 A 
ATOM    100  C   UNL A   1      46.752  28.234  35.761  1.00  0.00     0.002 A 
ATOM    101  C   UNL A   1      45.264  26.880  37.119  1.00  0.00     0.091 A 
ATOM    102  F   UNL A   1      42.911  27.253  36.991  1.00  0.00    -0.205 F 
ATOM    103  C   UNL A   1      46.559  27.207  36.682  1.00  0.00     0.022 A 
BRANCH 101 104
ATOM    104  S   UNL A   1      45.112  25.613  38.382  1.00  0.00     0.127 S 
ATOM    105  O   UNL A   1      46.509  25.381  38.743  1.00  0.00    -0.237 OA
ATOM    106  O   UNL A   1      44.321  26.288  39.412  1.00  0.00    -0.237 OA
ATOM    107  O   UNL A   1      44.433  24.494  37.742  1.00  0.00    -0.744 OA
ENDBRANCH 101 104
ENDBRANCH  74  97
ENDBRANCH  48  49
ENDBRANCH  40  43
ENDBRANCH  38  39
ENDBRANCH  37  38
ENDBRANCH  36  37
ENDBRANCH   1  36
TORSDOF 22
ENDMDL
MODEL 2
REMARK VINA RESULT:     -11.7      2.277      2.961
REMARK SMILES C=C[C@@H]1[C@@H](O)C[C@H]2[C@]3(CC[C@]4(C)[C@@H]([C@H](C)CCC=C(C)C)CC[C@]24C)C[C@]13CCC(=O)NCCCCNC(=O)c1ccc(-c2c3nc(c(-c4cccc(S(=O)(=O)[O-])c4F)c4ccc([nH]4)c(-c4cccc(S(=O)(=O)[O-])c4F)c4nc(c(-c5cccc(S(=O)(=O)[O-])c5F)c5ccc2[nH]5)C=C4)C=C3)cc1
REMARK SMILES IDX 33 1 32 2 30 3 31 4 29 6 28 7 27 8 3 9 4 10 6 11 8 12 26 13
REMARK SMILES IDX 7 14 9 15 24 16 10 17 11 18 23 19 25 20 13 21 12 22 22 23
REMARK SMILES IDX 2 24 1 25 5 26 14 28 15 29 16 30 17 31 18 32 19 33 20 34
REMARK SMILES IDX 21 35 34 36 35 37 36 38 37 39 38 40 39 42 40 43 41 44 102 45
REMARK SMILES IDX 42 46 101 47 43 48 44 49 45 50 95 51 46 52 100 53 94 54
REMARK SMILES IDX 96 55 47 56 99 57 93 58 92 59 48 61 80 62 60 63 79 64 61 65
REMARK SMILES IDX 64 66 78 67 97 68 62 69 63 70 77 72 98 73 65 74 49 75 50 76
REMARK SMILES IDX 58 77 51 78 53 79 59 80 52 81 54 82 55 83 56 84 57 85 81 86
REMARK SMILES IDX 82 87 90 88 83 89 85 90 91 91 84 92 86 93 87 94 88 95 89 96
REMARK SMILES IDX 66 97 67 98 75 99 68 100 70 101 76 102 69 103 71 104 72 105
REMARK SMILES IDX 73 106 74 107
REMARK H PARENT 32 5 5 27 37 41 96 60 64 71
REMARK Flexibility Score: inf
ROOT
ATOM      1  C   UNL A   1      34.493  30.197  27.508  1.00  0.00     0.116 C 
ENDROOT
BRANCH   1   2
ATOM      2  N   UNL A   1      33.206  30.865  27.384  1.00  0.00    -0.356 N 
ATOM      3  C   UNL A   1      32.251  30.807  26.413  1.00  0.00     0.220 C 
ATOM      4  O   UNL A   1      31.327  31.623  26.452  1.00  0.00    -0.275 OA
ATOM      5  H   UNL A   1      32.986  31.467  28.132  1.00  0.00     0.163 HD
BRANCH   3   6
ATOM      6  C   UNL A   1      32.271  29.727  25.346  1.00  0.00     0.100 C 
BRANCH   6   7
ATOM      7  C   UNL A   1      31.646  28.390  25.776  1.00  0.00     0.018 C 
BRANCH   7   8
ATOM      8  C   UNL A   1      31.498  27.342  24.659  1.00  0.00    -0.014 C 
ATOM      9  C   UNL A   1      31.251  27.943  23.249  1.00  0.00     0.047 C 
ATOM     10  C   UNL A   1      31.900  27.132  22.092  1.00  0.00     0.122 C 
ATOM     11  C   UNL A   1      31.833  25.620  22.279  1.00  0.00     0.037 C 
ATOM     12  C   UNL A   1      32.185  25.936  24.791  1.00  0.00    -0.019 C 
ATOM     13  C   UNL A   1      30.734  26.103  25.023  1.00  0.00     0.016 C 
ATOM     14  C   UNL A   1      32.617  25.169  23.533  1.00  0.00     0.005 C 
ATOM     15  C   UNL A   1      32.933  25.521  26.043  1.00  0.00     0.008 C 
ATOM     16  C   UNL A   1      32.652  23.583  23.749  1.00  0.00    -0.023 C 
ATOM     17  C   UNL A   1      32.782  24.017  26.244  1.00  0.00     0.008 C 
ATOM     18  C   UNL A   1      33.389  23.190  25.107  1.00  0.00    -0.024 C 
ATOM     19  C   UNL A   1      33.615  22.958  22.706  1.00  0.00     0.008 C 
ATOM     20  C   UNL A   1      31.243  22.939  23.639  1.00  0.00     0.012 C 
ATOM     21  C   UNL A   1      34.877  23.530  24.770  1.00  0.00    -0.002 C 
ATOM     22  C   UNL A   1      33.216  21.692  25.462  1.00  0.00     0.012 C 
ATOM     23  C   UNL A   1      35.022  22.999  23.321  1.00  0.00     0.005 C 
BRANCH   9  24
ATOM     24  C   UNL A   1      29.800  28.334  22.981  1.00  0.00    -0.028 C 
ATOM     25  C   UNL A   1      29.315  29.473  22.468  1.00  0.00     0.004 C 
ENDBRANCH   9  24
BRANCH  10  26
ATOM     26  O   UNL A   1      33.276  27.503  21.917  1.00  0.00    -0.392 OA
ATOM     27  H   UNL A   1      33.550  27.311  21.007  1.00  0.00     0.210 HD
ENDBRANCH  10  26
BRANCH  21  28
ATOM     28  C   UNL A   1      36.101  23.195  25.674  1.00  0.00    -0.010 C 
ATOM     29  C   UNL A   1      37.087  24.321  25.983  1.00  0.00     0.008 C 
BRANCH  28  30
ATOM     30  C   UNL A   1      36.777  21.802  25.506  1.00  0.00     0.008 C 
BRANCH  30  31
ATOM     31  C   UNL A   1      38.282  21.532  25.309  1.00  0.00     0.027 C 
BRANCH  31  32
ATOM     32  C   UNL A   1      39.267  21.994  26.344  1.00  0.00    -0.028 C 
ATOM     33  C   UNL A   1      40.333  21.287  26.778  1.00  0.00    -0.080 C 
ATOM     34  C   UNL A   1      41.338  21.892  27.724  1.00  0.00     0.039 C 
ATOM     35  C   UNL A   1      40.640  19.868  26.378  1.00  0.00     0.039 C 
ENDBRANCH  31  32
ENDBRANCH  30  31
ENDBRANCH  28  30
ENDBRANCH  21  28
ENDBRANCH   7   8
ENDBRANCH   6   7
ENDBRANCH   3   6
ENDBRANCH   1   2
BRANCH   1  36
ATOM     36  C   UNL A   1      35.599  31.226  27.766  1.00  0.00     0.023 C 
BRANCH  36  37
ATOM     37  C   UNL A   1      35.183  32.580  28.280  1.00  0.00     0.023 C 
BRANCH  37  38
ATOM     38  C   UNL A   1      34.445  32.503  29.601  1.00  0.00     0.116 C 
BRANCH  38  39
ATOM     39  N   UNL A   1      33.926  33.782  30.106  1.00  0.00    -0.352 N 
ATOM     40  C   UNL A   1      34.388  34.525  31.176  1.00  0.00     0.251 C 
ATOM     41  H   UNL A   1      33.155  34.154  29.622  1.00  0.00     0.163 HD
ATOM     42  O   UNL A   1      33.848  35.575  31.507  1.00  0.00    -0.269 OA
BRANCH  40  43
ATOM     43  C   UNL A   1      35.522  33.977  31.945  1.00  0.00     0.039 A 
ATOM     44  C   UNL A   1      35.332  32.844  32.736  1.00  0.00     0.014 A 
ATOM     45  C   UNL A   1      36.802  34.445  31.656  1.00  0.00     0.014 A 
ATOM     46  C   UNL A   1      36.447  32.097  33.126  1.00  0.00     0.010 A 
ATOM     47  C   UNL A   1      37.877  33.607  31.891  1.00  0.00     0.010 A 
ATOM     48  C   UNL A   1      37.722  32.431  32.642  1.00  0.00    -0.014 A 
BRANCH  48  49
ATOM     49  C   UNL A   1      38.922  31.593  32.907  1.00  0.00     0.031 A 
ATOM     50  C   UNL A   1      39.740  31.852  34.147  1.00  0.00     0.074 A 
ATOM     51  C   UNL A   1      39.361  30.709  31.986  1.00  0.00     0.049 A 
ATOM     52  N   UNL A   1      40.894  31.347  34.496  1.00  0.00    -0.248 NA
ATOM     53  C   UNL A   1      39.233  32.874  35.080  1.00  0.00     0.031 C 
ATOM     54  C   UNL A   1      38.750  30.463  30.676  1.00  0.00     0.029 A 
ATOM     55  N   UNL A   1      40.450  29.873  31.999  1.00  0.00    -0.354 N 
ATOM     56  C   UNL A   1      41.277  32.047  35.634  1.00  0.00     0.074 A 
ATOM     57  C   UNL A   1      40.276  33.060  35.870  1.00  0.00     0.031 C 
ATOM     58  C   UNL A   1      39.460  29.526  30.025  1.00  0.00     0.029 A 
ATOM     59  C   UNL A   1      40.589  29.119  30.856  1.00  0.00     0.049 A 
ATOM     60  H   UNL A   1      41.075  29.817  32.758  1.00  0.00     0.167 HD
ATOM     61  C   UNL A   1      42.334  31.831  36.452  1.00  0.00     0.034 A 
ATOM     62  C   UNL A   1      41.515  28.199  30.522  1.00  0.00     0.034 A 
ATOM     63  C   UNL A   1      43.248  30.739  36.286  1.00  0.00     0.049 A 
ATOM     64  C   UNL A   1      42.588  27.856  31.521  1.00  0.00     0.074 A 
ATOM     65  C   UNL A   1      44.254  30.322  37.137  1.00  0.00     0.029 A 
ATOM     66  N   UNL A   1      43.251  29.878  35.202  1.00  0.00    -0.354 N 
ATOM     67  N   UNL A   1      42.823  28.396  32.694  1.00  0.00    -0.248 NA
ATOM     68  C   UNL A   1      43.494  26.750  31.178  1.00  0.00     0.031 C 
ATOM     69  C   UNL A   1      44.867  29.203  36.562  1.00  0.00     0.029 A 
ATOM     70  C   UNL A   1      44.238  28.924  35.359  1.00  0.00     0.049 A 
ATOM     71  H   UNL A   1      42.640  29.937  34.431  1.00  0.00     0.167 HD
ATOM     72  C   UNL A   1      43.882  27.681  33.240  1.00  0.00     0.074 A 
ATOM     73  C   UNL A   1      44.227  26.651  32.280  1.00  0.00     0.031 C 
ATOM     74  C   UNL A   1      44.524  27.870  34.419  1.00  0.00     0.034 A 
BRANCH  61  75
ATOM     75  C   UNL A   1      42.482  32.741  37.643  1.00  0.00     0.023 A 
ATOM     76  C   UNL A   1      41.876  32.389  38.868  1.00  0.00     0.012 A 
ATOM     77  C   UNL A   1      43.211  33.941  37.556  1.00  0.00     0.148 A 
ATOM     78  C   UNL A   1      41.941  33.243  39.968  1.00  0.00     0.002 A 
ATOM     79  C   UNL A   1      43.316  34.763  38.673  1.00  0.00     0.091 A 
ATOM     80  F   UNL A   1      43.758  34.277  36.379  1.00  0.00    -0.205 F 
ATOM     81  C   UNL A   1      42.669  34.424  39.872  1.00  0.00     0.022 A 
BRANCH  79  82
ATOM     82  S   UNL A   1      44.302  36.264  38.670  1.00  0.00     0.127 S 
ATOM     83  O   UNL A   1      45.620  35.752  38.296  1.00  0.00    -0.237 OA
ATOM     84  O   UNL A   1      43.645  37.066  37.637  1.00  0.00    -0.237 OA
ATOM     85  O   UNL A   1      44.192  36.810  40.016  1.00  0.00    -0.744 OA
ENDBRANCH  79  82
ENDBRANCH  61  75
BRANCH  62  86
ATOM     86  C   UNL A   1      41.399  27.465  29.228  1.00  0.00     0.023 A 
ATOM     87  C   UNL A   1      40.467  26.415  29.112  1.00  0.00     0.012 A 
ATOM     88  C   UNL A   1      42.157  27.835  28.100  1.00  0.00     0.148 A 
ATOM     89  C   UNL A   1      40.309  25.729  27.907  1.00  0.00     0.002 A 
ATOM     90  C   UNL A   1      41.959  27.181  26.888  1.00  0.00     0.091 A 
ATOM     91  F   UNL A   1      43.045  28.830  28.231  1.00  0.00    -0.205 F 
ATOM     92  C   UNL A   1      41.046  26.119  26.792  1.00  0.00     0.022 A 
BRANCH  90  93
ATOM     93  S   UNL A   1      42.764  27.702  25.367  1.00  0.00     0.127 S 
ATOM     94  O   UNL A   1      42.537  26.550  24.499  1.00  0.00    -0.237 OA
ATOM     95  O   UNL A   1      41.999  28.899  25.015  1.00  0.00    -0.237 OA
ATOM     96  O   UNL A   1      44.151  27.962  25.728  1.00  0.00    -0.744 OA
ENDBRANCH  90  93
ENDBRANCH  62  86
BRANCH  74  97
ATOM     97  C   UNL A   1      45.653  26.937  34.760  1.00  0.00     0.023 A 
ATOM     98  C   UNL A   1      46.973  27.292  34.423  1.00  0.00     0.012 A 
ATOM     99  C   UNL A   1      45.417  25.765  35.504  1.00  0.00     0.148 A 
ATOM    100  C   UNL A   1      48.042  26.481  34.801  1.00  0.00     0.002 A 
ATOM    101  C   UNL A   1      46.490  24.985  35.917  1.00  0.00     0.091 A 
ATOM    102  F   UNL A   1      44.150  25.435  35.797  1.00  0.00    -0.205 F 
ATOM    103  C   UNL A   1      47.802  25.337  35.559  1.00  0.00     0.022 A 
BRANCH 101 104
ATOM    104  S   UNL A   1      46.278  23.553  36.979  1.00  0.00     0.127 S 
ATOM    105  O   UNL A   1      45.586  24.132  38.129  1.00  0.00    -0.237 OA
ATOM    106  O   UNL A   1      45.453  22.668  36.153  1.00  0.00    -0.237 OA
ATOM    107  O   UNL A   1      47.620  23.050  37.240  1.00  0.00    -0.744 OA
ENDBRANCH 101 104
ENDBRANCH  74  97
ENDBRANCH  48  49
ENDBRANCH  40  43
ENDBRANCH  38  39
ENDBRANCH  37  38
ENDBRANCH  36  37
ENDBRANCH   1  36
TORSDOF 22
ENDMDL
MODEL 3
REMARK VINA RESULT:     -11.1      6.510      8.622
REMARK SMILES C=C[C@@H]1[C@@H](O)C[C@H]2[C@]3(CC[C@]4(C)[C@@H]([C@H](C)CCC=C(C)C)CC[C@]24C)C[C@]13CCC(=O)NCCCCNC(=O)c1ccc(-c2c3nc(c(-c4cccc(S(=O)(=O)[O-])c4F)c4ccc([nH]4)c(-c4cccc(S(=O)(=O)[O-])c4F)c4nc(c(-c5cccc(S(=O)(=O)[O-])c5F)c5ccc2[nH]5)C=C4)C=C3)cc1
REMARK SMILES IDX 33 1 32 2 30 3 31 4 29 6 28 7 27 8 3 9 4 10 6 11 8 12 26 13
REMARK SMILES IDX 7 14 9 15 24 16 10 17 11 18 23 19 25 20 13 21 12 22 22 23
REMARK SMILES IDX 2 24 1 25 5 26 14 28 15 29 16 30 17 31 18 32 19 33 20 34
REMARK SMILES IDX 21 35 34 36 35 37 36 38 37 39 38 40 39 42 40 43 41 44 102 45
REMARK SMILES IDX 42 46 101 47 43 48 44 49 45 50 95 51 46 52 100 53 94 54
REMARK SMILES IDX 96 55 47 56 99 57 93 58 92 59 48 61 80 62 60 63 79 64 61 65
REMARK SMILES IDX 64 66 78 67 97 68 62 69 63 70 77 72 98 73 65 74 49 75 50 76
REMARK SMILES IDX 58 77 51 78 53 79 59 80 52 81 54 82 55 83 56 84 57 85 81 86
REMARK SMILES IDX 82 87 90 88 83 89 85 90 91 91 84 92 86 93 87 94 88 95 89 96
REMARK SMILES IDX 66 97 67 98 75 99 68 100 70 101 76 102 69 103 71 104 72 105
REMARK SMILES IDX 73 106 74 107
REMARK H PARENT 32 5 5 27 37 41 96 60 64 71
REMARK Flexibility Score: inf
ROOT
ATOM      1  C   UNL A   1      35.896  30.677  28.557  1.00  0.00     0.116 C 
ENDROOT
BRANCH   1   2
ATOM      2  N   UNL A   1      34.521  31.025  28.227  1.00  0.00    -0.356 N 
ATOM      3  C   UNL A   1      33.574  30.363  27.503  1.00  0.00     0.220 C 
ATOM      4  O   UNL A   1      32.539  30.965  27.207  1.00  0.00    -0.275 OA
ATOM      5  H   UNL A   1      34.224  31.891  28.587  1.00  0.00     0.163 HD
BRANCH   3   6
ATOM      6  C   UNL A   1      33.742  28.903  27.126  1.00  0.00     0.100 C 
BRANCH   6   7
ATOM      7  C   UNL A   1      32.430  28.107  27.044  1.00  0.00     0.018 C 
BRANCH   7   8
ATOM      8  C   UNL A   1      32.066  27.579  25.645  1.00  0.00    -0.014 C 
ATOM      9  C   UNL A   1      32.150  28.645  24.519  1.00  0.00     0.047 C 
ATOM     10  C   UNL A   1      32.617  28.081  23.147  1.00  0.00     0.122 C 
ATOM     11  C   UNL A   1      32.064  26.697  22.823  1.00  0.00     0.037 C 
ATOM     12  C   UNL A   1      32.265  26.062  25.291  1.00  0.00    -0.019 C 
ATOM     13  C   UNL A   1      30.924  26.608  25.591  1.00  0.00     0.016 C 
ATOM     14  C   UNL A   1      32.549  25.640  23.842  1.00  0.00     0.005 C 
ATOM     15  C   UNL A   1      32.727  25.050  26.321  1.00  0.00     0.008 C 
ATOM     16  C   UNL A   1      32.067  24.148  23.519  1.00  0.00    -0.023 C 
ATOM     17  C   UNL A   1      32.096  23.695  26.014  1.00  0.00     0.008 C 
ATOM     18  C   UNL A   1      32.516  23.125  24.656  1.00  0.00    -0.024 C 
ATOM     19  C   UNL A   1      32.878  23.612  22.310  1.00  0.00     0.008 C 
ATOM     20  C   UNL A   1      30.544  24.068  23.226  1.00  0.00     0.012 C 
ATOM     21  C   UNL A   1      34.060  23.052  24.425  1.00  0.00    -0.002 C 
ATOM     22  C   UNL A   1      31.852  21.735  24.497  1.00  0.00     0.012 C 
ATOM     23  C   UNL A   1      34.165  22.995  22.879  1.00  0.00     0.005 C 
BRANCH   9  24
ATOM     24  C   UNL A   1      30.925  29.549  24.421  1.00  0.00    -0.028 C 
ATOM     25  C   UNL A   1      29.987  29.599  23.465  1.00  0.00     0.004 C 
ENDBRANCH   9  24
BRANCH  10  26
ATOM     26  O   UNL A   1      34.049  28.020  23.081  1.00  0.00    -0.392 OA
ATOM     27  H   UNL A   1      34.408  28.916  22.989  1.00  0.00     0.210 HD
ENDBRANCH  10  26
BRANCH  21  28
ATOM     28  C   UNL A   1      35.030  22.067  25.144  1.00  0.00    -0.010 C 
ATOM     29  C   UNL A   1      36.503  22.097  24.739  1.00  0.00     0.008 C 
BRANCH  28  30
ATOM     30  C   UNL A   1      34.506  20.642  25.489  1.00  0.00     0.008 C 
BRANCH  30  31
ATOM     31  C   UNL A   1      34.067  19.559  24.482  1.00  0.00     0.027 C 
BRANCH  31  32
ATOM     32  C   UNL A   1      33.373  18.320  24.972  1.00  0.00    -0.028 C 
ATOM     33  C   UNL A   1      33.446  17.103  24.392  1.00  0.00    -0.080 C 
ATOM     34  C   UNL A   1      32.819  15.892  25.034  1.00  0.00     0.039 C 
ATOM     35  C   UNL A   1      34.144  16.817  23.088  1.00  0.00     0.039 C 
ENDBRANCH  31  32
ENDBRANCH  30  31
ENDBRANCH  28  30
ENDBRANCH  21  28
ENDBRANCH   7   8
ENDBRANCH   6   7
ENDBRANCH   3   6
ENDBRANCH   1   2
BRANCH   1  36
ATOM     36  C   UNL A   1      36.005  30.310  30.041  1.00  0.00     0.023 C 
BRANCH  36  37
ATOM     37  C   UNL A   1      35.620  31.362  31.048  1.00  0.00     0.023 C 
BRANCH  37  38
ATOM     38  C   UNL A   1      36.399  31.246  32.341  1.00  0.00     0.116 C 
BRANCH  38  39
ATOM     39  N   UNL A   1      36.988  29.925  32.604  1.00  0.00    -0.352 N 
ATOM     40  C   UNL A   1      38.301  29.528  32.431  1.00  0.00     0.251 C 
ATOM     41  H   UNL A   1      36.372  29.240  32.947  1.00  0.00     0.163 HD
ATOM     42  O   UNL A   1      38.661  28.382  32.673  1.00  0.00    -0.269 OA
BRANCH  40  43
ATOM     43  C   UNL A   1      39.245  30.523  31.887  1.00  0.00     0.039 A 
ATOM     44  C   UNL A   1      40.266  31.016  32.700  1.00  0.00     0.014 A 
ATOM     45  C   UNL A   1      39.253  30.742  30.512  1.00  0.00     0.014 A 
ATOM     46  C   UNL A   1      41.375  31.620  32.102  1.00  0.00     0.010 A 
ATOM     47  C   UNL A   1      40.428  31.173  29.921  1.00  0.00     0.010 A 
ATOM     48  C   UNL A   1      41.499  31.634  30.703  1.00  0.00    -0.014 A 
BRANCH  48  49
ATOM     49  C   UNL A   1      42.719  32.133  30.014  1.00  0.00     0.031 A 
ATOM     50  C   UNL A   1      42.808  33.592  29.642  1.00  0.00     0.074 A 
ATOM     51  C   UNL A   1      43.673  31.274  29.596  1.00  0.00     0.049 A 
ATOM     52  N   UNL A   1      43.703  34.206  28.915  1.00  0.00    -0.248 NA
ATOM     53  C   UNL A   1      41.701  34.461  30.080  1.00  0.00     0.031 C 
ATOM     54  C   UNL A   1      43.644  29.818  29.757  1.00  0.00     0.029 A 
ATOM     55  N   UNL A   1      44.844  31.503  28.916  1.00  0.00    -0.354 N 
ATOM     56  C   UNL A   1      43.222  35.499  28.746  1.00  0.00     0.074 A 
ATOM     57  C   UNL A   1      41.926  35.558  29.378  1.00  0.00     0.031 C 
ATOM     58  C   UNL A   1      44.753  29.289  29.211  1.00  0.00     0.029 A 
ATOM     59  C   UNL A   1      45.562  30.362  28.642  1.00  0.00     0.049 A 
ATOM     60  H   UNL A   1      45.143  32.403  28.649  1.00  0.00     0.167 HD
ATOM     61  C   UNL A   1      43.828  36.565  28.173  1.00  0.00     0.034 A 
ATOM     62  C   UNL A   1      46.743  30.201  28.012  1.00  0.00     0.034 A 
ATOM     63  C   UNL A   1      45.169  36.533  27.668  1.00  0.00     0.049 A 
ATOM     64  C   UNL A   1      47.478  31.424  27.528  1.00  0.00     0.074 A 
ATOM     65  C   UNL A   1      45.945  37.584  27.216  1.00  0.00     0.029 A 
ATOM     66  N   UNL A   1      45.940  35.387  27.568  1.00  0.00    -0.354 N 
ATOM     67  N   UNL A   1      47.093  32.678  27.554  1.00  0.00    -0.248 NA
ATOM     68  C   UNL A   1      48.824  31.220  26.973  1.00  0.00     0.031 C 
ATOM     69  C   UNL A   1      47.191  37.069  26.842  1.00  0.00     0.029 A 
ATOM     70  C   UNL A   1      47.189  35.701  27.067  1.00  0.00     0.049 A 
ATOM     71  H   UNL A   1      45.643  34.481  27.817  1.00  0.00     0.167 HD
ATOM     72  C   UNL A   1      48.157  33.415  27.047  1.00  0.00     0.074 A 
ATOM     73  C   UNL A   1      49.212  32.468  26.745  1.00  0.00     0.031 C 
ATOM     74  C   UNL A   1      48.247  34.751  26.832  1.00  0.00     0.034 A 
BRANCH  61  75
ATOM     75  C   UNL A   1      43.068  37.866  28.161  1.00  0.00     0.023 A 
ATOM     76  C   UNL A   1      42.268  38.195  27.045  1.00  0.00     0.012 A 
ATOM     77  C   UNL A   1      43.144  38.764  29.240  1.00  0.00     0.148 A 
ATOM     78  C   UNL A   1      41.607  39.420  26.977  1.00  0.00     0.002 A 
ATOM     79  C   UNL A   1      42.439  39.962  29.189  1.00  0.00     0.091 A 
ATOM     80  F   UNL A   1      43.930  38.452  30.282  1.00  0.00    -0.205 F 
ATOM     81  C   UNL A   1      41.685  40.298  28.053  1.00  0.00     0.022 A 
BRANCH  79  82
ATOM     82  S   UNL A   1      42.413  41.119  30.562  1.00  0.00     0.127 S 
ATOM     83  O   UNL A   1      42.714  40.243  31.693  1.00  0.00    -0.237 OA
ATOM     84  O   UNL A   1      43.487  42.048  30.208  1.00  0.00    -0.237 OA
ATOM     85  O   UNL A   1      41.081  41.709  30.554  1.00  0.00    -0.744 OA
ENDBRANCH  79  82
ENDBRANCH  61  75
BRANCH  62  86
ATOM     86  C   UNL A   1      47.347  28.841  27.902  1.00  0.00     0.023 A 
ATOM     87  C   UNL A   1      48.075  28.321  28.990  1.00  0.00     0.012 A 
ATOM     88  C   UNL A   1      47.157  28.040  26.760  1.00  0.00     0.148 A 
ATOM     89  C   UNL A   1      48.625  27.040  28.934  1.00  0.00     0.002 A 
ATOM     90  C   UNL A   1      47.664  26.745  26.730  1.00  0.00     0.091 A 
ATOM     91  F   UNL A   1      46.469  28.554  25.731  1.00  0.00    -0.205 F 
ATOM     92  C   UNL A   1      48.411  26.247  27.810  1.00  0.00     0.022 A 
BRANCH  90  93
ATOM     93  S   UNL A   1      47.323  25.605  25.382  1.00  0.00     0.127 S 
ATOM     94  O   UNL A   1      48.595  25.602  24.664  1.00  0.00    -0.237 OA
ATOM     95  O   UNL A   1      47.020  24.367  26.102  1.00  0.00    -0.237 OA
ATOM     96  O   UNL A   1      46.191  26.175  24.665  1.00  0.00    -0.744 OA
ENDBRANCH  90  93
ENDBRANCH  62  86
BRANCH  74  97
ATOM     97  C   UNL A   1      49.532  35.284  26.262  1.00  0.00     0.023 A 
ATOM     98  C   UNL A   1      49.632  35.523  24.878  1.00  0.00     0.012 A 
ATOM     99  C   UNL A   1      50.597  35.647  27.109  1.00  0.00     0.148 A 
ATOM    100  C   UNL A   1      50.785  36.092  24.341  1.00  0.00     0.002 A 
ATOM    101  C   UNL A   1      51.724  36.257  26.573  1.00  0.00     0.091 A 
ATOM    102  F   UNL A   1      50.488  35.393  28.422  1.00  0.00    -0.205 F 
ATOM    103  C   UNL A   1      51.824  36.472  25.188  1.00  0.00     0.022 A 
BRANCH 101 104
ATOM    104  S   UNL A   1      53.063  36.867  27.604  1.00  0.00     0.127 S 
ATOM    105  O   UNL A   1      53.615  35.625  28.142  1.00  0.00    -0.237 OA
ATOM    106  O   UNL A   1      53.922  37.547  26.633  1.00  0.00    -0.237 OA
ATOM    107  O   UNL A   1      52.441  37.753  28.578  1.00  0.00    -0.744 OA
ENDBRANCH 101 104
ENDBRANCH  74  97
ENDBRANCH  48  49
ENDBRANCH  40  43
ENDBRANCH  38  39
ENDBRANCH  37  38
ENDBRANCH  36  37
ENDBRANCH   1  36
TORSDOF 22
ENDMDL
