MODEL 1
REMARK VINA RESULT:     -11.0      0.000      0.000
REMARK SMILES CC[C@H](C)[C@@H](C)NC(=O)c1ccncc1/C=C/C(=O)NCCCCNC(=O)c1ccc(-c2c3nc(c(-c4cccc(S(=O)(=O)[O-])c4F)c4ccc([nH]4)c(-c4cccc(S(=O)(=O)[O-])c4F)c4nc(c(-c5cccc(S(=O)(=O)[O-])c5F)c5ccc2[nH]5)C=C4)C=C3)cc1
REMARK SMILES IDX 21 1 20 2 18 3 19 4 17 6 16 7 15 8 10 9 11 10 12 11 14 12
REMARK SMILES IDX 13 13 8 14 7 15 9 17 5 18 6 19 3 20 4 21 2 22 1 23 22 24
REMARK SMILES IDX 23 25 24 26 25 27 26 28 27 30 28 31 29 32 90 33 30 34 89 35
REMARK SMILES IDX 31 36 32 37 33 38 83 39 34 40 88 41 82 42 84 43 35 44 87 45
REMARK SMILES IDX 81 46 80 47 36 49 68 50 48 51 67 52 49 53 52 54 66 55 85 56
REMARK SMILES IDX 50 57 51 58 65 60 86 61 53 62 37 63 38 64 46 65 39 66 41 67
REMARK SMILES IDX 47 68 40 69 42 70 43 71 44 72 45 73 69 74 70 75 78 76 71 77
REMARK SMILES IDX 73 78 79 79 72 80 74 81 75 82 76 83 77 84 54 85 55 86 63 87
REMARK SMILES IDX 56 88 58 89 64 90 57 91 59 92 60 93 61 94 62 95
REMARK H PARENT 20 5 7 16 25 29 84 48 52 59
REMARK Flexibility Score: inf
ROOT
ATOM      1  C   UNL A   1      35.967  23.119  24.716  1.00  0.00     0.116 C 
ENDROOT
BRANCH   1   2
ATOM      2  N   UNL A   1      35.155  23.290  23.525  1.00  0.00    -0.353 N 
ATOM      3  C   UNL A   1      34.179  24.200  23.263  1.00  0.00     0.244 C 
ATOM      4  O   UNL A   1      33.664  24.261  22.150  1.00  0.00    -0.270 OA
ATOM      5  H   UNL A   1      35.337  22.652  22.798  1.00  0.00     0.163 HD
BRANCH   3   6
ATOM      6  C   UNL A   1      33.789  25.195  24.287  1.00  0.00     0.072 C 
ATOM      7  C   UNL A   1      32.768  26.058  24.158  1.00  0.00     0.016 C 
BRANCH   7   8
ATOM      8  C   UNL A   1      32.423  27.027  25.210  1.00  0.00     0.006 A 
ATOM      9  C   UNL A   1      32.343  28.411  24.995  1.00  0.00     0.050 A 
ATOM     10  C   UNL A   1      31.945  29.265  26.029  1.00  0.00     0.034 A 
ATOM     11  C   UNL A   1      31.720  28.718  27.277  1.00  0.00     0.112 A 
ATOM     12  C   UNL A   1      32.185  26.595  26.513  1.00  0.00     0.119 A 
ATOM     13  N   UNL A   1      31.848  27.405  27.547  1.00  0.00    -0.264 NA
BRANCH   9  14
ATOM     14  C   UNL A   1      32.590  28.998  23.658  1.00  0.00     0.252 C 
ATOM     15  N   UNL A   1      31.541  29.424  22.882  1.00  0.00    -0.349 N 
ATOM     16  H   UNL A   1      31.798  29.784  22.003  1.00  0.00     0.164 HD
ATOM     17  O   UNL A   1      33.739  29.108  23.242  1.00  0.00    -0.269 OA
BRANCH  15  18
ATOM     18  C   UNL A   1      30.101  29.428  23.150  1.00  0.00     0.082 C 
ATOM     19  C   UNL A   1      29.558  28.053  22.746  1.00  0.00     0.031 C 
BRANCH  18  20
ATOM     20  C   UNL A   1      29.381  30.593  22.410  1.00  0.00     0.008 C 
ATOM     21  C   UNL A   1      28.233  30.056  21.539  1.00  0.00     0.010 C 
BRANCH  20  22
ATOM     22  C   UNL A   1      28.853  31.651  23.409  1.00  0.00     0.002 C 
ATOM     23  C   UNL A   1      27.382  31.489  23.769  1.00  0.00     0.004 C 
ENDBRANCH  20  22
ENDBRANCH  18  20
ENDBRANCH  15  18
ENDBRANCH   9  14
ENDBRANCH   7   8
ENDBRANCH   3   6
ENDBRANCH   1   2
BRANCH   1  24
ATOM     24  C   UNL A   1      36.092  21.642  25.089  1.00  0.00     0.023 C 
BRANCH  24  25
ATOM     25  C   UNL A   1      37.462  21.032  24.774  1.00  0.00     0.023 C 
BRANCH  25  26
ATOM     26  C   UNL A   1      38.590  21.450  25.714  1.00  0.00     0.116 C 
BRANCH  26  27
ATOM     27  N   UNL A   1      39.545  20.383  25.975  1.00  0.00    -0.352 N 
ATOM     28  C   UNL A   1      40.845  20.487  26.413  1.00  0.00     0.251 C 
ATOM     29  H   UNL A   1      39.218  19.468  25.818  1.00  0.00     0.163 HD
ATOM     30  O   UNL A   1      41.560  19.496  26.472  1.00  0.00    -0.269 OA
BRANCH  28  31
ATOM     31  C   UNL A   1      41.380  21.818  26.776  1.00  0.00     0.039 A 
ATOM     32  C   UNL A   1      41.704  22.716  25.756  1.00  0.00     0.014 A 
ATOM     33  C   UNL A   1      41.530  22.186  28.116  1.00  0.00     0.014 A 
ATOM     34  C   UNL A   1      42.113  24.012  26.082  1.00  0.00     0.010 A 
ATOM     35  C   UNL A   1      41.876  23.495  28.437  1.00  0.00     0.010 A 
ATOM     36  C   UNL A   1      42.168  24.421  27.424  1.00  0.00    -0.014 A 
BRANCH  36  37
ATOM     37  C   UNL A   1      42.503  25.821  27.791  1.00  0.00     0.031 A 
ATOM     38  C   UNL A   1      43.924  26.308  27.708  1.00  0.00     0.074 A 
ATOM     39  C   UNL A   1      41.543  26.622  28.294  1.00  0.00     0.049 A 
ATOM     40  N   UNL A   1      44.416  27.471  28.045  1.00  0.00    -0.248 NA
ATOM     41  C   UNL A   1      44.927  25.355  27.204  1.00  0.00     0.031 C 
ATOM     42  C   UNL A   1      40.144  26.239  28.503  1.00  0.00     0.029 A 
ATOM     43  N   UNL A   1      41.602  27.916  28.747  1.00  0.00    -0.354 N 
ATOM     44  C   UNL A   1      45.786  27.380  27.831  1.00  0.00     0.074 A 
ATOM     45  C   UNL A   1      46.052  26.036  27.363  1.00  0.00     0.031 C 
ATOM     46  C   UNL A   1      39.479  27.276  29.036  1.00  0.00     0.029 A 
ATOM     47  C   UNL A   1      40.404  28.388  29.231  1.00  0.00     0.049 A 
ATOM     48  H   UNL A   1      42.425  28.456  28.728  1.00  0.00     0.167 HD
ATOM     49  C   UNL A   1      46.734  28.336  27.980  1.00  0.00     0.034 A 
ATOM     50  C   UNL A   1      40.086  29.581  29.771  1.00  0.00     0.034 A 
ATOM     51  C   UNL A   1      46.458  29.686  28.393  1.00  0.00     0.049 A 
ATOM     52  C   UNL A   1      41.148  30.642  29.875  1.00  0.00     0.074 A 
ATOM     53  C   UNL A   1      47.334  30.752  28.483  1.00  0.00     0.029 A 
ATOM     54  N   UNL A   1      45.214  30.155  28.783  1.00  0.00    -0.354 N 
ATOM     55  N   UNL A   1      42.407  30.588  29.513  1.00  0.00    -0.248 NA
ATOM     56  C   UNL A   1      40.739  31.942  30.427  1.00  0.00     0.031 C 
ATOM     57  C   UNL A   1      46.620  31.865  28.940  1.00  0.00     0.029 A 
ATOM     58  C   UNL A   1      45.297  31.495  29.119  1.00  0.00     0.049 A 
ATOM     59  H   UNL A   1      44.392  29.614  28.816  1.00  0.00     0.167 HD
ATOM     60  C   UNL A   1      42.929  31.851  29.758  1.00  0.00     0.074 A 
ATOM     61  C   UNL A   1      41.846  32.658  30.281  1.00  0.00     0.031 C 
ATOM     62  C   UNL A   1      44.197  32.301  29.581  1.00  0.00     0.034 A 
BRANCH  49  63
ATOM     63  C   UNL A   1      48.153  27.975  27.629  1.00  0.00     0.023 A 
ATOM     64  C   UNL A   1      48.989  27.418  28.619  1.00  0.00     0.012 A 
ATOM     65  C   UNL A   1      48.640  28.125  26.317  1.00  0.00     0.148 A 
ATOM     66  C   UNL A   1      50.297  27.045  28.317  1.00  0.00     0.002 A 
ATOM     67  C   UNL A   1      49.934  27.712  26.013  1.00  0.00     0.091 A 
ATOM     68  F   UNL A   1      47.839  28.676  25.394  1.00  0.00    -0.205 F 
ATOM     69  C   UNL A   1      50.765  27.181  27.013  1.00  0.00     0.022 A 
BRANCH  67  70
ATOM     70  S   UNL A   1      50.605  27.776  24.348  1.00  0.00     0.127 S 
ATOM     71  O   UNL A   1      51.309  29.059  24.362  1.00  0.00    -0.237 OA
ATOM     72  O   UNL A   1      51.479  26.602  24.321  1.00  0.00    -0.237 OA
ATOM     73  O   UNL A   1      49.461  27.700  23.451  1.00  0.00    -0.744 OA
ENDBRANCH  67  70
ENDBRANCH  49  63
BRANCH  50  74
ATOM     74  C   UNL A   1      38.678  29.868  30.170  1.00  0.00     0.023 A 
ATOM     75  C   UNL A   1      38.257  29.542  31.473  1.00  0.00     0.012 A 
ATOM     76  C   UNL A   1      37.770  30.482  29.287  1.00  0.00     0.148 A 
ATOM     77  C   UNL A   1      36.948  29.795  31.883  1.00  0.00     0.002 A 
ATOM     78  C   UNL A   1      36.481  30.779  29.718  1.00  0.00     0.091 A 
ATOM     79  F   UNL A   1      38.185  30.772  28.046  1.00  0.00    -0.205 F 
ATOM     80  C   UNL A   1      36.063  30.422  31.010  1.00  0.00     0.022 A 
BRANCH  78  81
ATOM     81  S   UNL A   1      35.317  31.700  28.706  1.00  0.00     0.127 S 
ATOM     82  O   UNL A   1      34.407  32.239  29.713  1.00  0.00    -0.237 OA
ATOM     83  O   UNL A   1      36.186  32.689  28.067  1.00  0.00    -0.237 OA
ATOM     84  O   UNL A   1      34.744  30.727  27.787  1.00  0.00    -0.744 OA
ENDBRANCH  78  81
ENDBRANCH  50  74
BRANCH  62  85
ATOM     85  C   UNL A   1      44.484  33.738  29.922  1.00  0.00     0.023 A 
ATOM     86  C   UNL A   1      44.994  34.063  31.195  1.00  0.00     0.012 A 
ATOM     87  C   UNL A   1      44.329  34.753  28.959  1.00  0.00     0.148 A 
ATOM     88  C   UNL A   1      45.320  35.381  31.511  1.00  0.00     0.002 A 
ATOM     89  C   UNL A   1      44.698  36.058  29.265  1.00  0.00     0.091 A 
ATOM     90  F   UNL A   1      43.822  34.426  27.760  1.00  0.00    -0.205 F 
ATOM     91  C   UNL A   1      45.184  36.375  30.544  1.00  0.00     0.022 A 
BRANCH  89  92
ATOM     92  S   UNL A   1      44.645  37.381  28.051  1.00  0.00     0.127 S 
ATOM     93  O   UNL A   1      45.724  36.996  27.143  1.00  0.00    -0.237 OA
ATOM     94  O   UNL A   1      43.300  37.238  27.493  1.00  0.00    -0.237 OA
ATOM     95  O   UNL A   1      44.860  38.614  28.795  1.00  0.00    -0.744 OA
ENDBRANCH  89  92
ENDBRANCH  62  85
ENDBRANCH  36  37
ENDBRANCH  28  31
ENDBRANCH  26  27
ENDBRANCH  25  26
ENDBRANCH  24  25
ENDBRANCH   1  24
TORSDOF 19
ENDMDL
MODEL 2
REMARK VINA RESULT:     -10.9      1.653      7.755
REMARK SMILES CC[C@H](C)[C@@H](C)NC(=O)c1ccncc1/C=C/C(=O)NCCCCNC(=O)c1ccc(-c2c3nc(c(-c4cccc(S(=O)(=O)[O-])c4F)c4ccc([nH]4)c(-c4cccc(S(=O)(=O)[O-])c4F)c4nc(c(-c5cccc(S(=O)(=O)[O-])c5F)c5ccc2[nH]5)C=C4)C=C3)cc1
REMARK SMILES IDX 21 1 20 2 18 3 19 4 17 6 16 7 15 8 10 9 11 10 12 11 14 12
REMARK SMILES IDX 13 13 8 14 7 15 9 17 5 18 6 19 3 20 4 21 2 22 1 23 22 24
REMARK SMILES IDX 23 25 24 26 25 27 26 28 27 30 28 31 29 32 90 33 30 34 89 35
REMARK SMILES IDX 31 36 32 37 33 38 83 39 34 40 88 41 82 42 84 43 35 44 87 45
REMARK SMILES IDX 81 46 80 47 36 49 68 50 48 51 67 52 49 53 52 54 66 55 85 56
REMARK SMILES IDX 50 57 51 58 65 60 86 61 53 62 37 63 38 64 46 65 39 66 41 67
REMARK SMILES IDX 47 68 40 69 42 70 43 71 44 72 45 73 69 74 70 75 78 76 71 77
REMARK SMILES IDX 73 78 79 79 72 80 74 81 75 82 76 83 77 84 54 85 55 86 63 87
REMARK SMILES IDX 56 88 58 89 64 90 57 91 59 92 60 93 61 94 62 95
REMARK H PARENT 20 5 7 16 25 29 84 48 52 59
REMARK Flexibility Score: inf
ROOT
ATOM      1  C   UNL A   1      36.983  21.147  25.312  1.00  0.00     0.116 C 
ENDROOT
BRANCH   1   2
ATOM      2  N   UNL A   1      37.010  22.002  24.139  1.00  0.00    -0.353 N 
ATOM      3  C   UNL A   1      36.042  22.812  23.634  1.00  0.00     0.244 C 
ATOM      4  O   UNL A   1      36.279  23.549  22.680  1.00  0.00    -0.270 OA
ATOM      5  H   UNL A   1      37.855  21.994  23.634  1.00  0.00     0.163 HD
BRANCH   3   6
ATOM      6  C   UNL A   1      34.715  22.890  24.284  1.00  0.00     0.072 C 
ATOM      7  C   UNL A   1      34.127  24.030  24.680  1.00  0.00     0.016 C 
BRANCH   7   8
ATOM      8  C   UNL A   1      32.803  24.048  25.320  1.00  0.00     0.006 A 
ATOM      9  C   UNL A   1      32.140  25.225  25.698  1.00  0.00     0.050 A 
ATOM     10  C   UNL A   1      30.853  25.167  26.244  1.00  0.00     0.034 A 
ATOM     11  C   UNL A   1      30.298  23.924  26.477  1.00  0.00     0.112 A 
ATOM     12  C   UNL A   1      32.147  22.855  25.615  1.00  0.00     0.119 A 
ATOM     13  N   UNL A   1      30.923  22.766  26.191  1.00  0.00    -0.264 NA
BRANCH   9  14
ATOM     14  C   UNL A   1      32.737  26.558  25.455  1.00  0.00     0.252 C 
ATOM     15  N   UNL A   1      32.254  27.363  24.453  1.00  0.00    -0.349 N 
ATOM     16  H   UNL A   1      32.723  28.222  24.352  1.00  0.00     0.164 HD
ATOM     17  O   UNL A   1      33.667  26.948  26.153  1.00  0.00    -0.269 OA
BRANCH  15  18
ATOM     18  C   UNL A   1      31.155  27.150  23.508  1.00  0.00     0.082 C 
ATOM     19  C   UNL A   1      31.781  26.833  22.145  1.00  0.00     0.031 C 
BRANCH  18  20
ATOM     20  C   UNL A   1      30.196  28.374  23.453  1.00  0.00     0.008 C 
ATOM     21  C   UNL A   1      30.560  29.297  22.278  1.00  0.00     0.010 C 
BRANCH  20  22
ATOM     22  C   UNL A   1      28.718  27.925  23.352  1.00  0.00     0.002 C 
ATOM     23  C   UNL A   1      28.453  26.528  23.898  1.00  0.00     0.004 C 
ENDBRANCH  20  22
ENDBRANCH  18  20
ENDBRANCH  15  18
ENDBRANCH   9  14
ENDBRANCH   7   8
ENDBRANCH   3   6
ENDBRANCH   1   2
BRANCH   1  24
ATOM     24  C   UNL A   1      36.912  19.672  24.915  1.00  0.00     0.023 C 
BRANCH  24  25
ATOM     25  C   UNL A   1      38.184  18.879  25.228  1.00  0.00     0.023 C 
BRANCH  25  26
ATOM     26  C   UNL A   1      39.333  19.698  25.810  1.00  0.00     0.116 C 
BRANCH  26  27
ATOM     27  N   UNL A   1      40.547  18.921  26.018  1.00  0.00    -0.352 N 
ATOM     28  C   UNL A   1      41.808  19.371  26.334  1.00  0.00     0.251 C 
ATOM     29  H   UNL A   1      40.452  17.946  25.920  1.00  0.00     0.163 HD
ATOM     30  O   UNL A   1      42.754  18.596  26.360  1.00  0.00    -0.269 OA
BRANCH  28  31
ATOM     31  C   UNL A   1      42.012  20.811  26.606  1.00  0.00     0.039 A 
ATOM     32  C   UNL A   1      42.099  21.242  27.932  1.00  0.00     0.014 A 
ATOM     33  C   UNL A   1      42.148  21.723  25.556  1.00  0.00     0.014 A 
ATOM     34  C   UNL A   1      42.393  22.580  28.205  1.00  0.00     0.010 A 
ATOM     35  C   UNL A   1      42.503  23.040  25.829  1.00  0.00     0.010 A 
ATOM     36  C   UNL A   1      42.633  23.481  27.155  1.00  0.00    -0.014 A 
BRANCH  36  37
ATOM     37  C   UNL A   1      43.044  24.884  27.420  1.00  0.00     0.031 A 
ATOM     38  C   UNL A   1      42.073  25.858  28.027  1.00  0.00     0.074 A 
ATOM     39  C   UNL A   1      44.262  25.303  27.022  1.00  0.00     0.049 A 
ATOM     40  N   UNL A   1      42.230  27.133  28.272  1.00  0.00    -0.248 NA
ATOM     41  C   UNL A   1      40.741  25.339  28.382  1.00  0.00     0.031 C 
ATOM     42  C   UNL A   1      45.264  24.475  26.346  1.00  0.00     0.029 A 
ATOM     43  N   UNL A   1      44.855  26.539  27.102  1.00  0.00    -0.354 N 
ATOM     44  C   UNL A   1      41.012  27.576  28.772  1.00  0.00     0.074 A 
ATOM     45  C   UNL A   1      40.115  26.441  28.768  1.00  0.00     0.031 C 
ATOM     46  C   UNL A   1      46.346  25.223  26.080  1.00  0.00     0.029 A 
ATOM     47  C   UNL A   1      46.110  26.587  26.541  1.00  0.00     0.049 A 
ATOM     48  H   UNL A   1      44.422  27.317  27.522  1.00  0.00     0.167 HD
ATOM     49  C   UNL A   1      40.678  28.809  29.224  1.00  0.00     0.034 A 
ATOM     50  C   UNL A   1      46.973  27.614  26.414  1.00  0.00     0.034 A 
ATOM     51  C   UNL A   1      41.588  29.921  29.278  1.00  0.00     0.049 A 
ATOM     52  C   UNL A   1      46.596  28.959  26.972  1.00  0.00     0.074 A 
ATOM     53  C   UNL A   1      41.375  31.182  29.804  1.00  0.00     0.029 A 
ATOM     54  N   UNL A   1      42.885  29.906  28.788  1.00  0.00    -0.354 N 
ATOM     55  N   UNL A   1      45.497  29.317  27.591  1.00  0.00    -0.248 NA
ATOM     56  C   UNL A   1      47.591  30.034  26.849  1.00  0.00     0.031 C 
ATOM     57  C   UNL A   1      42.540  31.934  29.622  1.00  0.00     0.029 A 
ATOM     58  C   UNL A   1      43.484  31.136  28.996  1.00  0.00     0.049 A 
ATOM     59  H   UNL A   1      43.316  29.133  28.356  1.00  0.00     0.167 HD
ATOM     60  C   UNL A   1      45.682  30.642  27.963  1.00  0.00     0.074 A 
ATOM     61  C   UNL A   1      47.007  31.021  27.517  1.00  0.00     0.031 C 
ATOM     62  C   UNL A   1      44.826  31.478  28.602  1.00  0.00     0.034 A 
BRANCH  49  63
ATOM     63  C   UNL A   1      39.285  29.004  29.762  1.00  0.00     0.023 A 
ATOM     64  C   UNL A   1      38.996  28.613  31.086  1.00  0.00     0.012 A 
ATOM     65  C   UNL A   1      38.285  29.625  28.991  1.00  0.00     0.148 A 
ATOM     66  C   UNL A   1      37.725  28.808  31.624  1.00  0.00     0.002 A 
ATOM     67  C   UNL A   1      37.031  29.854  29.548  1.00  0.00     0.091 A 
ATOM     68  F   UNL A   1      38.571  29.971  27.728  1.00  0.00    -0.205 F 
ATOM     69  C   UNL A   1      36.748  29.438  30.860  1.00  0.00     0.022 A 
BRANCH  67  70
ATOM     70  S   UNL A   1      35.727  30.726  28.673  1.00  0.00     0.127 S 
ATOM     71  O   UNL A   1      34.896  31.202  29.780  1.00  0.00    -0.237 OA
ATOM     72  O   UNL A   1      36.470  31.775  27.974  1.00  0.00    -0.237 OA
ATOM     73  O   UNL A   1      35.103  29.742  27.801  1.00  0.00    -0.744 OA
ENDBRANCH  67  70
ENDBRANCH  49  63
BRANCH  50  74
ATOM     74  C   UNL A   1      48.317  27.387  25.809  1.00  0.00     0.023 A 
ATOM     75  C   UNL A   1      49.368  26.932  26.628  1.00  0.00     0.012 A 
ATOM     76  C   UNL A   1      48.553  27.588  24.436  1.00  0.00     0.148 A 
ATOM     77  C   UNL A   1      50.639  26.709  26.098  1.00  0.00     0.002 A 
ATOM     78  C   UNL A   1      49.809  27.315  23.904  1.00  0.00     0.091 A 
ATOM     79  F   UNL A   1      47.544  28.035  23.675  1.00  0.00    -0.205 F 
ATOM     80  C   UNL A   1      50.857  26.890  24.735  1.00  0.00     0.022 A 
BRANCH  78  81
ATOM     81  S   UNL A   1      50.144  27.396  22.140  1.00  0.00     0.127 S 
ATOM     82  O   UNL A   1      51.525  26.927  22.076  1.00  0.00    -0.237 OA
ATOM     83  O   UNL A   1      49.152  26.467  21.599  1.00  0.00    -0.237 OA
ATOM     84  O   UNL A   1      49.927  28.787  21.766  1.00  0.00    -0.744 OA
ENDBRANCH  78  81
ENDBRANCH  50  74
BRANCH  62  85
ATOM     85  C   UNL A   1      45.299  32.878  28.891  1.00  0.00     0.023 A 
ATOM     86  C   UNL A   1      45.936  33.158  30.116  1.00  0.00     0.012 A 
ATOM     87  C   UNL A   1      45.188  33.892  27.921  1.00  0.00     0.148 A 
ATOM     88  C   UNL A   1      46.433  34.433  30.380  1.00  0.00     0.002 A 
ATOM     89  C   UNL A   1      45.725  35.149  28.172  1.00  0.00     0.091 A 
ATOM     90  F   UNL A   1      44.560  33.611  26.769  1.00  0.00    -0.205 F 
ATOM     91  C   UNL A   1      46.339  35.424  29.406  1.00  0.00     0.022 A 
BRANCH  89  92
ATOM     92  S   UNL A   1      45.732  36.454  26.938  1.00  0.00     0.127 S 
ATOM     93  O   UNL A   1      44.305  36.731  26.788  1.00  0.00    -0.237 OA
ATOM     94  O   UNL A   1      46.490  37.513  27.607  1.00  0.00    -0.237 OA
ATOM     95  O   UNL A   1      46.390  35.892  25.767  1.00  0.00    -0.744 OA
ENDBRANCH  89  92
ENDBRANCH  62  85
ENDBRANCH  36  37
ENDBRANCH  28  31
ENDBRANCH  26  27
ENDBRANCH  25  26
ENDBRANCH  24  25
ENDBRANCH   1  24
TORSDOF 19
ENDMDL
MODEL 3
REMARK VINA RESULT:     -10.9      5.550     10.721
REMARK SMILES CC[C@H](C)[C@@H](C)NC(=O)c1ccncc1/C=C/C(=O)NCCCCNC(=O)c1ccc(-c2c3nc(c(-c4cccc(S(=O)(=O)[O-])c4F)c4ccc([nH]4)c(-c4cccc(S(=O)(=O)[O-])c4F)c4nc(c(-c5cccc(S(=O)(=O)[O-])c5F)c5ccc2[nH]5)C=C4)C=C3)cc1
REMARK SMILES IDX 21 1 20 2 18 3 19 4 17 6 16 7 15 8 10 9 11 10 12 11 14 12
REMARK SMILES IDX 13 13 8 14 7 15 9 17 5 18 6 19 3 20 4 21 2 22 1 23 22 24
REMARK SMILES IDX 23 25 24 26 25 27 26 28 27 30 28 31 29 32 90 33 30 34 89 35
REMARK SMILES IDX 31 36 32 37 33 38 83 39 34 40 88 41 82 42 84 43 35 44 87 45
REMARK SMILES IDX 81 46 80 47 36 49 68 50 48 51 67 52 49 53 52 54 66 55 85 56
REMARK SMILES IDX 50 57 51 58 65 60 86 61 53 62 37 63 38 64 46 65 39 66 41 67
REMARK SMILES IDX 47 68 40 69 42 70 43 71 44 72 45 73 69 74 70 75 78 76 71 77
REMARK SMILES IDX 73 78 79 79 72 80 74 81 75 82 76 83 77 84 54 85 55 86 63 87
REMARK SMILES IDX 56 88 58 89 64 90 57 91 59 92 60 93 61 94 62 95
REMARK H PARENT 20 5 7 16 25 29 84 48 52 59
REMARK Flexibility Score: inf
ROOT
ATOM      1  C   UNL A   1      31.810  29.796  27.062  1.00  0.00     0.116 C 
ENDROOT
BRANCH   1   2
ATOM      2  N   UNL A   1      33.174  29.521  27.480  1.00  0.00    -0.353 N 
ATOM      3  C   UNL A   1      34.161  28.851  26.829  1.00  0.00     0.244 C 
ATOM      4  O   UNL A   1      35.296  28.804  27.296  1.00  0.00    -0.270 OA
ATOM      5  H   UNL A   1      33.419  29.873  28.365  1.00  0.00     0.163 HD
BRANCH   3   6
ATOM      6  C   UNL A   1      33.909  28.247  25.502  1.00  0.00     0.072 C 
ATOM      7  C   UNL A   1      33.377  27.029  25.308  1.00  0.00     0.016 C 
BRANCH   7   8
ATOM      8  C   UNL A   1      33.146  26.479  23.965  1.00  0.00     0.006 A 
ATOM      9  C   UNL A   1      32.314  25.378  23.709  1.00  0.00     0.050 A 
ATOM     10  C   UNL A   1      32.091  24.951  22.395  1.00  0.00     0.034 A 
ATOM     11  C   UNL A   1      32.776  25.585  21.377  1.00  0.00     0.112 A 
ATOM     12  C   UNL A   1      33.791  27.028  22.858  1.00  0.00     0.119 A 
ATOM     13  N   UNL A   1      33.634  26.602  21.580  1.00  0.00    -0.264 NA
BRANCH   9  14
ATOM     14  C   UNL A   1      31.584  24.694  24.800  1.00  0.00     0.252 C 
ATOM     15  N   UNL A   1      32.041  23.500  25.300  1.00  0.00    -0.349 N 
ATOM     16  H   UNL A   1      31.483  23.110  26.011  1.00  0.00     0.164 HD
ATOM     17  O   UNL A   1      30.565  25.197  25.263  1.00  0.00    -0.269 OA
BRANCH  15  18
ATOM     18  C   UNL A   1      33.226  22.713  24.948  1.00  0.00     0.082 C 
ATOM     19  C   UNL A   1      32.869  21.236  25.156  1.00  0.00     0.031 C 
BRANCH  18  20
ATOM     20  C   UNL A   1      34.472  23.146  25.772  1.00  0.00     0.008 C 
ATOM     21  C   UNL A   1      35.164  21.922  26.396  1.00  0.00     0.010 C 
BRANCH  20  22
ATOM     22  C   UNL A   1      35.470  23.946  24.900  1.00  0.00     0.002 C 
ATOM     23  C   UNL A   1      36.349  23.081  24.005  1.00  0.00     0.004 C 
ENDBRANCH  20  22
ENDBRANCH  18  20
ENDBRANCH  15  18
ENDBRANCH   9  14
ENDBRANCH   7   8
ENDBRANCH   3   6
ENDBRANCH   1   2
BRANCH   1  24
ATOM     24  C   UNL A   1      31.660  31.242  26.590  1.00  0.00     0.023 C 
BRANCH  24  25
ATOM     25  C   UNL A   1      32.040  32.286  27.645  1.00  0.00     0.023 C 
BRANCH  25  26
ATOM     26  C   UNL A   1      32.870  33.458  27.128  1.00  0.00     0.116 C 
BRANCH  26  27
ATOM     27  N   UNL A   1      32.792  34.638  27.978  1.00  0.00    -0.352 N 
ATOM     28  C   UNL A   1      33.541  34.942  29.091  1.00  0.00     0.251 C 
ATOM     29  H   UNL A   1      32.115  35.304  27.722  1.00  0.00     0.163 HD
ATOM     30  O   UNL A   1      33.273  35.924  29.769  1.00  0.00    -0.269 OA
BRANCH  28  31
ATOM     31  C   UNL A   1      34.653  34.045  29.478  1.00  0.00     0.039 A 
ATOM     32  C   UNL A   1      35.930  34.294  28.970  1.00  0.00     0.014 A 
ATOM     33  C   UNL A   1      34.439  32.985  30.363  1.00  0.00     0.014 A 
ATOM     34  C   UNL A   1      37.009  33.521  29.405  1.00  0.00     0.010 A 
ATOM     35  C   UNL A   1      35.524  32.258  30.843  1.00  0.00     0.010 A 
ATOM     36  C   UNL A   1      36.819  32.520  30.372  1.00  0.00    -0.014 A 
BRANCH  36  37
ATOM     37  C   UNL A   1      37.965  31.752  30.923  1.00  0.00     0.031 A 
ATOM     38  C   UNL A   1      38.543  32.109  32.264  1.00  0.00     0.074 A 
ATOM     39  C   UNL A   1      38.545  30.797  30.169  1.00  0.00     0.049 A 
ATOM     40  N   UNL A   1      39.577  31.595  32.878  1.00  0.00    -0.248 NA
ATOM     41  C   UNL A   1      37.890  33.203  33.003  1.00  0.00     0.031 C 
ATOM     42  C   UNL A   1      38.129  30.414  28.818  1.00  0.00     0.029 A 
ATOM     43  N   UNL A   1      39.628  29.991  30.421  1.00  0.00    -0.354 N 
ATOM     44  C   UNL A   1      39.723  32.325  34.051  1.00  0.00     0.074 A 
ATOM     45  C   UNL A   1      38.689  33.338  34.051  1.00  0.00     0.031 C 
ATOM     46  C   UNL A   1      38.941  29.447  28.364  1.00  0.00     0.029 A 
ATOM     47  C   UNL A   1      39.950  29.155  29.377  1.00  0.00     0.049 A 
ATOM     48  H   UNL A   1      40.127  30.010  31.270  1.00  0.00     0.167 HD
ATOM     49  C   UNL A   1      40.617  32.149  35.054  1.00  0.00     0.034 A 
ATOM     50  C   UNL A   1      40.945  28.255  29.251  1.00  0.00     0.034 A 
ATOM     51  C   UNL A   1      41.608  31.108  35.077  1.00  0.00     0.049 A 
ATOM     52  C   UNL A   1      41.890  28.045  30.402  1.00  0.00     0.074 A 
ATOM     53  C   UNL A   1      42.496  30.788  36.087  1.00  0.00     0.029 A 
ATOM     54  N   UNL A   1      41.842  30.216  34.041  1.00  0.00    -0.354 N 
ATOM     55  N   UNL A   1      41.909  28.635  31.573  1.00  0.00    -0.248 NA
ATOM     56  C   UNL A   1      42.930  27.019  30.232  1.00  0.00     0.031 C 
ATOM     57  C   UNL A   1      43.276  29.709  35.659  1.00  0.00     0.029 A 
ATOM     58  C   UNL A   1      42.863  29.348  34.386  1.00  0.00     0.049 A 
ATOM     59  H   UNL A   1      41.354  30.203  33.186  1.00  0.00     0.167 HD
ATOM     60  C   UNL A   1      42.933  28.028  32.290  1.00  0.00     0.074 A 
ATOM     61  C   UNL A   1      43.500  27.011  31.429  1.00  0.00     0.031 C 
ATOM     62  C   UNL A   1      43.376  28.300  33.542  1.00  0.00     0.034 A 
BRANCH  49  63
ATOM     63  C   UNL A   1      40.519  33.064  36.246  1.00  0.00     0.023 A 
ATOM     64  C   UNL A   1      41.244  34.274  36.249  1.00  0.00     0.012 A 
ATOM     65  C   UNL A   1      39.670  32.765  37.328  1.00  0.00     0.148 A 
ATOM     66  C   UNL A   1      41.151  35.157  37.324  1.00  0.00     0.002 A 
ATOM     67  C   UNL A   1      39.550  33.670  38.378  1.00  0.00     0.091 A 
ATOM     68  F   UNL A   1      39.005  31.602  37.318  1.00  0.00    -0.205 F 
ATOM     69  C   UNL A   1      40.296  34.860  38.381  1.00  0.00     0.022 A 
BRANCH  67  70
ATOM     70  S   UNL A   1      38.419  33.417  39.751  1.00  0.00     0.127 S 
ATOM     71  O   UNL A   1      38.431  34.733  40.390  1.00  0.00    -0.237 OA
ATOM     72  O   UNL A   1      37.170  33.083  39.066  1.00  0.00    -0.237 OA
ATOM     73  O   UNL A   1      38.985  32.332  40.541  1.00  0.00    -0.744 OA
ENDBRANCH  67  70
ENDBRANCH  49  63
BRANCH  50  74
ATOM     74  C   UNL A   1      41.043  27.420  28.020  1.00  0.00     0.023 A 
ATOM     75  C   UNL A   1      41.645  27.965  26.869  1.00  0.00     0.012 A 
ATOM     76  C   UNL A   1      40.576  26.093  27.987  1.00  0.00     0.148 A 
ATOM     77  C   UNL A   1      41.754  27.214  25.699  1.00  0.00     0.002 A 
ATOM     78  C   UNL A   1      40.735  25.332  26.834  1.00  0.00     0.091 A 
ATOM     79  F   UNL A   1      39.993  25.596  29.088  1.00  0.00    -0.205 F 
ATOM     80  C   UNL A   1      41.309  25.895  25.684  1.00  0.00     0.022 A 
BRANCH  78  81
ATOM     81  S   UNL A   1      40.308  23.588  26.766  1.00  0.00     0.127 S 
ATOM     82  O   UNL A   1      38.890  23.640  26.421  1.00  0.00    -0.237 OA
ATOM     83  O   UNL A   1      41.185  23.102  25.699  1.00  0.00    -0.237 OA
ATOM     84  O   UNL A   1      40.623  23.058  28.085  1.00  0.00    -0.744 OA
ENDBRANCH  78  81
ENDBRANCH  50  74
BRANCH  62  85
ATOM     85  C   UNL A   1      44.509  27.468  34.080  1.00  0.00     0.023 A 
ATOM     86  C   UNL A   1      45.838  27.889  33.881  1.00  0.00     0.012 A 
ATOM     87  C   UNL A   1      44.255  26.317  34.852  1.00  0.00     0.148 A 
ATOM     88  C   UNL A   1      46.899  27.162  34.421  1.00  0.00     0.002 A 
ATOM     89  C   UNL A   1      45.314  25.622  35.424  1.00  0.00     0.091 A 
ATOM     90  F   UNL A   1      42.983  25.921  35.012  1.00  0.00    -0.205 F 
ATOM     91  C   UNL A   1      46.637  26.038  35.201  1.00  0.00     0.022 A 
BRANCH  89  92
ATOM     92  S   UNL A   1      45.064  24.221  36.520  1.00  0.00     0.127 S 
ATOM     93  O   UNL A   1      44.383  23.272  35.639  1.00  0.00    -0.237 OA
ATOM     94  O   UNL A   1      46.435  23.850  36.871  1.00  0.00    -0.237 OA
ATOM     95  O   UNL A   1      44.272  24.723  37.634  1.00  0.00    -0.744 OA
ENDBRANCH  89  92
ENDBRANCH  62  85
ENDBRANCH  36  37
ENDBRANCH  28  31
ENDBRANCH  26  27
ENDBRANCH  25  26
ENDBRANCH  24  25
ENDBRANCH   1  24
TORSDOF 19
ENDMDL
