MODEL 1
REMARK VINA RESULT:     -12.3      0.000      0.000
REMARK SMILES CCN(CC)C(=O)[C@@H]1CC=CC[C@H]1C(=O)Nc1ccc(C(=O)NCCCCNC(=O)c2ccc(-c3c4nc(c(-c5cccc(S(=O)(=O)[O-])c5F)c5ccc([nH]5)c(-c5cccc(S(=O)(=O)[O-])c5F)c5nc(c(-c6cccc(S(=O)(=O)[O-])c6F)c6ccc3[nH]6)C=C5)C=C4)cc2)cc1
REMARK SMILES IDX 25 1 24 2 23 3 21 4 22 5 20 7 17 8 18 9 95 10 19 11 94 12
REMARK SMILES IDX 16 13 14 14 15 15 13 17 8 18 9 19 10 20 12 21 11 22 6 23
REMARK SMILES IDX 3 24 7 25 2 26 1 27 4 28 5 29 26 30 27 31 28 32 29 33 30 35
REMARK SMILES IDX 31 36 32 37 93 38 33 39 92 40 34 41 35 42 36 43 86 44 37 45
REMARK SMILES IDX 91 46 85 47 87 48 38 49 90 50 84 51 83 52 39 54 71 55 51 56
REMARK SMILES IDX 70 57 52 58 55 59 69 60 88 61 53 62 54 63 68 65 89 66 56 67
REMARK SMILES IDX 40 68 41 69 49 70 42 71 44 72 50 73 43 74 45 75 46 76 47 77
REMARK SMILES IDX 48 78 72 79 73 80 81 81 74 82 76 83 82 84 75 85 77 86 78 87
REMARK SMILES IDX 79 88 80 89 57 90 58 91 66 92 59 93 61 94 67 95 60 96 62 97
REMARK SMILES IDX 63 98 64 99 65 100
REMARK H PARENT 23 6 16 16 28 34 87 53 55 64
REMARK Flexibility Score: inf
ROOT
ATOM      1  C   UNL A   1      32.157  30.330  27.125  1.00  0.00     0.023 C 
ENDROOT
BRANCH   1   2
ATOM      2  C   UNL A   1      32.365  29.503  25.855  1.00  0.00     0.116 C 
BRANCH   2   3
ATOM      3  N   UNL A   1      31.465  29.926  24.796  1.00  0.00    -0.352 N 
ATOM      4  C   UNL A   1      30.838  29.209  23.806  1.00  0.00     0.251 C 
ATOM      5  O   UNL A   1      30.019  29.768  23.080  1.00  0.00    -0.269 OA
ATOM      6  H   UNL A   1      31.271  30.891  24.785  1.00  0.00     0.163 HD
BRANCH   4   7
ATOM      7  C   UNL A   1      31.062  27.752  23.644  1.00  0.00     0.039 A 
ATOM      8  C   UNL A   1      31.507  25.090  22.974  1.00  0.00     0.041 A 
ATOM      9  C   UNL A   1      32.575  25.986  22.962  1.00  0.00     0.027 A 
ATOM     10  C   UNL A   1      30.280  25.471  23.504  1.00  0.00     0.027 A 
ATOM     11  C   UNL A   1      32.343  27.328  23.267  1.00  0.00     0.016 A 
ATOM     12  C   UNL A   1      30.062  26.801  23.855  1.00  0.00     0.016 A 
BRANCH   8  13
ATOM     13  N   UNL A   1      31.694  23.810  22.463  1.00  0.00    -0.326 N 
ATOM     14  C   UNL A   1      32.038  22.667  23.135  1.00  0.00     0.228 C 
ATOM     15  O   UNL A   1      32.045  21.617  22.474  1.00  0.00    -0.274 OA
ATOM     16  H   UNL A   1      31.560  23.713  21.493  1.00  0.00     0.169 HD
BRANCH  14  17
ATOM     17  C   UNL A   1      32.193  22.589  24.670  1.00  0.00     0.095 C 
ATOM     18  C   UNL A   1      33.339  23.347  25.414  1.00  0.00     0.095 C 
ATOM     19  C   UNL A   1      33.278  22.976  26.908  1.00  0.00     0.041 C 
ATOM     20  C   UNL A   1      31.907  22.965  27.513  1.00  0.00    -0.030 C 
ATOM     21  C   UNL A   1      30.799  22.814  25.294  1.00  0.00     0.041 C 
ATOM     22  C   UNL A   1      30.789  22.915  26.784  1.00  0.00    -0.030 C 
BRANCH  18  23
ATOM     23  C   UNL A   1      34.690  23.122  24.683  1.00  0.00     0.226 C 
ATOM     24  N   UNL A   1      35.451  21.961  24.763  1.00  0.00    -0.343 N 
ATOM     25  O   UNL A   1      35.182  24.089  24.084  1.00  0.00    -0.275 OA
BRANCH  24  26
ATOM     26  C   UNL A   1      36.761  21.989  24.090  1.00  0.00     0.116 C 
ATOM     27  C   UNL A   1      37.725  20.942  24.636  1.00  0.00     0.027 C 
ENDBRANCH  24  26
BRANCH  24  28
ATOM     28  C   UNL A   1      35.159  20.726  25.493  1.00  0.00     0.116 C 
ATOM     29  C   UNL A   1      34.255  19.797  24.699  1.00  0.00     0.027 C 
ENDBRANCH  24  28
ENDBRANCH  18  23
ENDBRANCH  14  17
ENDBRANCH   8  13
ENDBRANCH   4   7
ENDBRANCH   2   3
ENDBRANCH   1   2
BRANCH   1  30
ATOM     30  C   UNL A   1      31.957  31.827  26.880  1.00  0.00     0.023 C 
BRANCH  30  31
ATOM     31  C   UNL A   1      33.080  32.720  27.392  1.00  0.00     0.116 C 
BRANCH  31  32
ATOM     32  N   UNL A   1      32.637  34.072  27.705  1.00  0.00    -0.352 N 
ATOM     33  C   UNL A   1      33.127  34.931  28.661  1.00  0.00     0.251 C 
ATOM     34  H   UNL A   1      31.890  34.416  27.162  1.00  0.00     0.163 HD
ATOM     35  O   UNL A   1      32.568  36.003  28.874  1.00  0.00    -0.269 OA
BRANCH  33  36
ATOM     36  C   UNL A   1      34.311  34.529  29.451  1.00  0.00     0.039 A 
ATOM     37  C   UNL A   1      34.123  33.900  30.684  1.00  0.00     0.014 A 
ATOM     38  C   UNL A   1      35.597  34.726  28.944  1.00  0.00     0.014 A 
ATOM     39  C   UNL A   1      35.227  33.396  31.376  1.00  0.00     0.010 A 
ATOM     40  C   UNL A   1      36.688  34.170  29.605  1.00  0.00     0.010 A 
ATOM     41  C   UNL A   1      36.514  33.493  30.822  1.00  0.00    -0.014 A 
BRANCH  41  42
ATOM     42  C   UNL A   1      37.699  32.877  31.471  1.00  0.00     0.031 A 
ATOM     43  C   UNL A   1      38.385  31.708  30.820  1.00  0.00     0.074 A 
ATOM     44  C   UNL A   1      38.072  33.282  32.701  1.00  0.00     0.049 A 
ATOM     45  N   UNL A   1      39.335  30.944  31.290  1.00  0.00    -0.248 NA
ATOM     46  C   UNL A   1      37.921  31.331  29.474  1.00  0.00     0.031 C 
ATOM     47  C   UNL A   1      37.438  34.358  33.466  1.00  0.00     0.029 A 
ATOM     48  N   UNL A   1      39.047  32.807  33.542  1.00  0.00    -0.354 N 
ATOM     49  C   UNL A   1      39.550  29.969  30.324  1.00  0.00     0.074 A 
ATOM     50  C   UNL A   1      38.617  30.226  29.248  1.00  0.00     0.031 C 
ATOM     51  C   UNL A   1      38.033  34.454  34.667  1.00  0.00     0.029 A 
ATOM     52  C   UNL A   1      39.066  33.428  34.771  1.00  0.00     0.049 A 
ATOM     53  H   UNL A   1      39.674  32.091  33.291  1.00  0.00     0.167 HD
ATOM     54  C   UNL A   1      40.458  28.966  30.320  1.00  0.00     0.034 A 
ATOM     55  C   UNL A   1      39.820  33.188  35.863  1.00  0.00     0.034 A 
ATOM     56  C   UNL A   1      41.423  28.750  31.364  1.00  0.00     0.049 A 
ATOM     57  C   UNL A   1      40.854  32.096  35.813  1.00  0.00     0.074 A 
ATOM     58  C   UNL A   1      42.447  27.820  31.408  1.00  0.00     0.029 A 
ATOM     59  N   UNL A   1      41.484  29.471  32.546  1.00  0.00    -0.354 N 
ATOM     60  N   UNL A   1      41.146  31.282  34.827  1.00  0.00    -0.248 NA
ATOM     61  C   UNL A   1      41.686  31.907  37.012  1.00  0.00     0.031 C 
ATOM     62  C   UNL A   1      43.122  27.974  32.622  1.00  0.00     0.029 A 
ATOM     63  C   UNL A   1      42.526  29.006  33.328  1.00  0.00     0.049 A 
ATOM     64  H   UNL A   1      40.875  30.205  32.792  1.00  0.00     0.167 HD
ATOM     65  C   UNL A   1      42.218  30.515  35.269  1.00  0.00     0.074 A 
ATOM     66  C   UNL A   1      42.532  30.968  36.609  1.00  0.00     0.031 C 
ATOM     67  C   UNL A   1      42.872  29.516  34.629  1.00  0.00     0.034 A 
BRANCH  54  68
ATOM     68  C   UNL A   1      40.497  28.061  29.118  1.00  0.00     0.023 A 
ATOM     69  C   UNL A   1      39.531  27.043  28.990  1.00  0.00     0.012 A 
ATOM     70  C   UNL A   1      41.442  28.253  28.092  1.00  0.00     0.148 A 
ATOM     71  C   UNL A   1      39.524  26.208  27.874  1.00  0.00     0.002 A 
ATOM     72  C   UNL A   1      41.403  27.442  26.963  1.00  0.00     0.091 A 
ATOM     73  F   UNL A   1      42.367  29.210  28.243  1.00  0.00    -0.205 F 
ATOM     74  C   UNL A   1      40.452  26.414  26.857  1.00  0.00     0.022 A 
BRANCH  72  75
ATOM     75  S   UNL A   1      42.510  27.679  25.568  1.00  0.00     0.127 S 
ATOM     76  O   UNL A   1      42.223  26.493  24.761  1.00  0.00    -0.237 OA
ATOM     77  O   UNL A   1      42.025  28.936  24.996  1.00  0.00    -0.237 OA
ATOM     78  O   UNL A   1      43.851  27.748  26.130  1.00  0.00    -0.744 OA
ENDBRANCH  72  75
ENDBRANCH  54  68
BRANCH  55  79
ATOM     79  C   UNL A   1      39.670  34.047  37.072  1.00  0.00     0.023 A 
ATOM     80  C   UNL A   1      40.078  35.392  37.011  1.00  0.00     0.012 A 
ATOM     81  C   UNL A   1      39.096  33.556  38.260  1.00  0.00     0.148 A 
ATOM     82  C   UNL A   1      39.943  36.230  38.119  1.00  0.00     0.002 A 
ATOM     83  C   UNL A   1      38.916  34.409  39.345  1.00  0.00     0.091 A 
ATOM     84  F   UNL A   1      38.727  32.268  38.304  1.00  0.00    -0.205 F 
ATOM     85  C   UNL A   1      39.353  35.741  39.281  1.00  0.00     0.022 A 
BRANCH  83  86
ATOM     86  S   UNL A   1      38.045  33.898  40.831  1.00  0.00     0.127 S 
ATOM     87  O   UNL A   1      37.982  35.147  41.585  1.00  0.00    -0.237 OA
ATOM     88  O   UNL A   1      36.763  33.440  40.291  1.00  0.00    -0.237 OA
ATOM     89  O   UNL A   1      38.859  32.840  41.413  1.00  0.00    -0.744 OA
ENDBRANCH  83  86
ENDBRANCH  55  79
BRANCH  67  90
ATOM     90  C   UNL A   1      44.028  28.862  35.337  1.00  0.00     0.023 A 
ATOM     91  C   UNL A   1      45.312  29.433  35.252  1.00  0.00     0.012 A 
ATOM     92  C   UNL A   1      43.817  27.749  36.176  1.00  0.00     0.148 A 
ATOM     93  C   UNL A   1      46.373  28.899  35.982  1.00  0.00     0.002 A 
ATOM     94  C   UNL A   1      44.869  27.249  36.932  1.00  0.00     0.091 A 
ATOM     95  F   UNL A   1      42.590  27.211  36.225  1.00  0.00    -0.205 F 
ATOM     96  C   UNL A   1      46.149  27.817  36.831  1.00  0.00     0.022 A 
BRANCH  94  97
ATOM     97  S   UNL A   1      44.654  25.920  38.122  1.00  0.00     0.127 S 
ATOM     98  O   UNL A   1      45.996  25.812  38.694  1.00  0.00    -0.237 OA
ATOM     99  O   UNL A   1      43.647  26.474  39.027  1.00  0.00    -0.237 OA
ATOM    100  O   UNL A   1      44.209  24.763  37.358  1.00  0.00    -0.744 OA
ENDBRANCH  94  97
ENDBRANCH  67  90
ENDBRANCH  41  42
ENDBRANCH  33  36
ENDBRANCH  31  32
ENDBRANCH  30  31
ENDBRANCH   1  30
TORSDOF 19
ENDMDL
MODEL 2
REMARK VINA RESULT:     -12.1      6.304     11.428
REMARK SMILES CCN(CC)C(=O)[C@@H]1CC=CC[C@H]1C(=O)Nc1ccc(C(=O)NCCCCNC(=O)c2ccc(-c3c4nc(c(-c5cccc(S(=O)(=O)[O-])c5F)c5ccc([nH]5)c(-c5cccc(S(=O)(=O)[O-])c5F)c5nc(c(-c6cccc(S(=O)(=O)[O-])c6F)c6ccc3[nH]6)C=C5)C=C4)cc2)cc1
REMARK SMILES IDX 25 1 24 2 23 3 21 4 22 5 20 7 17 8 18 9 95 10 19 11 94 12
REMARK SMILES IDX 16 13 14 14 15 15 13 17 8 18 9 19 10 20 12 21 11 22 6 23
REMARK SMILES IDX 3 24 7 25 2 26 1 27 4 28 5 29 26 30 27 31 28 32 29 33 30 35
REMARK SMILES IDX 31 36 32 37 93 38 33 39 92 40 34 41 35 42 36 43 86 44 37 45
REMARK SMILES IDX 91 46 85 47 87 48 38 49 90 50 84 51 83 52 39 54 71 55 51 56
REMARK SMILES IDX 70 57 52 58 55 59 69 60 88 61 53 62 54 63 68 65 89 66 56 67
REMARK SMILES IDX 40 68 41 69 49 70 42 71 44 72 50 73 43 74 45 75 46 76 47 77
REMARK SMILES IDX 48 78 72 79 73 80 81 81 74 82 76 83 82 84 75 85 77 86 78 87
REMARK SMILES IDX 79 88 80 89 57 90 58 91 66 92 59 93 61 94 67 95 60 96 62 97
REMARK SMILES IDX 63 98 64 99 65 100
REMARK H PARENT 23 6 16 16 28 34 87 53 55 64
REMARK Flexibility Score: inf
ROOT
ATOM      1  C   UNL A   1      36.925  19.447  24.637  1.00  0.00     0.023 C 
ENDROOT
BRANCH   1   2
ATOM      2  C   UNL A   1      35.526  19.623  25.230  1.00  0.00     0.116 C 
BRANCH   2   3
ATOM      3  N   UNL A   1      34.669  18.495  24.906  1.00  0.00    -0.352 N 
ATOM      4  C   UNL A   1      33.412  18.447  24.355  1.00  0.00     0.251 C 
ATOM      5  O   UNL A   1      32.921  17.359  24.060  1.00  0.00    -0.269 OA
ATOM      6  H   UNL A   1      35.055  17.614  25.118  1.00  0.00     0.163 HD
BRANCH   4   7
ATOM      7  C   UNL A   1      32.663  19.684  24.025  1.00  0.00     0.039 A 
ATOM      8  C   UNL A   1      31.585  22.136  23.275  1.00  0.00     0.041 A 
ATOM      9  C   UNL A   1      31.867  21.185  22.296  1.00  0.00     0.027 A 
ATOM     10  C   UNL A   1      31.652  21.795  24.622  1.00  0.00     0.027 A 
ATOM     11  C   UNL A   1      32.439  19.968  22.672  1.00  0.00     0.016 A 
ATOM     12  C   UNL A   1      32.177  20.560  24.997  1.00  0.00     0.016 A 
BRANCH   8  13
ATOM     13  N   UNL A   1      31.222  23.421  22.885  1.00  0.00    -0.326 N 
ATOM     14  C   UNL A   1      31.894  24.596  23.093  1.00  0.00     0.228 C 
ATOM     15  O   UNL A   1      31.419  25.608  22.557  1.00  0.00    -0.274 OA
ATOM     16  H   UNL A   1      30.372  23.494  22.394  1.00  0.00     0.169 HD
BRANCH  14  17
ATOM     17  C   UNL A   1      33.290  24.679  23.751  1.00  0.00     0.095 C 
ATOM     18  C   UNL A   1      33.463  24.654  25.303  1.00  0.00     0.095 C 
ATOM     19  C   UNL A   1      34.953  24.863  25.630  1.00  0.00     0.041 C 
ATOM     20  C   UNL A   1      35.913  24.084  24.783  1.00  0.00    -0.030 C 
ATOM     21  C   UNL A   1      34.217  23.691  23.011  1.00  0.00     0.041 C 
ATOM     22  C   UNL A   1      35.575  23.536  23.613  1.00  0.00    -0.030 C 
BRANCH  18  23
ATOM     23  C   UNL A   1      32.449  25.623  25.969  1.00  0.00     0.226 C 
ATOM     24  N   UNL A   1      32.539  27.010  25.936  1.00  0.00    -0.343 N 
ATOM     25  O   UNL A   1      31.566  25.123  26.681  1.00  0.00    -0.275 OA
BRANCH  24  26
ATOM     26  C   UNL A   1      31.543  27.750  26.729  1.00  0.00     0.116 C 
ATOM     27  C   UNL A   1      32.122  28.999  27.383  1.00  0.00     0.027 C 
ENDBRANCH  24  26
BRANCH  24  28
ATOM     28  C   UNL A   1      33.542  27.845  25.273  1.00  0.00     0.116 C 
ATOM     29  C   UNL A   1      33.063  28.339  23.917  1.00  0.00     0.027 C 
ENDBRANCH  24  28
ENDBRANCH  18  23
ENDBRANCH  14  17
ENDBRANCH   8  13
ENDBRANCH   4   7
ENDBRANCH   2   3
ENDBRANCH   1   2
BRANCH   1  30
ATOM     30  C   UNL A   1      37.790  20.710  24.670  1.00  0.00     0.023 C 
BRANCH  30  31
ATOM     31  C   UNL A   1      38.788  20.776  25.819  1.00  0.00     0.116 C 
BRANCH  31  32
ATOM     32  N   UNL A   1      39.684  19.628  25.864  1.00  0.00    -0.352 N 
ATOM     33  C   UNL A   1      41.040  19.612  26.095  1.00  0.00     0.251 C 
ATOM     34  H   UNL A   1      39.265  18.750  25.708  1.00  0.00     0.163 HD
ATOM     35  O   UNL A   1      41.672  18.565  25.991  1.00  0.00    -0.269 OA
BRANCH  33  36
ATOM     36  C   UNL A   1      41.727  20.876  26.435  1.00  0.00     0.039 A 
ATOM     37  C   UNL A   1      42.064  21.763  25.409  1.00  0.00     0.014 A 
ATOM     38  C   UNL A   1      41.985  21.203  27.768  1.00  0.00     0.014 A 
ATOM     39  C   UNL A   1      42.591  23.017  25.728  1.00  0.00     0.010 A 
ATOM     40  C   UNL A   1      42.451  22.474  28.086  1.00  0.00     0.010 A 
ATOM     41  C   UNL A   1      42.751  23.396  27.071  1.00  0.00    -0.014 A 
BRANCH  41  42
ATOM     42  C   UNL A   1      43.205  24.757  27.455  1.00  0.00     0.031 A 
ATOM     43  C   UNL A   1      42.222  25.740  28.026  1.00  0.00     0.074 A 
ATOM     44  C   UNL A   1      44.463  25.146  27.169  1.00  0.00     0.049 A 
ATOM     45  N   UNL A   1      42.383  27.011  28.286  1.00  0.00    -0.248 NA
ATOM     46  C   UNL A   1      40.869  25.235  28.314  1.00  0.00     0.031 C 
ATOM     47  C   UNL A   1      45.490  24.305  26.550  1.00  0.00     0.029 A 
ATOM     48  N   UNL A   1      45.080  26.363  27.322  1.00  0.00    -0.354 N 
ATOM     49  C   UNL A   1      41.145  27.468  28.721  1.00  0.00     0.074 A 
ATOM     50  C   UNL A   1      40.237  26.343  28.671  1.00  0.00     0.031 C 
ATOM     51  C   UNL A   1      46.604  25.032  26.366  1.00  0.00     0.029 A 
ATOM     52  C   UNL A   1      46.363  26.398  26.822  1.00  0.00     0.049 A 
ATOM     53  H   UNL A   1      44.648  27.137  27.749  1.00  0.00     0.167 HD
ATOM     54  C   UNL A   1      40.802  28.706  29.148  1.00  0.00     0.034 A 
ATOM     55  C   UNL A   1      47.239  27.418  26.728  1.00  0.00     0.034 A 
ATOM     56  C   UNL A   1      41.723  29.805  29.252  1.00  0.00     0.049 A 
ATOM     57  C   UNL A   1      46.846  28.772  27.253  1.00  0.00     0.074 A 
ATOM     58  C   UNL A   1      41.494  31.071  29.762  1.00  0.00     0.029 A 
ATOM     59  N   UNL A   1      43.045  29.771  28.838  1.00  0.00    -0.354 N 
ATOM     60  N   UNL A   1      45.717  29.146  27.805  1.00  0.00    -0.248 NA
ATOM     61  C   UNL A   1      47.857  29.839  27.174  1.00  0.00     0.031 C 
ATOM     62  C   UNL A   1      42.678  31.805  29.649  1.00  0.00     0.029 A 
ATOM     63  C   UNL A   1      43.646  30.994  29.080  1.00  0.00     0.049 A 
ATOM     64  H   UNL A   1      43.490  28.992  28.433  1.00  0.00     0.167 HD
ATOM     65  C   UNL A   1      45.894  30.474  28.175  1.00  0.00     0.074 A 
ATOM     66  C   UNL A   1      47.243  30.838  27.795  1.00  0.00     0.031 C 
ATOM     67  C   UNL A   1      45.012  31.319  28.762  1.00  0.00     0.034 A 
BRANCH  54  68
ATOM     68  C   UNL A   1      39.383  28.922  29.598  1.00  0.00     0.023 A 
ATOM     69  C   UNL A   1      39.010  28.551  30.906  1.00  0.00     0.012 A 
ATOM     70  C   UNL A   1      38.439  29.545  28.759  1.00  0.00     0.148 A 
ATOM     71  C   UNL A   1      37.710  28.766  31.361  1.00  0.00     0.002 A 
ATOM     72  C   UNL A   1      37.156  29.793  29.235  1.00  0.00     0.091 A 
ATOM     73  F   UNL A   1      38.805  29.869  27.512  1.00  0.00    -0.205 F 
ATOM     74  C   UNL A   1      36.788  29.397  30.531  1.00  0.00     0.022 A 
BRANCH  72  75
ATOM     75  S   UNL A   1      35.921  30.665  28.265  1.00  0.00     0.127 S 
ATOM     76  O   UNL A   1      36.634  31.893  27.916  1.00  0.00    -0.237 OA
ATOM     77  O   UNL A   1      35.701  29.749  27.145  1.00  0.00    -0.237 OA
ATOM     78  O   UNL A   1      34.770  30.834  29.142  1.00  0.00    -0.744 OA
ENDBRANCH  72  75
ENDBRANCH  54  68
BRANCH  55  79
ATOM     79  C   UNL A   1      48.602  27.177  26.174  1.00  0.00     0.023 A 
ATOM     80  C   UNL A   1      49.590  26.618  27.006  1.00  0.00     0.012 A 
ATOM     81  C   UNL A   1      48.914  27.459  24.831  1.00  0.00     0.148 A 
ATOM     82  C   UNL A   1      50.874  26.367  26.520  1.00  0.00     0.002 A 
ATOM     83  C   UNL A   1      50.180  27.160  24.337  1.00  0.00     0.091 A 
ATOM     84  F   UNL A   1      47.965  28.005  24.057  1.00  0.00    -0.205 F 
ATOM     85  C   UNL A   1      51.166  26.628  25.184  1.00  0.00     0.022 A 
BRANCH  83  86
ATOM     86  S   UNL A   1      50.599  27.339  22.599  1.00  0.00     0.127 S 
ATOM     87  O   UNL A   1      50.555  28.789  22.429  1.00  0.00    -0.237 OA
ATOM     88  O   UNL A   1      51.940  26.753  22.547  1.00  0.00    -0.237 OA
ATOM     89  O   UNL A   1      49.588  26.580  21.876  1.00  0.00    -0.744 OA
ENDBRANCH  83  86
ENDBRANCH  55  79
BRANCH  67  90
ATOM     90  C   UNL A   1      45.476  32.715  29.080  1.00  0.00     0.023 A 
ATOM     91  C   UNL A   1      46.191  32.959  30.268  1.00  0.00     0.012 A 
ATOM     92  C   UNL A   1      45.303  33.757  28.147  1.00  0.00     0.148 A 
ATOM     93  C   UNL A   1      46.715  34.224  30.531  1.00  0.00     0.002 A 
ATOM     94  C   UNL A   1      45.865  35.003  28.396  1.00  0.00     0.091 A 
ATOM     95  F   UNL A   1      44.603  33.505  27.031  1.00  0.00    -0.205 F 
ATOM     96  C   UNL A   1      46.565  35.240  29.590  1.00  0.00     0.022 A 
BRANCH  94  97
ATOM     97  S   UNL A   1      45.804  36.344  27.201  1.00  0.00     0.127 S 
ATOM     98  O   UNL A   1      46.467  35.743  26.045  1.00  0.00    -0.237 OA
ATOM     99  O   UNL A   1      44.365  36.551  27.041  1.00  0.00    -0.237 OA
ATOM    100  O   UNL A   1      46.512  37.460  27.814  1.00  0.00    -0.744 OA
ENDBRANCH  94  97
ENDBRANCH  67  90
ENDBRANCH  41  42
ENDBRANCH  33  36
ENDBRANCH  31  32
ENDBRANCH  30  31
ENDBRANCH   1  30
TORSDOF 19
ENDMDL
MODEL 3
REMARK VINA RESULT:     -12.0      6.134     10.030
REMARK SMILES CCN(CC)C(=O)[C@@H]1CC=CC[C@H]1C(=O)Nc1ccc(C(=O)NCCCCNC(=O)c2ccc(-c3c4nc(c(-c5cccc(S(=O)(=O)[O-])c5F)c5ccc([nH]5)c(-c5cccc(S(=O)(=O)[O-])c5F)c5nc(c(-c6cccc(S(=O)(=O)[O-])c6F)c6ccc3[nH]6)C=C5)C=C4)cc2)cc1
REMARK SMILES IDX 25 1 24 2 23 3 21 4 22 5 20 7 17 8 18 9 95 10 19 11 94 12
REMARK SMILES IDX 16 13 14 14 15 15 13 17 8 18 9 19 10 20 12 21 11 22 6 23
REMARK SMILES IDX 3 24 7 25 2 26 1 27 4 28 5 29 26 30 27 31 28 32 29 33 30 35
REMARK SMILES IDX 31 36 32 37 93 38 33 39 92 40 34 41 35 42 36 43 86 44 37 45
REMARK SMILES IDX 91 46 85 47 87 48 38 49 90 50 84 51 83 52 39 54 71 55 51 56
REMARK SMILES IDX 70 57 52 58 55 59 69 60 88 61 53 62 54 63 68 65 89 66 56 67
REMARK SMILES IDX 40 68 41 69 49 70 42 71 44 72 50 73 43 74 45 75 46 76 47 77
REMARK SMILES IDX 48 78 72 79 73 80 81 81 74 82 76 83 82 84 75 85 77 86 78 87
REMARK SMILES IDX 79 88 80 89 57 90 58 91 66 92 59 93 61 94 67 95 60 96 62 97
REMARK SMILES IDX 63 98 64 99 65 100
REMARK H PARENT 23 6 16 16 28 34 87 53 55 64
REMARK Flexibility Score: inf
ROOT
ATOM      1  C   UNL A   1      37.274  20.944  24.607  1.00  0.00     0.023 C 
ENDROOT
BRANCH   1   2
ATOM      2  C   UNL A   1      36.047  21.162  25.495  1.00  0.00     0.116 C 
BRANCH   2   3
ATOM      3  N   UNL A   1      35.111  20.056  25.382  1.00  0.00    -0.352 N 
ATOM      4  C   UNL A   1      33.771  20.036  25.078  1.00  0.00     0.251 C 
ATOM      5  O   UNL A   1      33.201  18.959  24.923  1.00  0.00    -0.269 OA
ATOM      6  H   UNL A   1      35.503  19.169  25.553  1.00  0.00     0.163 HD
BRANCH   4   7
ATOM      7  C   UNL A   1      33.012  21.289  24.845  1.00  0.00     0.039 A 
ATOM      8  C   UNL A   1      31.288  23.448  24.528  1.00  0.00     0.041 A 
ATOM      9  C   UNL A   1      31.711  23.092  25.808  1.00  0.00     0.027 A 
ATOM     10  C   UNL A   1      31.872  22.863  23.410  1.00  0.00     0.027 A 
ATOM     11  C   UNL A   1      32.550  21.988  25.967  1.00  0.00     0.016 A 
ATOM     12  C   UNL A   1      32.749  21.792  23.569  1.00  0.00     0.016 A 
BRANCH   8  13
ATOM     13  N   UNL A   1      30.287  24.404  24.388  1.00  0.00    -0.326 N 
ATOM     14  C   UNL A   1      30.263  25.687  24.868  1.00  0.00     0.228 C 
ATOM     15  O   UNL A   1      29.298  26.388  24.525  1.00  0.00    -0.274 OA
ATOM     16  H   UNL A   1      29.494  24.122  23.878  1.00  0.00     0.169 HD
BRANCH  14  17
ATOM     17  C   UNL A   1      31.449  26.350  25.603  1.00  0.00     0.095 C 
ATOM     18  C   UNL A   1      32.540  27.157  24.830  1.00  0.00     0.095 C 
ATOM     19  C   UNL A   1      33.628  27.587  25.832  1.00  0.00     0.041 C 
ATOM     20  C   UNL A   1      33.124  28.120  27.139  1.00  0.00    -0.030 C 
ATOM     21  C   UNL A   1      30.882  27.097  26.829  1.00  0.00     0.041 C 
ATOM     22  C   UNL A   1      31.879  27.919  27.578  1.00  0.00    -0.030 C 
BRANCH  18  23
ATOM     23  C   UNL A   1      33.003  26.364  23.579  1.00  0.00     0.226 C 
ATOM     24  N   UNL A   1      32.385  26.414  22.334  1.00  0.00    -0.343 N 
ATOM     25  O   UNL A   1      33.913  25.536  23.733  1.00  0.00    -0.275 OA
BRANCH  24  26
ATOM     26  C   UNL A   1      32.905  25.496  21.306  1.00  0.00     0.116 C 
ATOM     27  C   UNL A   1      32.228  25.683  19.954  1.00  0.00     0.027 C 
ENDBRANCH  24  26
BRANCH  24  28
ATOM     28  C   UNL A   1      31.229  27.211  21.920  1.00  0.00     0.116 C 
ATOM     29  C   UNL A   1      31.316  28.642  22.423  1.00  0.00     0.027 C 
ENDBRANCH  24  28
ENDBRANCH  18  23
ENDBRANCH  14  17
ENDBRANCH   8  13
ENDBRANCH   4   7
ENDBRANCH   2   3
ENDBRANCH   1   2
BRANCH   1  30
ATOM     30  C   UNL A   1      38.209  19.829  25.081  1.00  0.00     0.023 C 
BRANCH  30  31
ATOM     31  C   UNL A   1      39.391  20.293  25.922  1.00  0.00     0.116 C 
BRANCH  31  32
ATOM     32  N   UNL A   1      40.413  19.267  26.087  1.00  0.00    -0.352 N 
ATOM     33  C   UNL A   1      41.759  19.432  26.314  1.00  0.00     0.251 C 
ATOM     34  H   UNL A   1      40.098  18.335  26.027  1.00  0.00     0.163 HD
ATOM     35  O   UNL A   1      42.508  18.460  26.320  1.00  0.00    -0.269 OA
BRANCH  33  36
ATOM     36  C   UNL A   1      42.293  20.796  26.515  1.00  0.00     0.039 A 
ATOM     37  C   UNL A   1      42.530  21.604  25.399  1.00  0.00     0.014 A 
ATOM     38  C   UNL A   1      42.505  21.288  27.805  1.00  0.00     0.014 A 
ATOM     39  C   UNL A   1      42.906  22.937  25.581  1.00  0.00     0.010 A 
ATOM     40  C   UNL A   1      42.820  22.631  27.984  1.00  0.00     0.010 A 
ATOM     41  C   UNL A   1      43.015  23.471  26.876  1.00  0.00    -0.014 A 
BRANCH  41  42
ATOM     42  C   UNL A   1      43.306  24.908  27.112  1.00  0.00     0.031 A 
ATOM     43  C   UNL A   1      44.689  25.442  26.861  1.00  0.00     0.074 A 
ATOM     44  C   UNL A   1      42.368  25.694  27.675  1.00  0.00     0.049 A 
ATOM     45  N   UNL A   1      45.181  26.620  27.141  1.00  0.00    -0.248 NA
ATOM     46  C   UNL A   1      45.654  24.520  26.240  1.00  0.00     0.031 C 
ATOM     47  C   UNL A   1      41.012  25.272  28.031  1.00  0.00     0.029 A 
ATOM     48  N   UNL A   1      42.426  27.003  28.085  1.00  0.00    -0.354 N 
ATOM     49  C   UNL A   1      46.521  26.567  26.777  1.00  0.00     0.074 A 
ATOM     50  C   UNL A   1      46.770  25.234  26.273  1.00  0.00     0.031 C 
ATOM     51  C   UNL A   1      40.371  26.298  28.616  1.00  0.00     0.029 A 
ATOM     52  C   UNL A   1      41.277  27.438  28.707  1.00  0.00     0.049 A 
ATOM     53  H   UNL A   1      43.214  27.577  27.948  1.00  0.00     0.167 HD
ATOM     54  C   UNL A   1      47.452  27.547  26.832  1.00  0.00     0.034 A 
ATOM     55  C   UNL A   1      40.992  28.616  29.296  1.00  0.00     0.034 A 
ATOM     56  C   UNL A   1      47.185  28.887  27.278  1.00  0.00     0.049 A 
ATOM     57  C   UNL A   1      42.032  29.704  29.302  1.00  0.00     0.074 A 
ATOM     58  C   UNL A   1      48.038  29.977  27.282  1.00  0.00     0.029 A 
ATOM     59  N   UNL A   1      45.976  29.322  27.798  1.00  0.00    -0.354 N 
ATOM     60  N   UNL A   1      43.248  29.683  28.812  1.00  0.00    -0.248 NA
ATOM     61  C   UNL A   1      41.654  30.988  29.912  1.00  0.00     0.031 C 
ATOM     62  C   UNL A   1      47.345  31.069  27.813  1.00  0.00     0.029 A 
ATOM     63  C   UNL A   1      46.059  30.663  28.128  1.00  0.00     0.049 A 
ATOM     64  H   UNL A   1      45.176  28.759  27.915  1.00  0.00     0.167 HD
ATOM     65  C   UNL A   1      43.765  30.957  29.016  1.00  0.00     0.074 A 
ATOM     66  C   UNL A   1      42.726  31.730  29.665  1.00  0.00     0.031 C 
ATOM     67  C   UNL A   1      44.993  31.438  28.707  1.00  0.00     0.034 A 
BRANCH  54  68
ATOM     68  C   UNL A   1      48.837  27.225  26.338  1.00  0.00     0.023 A 
ATOM     69  C   UNL A   1      49.746  26.583  27.204  1.00  0.00     0.012 A 
ATOM     70  C   UNL A   1      49.219  27.498  25.011  1.00  0.00     0.148 A 
ATOM     71  C   UNL A   1      51.026  26.246  26.766  1.00  0.00     0.002 A 
ATOM     72  C   UNL A   1      50.483  27.123  24.570  1.00  0.00     0.091 A 
ATOM     73  F   UNL A   1      48.350  28.131  24.211  1.00  0.00    -0.205 F 
ATOM     74  C   UNL A   1      51.389  26.505  25.447  1.00  0.00     0.022 A 
BRANCH  72  75
ATOM     75  S   UNL A   1      51.017  27.348  22.870  1.00  0.00     0.127 S 
ATOM     76  O   UNL A   1      51.067  28.806  22.768  1.00  0.00    -0.237 OA
ATOM     77  O   UNL A   1      52.325  26.691  22.864  1.00  0.00    -0.237 OA
ATOM     78  O   UNL A   1      50.009  26.695  22.045  1.00  0.00    -0.744 OA
ENDBRANCH  72  75
ENDBRANCH  54  68
BRANCH  55  79
ATOM     79  C   UNL A   1      39.635  28.851  29.868  1.00  0.00     0.023 A 
ATOM     80  C   UNL A   1      39.322  28.314  31.131  1.00  0.00     0.012 A 
ATOM     81  C   UNL A   1      38.674  29.627  29.194  1.00  0.00     0.148 A 
ATOM     82  C   UNL A   1      38.066  28.523  31.703  1.00  0.00     0.002 A 
ATOM     83  C   UNL A   1      37.442  29.875  29.792  1.00  0.00     0.091 A 
ATOM     84  F   UNL A   1      38.984  30.118  27.986  1.00  0.00    -0.205 F 
ATOM     85  C   UNL A   1      37.131  29.311  31.039  1.00  0.00     0.022 A 
BRANCH  83  86
ATOM     86  S   UNL A   1      36.231  30.987  29.067  1.00  0.00     0.127 S 
ATOM     87  O   UNL A   1      37.065  32.116  28.663  1.00  0.00    -0.237 OA
ATOM     88  O   UNL A   1      35.703  30.185  27.962  1.00  0.00    -0.237 OA
ATOM     89  O   UNL A   1      35.266  31.252  30.126  1.00  0.00    -0.744 OA
ENDBRANCH  83  86
ENDBRANCH  55  79
BRANCH  67  90
ATOM     90  C   UNL A   1      45.286  32.881  29.019  1.00  0.00     0.023 A 
ATOM     91  C   UNL A   1      45.897  33.220  30.242  1.00  0.00     0.012 A 
ATOM     92  C   UNL A   1      45.061  33.882  28.054  1.00  0.00     0.148 A 
ATOM     93  C   UNL A   1      46.267  34.538  30.506  1.00  0.00     0.002 A 
ATOM     94  C   UNL A   1      45.471  35.185  28.306  1.00  0.00     0.091 A 
ATOM     95  F   UNL A   1      44.462  33.538  26.905  1.00  0.00    -0.205 F 
ATOM     96  C   UNL A   1      46.067  35.516  29.534  1.00  0.00     0.022 A 
BRANCH  94  97
ATOM     97  S   UNL A   1      45.341  36.492  27.080  1.00  0.00     0.127 S 
ATOM     98  O   UNL A   1      45.953  37.620  27.781  1.00  0.00    -0.237 OA
ATOM     99  O   UNL A   1      46.135  35.958  25.973  1.00  0.00    -0.237 OA
ATOM    100  O   UNL A   1      43.920  36.634  26.792  1.00  0.00    -0.744 OA
ENDBRANCH  94  97
ENDBRANCH  67  90
ENDBRANCH  41  42
ENDBRANCH  33  36
ENDBRANCH  31  32
ENDBRANCH  30  31
ENDBRANCH   1  30
TORSDOF 19
ENDMDL
