MODEL 1
REMARK VINA RESULT:     -13.5      0.000      0.000
REMARK SMILES Cc1cc(C(=O)NCCCCNC(=O)c2ccc(-c3c4nc(c(-c5cccc(S(=O)(=O)[O-])c5F)c5ccc([nH]5)c(-c5cccc(S(=O)(=O)[O-])c5F)c5nc(c(-c6cccc(S(=O)(=O)[O-])c6F)c6ccc3[nH]6)C=C5)C=C4)cc2)ccc1NC(=O)N1C[C@@H](C)[C@H](C)C1
REMARK SMILES IDX 10 1 9 2 8 3 7 4 5 5 6 6 4 8 1 9 2 10 3 11 80 12 79 13 78 14
REMARK SMILES IDX 81 15 82 16 83 18 84 19 85 20 90 21 86 22 88 23 87 24 89 25
REMARK SMILES IDX 11 26 12 27 13 28 14 30 15 31 16 32 77 33 17 34 76 35 18 36
REMARK SMILES IDX 19 37 20 38 70 39 21 40 75 41 69 42 71 43 22 44 74 45 68 46
REMARK SMILES IDX 67 47 23 49 55 50 35 51 54 52 36 53 39 54 53 55 72 56 37 57
REMARK SMILES IDX 38 58 52 60 73 61 40 62 24 63 25 64 33 65 26 66 28 67 34 68
REMARK SMILES IDX 27 69 29 70 30 71 31 72 32 73 56 74 57 75 65 76 58 77 60 78
REMARK SMILES IDX 66 79 59 80 61 81 62 82 63 83 64 84 41 85 42 86 50 87 43 88
REMARK SMILES IDX 45 89 51 90 44 91 46 92 47 93 48 94 49 95
REMARK H PARENT 7 7 81 17 12 29 71 48 39 59
REMARK Flexibility Score: inf
ROOT
ATOM      1  C   UNL A   1      37.862  20.620  25.352  1.00  0.00     0.023 C 
ENDROOT
BRANCH   1   2
ATOM      2  C   UNL A   1      36.502  20.784  24.682  1.00  0.00     0.023 C 
BRANCH   2   3
ATOM      3  C   UNL A   1      35.330  21.086  25.638  1.00  0.00     0.116 C 
BRANCH   3   4
ATOM      4  N   UNL A   1      34.268  20.083  25.587  1.00  0.00    -0.352 N 
ATOM      5  C   UNL A   1      32.954  20.154  25.180  1.00  0.00     0.251 C 
ATOM      6  O   UNL A   1      32.296  19.120  25.095  1.00  0.00    -0.269 OA
ATOM      7  H   UNL A   1      34.543  19.191  25.902  1.00  0.00     0.163 HD
BRANCH   5   8
ATOM      8  C   UNL A   1      32.323  21.443  24.800  1.00  0.00     0.040 A 
ATOM      9  C   UNL A   1      30.438  24.250  26.510  1.00  0.00     0.046 C 
ATOM     10  C   UNL A   1      30.943  23.377  25.396  1.00  0.00    -0.027 A 
ATOM     11  C   UNL A   1      31.659  22.213  25.760  1.00  0.00     0.019 A 
ATOM     12  C   UNL A   1      30.818  23.690  24.032  1.00  0.00     0.045 A 
ATOM     13  C   UNL A   1      31.659  23.043  23.130  1.00  0.00     0.027 A 
ATOM     14  C   UNL A   1      32.420  21.955  23.519  1.00  0.00     0.016 A 
BRANCH  12  15
ATOM     15  N   UNL A   1      29.910  24.659  23.560  1.00  0.00    -0.308 N 
ATOM     16  C   UNL A   1      29.890  26.004  23.825  1.00  0.00     0.321 C 
ATOM     17  H   UNL A   1      29.202  24.328  22.963  1.00  0.00     0.171 HD
ATOM     18  O   UNL A   1      28.804  26.583  23.878  1.00  0.00    -0.248 OA
ATOM     19  N   UNL A   1      31.081  26.663  24.014  1.00  0.00    -0.324 N 
ATOM     20  C   UNL A   1      31.169  27.843  24.851  1.00  0.00     0.125 C 
ATOM     21  C   UNL A   1      32.251  26.541  23.145  1.00  0.00     0.125 C 
ATOM     22  C   UNL A   1      32.319  28.667  24.280  1.00  0.00     0.010 C 
ATOM     23  C   UNL A   1      33.236  27.611  23.634  1.00  0.00     0.010 C 
ATOM     24  C   UNL A   1      33.027  29.497  25.343  1.00  0.00     0.010 C 
ATOM     25  C   UNL A   1      34.113  28.186  22.525  1.00  0.00     0.010 C 
ENDBRANCH  12  15
ENDBRANCH   5   8
ENDBRANCH   3   4
ENDBRANCH   2   3
ENDBRANCH   1   2
BRANCH   1  26
ATOM     26  C   UNL A   1      38.531  21.947  25.636  1.00  0.00     0.116 C 
BRANCH  26  27
ATOM     27  N   UNL A   1      39.579  21.857  26.633  1.00  0.00    -0.352 N 
ATOM     28  C   UNL A   1      40.365  22.851  27.181  1.00  0.00     0.251 C 
ATOM     29  H   UNL A   1      39.757  20.950  26.971  1.00  0.00     0.163 HD
ATOM     30  O   UNL A   1      41.378  22.503  27.784  1.00  0.00    -0.269 OA
BRANCH  28  31
ATOM     31  C   UNL A   1      39.914  24.271  27.195  1.00  0.00     0.039 A 
ATOM     32  C   UNL A   1      40.640  25.175  26.403  1.00  0.00     0.014 A 
ATOM     33  C   UNL A   1      39.035  24.762  28.153  1.00  0.00     0.014 A 
ATOM     34  C   UNL A   1      40.733  26.510  26.780  1.00  0.00     0.010 A 
ATOM     35  C   UNL A   1      39.195  26.053  28.592  1.00  0.00     0.010 A 
ATOM     36  C   UNL A   1      40.120  26.890  27.962  1.00  0.00    -0.014 A 
BRANCH  36  37
ATOM     37  C   UNL A   1      40.432  28.083  28.726  1.00  0.00     0.031 A 
ATOM     38  C   UNL A   1      39.573  29.269  28.610  1.00  0.00     0.074 A 
ATOM     39  C   UNL A   1      41.213  27.877  29.810  1.00  0.00     0.049 A 
ATOM     40  N   UNL A   1      39.785  30.381  29.223  1.00  0.00    -0.248 NA
ATOM     41  C   UNL A   1      38.396  29.293  27.750  1.00  0.00     0.031 C 
ATOM     42  C   UNL A   1      41.188  28.599  31.072  1.00  0.00     0.029 A 
ATOM     43  N   UNL A   1      42.317  27.021  29.928  1.00  0.00    -0.354 N 
ATOM     44  C   UNL A   1      38.617  31.110  29.137  1.00  0.00     0.074 A 
ATOM     45  C   UNL A   1      37.871  30.476  28.080  1.00  0.00     0.031 C 
ATOM     46  C   UNL A   1      42.338  28.364  31.725  1.00  0.00     0.029 A 
ATOM     47  C   UNL A   1      43.212  27.663  30.799  1.00  0.00     0.049 A 
ATOM     48  H   UNL A   1      42.440  26.149  29.490  1.00  0.00     0.167 HD
ATOM     49  C   UNL A   1      38.357  32.034  30.105  1.00  0.00     0.034 A 
ATOM     50  C   UNL A   1      44.450  28.096  30.413  1.00  0.00     0.034 A 
ATOM     51  C   UNL A   1      39.546  32.231  30.960  1.00  0.00     0.049 A 
ATOM     52  C   UNL A   1      44.612  29.603  30.530  1.00  0.00     0.074 A 
ATOM     53  C   UNL A   1      39.872  31.831  32.245  1.00  0.00     0.029 A 
ATOM     54  N   UNL A   1      40.729  32.695  30.389  1.00  0.00    -0.354 N 
ATOM     55  N   UNL A   1      43.658  30.420  30.887  1.00  0.00    -0.248 NA
ATOM     56  C   UNL A   1      45.851  30.319  30.231  1.00  0.00     0.031 C 
ATOM     57  C   UNL A   1      41.285  31.935  32.392  1.00  0.00     0.029 A 
ATOM     58  C   UNL A   1      41.814  32.440  31.216  1.00  0.00     0.049 A 
ATOM     59  H   UNL A   1      40.788  33.142  29.514  1.00  0.00     0.167 HD
ATOM     60  C   UNL A   1      44.055  31.717  30.711  1.00  0.00     0.074 A 
ATOM     61  C   UNL A   1      45.469  31.599  30.395  1.00  0.00     0.031 C 
ATOM     62  C   UNL A   1      43.169  32.763  30.766  1.00  0.00     0.034 A 
BRANCH  49  63
ATOM     63  C   UNL A   1      36.981  32.586  30.483  1.00  0.00     0.023 A 
ATOM     64  C   UNL A   1      36.480  32.233  31.758  1.00  0.00     0.012 A 
ATOM     65  C   UNL A   1      36.089  33.332  29.670  1.00  0.00     0.148 A 
ATOM     66  C   UNL A   1      35.176  32.538  32.176  1.00  0.00     0.002 A 
ATOM     67  C   UNL A   1      34.792  33.652  30.089  1.00  0.00     0.091 A 
ATOM     68  F   UNL A   1      36.459  33.742  28.461  1.00  0.00    -0.205 F 
ATOM     69  C   UNL A   1      34.326  33.241  31.337  1.00  0.00     0.022 A 
BRANCH  67  70
ATOM     70  S   UNL A   1      33.632  34.572  29.052  1.00  0.00     0.127 S 
ATOM     71  O   UNL A   1      34.457  35.688  28.587  1.00  0.00    -0.237 OA
ATOM     72  O   UNL A   1      33.295  33.592  28.019  1.00  0.00    -0.237 OA
ATOM     73  O   UNL A   1      32.520  34.960  29.911  1.00  0.00    -0.744 OA
ENDBRANCH  67  70
ENDBRANCH  49  63
BRANCH  50  74
ATOM     74  C   UNL A   1      45.085  27.218  29.384  1.00  0.00     0.023 A 
ATOM     75  C   UNL A   1      45.437  25.912  29.804  1.00  0.00     0.012 A 
ATOM     76  C   UNL A   1      44.923  27.469  28.009  1.00  0.00     0.148 A 
ATOM     77  C   UNL A   1      45.481  24.853  28.895  1.00  0.00     0.002 A 
ATOM     78  C   UNL A   1      44.957  26.403  27.109  1.00  0.00     0.091 A 
ATOM     79  F   UNL A   1      44.633  28.715  27.619  1.00  0.00    -0.205 F 
ATOM     80  C   UNL A   1      45.199  25.092  27.556  1.00  0.00     0.022 A 
BRANCH  78  81
ATOM     81  S   UNL A   1      44.531  26.608  25.373  1.00  0.00     0.127 S 
ATOM     82  O   UNL A   1      45.847  26.777  24.765  1.00  0.00    -0.237 OA
ATOM     83  O   UNL A   1      43.867  25.343  25.063  1.00  0.00    -0.237 OA
ATOM     84  O   UNL A   1      43.652  27.768  25.334  1.00  0.00    -0.744 OA
ENDBRANCH  78  81
ENDBRANCH  50  74
BRANCH  62  85
ATOM     85  C   UNL A   1      43.481  34.192  30.356  1.00  0.00     0.023 A 
ATOM     86  C   UNL A   1      43.838  35.187  31.286  1.00  0.00     0.012 A 
ATOM     87  C   UNL A   1      43.579  34.542  28.984  1.00  0.00     0.148 A 
ATOM     88  C   UNL A   1      44.218  36.474  30.887  1.00  0.00     0.002 A 
ATOM     89  C   UNL A   1      44.074  35.782  28.590  1.00  0.00     0.091 A 
ATOM     90  F   UNL A   1      43.178  33.674  28.042  1.00  0.00    -0.205 F 
ATOM     91  C   UNL A   1      44.362  36.765  29.537  1.00  0.00     0.022 A 
BRANCH  89  92
ATOM     92  S   UNL A   1      44.521  36.085  26.873  1.00  0.00     0.127 S 
ATOM     93  O   UNL A   1      43.255  35.859  26.182  1.00  0.00    -0.237 OA
ATOM     94  O   UNL A   1      44.960  37.482  26.900  1.00  0.00    -0.237 OA
ATOM     95  O   UNL A   1      45.590  35.134  26.597  1.00  0.00    -0.744 OA
ENDBRANCH  89  92
ENDBRANCH  62  85
ENDBRANCH  36  37
ENDBRANCH  28  31
ENDBRANCH  26  27
ENDBRANCH   1  26
TORSDOF 15
ENDMDL
MODEL 2
REMARK VINA RESULT:     -13.2      3.759      9.409
REMARK SMILES Cc1cc(C(=O)NCCCCNC(=O)c2ccc(-c3c4nc(c(-c5cccc(S(=O)(=O)[O-])c5F)c5ccc([nH]5)c(-c5cccc(S(=O)(=O)[O-])c5F)c5nc(c(-c6cccc(S(=O)(=O)[O-])c6F)c6ccc3[nH]6)C=C5)C=C4)cc2)ccc1NC(=O)N1C[C@@H](C)[C@H](C)C1
REMARK SMILES IDX 10 1 9 2 8 3 7 4 5 5 6 6 4 8 1 9 2 10 3 11 80 12 79 13 78 14
REMARK SMILES IDX 81 15 82 16 83 18 84 19 85 20 90 21 86 22 88 23 87 24 89 25
REMARK SMILES IDX 11 26 12 27 13 28 14 30 15 31 16 32 77 33 17 34 76 35 18 36
REMARK SMILES IDX 19 37 20 38 70 39 21 40 75 41 69 42 71 43 22 44 74 45 68 46
REMARK SMILES IDX 67 47 23 49 55 50 35 51 54 52 36 53 39 54 53 55 72 56 37 57
REMARK SMILES IDX 38 58 52 60 73 61 40 62 24 63 25 64 33 65 26 66 28 67 34 68
REMARK SMILES IDX 27 69 29 70 30 71 31 72 32 73 56 74 57 75 65 76 58 77 60 78
REMARK SMILES IDX 66 79 59 80 61 81 62 82 63 83 64 84 41 85 42 86 50 87 43 88
REMARK SMILES IDX 45 89 51 90 44 91 46 92 47 93 48 94 49 95
REMARK H PARENT 7 7 81 17 12 29 71 48 39 59
REMARK Flexibility Score: inf
ROOT
ATOM      1  C   UNL A   1      32.361  31.226  26.874  1.00  0.00     0.023 C 
ENDROOT
BRANCH   1   2
ATOM      2  C   UNL A   1      31.644  30.017  26.282  1.00  0.00     0.023 C 
BRANCH   2   3
ATOM      3  C   UNL A   1      31.973  29.715  24.807  1.00  0.00     0.116 C 
BRANCH   3   4
ATOM      4  N   UNL A   1      30.812  29.809  23.924  1.00  0.00    -0.352 N 
ATOM      5  C   UNL A   1      30.058  28.847  23.289  1.00  0.00     0.251 C 
ATOM      6  O   UNL A   1      29.026  29.180  22.709  1.00  0.00    -0.269 OA
ATOM      7  H   UNL A   1      30.514  30.732  23.750  1.00  0.00     0.163 HD
BRANCH   5   8
ATOM      8  C   UNL A   1      30.434  27.412  23.324  1.00  0.00     0.040 A 
ATOM      9  C   UNL A   1      32.776  25.085  21.463  1.00  0.00     0.046 C 
ATOM     10  C   UNL A   1      31.630  25.517  22.335  1.00  0.00    -0.027 A 
ATOM     11  C   UNL A   1      31.354  26.902  22.402  1.00  0.00     0.019 A 
ATOM     12  C   UNL A   1      30.881  24.642  23.140  1.00  0.00     0.045 A 
ATOM     13  C   UNL A   1      30.141  25.185  24.188  1.00  0.00     0.027 A 
ATOM     14  C   UNL A   1      29.948  26.552  24.291  1.00  0.00     0.016 A 
BRANCH  12  15
ATOM     15  N   UNL A   1      30.890  23.246  22.949  1.00  0.00    -0.308 N 
ATOM     16  C   UNL A   1      31.930  22.371  23.128  1.00  0.00     0.321 C 
ATOM     17  H   UNL A   1      30.040  22.848  22.651  1.00  0.00     0.171 HD
ATOM     18  O   UNL A   1      32.006  21.381  22.400  1.00  0.00    -0.248 OA
ATOM     19  N   UNL A   1      32.848  22.623  24.120  1.00  0.00    -0.324 N 
ATOM     20  C   UNL A   1      34.220  22.167  24.016  1.00  0.00     0.125 C 
ATOM     21  C   UNL A   1      32.512  22.984  25.497  1.00  0.00     0.125 C 
ATOM     22  C   UNL A   1      34.693  21.957  25.450  1.00  0.00     0.010 C 
ATOM     23  C   UNL A   1      33.842  22.951  26.262  1.00  0.00     0.010 C 
ATOM     24  C   UNL A   1      36.190  22.188  25.610  1.00  0.00     0.010 C 
ATOM     25  C   UNL A   1      33.693  22.547  27.727  1.00  0.00     0.010 C 
ENDBRANCH  12  15
ENDBRANCH   5   8
ENDBRANCH   3   4
ENDBRANCH   2   3
ENDBRANCH   1   2
BRANCH   1  26
ATOM     26  C   UNL A   1      33.551  30.835  27.722  1.00  0.00     0.116 C 
BRANCH  26  27
ATOM     27  N   UNL A   1      34.594  31.841  27.744  1.00  0.00    -0.352 N 
ATOM     28  C   UNL A   1      35.897  31.754  28.189  1.00  0.00     0.251 C 
ATOM     29  H   UNL A   1      34.333  32.721  27.387  1.00  0.00     0.163 HD
ATOM     30  O   UNL A   1      36.502  32.807  28.381  1.00  0.00    -0.269 OA
BRANCH  28  31
ATOM     31  C   UNL A   1      36.601  30.442  28.263  1.00  0.00     0.039 A 
ATOM     32  C   UNL A   1      36.680  29.836  29.527  1.00  0.00     0.014 A 
ATOM     33  C   UNL A   1      37.405  29.970  27.232  1.00  0.00     0.014 A 
ATOM     34  C   UNL A   1      37.758  29.013  29.837  1.00  0.00     0.010 A 
ATOM     35  C   UNL A   1      38.522  29.240  27.552  1.00  0.00     0.010 A 
ATOM     36  C   UNL A   1      38.741  28.851  28.877  1.00  0.00    -0.014 A 
BRANCH  36  37
ATOM     37  C   UNL A   1      40.096  28.399  29.129  1.00  0.00     0.031 A 
ATOM     38  C   UNL A   1      40.437  26.981  28.950  1.00  0.00     0.074 A 
ATOM     39  C   UNL A   1      41.039  29.366  29.074  1.00  0.00     0.049 A 
ATOM     40  N   UNL A   1      41.601  26.480  29.177  1.00  0.00    -0.248 NA
ATOM     41  C   UNL A   1      39.454  25.996  28.516  1.00  0.00     0.031 C 
ATOM     42  C   UNL A   1      42.419  29.237  28.634  1.00  0.00     0.029 A 
ATOM     43  N   UNL A   1      40.955  30.680  29.556  1.00  0.00    -0.354 N 
ATOM     44  C   UNL A   1      41.620  25.235  28.586  1.00  0.00     0.074 A 
ATOM     45  C   UNL A   1      40.233  24.922  28.355  1.00  0.00     0.031 C 
ATOM     46  C   UNL A   1      43.114  30.294  29.084  1.00  0.00     0.029 A 
ATOM     47  C   UNL A   1      42.245  31.010  30.002  1.00  0.00     0.049 A 
ATOM     48  H   UNL A   1      40.156  31.253  29.576  1.00  0.00     0.167 HD
ATOM     49  C   UNL A   1      42.821  24.721  28.194  1.00  0.00     0.034 A 
ATOM     50  C   UNL A   1      42.537  31.273  31.312  1.00  0.00     0.034 A 
ATOM     51  C   UNL A   1      43.928  25.548  28.718  1.00  0.00     0.049 A 
ATOM     52  C   UNL A   1      43.527  30.283  31.906  1.00  0.00     0.074 A 
ATOM     53  C   UNL A   1      44.789  26.464  28.138  1.00  0.00     0.029 A 
ATOM     54  N   UNL A   1      44.079  25.693  30.095  1.00  0.00    -0.354 N 
ATOM     55  N   UNL A   1      43.998  29.244  31.271  1.00  0.00    -0.248 NA
ATOM     56  C   UNL A   1      44.047  30.365  33.269  1.00  0.00     0.031 C 
ATOM     57  C   UNL A   1      45.358  27.252  29.181  1.00  0.00     0.029 A 
ATOM     58  C   UNL A   1      44.881  26.786  30.395  1.00  0.00     0.049 A 
ATOM     59  H   UNL A   1      43.671  25.100  30.767  1.00  0.00     0.167 HD
ATOM     60  C   UNL A   1      44.708  28.448  32.129  1.00  0.00     0.074 A 
ATOM     61  C   UNL A   1      44.792  29.247  33.341  1.00  0.00     0.031 C 
ATOM     62  C   UNL A   1      45.094  27.177  31.790  1.00  0.00     0.034 A 
BRANCH  49  63
ATOM     63  C   UNL A   1      43.041  23.643  27.130  1.00  0.00     0.023 A 
ATOM     64  C   UNL A   1      43.656  24.053  25.924  1.00  0.00     0.012 A 
ATOM     65  C   UNL A   1      42.611  22.291  27.160  1.00  0.00     0.148 A 
ATOM     66  C   UNL A   1      43.781  23.211  24.809  1.00  0.00     0.002 A 
ATOM     67  C   UNL A   1      42.748  21.443  26.054  1.00  0.00     0.091 A 
ATOM     68  F   UNL A   1      42.042  21.787  28.250  1.00  0.00    -0.205 F 
ATOM     69  C   UNL A   1      43.319  21.906  24.870  1.00  0.00     0.022 A 
BRANCH  67  70
ATOM     70  S   UNL A   1      42.174  19.729  26.065  1.00  0.00     0.127 S 
ATOM     71  O   UNL A   1      42.875  19.165  24.910  1.00  0.00    -0.237 OA
ATOM     72  O   UNL A   1      42.653  19.250  27.361  1.00  0.00    -0.237 OA
ATOM     73  O   UNL A   1      40.723  19.774  25.929  1.00  0.00    -0.744 OA
ENDBRANCH  67  70
ENDBRANCH  49  63
BRANCH  50  74
ATOM     74  C   UNL A   1      41.421  31.948  32.040  1.00  0.00     0.023 A 
ATOM     75  C   UNL A   1      41.079  33.249  31.598  1.00  0.00     0.012 A 
ATOM     76  C   UNL A   1      40.473  31.209  32.772  1.00  0.00     0.148 A 
ATOM     77  C   UNL A   1      39.781  33.742  31.750  1.00  0.00     0.002 A 
ATOM     78  C   UNL A   1      39.175  31.704  32.910  1.00  0.00     0.091 A 
ATOM     79  F   UNL A   1      40.821  29.998  33.223  1.00  0.00    -0.205 F 
ATOM     80  C   UNL A   1      38.820  32.951  32.369  1.00  0.00     0.022 A 
BRANCH  78  81
ATOM     81  S   UNL A   1      37.852  30.718  33.628  1.00  0.00     0.127 S 
ATOM     82  O   UNL A   1      38.395  29.368  33.512  1.00  0.00    -0.237 OA
ATOM     83  O   UNL A   1      37.782  31.239  34.992  1.00  0.00    -0.237 OA
ATOM     84  O   UNL A   1      36.680  31.011  32.817  1.00  0.00    -0.744 OA
ENDBRANCH  78  81
ENDBRANCH  50  74
BRANCH  62  85
ATOM     85  C   UNL A   1      45.673  26.155  32.752  1.00  0.00     0.023 A 
ATOM     86  C   UNL A   1      47.058  25.935  32.883  1.00  0.00     0.012 A 
ATOM     87  C   UNL A   1      44.834  25.488  33.683  1.00  0.00     0.148 A 
ATOM     88  C   UNL A   1      47.583  25.062  33.843  1.00  0.00     0.002 A 
ATOM     89  C   UNL A   1      45.369  24.718  34.713  1.00  0.00     0.091 A 
ATOM     90  F   UNL A   1      43.501  25.584  33.571  1.00  0.00    -0.205 F 
ATOM     91  C   UNL A   1      46.741  24.472  34.777  1.00  0.00     0.022 A 
BRANCH  89  92
ATOM     92  S   UNL A   1      44.334  24.170  36.078  1.00  0.00     0.127 S 
ATOM     93  O   UNL A   1      43.397  23.271  35.412  1.00  0.00    -0.237 OA
ATOM     94  O   UNL A   1      45.295  23.504  36.960  1.00  0.00    -0.237 OA
ATOM     95  O   UNL A   1      43.774  25.396  36.632  1.00  0.00    -0.744 OA
ENDBRANCH  89  92
ENDBRANCH  62  85
ENDBRANCH  36  37
ENDBRANCH  28  31
ENDBRANCH  26  27
ENDBRANCH   1  26
TORSDOF 15
ENDMDL
MODEL 3
REMARK VINA RESULT:     -13.1      5.315      9.660
REMARK SMILES Cc1cc(C(=O)NCCCCNC(=O)c2ccc(-c3c4nc(c(-c5cccc(S(=O)(=O)[O-])c5F)c5ccc([nH]5)c(-c5cccc(S(=O)(=O)[O-])c5F)c5nc(c(-c6cccc(S(=O)(=O)[O-])c6F)c6ccc3[nH]6)C=C5)C=C4)cc2)ccc1NC(=O)N1C[C@@H](C)[C@H](C)C1
REMARK SMILES IDX 10 1 9 2 8 3 7 4 5 5 6 6 4 8 1 9 2 10 3 11 80 12 79 13 78 14
REMARK SMILES IDX 81 15 82 16 83 18 84 19 85 20 90 21 86 22 88 23 87 24 89 25
REMARK SMILES IDX 11 26 12 27 13 28 14 30 15 31 16 32 77 33 17 34 76 35 18 36
REMARK SMILES IDX 19 37 20 38 70 39 21 40 75 41 69 42 71 43 22 44 74 45 68 46
REMARK SMILES IDX 67 47 23 49 55 50 35 51 54 52 36 53 39 54 53 55 72 56 37 57
REMARK SMILES IDX 38 58 52 60 73 61 40 62 24 63 25 64 33 65 26 66 28 67 34 68
REMARK SMILES IDX 27 69 29 70 30 71 31 72 32 73 56 74 57 75 65 76 58 77 60 78
REMARK SMILES IDX 66 79 59 80 61 81 62 82 63 83 64 84 41 85 42 86 50 87 43 88
REMARK SMILES IDX 45 89 51 90 44 91 46 92 47 93 48 94 49 95
REMARK H PARENT 7 7 81 17 12 29 71 48 39 59
REMARK Flexibility Score: inf
ROOT
ATOM      1  C   UNL A   1      37.342  23.329  25.481  1.00  0.00     0.023 C 
ENDROOT
BRANCH   1   2
ATOM      2  C   UNL A   1      36.920  21.872  25.320  1.00  0.00     0.023 C 
BRANCH   2   3
ATOM      3  C   UNL A   1      35.659  21.462  26.106  1.00  0.00     0.116 C 
BRANCH   3   4
ATOM      4  N   UNL A   1      34.926  20.358  25.490  1.00  0.00    -0.352 N 
ATOM      5  C   UNL A   1      33.780  20.326  24.727  1.00  0.00     0.251 C 
ATOM      6  O   UNL A   1      33.441  19.270  24.197  1.00  0.00    -0.269 OA
ATOM      7  H   UNL A   1      35.326  19.472  25.651  1.00  0.00     0.163 HD
BRANCH   5   8
ATOM      8  C   UNL A   1      32.965  21.544  24.491  1.00  0.00     0.040 A 
ATOM      9  C   UNL A   1      30.473  23.661  26.408  1.00  0.00     0.046 C 
ATOM     10  C   UNL A   1      31.218  23.094  25.232  1.00  0.00    -0.027 A 
ATOM     11  C   UNL A   1      32.095  22.013  25.482  1.00  0.00     0.019 A 
ATOM     12  C   UNL A   1      31.156  23.623  23.932  1.00  0.00     0.045 A 
ATOM     13  C   UNL A   1      32.172  23.292  23.039  1.00  0.00     0.027 A 
ATOM     14  C   UNL A   1      33.079  22.287  23.331  1.00  0.00     0.016 A 
BRANCH  12  15
ATOM     15  N   UNL A   1      30.135  24.503  23.523  1.00  0.00    -0.308 N 
ATOM     16  C   UNL A   1      29.984  25.831  23.830  1.00  0.00     0.321 C 
ATOM     17  H   UNL A   1      29.442  24.115  22.941  1.00  0.00     0.171 HD
ATOM     18  O   UNL A   1      28.847  26.291  23.939  1.00  0.00    -0.248 OA
ATOM     19  N   UNL A   1      31.106  26.606  23.997  1.00  0.00    -0.324 N 
ATOM     20  C   UNL A   1      31.103  27.766  24.866  1.00  0.00     0.125 C 
ATOM     21  C   UNL A   1      32.248  26.632  23.082  1.00  0.00     0.125 C 
ATOM     22  C   UNL A   1      32.138  28.722  24.279  1.00  0.00     0.010 C 
ATOM     23  C   UNL A   1      33.134  27.786  23.569  1.00  0.00     0.010 C 
ATOM     24  C   UNL A   1      32.795  29.593  25.342  1.00  0.00     0.010 C 
ATOM     25  C   UNL A   1      33.903  28.480  22.447  1.00  0.00     0.010 C 
ENDBRANCH  12  15
ENDBRANCH   5   8
ENDBRANCH   3   4
ENDBRANCH   2   3
ENDBRANCH   1   2
BRANCH   1  26
ATOM     26  C   UNL A   1      38.580  23.482  26.336  1.00  0.00     0.116 C 
BRANCH  26  27
ATOM     27  N   UNL A   1      39.542  22.416  26.146  1.00  0.00    -0.352 N 
ATOM     28  C   UNL A   1      40.887  22.373  26.454  1.00  0.00     0.251 C 
ATOM     29  H   UNL A   1      39.183  21.597  25.734  1.00  0.00     0.163 HD
ATOM     30  O   UNL A   1      41.559  21.483  25.936  1.00  0.00    -0.269 OA
BRANCH  28  31
ATOM     31  C   UNL A   1      41.466  23.256  27.506  1.00  0.00     0.039 A 
ATOM     32  C   UNL A   1      41.513  24.630  27.225  1.00  0.00     0.014 A 
ATOM     33  C   UNL A   1      42.201  22.755  28.575  1.00  0.00     0.014 A 
ATOM     34  C   UNL A   1      42.515  25.419  27.780  1.00  0.00     0.010 A 
ATOM     35  C   UNL A   1      43.251  23.497  29.055  1.00  0.00     0.010 A 
ATOM     36  C   UNL A   1      43.459  24.795  28.576  1.00  0.00    -0.014 A 
BRANCH  36  37
ATOM     37  C   UNL A   1      44.770  25.324  28.899  1.00  0.00     0.031 A 
ATOM     38  C   UNL A   1      45.913  25.028  28.023  1.00  0.00     0.074 A 
ATOM     39  C   UNL A   1      44.764  26.402  29.715  1.00  0.00     0.049 A 
ATOM     40  N   UNL A   1      47.117  25.427  28.242  1.00  0.00    -0.248 NA
ATOM     41  C   UNL A   1      45.777  24.216  26.820  1.00  0.00     0.031 C 
ATOM     42  C   UNL A   1      45.699  27.516  29.721  1.00  0.00     0.029 A 
ATOM     43  N   UNL A   1      43.949  26.634  30.831  1.00  0.00    -0.354 N 
ATOM     44  C   UNL A   1      47.813  25.250  27.065  1.00  0.00     0.074 A 
ATOM     45  C   UNL A   1      46.997  24.348  26.293  1.00  0.00     0.031 C 
ATOM     46  C   UNL A   1      45.590  28.162  30.893  1.00  0.00     0.029 A 
ATOM     47  C   UNL A   1      44.741  27.348  31.746  1.00  0.00     0.049 A 
ATOM     48  H   UNL A   1      43.014  26.354  30.950  1.00  0.00     0.167 HD
ATOM     49  C   UNL A   1      48.893  26.047  26.825  1.00  0.00     0.034 A 
ATOM     50  C   UNL A   1      45.104  26.851  32.966  1.00  0.00     0.034 A 
ATOM     51  C   UNL A   1      49.245  26.814  28.037  1.00  0.00     0.049 A 
ATOM     52  C   UNL A   1      46.609  26.693  33.116  1.00  0.00     0.074 A 
ATOM     53  C   UNL A   1      49.081  28.139  28.407  1.00  0.00     0.029 A 
ATOM     54  N   UNL A   1      49.606  26.132  29.196  1.00  0.00    -0.354 N 
ATOM     55  N   UNL A   1      47.471  26.931  32.164  1.00  0.00    -0.248 NA
ATOM     56  C   UNL A   1      47.267  26.232  34.336  1.00  0.00     0.031 C 
ATOM     57  C   UNL A   1      49.217  28.219  29.823  1.00  0.00     0.029 A 
ATOM     58  C   UNL A   1      49.508  26.956  30.310  1.00  0.00     0.049 A 
ATOM     59  H   UNL A   1      49.891  25.190  29.223  1.00  0.00     0.167 HD
ATOM     60  C   UNL A   1      48.719  26.514  32.541  1.00  0.00     0.074 A 
ATOM     61  C   UNL A   1      48.553  26.179  33.946  1.00  0.00     0.031 C 
ATOM     62  C   UNL A   1      49.753  26.411  31.647  1.00  0.00     0.034 A 
BRANCH  49  63
ATOM     63  C   UNL A   1      49.496  26.366  25.454  1.00  0.00     0.023 A 
ATOM     64  C   UNL A   1      50.906  26.321  25.351  1.00  0.00     0.012 A 
ATOM     65  C   UNL A   1      48.818  26.803  24.286  1.00  0.00     0.148 A 
ATOM     66  C   UNL A   1      51.599  26.736  24.204  1.00  0.00     0.002 A 
ATOM     67  C   UNL A   1      49.506  27.204  23.134  1.00  0.00     0.091 A 
ATOM     68  F   UNL A   1      47.491  26.862  24.257  1.00  0.00    -0.205 F 
ATOM     69  C   UNL A   1      50.899  27.186  23.096  1.00  0.00     0.022 A 
BRANCH  67  70
ATOM     70  S   UNL A   1      48.659  27.796  21.651  1.00  0.00     0.127 S 
ATOM     71  O   UNL A   1      49.715  28.552  20.978  1.00  0.00    -0.237 OA
ATOM     72  O   UNL A   1      48.286  26.546  20.988  1.00  0.00    -0.237 OA
ATOM     73  O   UNL A   1      47.534  28.603  22.107  1.00  0.00    -0.744 OA
ENDBRANCH  67  70
ENDBRANCH  49  63
BRANCH  50  74
ATOM     74  C   UNL A   1      44.061  25.974  33.579  1.00  0.00     0.023 A 
ATOM     75  C   UNL A   1      44.281  24.579  33.491  1.00  0.00     0.012 A 
ATOM     76  C   UNL A   1      43.185  26.463  34.566  1.00  0.00     0.148 A 
ATOM     77  C   UNL A   1      43.763  23.708  34.451  1.00  0.00     0.002 A 
ATOM     78  C   UNL A   1      42.680  25.587  35.529  1.00  0.00     0.091 A 
ATOM     79  F   UNL A   1      42.949  27.779  34.614  1.00  0.00    -0.205 F 
ATOM     80  C   UNL A   1      42.998  24.219  35.493  1.00  0.00     0.022 A 
BRANCH  78  81
ATOM     81  S   UNL A   1      41.747  26.172  36.952  1.00  0.00     0.127 S 
ATOM     82  O   UNL A   1      42.816  26.509  37.887  1.00  0.00    -0.237 OA
ATOM     83  O   UNL A   1      41.027  27.319  36.401  1.00  0.00    -0.237 OA
ATOM     84  O   UNL A   1      40.892  25.056  37.328  1.00  0.00    -0.744 OA
ENDBRANCH  78  81
ENDBRANCH  50  74
BRANCH  62  85
ATOM     85  C   UNL A   1      51.088  25.745  31.929  1.00  0.00     0.023 A 
ATOM     86  C   UNL A   1      52.281  26.475  32.089  1.00  0.00     0.012 A 
ATOM     87  C   UNL A   1      51.153  24.354  32.205  1.00  0.00     0.148 A 
ATOM     88  C   UNL A   1      53.486  25.858  32.446  1.00  0.00     0.002 A 
ATOM     89  C   UNL A   1      52.324  23.767  32.678  1.00  0.00     0.091 A 
ATOM     90  F   UNL A   1      50.078  23.580  31.997  1.00  0.00    -0.205 F 
ATOM     91  C   UNL A   1      53.503  24.507  32.767  1.00  0.00     0.022 A 
BRANCH  89  92
ATOM     92  S   UNL A   1      52.304  22.098  33.351  1.00  0.00     0.127 S 
ATOM     93  O   UNL A   1      53.653  21.968  33.892  1.00  0.00    -0.237 OA
ATOM     94  O   UNL A   1      51.247  22.175  34.361  1.00  0.00    -0.237 OA
ATOM     95  O   UNL A   1      51.975  21.247  32.214  1.00  0.00    -0.744 OA
ENDBRANCH  89  92
ENDBRANCH  62  85
ENDBRANCH  36  37
ENDBRANCH  28  31
ENDBRANCH  26  27
ENDBRANCH   1  26
TORSDOF 15
ENDMDL
