MODEL 1
REMARK VINA RESULT:      -9.9      0.000      0.000
REMARK SMILES CC[C@@](CC(F)(F)F)(C(=O)NCCCCNC(=O)c1ccc(-c2c3nc(c(-c4cccc(S(=O)(=O)[O-])c4F)c4ccc([nH]4)c(-c4cccc(S(=O)(=O)[O-])c4F)c4nc(c(-c5cccc(S(=O)(=O)[O-])c5F)c5ccc2[nH]5)C=C4)C=C3)cc1)c1ccccc1
REMARK SMILES IDX 14 1 13 2 12 3 11 4 9 5 10 6 3 8 2 9 1 10 4 11 5 12 6 13
REMARK SMILES IDX 7 14 8 15 82 16 83 17 87 18 84 19 86 20 85 21 15 22 16 23
REMARK SMILES IDX 17 24 18 26 19 27 20 28 81 29 21 30 80 31 22 32 23 33 24 34
REMARK SMILES IDX 74 35 25 36 79 37 73 38 75 39 26 40 78 41 72 42 71 43 27 45
REMARK SMILES IDX 59 46 39 47 58 48 40 49 43 50 57 51 76 52 41 53 42 54 56 56
REMARK SMILES IDX 77 57 44 58 28 59 29 60 37 61 30 62 32 63 38 64 31 65 33 66
REMARK SMILES IDX 34 67 35 68 36 69 60 70 61 71 69 72 62 73 64 74 70 75 63 76
REMARK SMILES IDX 65 77 66 78 67 79 68 80 45 81 46 82 54 83 47 84 49 85 55 86
REMARK SMILES IDX 48 87 50 88 51 89 52 90 53 91
REMARK H PARENT 11 7 16 25 75 44 43 55
REMARK Flexibility Score: inf
ROOT
ATOM      1  C   UNL A   1      33.417  33.888  28.349  1.00  0.00     0.023 C 
ENDROOT
BRANCH   1   2
ATOM      2  C   UNL A   1      34.024  35.162  28.938  1.00  0.00     0.023 C 
BRANCH   2   3
ATOM      3  C   UNL A   1      34.139  35.187  30.458  1.00  0.00     0.116 C 
BRANCH   3   4
ATOM      4  N   UNL A   1      33.925  33.887  31.077  1.00  0.00    -0.355 N 
ATOM      5  C   UNL A   1      34.585  33.184  32.046  1.00  0.00     0.230 C 
ATOM      6  O   UNL A   1      33.867  32.354  32.616  1.00  0.00    -0.274 OA
ATOM      7  H   UNL A   1      33.139  33.413  30.723  1.00  0.00     0.163 HD
BRANCH   5   8
ATOM      8  C   UNL A   1      36.073  33.457  32.488  1.00  0.00     0.082 C 
BRANCH   8   9
ATOM      9  C   UNL A   1      36.134  34.806  33.291  1.00  0.00     0.019 C 
ATOM     10  C   UNL A   1      34.945  35.208  34.156  1.00  0.00     0.005 C 
ENDBRANCH   8   9
BRANCH   8  11
ATOM     11  C   UNL A   1      36.593  32.139  33.147  1.00  0.00     0.137 C 
BRANCH  11  12
ATOM     12  C   UNL A   1      37.457  32.178  34.381  1.00  0.00     0.390 C 
ATOM     13  F   UNL A   1      36.820  32.667  35.458  1.00  0.00    -0.171 F 
ATOM     14  F   UNL A   1      37.845  30.917  34.697  1.00  0.00    -0.171 F 
ATOM     15  F   UNL A   1      38.586  32.886  34.187  1.00  0.00    -0.171 F 
ENDBRANCH  11  12
ENDBRANCH   8  11
BRANCH   8  16
ATOM     16  C   UNL A   1      37.097  33.673  31.287  1.00  0.00    -0.032 A 
ATOM     17  C   UNL A   1      38.199  34.546  31.466  1.00  0.00     0.005 A 
ATOM     18  C   UNL A   1      37.015  33.040  30.037  1.00  0.00     0.005 A 
ATOM     19  C   UNL A   1      39.139  34.791  30.461  1.00  0.00     0.000 A 
ATOM     20  C   UNL A   1      37.973  33.261  29.036  1.00  0.00     0.000 A 
ATOM     21  C   UNL A   1      39.029  34.141  29.243  1.00  0.00     0.000 A 
ENDBRANCH   8  16
ENDBRANCH   5   8
ENDBRANCH   3   4
ENDBRANCH   2   3
ENDBRANCH   1   2
BRANCH   1  22
ATOM     22  C   UNL A   1      34.412  32.828  27.884  1.00  0.00     0.116 C 
BRANCH  22  23
ATOM     23  N   UNL A   1      33.783  31.580  27.473  1.00  0.00    -0.352 N 
ATOM     24  C   UNL A   1      34.284  30.298  27.511  1.00  0.00     0.251 C 
ATOM     25  H   UNL A   1      32.869  31.666  27.119  1.00  0.00     0.163 HD
ATOM     26  O   UNL A   1      33.639  29.372  27.037  1.00  0.00    -0.269 OA
BRANCH  24  27
ATOM     27  C   UNL A   1      35.623  30.055  28.090  1.00  0.00     0.039 A 
ATOM     28  C   UNL A   1      35.712  29.636  29.420  1.00  0.00     0.014 A 
ATOM     29  C   UNL A   1      36.776  30.196  27.314  1.00  0.00     0.014 A 
ATOM     30  C   UNL A   1      36.955  29.278  29.947  1.00  0.00     0.010 A 
ATOM     31  C   UNL A   1      38.002  29.767  27.819  1.00  0.00     0.010 A 
ATOM     32  C   UNL A   1      38.103  29.296  29.136  1.00  0.00    -0.014 A 
BRANCH  32  33
ATOM     33  C   UNL A   1      39.405  28.788  29.640  1.00  0.00     0.031 A 
ATOM     34  C   UNL A   1      40.132  29.507  30.742  1.00  0.00     0.074 A 
ATOM     35  C   UNL A   1      39.976  27.722  29.040  1.00  0.00     0.049 A 
ATOM     36  N   UNL A   1      41.291  29.230  31.282  1.00  0.00    -0.248 NA
ATOM     37  C   UNL A   1      39.488  30.712  31.294  1.00  0.00     0.031 C 
ATOM     38  C   UNL A   1      39.416  26.994  27.898  1.00  0.00     0.029 A 
ATOM     39  N   UNL A   1      41.163  27.082  29.290  1.00  0.00    -0.354 N 
ATOM     40  C   UNL A   1      41.530  30.236  32.210  1.00  0.00     0.074 A 
ATOM     41  C   UNL A   1      40.413  31.152  32.136  1.00  0.00     0.031 C 
ATOM     42  C   UNL A   1      40.256  26.005  27.552  1.00  0.00     0.029 A 
ATOM     43  C   UNL A   1      41.423  26.041  28.427  1.00  0.00     0.049 A 
ATOM     44  H   UNL A   1      41.774  27.341  30.018  1.00  0.00     0.167 HD
ATOM     45  C   UNL A   1      42.567  30.369  33.070  1.00  0.00     0.034 A 
ATOM     46  C   UNL A   1      42.482  25.211  28.348  1.00  0.00     0.034 A 
ATOM     47  C   UNL A   1      43.654  29.431  33.174  1.00  0.00     0.049 A 
ATOM     48  C   UNL A   1      43.594  25.350  29.352  1.00  0.00     0.074 A 
ATOM     49  C   UNL A   1      44.704  29.430  34.075  1.00  0.00     0.029 A 
ATOM     50  N   UNL A   1      43.834  28.333  32.348  1.00  0.00    -0.354 N 
ATOM     51  N   UNL A   1      43.714  26.206  30.337  1.00  0.00    -0.248 NA
ATOM     52  C   UNL A   1      44.699  24.384  29.258  1.00  0.00     0.031 C 
ATOM     53  C   UNL A   1      45.529  28.338  33.782  1.00  0.00     0.029 A 
ATOM     54  C   UNL A   1      44.981  27.650  32.713  1.00  0.00     0.049 A 
ATOM     55  H   UNL A   1      43.235  28.078  31.610  1.00  0.00     0.167 HD
ATOM     56  C   UNL A   1      44.887  25.862  31.000  1.00  0.00     0.074 A 
ATOM     57  C   UNL A   1      45.425  24.701  30.321  1.00  0.00     0.031 C 
ATOM     58  C   UNL A   1      45.476  26.463  32.063  1.00  0.00     0.034 A 
BRANCH  45  59
ATOM     59  C   UNL A   1      42.545  31.536  34.022  1.00  0.00     0.023 A 
ATOM     60  C   UNL A   1      43.252  32.710  33.690  1.00  0.00     0.012 A 
ATOM     61  C   UNL A   1      41.776  31.503  35.202  1.00  0.00     0.148 A 
ATOM     62  C   UNL A   1      43.218  33.822  34.531  1.00  0.00     0.002 A 
ATOM     63  C   UNL A   1      41.712  32.630  36.012  1.00  0.00     0.091 A 
ATOM     64  F   UNL A   1      41.127  30.371  35.510  1.00  0.00    -0.205 F 
ATOM     65  C   UNL A   1      42.440  33.786  35.684  1.00  0.00     0.022 A 
BRANCH  63  66
ATOM     66  S   UNL A   1      40.679  32.716  37.479  1.00  0.00     0.127 S 
ATOM     67  O   UNL A   1      41.549  32.116  38.489  1.00  0.00    -0.237 OA
ATOM     68  O   UNL A   1      40.476  34.157  37.629  1.00  0.00    -0.237 OA
ATOM     69  O   UNL A   1      39.473  31.962  37.166  1.00  0.00    -0.744 OA
ENDBRANCH  63  66
ENDBRANCH  45  59
BRANCH  46  70
ATOM     70  C   UNL A   1      42.509  24.126  27.326  1.00  0.00     0.023 A 
ATOM     71  C   UNL A   1      43.199  24.333  26.115  1.00  0.00     0.012 A 
ATOM     72  C   UNL A   1      41.873  22.889  27.549  1.00  0.00     0.148 A 
ATOM     73  C   UNL A   1      43.222  23.345  25.130  1.00  0.00     0.002 A 
ATOM     74  C   UNL A   1      41.948  21.888  26.587  1.00  0.00     0.091 A 
ATOM     75  F   UNL A   1      41.210  22.713  28.701  1.00  0.00    -0.205 F 
ATOM     76  C   UNL A   1      42.607  22.121  25.370  1.00  0.00     0.022 A 
BRANCH  74  77
ATOM     77  S   UNL A   1      41.300  20.237  26.870  1.00  0.00     0.127 S 
ATOM     78  O   UNL A   1      40.940  20.295  28.285  1.00  0.00    -0.237 OA
ATOM     79  O   UNL A   1      40.165  20.191  25.947  1.00  0.00    -0.237 OA
ATOM     80  O   UNL A   1      42.386  19.329  26.525  1.00  0.00    -0.744 OA
ENDBRANCH  74  77
ENDBRANCH  46  70
BRANCH  58  81
ATOM     81  C   UNL A   1      46.757  25.863  32.581  1.00  0.00     0.023 A 
ATOM     82  C   UNL A   1      46.716  24.952  33.655  1.00  0.00     0.012 A 
ATOM     83  C   UNL A   1      47.990  26.151  31.965  1.00  0.00     0.148 A 
ATOM     84  C   UNL A   1      47.888  24.366  34.133  1.00  0.00     0.002 A 
ATOM     85  C   UNL A   1      49.147  25.525  32.414  1.00  0.00     0.091 A 
ATOM     86  F   UNL A   1      48.011  27.036  30.957  1.00  0.00    -0.205 F 
ATOM     87  C   UNL A   1      49.100  24.643  33.505  1.00  0.00     0.022 A 
BRANCH  85  88
ATOM     88  S   UNL A   1      50.735  25.751  31.605  1.00  0.00     0.127 S 
ATOM     89  O   UNL A   1      50.396  25.503  30.205  1.00  0.00    -0.237 OA
ATOM     90  O   UNL A   1      51.050  27.145  31.918  1.00  0.00    -0.237 OA
ATOM     91  O   UNL A   1      51.634  24.780  32.213  1.00  0.00    -0.744 OA
ENDBRANCH  85  88
ENDBRANCH  58  81
ENDBRANCH  32  33
ENDBRANCH  24  27
ENDBRANCH  22  23
ENDBRANCH   1  22
TORSDOF 18
ENDMDL
MODEL 2
REMARK VINA RESULT:      -9.8      4.318      6.988
REMARK SMILES CC[C@@](CC(F)(F)F)(C(=O)NCCCCNC(=O)c1ccc(-c2c3nc(c(-c4cccc(S(=O)(=O)[O-])c4F)c4ccc([nH]4)c(-c4cccc(S(=O)(=O)[O-])c4F)c4nc(c(-c5cccc(S(=O)(=O)[O-])c5F)c5ccc2[nH]5)C=C4)C=C3)cc1)c1ccccc1
REMARK SMILES IDX 14 1 13 2 12 3 11 4 9 5 10 6 3 8 2 9 1 10 4 11 5 12 6 13
REMARK SMILES IDX 7 14 8 15 82 16 83 17 87 18 84 19 86 20 85 21 15 22 16 23
REMARK SMILES IDX 17 24 18 26 19 27 20 28 81 29 21 30 80 31 22 32 23 33 24 34
REMARK SMILES IDX 74 35 25 36 79 37 73 38 75 39 26 40 78 41 72 42 71 43 27 45
REMARK SMILES IDX 59 46 39 47 58 48 40 49 43 50 57 51 76 52 41 53 42 54 56 56
REMARK SMILES IDX 77 57 44 58 28 59 29 60 37 61 30 62 32 63 38 64 31 65 33 66
REMARK SMILES IDX 34 67 35 68 36 69 60 70 61 71 69 72 62 73 64 74 70 75 63 76
REMARK SMILES IDX 65 77 66 78 67 79 68 80 45 81 46 82 54 83 47 84 49 85 55 86
REMARK SMILES IDX 48 87 50 88 51 89 52 90 53 91
REMARK H PARENT 11 7 16 25 75 44 43 55
REMARK Flexibility Score: inf
ROOT
ATOM      1  C   UNL A   1      31.464  29.081  26.534  1.00  0.00     0.023 C 
ENDROOT
BRANCH   1   2
ATOM      2  C   UNL A   1      31.417  27.695  25.892  1.00  0.00     0.023 C 
BRANCH   2   3
ATOM      3  C   UNL A   1      32.137  26.594  26.663  1.00  0.00     0.116 C 
BRANCH   3   4
ATOM      4  N   UNL A   1      31.326  25.402  26.867  1.00  0.00    -0.355 N 
ATOM      5  C   UNL A   1      31.480  24.088  26.528  1.00  0.00     0.230 C 
ATOM      6  O   UNL A   1      30.833  23.322  27.251  1.00  0.00    -0.274 OA
ATOM      7  H   UNL A   1      30.489  25.582  27.353  1.00  0.00     0.163 HD
BRANCH   5   8
ATOM      8  C   UNL A   1      32.458  23.565  25.407  1.00  0.00     0.082 C 
BRANCH   8   9
ATOM      9  C   UNL A   1      33.928  23.575  25.960  1.00  0.00     0.019 C 
ATOM     10  C   UNL A   1      34.281  22.685  27.146  1.00  0.00     0.005 C 
ENDBRANCH   8   9
BRANCH   8  11
ATOM     11  C   UNL A   1      31.844  22.235  24.863  1.00  0.00     0.137 C 
BRANCH  11  12
ATOM     12  C   UNL A   1      32.682  21.260  24.076  1.00  0.00     0.390 C 
ATOM     13  F   UNL A   1      33.825  21.794  23.616  1.00  0.00    -0.171 F 
ATOM     14  F   UNL A   1      33.030  20.221  24.874  1.00  0.00    -0.171 F 
ATOM     15  F   UNL A   1      32.003  20.732  23.038  1.00  0.00    -0.171 F 
ENDBRANCH  11  12
ENDBRANCH   8  11
BRANCH   8  16
ATOM     16  C   UNL A   1      32.526  24.476  24.102  1.00  0.00    -0.032 A 
ATOM     17  C   UNL A   1      31.350  24.679  23.338  1.00  0.00     0.005 A 
ATOM     18  C   UNL A   1      33.678  25.131  23.639  1.00  0.00     0.005 A 
ATOM     19  C   UNL A   1      31.329  25.461  22.180  1.00  0.00     0.000 A 
ATOM     20  C   UNL A   1      33.653  25.941  22.493  1.00  0.00     0.000 A 
ATOM     21  C   UNL A   1      32.484  26.100  21.759  1.00  0.00     0.000 A 
ENDBRANCH   8  16
ENDBRANCH   5   8
ENDBRANCH   3   4
ENDBRANCH   2   3
ENDBRANCH   1   2
BRANCH   1  22
ATOM     22  C   UNL A   1      32.583  30.002  26.054  1.00  0.00     0.116 C 
BRANCH  22  23
ATOM     23  N   UNL A   1      32.416  31.387  26.471  1.00  0.00    -0.352 N 
ATOM     24  C   UNL A   1      33.223  32.158  27.279  1.00  0.00     0.251 C 
ATOM     25  H   UNL A   1      31.612  31.837  26.126  1.00  0.00     0.163 HD
ATOM     26  O   UNL A   1      32.876  33.287  27.596  1.00  0.00    -0.269 OA
BRANCH  24  27
ATOM     27  C   UNL A   1      34.490  31.594  27.793  1.00  0.00     0.039 A 
ATOM     28  C   UNL A   1      35.562  32.459  28.028  1.00  0.00     0.014 A 
ATOM     29  C   UNL A   1      34.604  30.232  28.084  1.00  0.00     0.014 A 
ATOM     30  C   UNL A   1      36.721  31.970  28.633  1.00  0.00     0.010 A 
ATOM     31  C   UNL A   1      35.731  29.764  28.755  1.00  0.00     0.010 A 
ATOM     32  C   UNL A   1      36.797  30.628  29.044  1.00  0.00    -0.014 A 
BRANCH  32  33
ATOM     33  C   UNL A   1      37.966  30.126  29.812  1.00  0.00     0.031 A 
ATOM     34  C   UNL A   1      38.222  30.606  31.214  1.00  0.00     0.074 A 
ATOM     35  C   UNL A   1      38.848  29.302  29.211  1.00  0.00     0.049 A 
ATOM     36  N   UNL A   1      39.209  30.305  32.020  1.00  0.00    -0.248 NA
ATOM     37  C   UNL A   1      37.262  31.570  31.779  1.00  0.00     0.031 C 
ATOM     38  C   UNL A   1      38.763  28.839  27.823  1.00  0.00     0.029 A 
ATOM     39  N   UNL A   1      40.003  28.727  29.679  1.00  0.00    -0.354 N 
ATOM     40  C   UNL A   1      39.007  31.062  33.168  1.00  0.00     0.074 A 
ATOM     41  C   UNL A   1      37.825  31.864  32.943  1.00  0.00     0.031 C 
ATOM     42  C   UNL A   1      39.814  28.048  27.556  1.00  0.00     0.029 A 
ATOM     43  C   UNL A   1      40.662  27.966  28.741  1.00  0.00     0.049 A 
ATOM     44  H   UNL A   1      40.330  28.848  30.600  1.00  0.00     0.167 HD
ATOM     45  C   UNL A   1      39.721  31.065  34.318  1.00  0.00     0.034 A 
ATOM     46  C   UNL A   1      41.819  27.280  28.825  1.00  0.00     0.034 A 
ATOM     47  C   UNL A   1      40.870  30.232  34.557  1.00  0.00     0.049 A 
ATOM     48  C   UNL A   1      42.562  27.259  30.134  1.00  0.00     0.074 A 
ATOM     49  C   UNL A   1      41.606  30.097  35.721  1.00  0.00     0.029 A 
ATOM     50  N   UNL A   1      41.453  29.399  33.616  1.00  0.00    -0.354 N 
ATOM     51  N   UNL A   1      42.257  27.846  31.265  1.00  0.00    -0.248 NA
ATOM     52  C   UNL A   1      43.789  26.451  30.189  1.00  0.00     0.031 C 
ATOM     53  C   UNL A   1      42.646  29.192  35.478  1.00  0.00     0.029 A 
ATOM     54  C   UNL A   1      42.543  28.750  34.169  1.00  0.00     0.049 A 
ATOM     55  H   UNL A   1      41.138  29.286  32.690  1.00  0.00     0.167 HD
ATOM     56  C   UNL A   1      43.231  27.452  32.174  1.00  0.00     0.074 A 
ATOM     57  C   UNL A   1      44.121  26.552  31.468  1.00  0.00     0.031 C 
ATOM     58  C   UNL A   1      43.388  27.815  33.471  1.00  0.00     0.034 A 
BRANCH  45  59
ATOM     59  C   UNL A   1      39.240  31.948  35.440  1.00  0.00     0.023 A 
ATOM     60  C   UNL A   1      38.332  31.429  36.386  1.00  0.00     0.012 A 
ATOM     61  C   UNL A   1      39.734  33.257  35.602  1.00  0.00     0.148 A 
ATOM     62  C   UNL A   1      37.899  32.208  37.458  1.00  0.00     0.002 A 
ATOM     63  C   UNL A   1      39.331  34.012  36.698  1.00  0.00     0.091 A 
ATOM     64  F   UNL A   1      40.582  33.740  34.683  1.00  0.00    -0.205 F 
ATOM     65  C   UNL A   1      38.407  33.494  37.620  1.00  0.00     0.022 A 
BRANCH  63  66
ATOM     66  S   UNL A   1      39.984  35.650  37.044  1.00  0.00     0.127 S 
ATOM     67  O   UNL A   1      39.279  35.994  38.277  1.00  0.00    -0.237 OA
ATOM     68  O   UNL A   1      41.412  35.382  37.213  1.00  0.00    -0.237 OA
ATOM     69  O   UNL A   1      39.652  36.468  35.886  1.00  0.00    -0.744 OA
ENDBRANCH  63  66
ENDBRANCH  45  59
BRANCH  46  70
ATOM     70  C   UNL A   1      42.312  26.495  27.657  1.00  0.00     0.023 A 
ATOM     71  C   UNL A   1      43.159  27.112  26.716  1.00  0.00     0.012 A 
ATOM     72  C   UNL A   1      41.961  25.142  27.479  1.00  0.00     0.148 A 
ATOM     73  C   UNL A   1      43.617  26.410  25.600  1.00  0.00     0.002 A 
ATOM     74  C   UNL A   1      42.467  24.432  26.396  1.00  0.00     0.091 A 
ATOM     75  F   UNL A   1      41.143  24.574  28.377  1.00  0.00    -0.205 F 
ATOM     76  C   UNL A   1      43.280  25.069  25.446  1.00  0.00     0.022 A 
BRANCH  74  77
ATOM     77  S   UNL A   1      42.192  22.669  26.195  1.00  0.00     0.127 S 
ATOM     78  O   UNL A   1      42.880  22.400  24.935  1.00  0.00    -0.237 OA
ATOM     79  O   UNL A   1      42.846  22.120  27.385  1.00  0.00    -0.237 OA
ATOM     80  O   UNL A   1      40.745  22.500  26.181  1.00  0.00    -0.744 OA
ENDBRANCH  74  77
ENDBRANCH  46  70
BRANCH  58  81
ATOM     81  C   UNL A   1      44.548  27.220  34.226  1.00  0.00     0.023 A 
ATOM     82  C   UNL A   1      45.781  27.900  34.261  1.00  0.00     0.012 A 
ATOM     83  C   UNL A   1      44.398  26.023  34.953  1.00  0.00     0.148 A 
ATOM     84  C   UNL A   1      46.859  27.380  34.976  1.00  0.00     0.002 A 
ATOM     85  C   UNL A   1      45.461  25.535  35.704  1.00  0.00     0.091 A 
ATOM     86  F   UNL A   1      43.223  25.379  34.891  1.00  0.00    -0.205 F 
ATOM     87  C   UNL A   1      46.695  26.205  35.706  1.00  0.00     0.022 A 
BRANCH  85  88
ATOM     88  S   UNL A   1      45.311  24.081  36.748  1.00  0.00     0.127 S 
ATOM     89  O   UNL A   1      46.687  23.901  37.209  1.00  0.00    -0.237 OA
ATOM     90  O   UNL A   1      44.378  24.533  37.780  1.00  0.00    -0.237 OA
ATOM     91  O   UNL A   1      44.794  23.025  35.889  1.00  0.00    -0.744 OA
ENDBRANCH  85  88
ENDBRANCH  58  81
ENDBRANCH  32  33
ENDBRANCH  24  27
ENDBRANCH  22  23
ENDBRANCH   1  22
TORSDOF 18
ENDMDL
MODEL 3
REMARK VINA RESULT:      -9.7      1.799      2.232
REMARK SMILES CC[C@@](CC(F)(F)F)(C(=O)NCCCCNC(=O)c1ccc(-c2c3nc(c(-c4cccc(S(=O)(=O)[O-])c4F)c4ccc([nH]4)c(-c4cccc(S(=O)(=O)[O-])c4F)c4nc(c(-c5cccc(S(=O)(=O)[O-])c5F)c5ccc2[nH]5)C=C4)C=C3)cc1)c1ccccc1
REMARK SMILES IDX 14 1 13 2 12 3 11 4 9 5 10 6 3 8 2 9 1 10 4 11 5 12 6 13
REMARK SMILES IDX 7 14 8 15 82 16 83 17 87 18 84 19 86 20 85 21 15 22 16 23
REMARK SMILES IDX 17 24 18 26 19 27 20 28 81 29 21 30 80 31 22 32 23 33 24 34
REMARK SMILES IDX 74 35 25 36 79 37 73 38 75 39 26 40 78 41 72 42 71 43 27 45
REMARK SMILES IDX 59 46 39 47 58 48 40 49 43 50 57 51 76 52 41 53 42 54 56 56
REMARK SMILES IDX 77 57 44 58 28 59 29 60 37 61 30 62 32 63 38 64 31 65 33 66
REMARK SMILES IDX 34 67 35 68 36 69 60 70 61 71 69 72 62 73 64 74 70 75 63 76
REMARK SMILES IDX 65 77 66 78 67 79 68 80 45 81 46 82 54 83 47 84 49 85 55 86
REMARK SMILES IDX 48 87 50 88 51 89 52 90 53 91
REMARK H PARENT 11 7 16 25 75 44 43 55
REMARK Flexibility Score: inf
ROOT
ATOM      1  C   UNL A   1      33.460  33.897  28.239  1.00  0.00     0.023 C 
ENDROOT
BRANCH   1   2
ATOM      2  C   UNL A   1      34.062  35.166  28.843  1.00  0.00     0.023 C 
BRANCH   2   3
ATOM      3  C   UNL A   1      34.076  35.219  30.367  1.00  0.00     0.116 C 
BRANCH   3   4
ATOM      4  N   UNL A   1      33.907  33.916  30.994  1.00  0.00    -0.355 N 
ATOM      5  C   UNL A   1      34.549  33.269  32.013  1.00  0.00     0.230 C 
ATOM      6  O   UNL A   1      33.851  32.403  32.553  1.00  0.00    -0.274 OA
ATOM      7  H   UNL A   1      33.175  33.388  30.601  1.00  0.00     0.163 HD
BRANCH   5   8
ATOM      8  C   UNL A   1      35.987  33.642  32.539  1.00  0.00     0.082 C 
BRANCH   8   9
ATOM      9  C   UNL A   1      35.941  35.065  33.203  1.00  0.00     0.019 C 
ATOM     10  C   UNL A   1      34.721  35.461  34.026  1.00  0.00     0.005 C 
ENDBRANCH   8   9
BRANCH   8  11
ATOM     11  C   UNL A   1      36.492  32.417  33.367  1.00  0.00     0.137 C 
BRANCH  11  12
ATOM     12  C   UNL A   1      37.442  32.601  34.522  1.00  0.00     0.390 C 
ATOM     13  F   UNL A   1      38.437  33.463  34.258  1.00  0.00    -0.171 F 
ATOM     14  F   UNL A   1      36.764  33.101  35.586  1.00  0.00    -0.171 F 
ATOM     15  F   UNL A   1      37.978  31.433  34.928  1.00  0.00    -0.171 F 
ENDBRANCH  11  12
ENDBRANCH   8  11
BRANCH   8  16
ATOM     16  C   UNL A   1      37.099  33.777  31.406  1.00  0.00    -0.032 A 
ATOM     17  C   UNL A   1      36.963  33.026  30.212  1.00  0.00     0.005 A 
ATOM     18  C   UNL A   1      38.223  34.615  31.478  1.00  0.00     0.005 A 
ATOM     19  C   UNL A   1      37.896  33.086  29.173  1.00  0.00     0.000 A 
ATOM     20  C   UNL A   1      39.146  34.700  30.424  1.00  0.00     0.000 A 
ATOM     21  C   UNL A   1      38.989  33.931  29.277  1.00  0.00     0.000 A 
ENDBRANCH   8  16
ENDBRANCH   5   8
ENDBRANCH   3   4
ENDBRANCH   2   3
ENDBRANCH   1   2
BRANCH   1  22
ATOM     22  C   UNL A   1      34.457  32.821  27.817  1.00  0.00     0.116 C 
BRANCH  22  23
ATOM     23  N   UNL A   1      33.827  31.585  27.371  1.00  0.00    -0.352 N 
ATOM     24  C   UNL A   1      34.311  30.297  27.407  1.00  0.00     0.251 C 
ATOM     25  H   UNL A   1      32.925  31.686  26.991  1.00  0.00     0.163 HD
ATOM     26  O   UNL A   1      33.671  29.385  26.903  1.00  0.00    -0.269 OA
BRANCH  24  27
ATOM     27  C   UNL A   1      35.630  30.032  28.023  1.00  0.00     0.039 A 
ATOM     28  C   UNL A   1      35.678  29.657  29.368  1.00  0.00     0.014 A 
ATOM     29  C   UNL A   1      36.803  30.107  27.268  1.00  0.00     0.014 A 
ATOM     30  C   UNL A   1      36.897  29.278  29.934  1.00  0.00     0.010 A 
ATOM     31  C   UNL A   1      38.002  29.657  27.813  1.00  0.00     0.010 A 
ATOM     32  C   UNL A   1      38.062  29.230  29.148  1.00  0.00    -0.014 A 
BRANCH  32  33
ATOM     33  C   UNL A   1      39.335  28.697  29.697  1.00  0.00     0.031 A 
ATOM     34  C   UNL A   1      39.978  29.338  30.896  1.00  0.00     0.074 A 
ATOM     35  C   UNL A   1      39.959  27.686  29.058  1.00  0.00     0.049 A 
ATOM     36  N   UNL A   1      41.104  29.031  31.489  1.00  0.00    -0.248 NA
ATOM     37  C   UNL A   1      39.282  30.490  31.494  1.00  0.00     0.031 C 
ATOM     38  C   UNL A   1      39.487  27.041  27.830  1.00  0.00     0.029 A 
ATOM     39  N   UNL A   1      41.138  27.040  29.337  1.00  0.00    -0.354 N 
ATOM     40  C   UNL A   1      41.266  29.966  32.504  1.00  0.00     0.074 A 
ATOM     41  C   UNL A   1      40.143  30.874  32.426  1.00  0.00     0.031 C 
ATOM     42  C   UNL A   1      40.361  26.090  27.466  1.00  0.00     0.029 A 
ATOM     43  C   UNL A   1      41.468  26.071  28.417  1.00  0.00     0.049 A 
ATOM     44  H   UNL A   1      41.695  27.250  30.121  1.00  0.00     0.167 HD
ATOM     45  C   UNL A   1      42.243  30.043  33.439  1.00  0.00     0.034 A 
ATOM     46  C   UNL A   1      42.542  25.260  28.345  1.00  0.00     0.034 A 
ATOM     47  C   UNL A   1      43.334  29.111  33.543  1.00  0.00     0.049 A 
ATOM     48  C   UNL A   1      43.584  25.333  29.429  1.00  0.00     0.074 A 
ATOM     49  C   UNL A   1      44.324  29.052  34.509  1.00  0.00     0.029 A 
ATOM     50  N   UNL A   1      43.585  28.081  32.650  1.00  0.00    -0.354 N 
ATOM     51  N   UNL A   1      43.628  26.112  30.482  1.00  0.00    -0.248 NA
ATOM     52  C   UNL A   1      44.707  24.388  29.336  1.00  0.00     0.031 C 
ATOM     53  C   UNL A   1      45.182  27.994  34.190  1.00  0.00     0.029 A 
ATOM     54  C   UNL A   1      44.715  27.383  33.038  1.00  0.00     0.049 A 
ATOM     55  H   UNL A   1      43.038  27.877  31.857  1.00  0.00     0.167 HD
ATOM     56  C   UNL A   1      44.759  25.731  31.193  1.00  0.00     0.074 A 
ATOM     57  C   UNL A   1      45.358  24.630  30.465  1.00  0.00     0.031 C 
ATOM     58  C   UNL A   1      45.269  26.255  32.334  1.00  0.00     0.034 A 
BRANCH  45  59
ATOM     59  C   UNL A   1      42.141  31.135  34.472  1.00  0.00     0.023 A 
ATOM     60  C   UNL A   1      41.401  30.904  35.649  1.00  0.00     0.012 A 
ATOM     61  C   UNL A   1      42.829  32.354  34.316  1.00  0.00     0.148 A 
ATOM     62  C   UNL A   1      41.322  31.879  36.642  1.00  0.00     0.002 A 
ATOM     63  C   UNL A   1      42.780  33.305  35.330  1.00  0.00     0.091 A 
ATOM     64  F   UNL A   1      43.511  32.564  33.181  1.00  0.00    -0.205 F 
ATOM     65  C   UNL A   1      42.019  33.073  36.487  1.00  0.00     0.022 A 
BRANCH  63  66
ATOM     66  S   UNL A   1      43.705  34.843  35.265  1.00  0.00     0.127 S 
ATOM     67  O   UNL A   1      43.401  35.425  36.572  1.00  0.00    -0.237 OA
ATOM     68  O   UNL A   1      45.081  34.369  35.114  1.00  0.00    -0.237 OA
ATOM     69  O   UNL A   1      43.186  35.577  34.120  1.00  0.00    -0.744 OA
ENDBRANCH  63  66
ENDBRANCH  45  59
BRANCH  46  70
ATOM     70  C   UNL A   1      42.652  24.256  27.249  1.00  0.00     0.023 A 
ATOM     71  C   UNL A   1      43.383  24.577  26.088  1.00  0.00     0.012 A 
ATOM     72  C   UNL A   1      42.054  22.984  27.352  1.00  0.00     0.148 A 
ATOM     73  C   UNL A   1      43.484  23.667  25.035  1.00  0.00     0.002 A 
ATOM     74  C   UNL A   1      42.207  22.062  26.324  1.00  0.00     0.091 A 
ATOM     75  F   UNL A   1      41.351  22.700  28.458  1.00  0.00    -0.205 F 
ATOM     76  C   UNL A   1      42.905  22.408  25.157  1.00  0.00     0.022 A 
BRANCH  74  77
ATOM     77  S   UNL A   1      41.609  20.373  26.456  1.00  0.00     0.127 S 
ATOM     78  O   UNL A   1      42.293  19.725  25.340  1.00  0.00    -0.237 OA
ATOM     79  O   UNL A   1      42.088  19.982  27.783  1.00  0.00    -0.237 OA
ATOM     80  O   UNL A   1      40.159  20.465  26.350  1.00  0.00    -0.744 OA
ENDBRANCH  74  77
ENDBRANCH  46  70
BRANCH  58  81
ATOM     81  C   UNL A   1      46.522  25.630  32.890  1.00  0.00     0.023 A 
ATOM     82  C   UNL A   1      47.780  26.159  32.541  1.00  0.00     0.012 A 
ATOM     83  C   UNL A   1      46.451  24.562  33.805  1.00  0.00     0.148 A 
ATOM     84  C   UNL A   1      48.951  25.613  33.065  1.00  0.00     0.002 A 
ATOM     85  C   UNL A   1      47.619  24.054  34.362  1.00  0.00     0.091 A 
ATOM     86  F   UNL A   1      45.246  24.058  34.110  1.00  0.00    -0.205 F 
ATOM     87  C   UNL A   1      48.870  24.568  33.983  1.00  0.00     0.022 A 
BRANCH  85  88
ATOM     88  S   UNL A   1      47.603  22.773  35.623  1.00  0.00     0.127 S 
ATOM     89  O   UNL A   1      48.902  22.136  35.417  1.00  0.00    -0.237 OA
ATOM     90  O   UNL A   1      47.495  23.552  36.856  1.00  0.00    -0.237 OA
ATOM     91  O   UNL A   1      46.443  21.942  35.332  1.00  0.00    -0.744 OA
ENDBRANCH  85  88
ENDBRANCH  58  81
ENDBRANCH  32  33
ENDBRANCH  24  27
ENDBRANCH  22  23
ENDBRANCH   1  22
TORSDOF 18
ENDMDL
