MODEL 1
REMARK VINA RESULT:     -13.6      0.000      0.000
REMARK SMILES C[C@@H](CCC(=O)NCCCCNC(=O)c1ccc(-c2c3nc(c(-c4cccc(S(=O)(=O)[O-])c4F)c4ccc([nH]4)c(-c4cccc(S(=O)(=O)[O-])c4F)c4nc(c(-c5cccc(S(=O)(=O)[O-])c5F)c5ccc2[nH]5)C=C4)C=C3)cc1)[C@@H]1CC[C@H]2[C@@H]3CC[C@H]4CC(=O)CC[C@@]4(C)[C@H]3CC(=O)[C@@]21C
REMARK SMILES IDX 9 1 8 2 7 3 5 4 6 5 4 7 3 8 2 9 1 10 78 11 79 12 97 13 80 14
REMARK SMILES IDX 81 15 95 16 98 17 82 18 94 19 96 20 83 21 93 22 84 23 91 24
REMARK SMILES IDX 85 25 90 26 92 27 86 28 89 29 87 30 88 31 10 32 11 33 12 34
REMARK SMILES IDX 13 35 14 37 15 38 16 39 77 40 17 41 76 42 18 43 19 44 20 45
REMARK SMILES IDX 70 46 21 47 75 48 69 49 71 50 22 51 74 52 68 53 67 54 23 56
REMARK SMILES IDX 55 57 35 58 54 59 36 60 39 61 53 62 72 63 37 64 38 65 52 67
REMARK SMILES IDX 73 68 40 69 24 70 25 71 33 72 26 73 28 74 34 75 27 76 29 77
REMARK SMILES IDX 30 78 31 79 32 80 56 81 57 82 65 83 58 84 60 85 66 86 59 87
REMARK SMILES IDX 61 88 62 89 63 90 64 91 41 92 42 93 50 94 43 95 45 96 51 97
REMARK SMILES IDX 44 98 46 99 47 100 48 101 49 102
REMARK H PARENT 7 6 12 36 71 55 39 66
REMARK Flexibility Score: inf
ROOT
ATOM      1  C   UNL A   1      39.304  22.691  26.448  1.00  0.00     0.023 C 
ENDROOT
BRANCH   1   2
ATOM      2  C   UNL A   1      38.186  23.724  26.005  1.00  0.00     0.116 C 
BRANCH   2   3
ATOM      3  N   UNL A   1      37.315  23.575  24.475  1.00  0.00    -0.356 N 
ATOM      4  C   UNL A   1      35.785  22.592  23.731  1.00  0.00     0.220 C 
ATOM      5  O   UNL A   1      34.873  23.001  22.932  1.00  0.00    -0.275 OA
ATOM      6  H   UNL A   1      37.717  24.158  23.790  1.00  0.00     0.163 HD
BRANCH   4   7
ATOM      7  C   UNL A   1      34.978  21.200  24.273  1.00  0.00     0.100 C 
BRANCH   7   8
ATOM      8  C   UNL A   1      34.815  20.860  25.706  1.00  0.00     0.013 C 
BRANCH   8   9
ATOM      9  C   UNL A   1      33.737  19.862  25.671  1.00  0.00    -0.010 C 
ATOM     10  C   UNL A   1      34.088  18.593  24.872  1.00  0.00     0.008 C 
BRANCH   9  11
ATOM     11  C   UNL A   1      32.577  20.565  24.980  1.00  0.00     0.005 C 
ATOM     12  C   UNL A   1      32.286  20.156  22.940  1.00  0.00     0.005 C 
ATOM     13  C   UNL A   1      31.989  22.495  25.308  1.00  0.00     0.032 C 
ATOM     14  C   UNL A   1      31.544  21.884  22.120  1.00  0.00     0.005 C 
ATOM     15  C   UNL A   1      31.625  23.318  23.560  1.00  0.00     0.006 C 
ATOM     16  C   UNL A   1      32.743  23.614  26.008  1.00  0.00     0.139 C 
ATOM     17  C   UNL A   1      30.601  22.583  26.061  1.00  0.00     0.020 C 
ATOM     18  C   UNL A   1      31.018  24.719  23.465  1.00  0.00    -0.003 C 
ATOM     19  C   UNL A   1      32.045  25.045  25.984  1.00  0.00     0.080 C 
ATOM     20  O   UNL A   1      33.740  23.385  26.690  1.00  0.00    -0.299 OA
ATOM     21  C   UNL A   1      31.543  25.314  22.117  1.00  0.00     0.004 C 
ATOM     22  C   UNL A   1      31.618  25.648  24.593  1.00  0.00     0.006 C 
ATOM     23  C   UNL A   1      31.538  26.833  21.955  1.00  0.00     0.005 C 
ATOM     24  C   UNL A   1      31.022  27.155  24.471  1.00  0.00    -0.025 C 
ATOM     25  C   UNL A   1      31.793  27.708  23.228  1.00  0.00     0.002 C 
ATOM     26  C   UNL A   1      29.476  27.340  24.157  1.00  0.00     0.015 C 
ATOM     27  C   UNL A   1      31.323  27.977  25.764  1.00  0.00     0.012 C 
ATOM     28  C   UNL A   1      31.451  29.171  22.944  1.00  0.00     0.079 C 
ATOM     29  C   UNL A   1      29.022  28.330  23.037  1.00  0.00     0.076 C 
ATOM     30  C   UNL A   1      30.067  29.216  22.384  1.00  0.00     0.133 C 
ATOM     31  O   UNL A   1      29.813  29.921  21.407  1.00  0.00    -0.300 OA
ENDBRANCH   9  11
ENDBRANCH   8   9
ENDBRANCH   7   8
ENDBRANCH   4   7
ENDBRANCH   2   3
ENDBRANCH   1   2
BRANCH   1  32
ATOM     32  C   UNL A   1      38.986  21.214  26.497  1.00  0.00     0.023 C 
BRANCH  32  33
ATOM     33  C   UNL A   1      39.819  20.454  25.513  1.00  0.00     0.116 C 
BRANCH  33  34
ATOM     34  N   UNL A   1      40.554  19.432  26.240  1.00  0.00    -0.352 N 
ATOM     35  C   UNL A   1      41.898  19.542  26.517  1.00  0.00     0.251 C 
ATOM     36  H   UNL A   1      40.072  18.630  26.548  1.00  0.00     0.163 HD
ATOM     37  O   UNL A   1      42.623  18.565  26.624  1.00  0.00    -0.269 OA
BRANCH  35  38
ATOM     38  C   UNL A   1      42.393  20.925  26.646  1.00  0.00     0.039 A 
ATOM     39  C   UNL A   1      42.636  21.695  25.513  1.00  0.00     0.014 A 
ATOM     40  C   UNL A   1      42.393  21.489  27.930  1.00  0.00     0.014 A 
ATOM     41  C   UNL A   1      42.912  23.049  25.683  1.00  0.00     0.010 A 
ATOM     42  C   UNL A   1      42.471  22.860  28.064  1.00  0.00     0.010 A 
ATOM     43  C   UNL A   1      42.832  23.635  26.960  1.00  0.00    -0.014 A 
BRANCH  43  44
ATOM     44  C   UNL A   1      43.266  25.027  27.199  1.00  0.00     0.031 A 
ATOM     45  C   UNL A   1      42.292  25.985  27.841  1.00  0.00     0.074 A 
ATOM     46  C   UNL A   1      44.494  25.430  26.827  1.00  0.00     0.049 A 
ATOM     47  N   UNL A   1      42.459  27.242  28.150  1.00  0.00    -0.248 NA
ATOM     48  C   UNL A   1      40.936  25.480  28.142  1.00  0.00     0.031 C 
ATOM     49  C   UNL A   1      45.485  24.608  26.129  1.00  0.00     0.029 A 
ATOM     50  N   UNL A   1      45.116  26.639  26.988  1.00  0.00    -0.354 N 
ATOM     51  C   UNL A   1      41.230  27.676  28.634  1.00  0.00     0.074 A 
ATOM     52  C   UNL A   1      40.304  26.579  28.514  1.00  0.00     0.031 C 
ATOM     53  C   UNL A   1      46.607  25.326  25.958  1.00  0.00     0.029 A 
ATOM     54  C   UNL A   1      46.398  26.667  26.495  1.00  0.00     0.049 A 
ATOM     55  H   UNL A   1      44.685  27.414  27.415  1.00  0.00     0.167 HD
ATOM     56  C   UNL A   1      40.907  28.869  29.176  1.00  0.00     0.034 A 
ATOM     57  C   UNL A   1      47.298  27.668  26.483  1.00  0.00     0.034 A 
ATOM     58  C   UNL A   1      41.848  29.938  29.341  1.00  0.00     0.049 A 
ATOM     59  C   UNL A   1      46.924  28.981  27.116  1.00  0.00     0.074 A 
ATOM     60  C   UNL A   1      41.660  31.160  29.955  1.00  0.00     0.029 A 
ATOM     61  N   UNL A   1      43.153  29.912  28.874  1.00  0.00    -0.354 N 
ATOM     62  N   UNL A   1      45.803  29.324  27.704  1.00  0.00    -0.248 NA
ATOM     63  C   UNL A   1      47.950  30.032  27.114  1.00  0.00     0.031 C 
ATOM     64  C   UNL A   1      42.838  31.897  29.812  1.00  0.00     0.029 A 
ATOM     65  C   UNL A   1      43.777  31.109  29.163  1.00  0.00     0.049 A 
ATOM     66  H   UNL A   1      43.571  29.154  28.406  1.00  0.00     0.167 HD
ATOM     67  C   UNL A   1      46.001  30.616  28.175  1.00  0.00     0.074 A 
ATOM     68  C   UNL A   1      47.358  30.983  27.822  1.00  0.00     0.031 C 
ATOM     69  C   UNL A   1      45.141  31.431  28.835  1.00  0.00     0.034 A 
BRANCH  56  70
ATOM     70  C   UNL A   1      39.492  29.065  29.650  1.00  0.00     0.023 A 
ATOM     71  C   UNL A   1      39.112  28.663  30.949  1.00  0.00     0.012 A 
ATOM     72  C   UNL A   1      38.542  29.682  28.814  1.00  0.00     0.148 A 
ATOM     73  C   UNL A   1      37.802  28.836  31.391  1.00  0.00     0.002 A 
ATOM     74  C   UNL A   1      37.254  29.904  29.283  1.00  0.00     0.091 A 
ATOM     75  F   UNL A   1      38.913  30.028  27.574  1.00  0.00    -0.205 F 
ATOM     76  C   UNL A   1      36.878  29.468  30.565  1.00  0.00     0.022 A 
BRANCH  74  77
ATOM     77  S   UNL A   1      36.017  30.785  28.329  1.00  0.00     0.127 S 
ATOM     78  O   UNL A   1      34.862  30.733  29.225  1.00  0.00    -0.237 OA
ATOM     79  O   UNL A   1      36.624  32.108  28.191  1.00  0.00    -0.237 OA
ATOM     80  O   UNL A   1      35.868  30.047  27.082  1.00  0.00    -0.744 OA
ENDBRANCH  74  77
ENDBRANCH  56  70
BRANCH  57  81
ATOM     81  C   UNL A   1      48.649  27.452  25.894  1.00  0.00     0.023 A 
ATOM     82  C   UNL A   1      49.723  27.073  26.724  1.00  0.00     0.012 A 
ATOM     83  C   UNL A   1      48.868  27.604  24.513  1.00  0.00     0.148 A 
ATOM     84  C   UNL A   1      51.000  26.890  26.193  1.00  0.00     0.002 A 
ATOM     85  C   UNL A   1      50.128  27.363  23.980  1.00  0.00     0.091 A 
ATOM     86  F   UNL A   1      47.833  27.967  23.742  1.00  0.00    -0.205 F 
ATOM     87  C   UNL A   1      51.201  27.026  24.821  1.00  0.00     0.022 A 
BRANCH  85  88
ATOM     88  S   UNL A   1      50.445  27.387  22.213  1.00  0.00     0.127 S 
ATOM     89  O   UNL A   1      50.235  28.796  21.891  1.00  0.00    -0.237 OA
ATOM     90  O   UNL A   1      51.837  26.940  22.152  1.00  0.00    -0.237 OA
ATOM     91  O   UNL A   1      49.489  26.457  21.627  1.00  0.00    -0.744 OA
ENDBRANCH  85  88
ENDBRANCH  57  81
BRANCH  69  92
ATOM     92  C   UNL A   1      45.650  32.780  29.263  1.00  0.00     0.023 A 
ATOM     93  C   UNL A   1      46.314  32.930  30.495  1.00  0.00     0.012 A 
ATOM     94  C   UNL A   1      45.533  33.886  28.397  1.00  0.00     0.148 A 
ATOM     95  C   UNL A   1      46.819  34.171  30.878  1.00  0.00     0.002 A 
ATOM     96  C   UNL A   1      46.091  35.103  28.758  1.00  0.00     0.091 A 
ATOM     97  F   UNL A   1      44.886  33.721  27.234  1.00  0.00    -0.205 F 
ATOM     98  C   UNL A   1      46.719  35.253  30.006  1.00  0.00     0.022 A 
BRANCH  96  99
ATOM     99  S   UNL A   1      46.105  36.520  27.657  1.00  0.00     0.127 S 
ATOM    100  O   UNL A   1      46.827  37.510  28.455  1.00  0.00    -0.237 OA
ATOM    101  O   UNL A   1      46.845  36.006  26.504  1.00  0.00    -0.237 OA
ATOM    102  O   UNL A   1      44.708  36.838  27.388  1.00  0.00    -0.744 OA
ENDBRANCH  96  99
ENDBRANCH  69  92
ENDBRANCH  43  44
ENDBRANCH  35  38
ENDBRANCH  33  34
ENDBRANCH  32  33
ENDBRANCH   1  32
TORSDOF 17
ENDMDL
MODEL 2
REMARK VINA RESULT:     -13.5      2.294      7.522
REMARK SMILES C[C@@H](CCC(=O)NCCCCNC(=O)c1ccc(-c2c3nc(c(-c4cccc(S(=O)(=O)[O-])c4F)c4ccc([nH]4)c(-c4cccc(S(=O)(=O)[O-])c4F)c4nc(c(-c5cccc(S(=O)(=O)[O-])c5F)c5ccc2[nH]5)C=C4)C=C3)cc1)[C@@H]1CC[C@H]2[C@@H]3CC[C@H]4CC(=O)CC[C@@]4(C)[C@H]3CC(=O)[C@@]21C
REMARK SMILES IDX 9 1 8 2 7 3 5 4 6 5 4 7 3 8 2 9 1 10 78 11 79 12 97 13 80 14
REMARK SMILES IDX 81 15 95 16 98 17 82 18 94 19 96 20 83 21 93 22 84 23 91 24
REMARK SMILES IDX 85 25 90 26 92 27 86 28 89 29 87 30 88 31 10 32 11 33 12 34
REMARK SMILES IDX 13 35 14 37 15 38 16 39 77 40 17 41 76 42 18 43 19 44 20 45
REMARK SMILES IDX 70 46 21 47 75 48 69 49 71 50 22 51 74 52 68 53 67 54 23 56
REMARK SMILES IDX 55 57 35 58 54 59 36 60 39 61 53 62 72 63 37 64 38 65 52 67
REMARK SMILES IDX 73 68 40 69 24 70 25 71 33 72 26 73 28 74 34 75 27 76 29 77
REMARK SMILES IDX 30 78 31 79 32 80 56 81 57 82 65 83 58 84 60 85 66 86 59 87
REMARK SMILES IDX 61 88 62 89 63 90 64 91 41 92 42 93 50 94 43 95 45 96 51 97
REMARK SMILES IDX 44 98 46 99 47 100 48 101 49 102
REMARK H PARENT 7 6 12 36 71 55 39 66
REMARK Flexibility Score: inf
ROOT
ATOM      1  C   UNL A   1      39.968  19.695  25.944  1.00  0.00     0.023 C 
ENDROOT
BRANCH   1   2
ATOM      2  C   UNL A   1      39.586  21.228  26.087  1.00  0.00     0.116 C 
BRANCH   2   3
ATOM      3  N   UNL A   1      38.393  22.006  25.040  1.00  0.00    -0.356 N 
ATOM      4  C   UNL A   1      36.442  22.187  24.899  1.00  0.00     0.220 C 
ATOM      5  O   UNL A   1      35.746  23.215  24.585  1.00  0.00    -0.275 OA
ATOM      6  H   UNL A   1      38.840  22.493  24.310  1.00  0.00     0.163 HD
BRANCH   4   7
ATOM      7  C   UNL A   1      35.181  21.284  25.588  1.00  0.00     0.100 C 
BRANCH   7   8
ATOM      8  C   UNL A   1      34.719  19.985  25.046  1.00  0.00     0.013 C 
BRANCH   8   9
ATOM      9  C   UNL A   1      33.491  19.742  25.816  1.00  0.00    -0.010 C 
ATOM     10  C   UNL A   1      33.113  18.254  25.933  1.00  0.00     0.008 C 
BRANCH   9  11
ATOM     11  C   UNL A   1      32.396  20.462  25.043  1.00  0.00     0.005 C 
ATOM     12  C   UNL A   1      32.284  20.100  22.977  1.00  0.00     0.005 C 
ATOM     13  C   UNL A   1      31.780  22.384  25.362  1.00  0.00     0.032 C 
ATOM     14  C   UNL A   1      31.617  21.846  22.134  1.00  0.00     0.005 C 
ATOM     15  C   UNL A   1      31.570  23.247  23.608  1.00  0.00     0.006 C 
ATOM     16  C   UNL A   1      32.470  23.486  26.150  1.00  0.00     0.139 C 
ATOM     17  C   UNL A   1      30.332  22.458  25.992  1.00  0.00     0.020 C 
ATOM     18  C   UNL A   1      30.974  24.651  23.491  1.00  0.00    -0.003 C 
ATOM     19  C   UNL A   1      31.776  24.919  26.096  1.00  0.00     0.080 C 
ATOM     20  O   UNL A   1      33.404  23.241  26.911  1.00  0.00    -0.299 OA
ATOM     21  C   UNL A   1      31.614  25.275  22.208  1.00  0.00     0.004 C 
ATOM     22  C   UNL A   1      31.472  25.554  24.687  1.00  0.00     0.006 C 
ATOM     23  C   UNL A   1      31.622  26.797  22.081  1.00  0.00     0.005 C 
ATOM     24  C   UNL A   1      30.888  27.064  24.548  1.00  0.00    -0.025 C 
ATOM     25  C   UNL A   1      31.765  27.643  23.390  1.00  0.00     0.002 C 
ATOM     26  C   UNL A   1      29.375  27.257  24.104  1.00  0.00     0.015 C 
ATOM     27  C   UNL A   1      31.075  27.856  25.881  1.00  0.00     0.012 C 
ATOM     28  C   UNL A   1      31.448  29.113  23.110  1.00  0.00     0.079 C 
ATOM     29  C   UNL A   1      29.021  28.273  22.971  1.00  0.00     0.076 C 
ATOM     30  C   UNL A   1      30.118  29.173  22.433  1.00  0.00     0.133 C 
ATOM     31  O   UNL A   1      29.950  29.899  21.453  1.00  0.00    -0.300 OA
ENDBRANCH   9  11
ENDBRANCH   8   9
ENDBRANCH   7   8
ENDBRANCH   4   7
ENDBRANCH   2   3
ENDBRANCH   1   2
BRANCH   1  32
ATOM     32  C   UNL A   1      41.377  19.240  26.248  1.00  0.00     0.023 C 
BRANCH  32  33
ATOM     33  C   UNL A   1      42.368  20.316  25.929  1.00  0.00     0.116 C 
BRANCH  33  34
ATOM     34  N   UNL A   1      43.529  19.691  25.317  1.00  0.00    -0.352 N 
ATOM     35  C   UNL A   1      44.476  20.409  24.623  1.00  0.00     0.251 C 
ATOM     36  H   UNL A   1      43.642  18.717  25.402  1.00  0.00     0.163 HD
ATOM     37  O   UNL A   1      45.116  19.924  23.702  1.00  0.00    -0.269 OA
BRANCH  35  38
ATOM     38  C   UNL A   1      44.637  21.808  25.060  1.00  0.00     0.039 A 
ATOM     39  C   UNL A   1      44.089  22.847  24.314  1.00  0.00     0.014 A 
ATOM     40  C   UNL A   1      45.158  22.024  26.344  1.00  0.00     0.014 A 
ATOM     41  C   UNL A   1      44.095  24.126  24.862  1.00  0.00     0.010 A 
ATOM     42  C   UNL A   1      44.977  23.250  26.948  1.00  0.00     0.010 A 
ATOM     43  C   UNL A   1      44.541  24.332  26.180  1.00  0.00    -0.014 A 
BRANCH  43  44
ATOM     44  C   UNL A   1      44.704  25.692  26.737  1.00  0.00     0.031 A 
ATOM     45  C   UNL A   1      46.069  26.332  26.686  1.00  0.00     0.074 A 
ATOM     46  C   UNL A   1      43.659  26.326  27.296  1.00  0.00     0.049 A 
ATOM     47  N   UNL A   1      46.440  27.512  27.104  1.00  0.00    -0.248 NA
ATOM     48  C   UNL A   1      47.178  25.531  26.127  1.00  0.00     0.031 C 
ATOM     49  C   UNL A   1      42.315  25.768  27.468  1.00  0.00     0.029 A 
ATOM     50  N   UNL A   1      43.567  27.586  27.825  1.00  0.00    -0.354 N 
ATOM     51  C   UNL A   1      47.813  27.569  26.898  1.00  0.00     0.074 A 
ATOM     52  C   UNL A   1      48.229  26.288  26.388  1.00  0.00     0.031 C 
ATOM     53  C   UNL A   1      41.523  26.699  28.026  1.00  0.00     0.029 A 
ATOM     54  C   UNL A   1      42.312  27.899  28.288  1.00  0.00     0.049 A 
ATOM     55  H   UNL A   1      44.329  28.208  27.871  1.00  0.00     0.167 HD
ATOM     56  C   UNL A   1      48.653  28.612  27.073  1.00  0.00     0.034 A 
ATOM     57  C   UNL A   1      41.857  29.029  28.857  1.00  0.00     0.034 A 
ATOM     58  C   UNL A   1      48.222  29.899  27.532  1.00  0.00     0.049 A 
ATOM     59  C   UNL A   1      42.805  30.187  29.019  1.00  0.00     0.074 A 
ATOM     60  C   UNL A   1      48.964  31.056  27.665  1.00  0.00     0.029 A 
ATOM     61  N   UNL A   1      46.931  30.193  27.944  1.00  0.00    -0.354 N 
ATOM     62  N   UNL A   1      44.069  30.272  28.680  1.00  0.00    -0.248 NA
ATOM     63  C   UNL A   1      42.257  31.414  29.610  1.00  0.00     0.031 C 
ATOM     64  C   UNL A   1      48.134  32.038  28.210  1.00  0.00     0.029 A 
ATOM     65  C   UNL A   1      46.860  31.508  28.357  1.00  0.00     0.049 A 
ATOM     66  H   UNL A   1      46.179  29.559  27.942  1.00  0.00     0.167 HD
ATOM     67  C   UNL A   1      44.457  31.572  28.980  1.00  0.00     0.074 A 
ATOM     68  C   UNL A   1      43.286  32.243  29.509  1.00  0.00     0.031 C 
ATOM     69  C   UNL A   1      45.671  32.160  28.841  1.00  0.00     0.034 A 
BRANCH  56  70
ATOM     70  C   UNL A   1      50.107  28.405  26.744  1.00  0.00     0.023 A 
ATOM     71  C   UNL A   1      50.572  28.584  25.424  1.00  0.00     0.012 A 
ATOM     72  C   UNL A   1      51.023  28.063  27.757  1.00  0.00     0.148 A 
ATOM     73  C   UNL A   1      51.916  28.389  25.111  1.00  0.00     0.002 A 
ATOM     74  C   UNL A   1      52.370  27.927  27.449  1.00  0.00     0.091 A 
ATOM     75  F   UNL A   1      50.558  27.867  28.999  1.00  0.00    -0.205 F 
ATOM     76  C   UNL A   1      52.816  28.073  26.125  1.00  0.00     0.022 A 
BRANCH  74  77
ATOM     77  S   UNL A   1      53.619  27.607  28.696  1.00  0.00     0.127 S 
ATOM     78  O   UNL A   1      53.523  28.810  29.523  1.00  0.00    -0.237 OA
ATOM     79  O   UNL A   1      53.113  26.389  29.328  1.00  0.00    -0.237 OA
ATOM     80  O   UNL A   1      54.875  27.447  27.978  1.00  0.00    -0.744 OA
ENDBRANCH  74  77
ENDBRANCH  56  70
BRANCH  57  81
ATOM     81  C   UNL A   1      40.430  29.137  29.271  1.00  0.00     0.023 A 
ATOM     82  C   UNL A   1      39.439  29.412  28.308  1.00  0.00     0.012 A 
ATOM     83  C   UNL A   1      40.051  28.952  30.613  1.00  0.00     0.148 A 
ATOM     84  C   UNL A   1      38.101  29.540  28.682  1.00  0.00     0.002 A 
ATOM     85  C   UNL A   1      38.711  29.022  30.971  1.00  0.00     0.091 A 
ATOM     86  F   UNL A   1      41.010  28.695  31.513  1.00  0.00    -0.205 F 
ATOM     87  C   UNL A   1      37.736  29.336  30.010  1.00  0.00     0.022 A 
BRANCH  85  88
ATOM     88  S   UNL A   1      38.138  28.646  32.630  1.00  0.00     0.127 S 
ATOM     89  O   UNL A   1      39.039  29.455  33.448  1.00  0.00    -0.237 OA
ATOM     90  O   UNL A   1      36.754  29.118  32.584  1.00  0.00    -0.237 OA
ATOM     91  O   UNL A   1      38.275  27.203  32.779  1.00  0.00    -0.744 OA
ENDBRANCH  85  88
ENDBRANCH  57  81
BRANCH  69  92
ATOM     92  C   UNL A   1      45.789  33.612  29.216  1.00  0.00     0.023 A 
ATOM     93  C   UNL A   1      46.244  33.980  30.496  1.00  0.00     0.012 A 
ATOM     94  C   UNL A   1      45.519  34.611  28.259  1.00  0.00     0.148 A 
ATOM     95  C   UNL A   1      46.389  35.324  30.833  1.00  0.00     0.002 A 
ATOM     96  C   UNL A   1      45.723  35.945  28.583  1.00  0.00     0.091 A 
ATOM     97  F   UNL A   1      45.076  34.236  27.051  1.00  0.00    -0.205 F 
ATOM     98  C   UNL A   1      46.141  36.304  29.875  1.00  0.00     0.022 A 
BRANCH  96  99
ATOM     99  S   UNL A   1      45.533  37.266  27.383  1.00  0.00     0.127 S 
ATOM    100  O   UNL A   1      45.952  38.433  28.158  1.00  0.00    -0.237 OA
ATOM    101  O   UNL A   1      46.468  36.863  26.332  1.00  0.00    -0.237 OA
ATOM    102  O   UNL A   1      44.131  37.253  26.986  1.00  0.00    -0.744 OA
ENDBRANCH  96  99
ENDBRANCH  69  92
ENDBRANCH  43  44
ENDBRANCH  35  38
ENDBRANCH  33  34
ENDBRANCH  32  33
ENDBRANCH   1  32
TORSDOF 17
ENDMDL
MODEL 3
REMARK VINA RESULT:     -13.1      2.224      2.739
REMARK SMILES C[C@@H](CCC(=O)NCCCCNC(=O)c1ccc(-c2c3nc(c(-c4cccc(S(=O)(=O)[O-])c4F)c4ccc([nH]4)c(-c4cccc(S(=O)(=O)[O-])c4F)c4nc(c(-c5cccc(S(=O)(=O)[O-])c5F)c5ccc2[nH]5)C=C4)C=C3)cc1)[C@@H]1CC[C@H]2[C@@H]3CC[C@H]4CC(=O)CC[C@@]4(C)[C@H]3CC(=O)[C@@]21C
REMARK SMILES IDX 9 1 8 2 7 3 5 4 6 5 4 7 3 8 2 9 1 10 78 11 79 12 97 13 80 14
REMARK SMILES IDX 81 15 95 16 98 17 82 18 94 19 96 20 83 21 93 22 84 23 91 24
REMARK SMILES IDX 85 25 90 26 92 27 86 28 89 29 87 30 88 31 10 32 11 33 12 34
REMARK SMILES IDX 13 35 14 37 15 38 16 39 77 40 17 41 76 42 18 43 19 44 20 45
REMARK SMILES IDX 70 46 21 47 75 48 69 49 71 50 22 51 74 52 68 53 67 54 23 56
REMARK SMILES IDX 55 57 35 58 54 59 36 60 39 61 53 62 72 63 37 64 38 65 52 67
REMARK SMILES IDX 73 68 40 69 24 70 25 71 33 72 26 73 28 74 34 75 27 76 29 77
REMARK SMILES IDX 30 78 31 79 32 80 56 81 57 82 65 83 58 84 60 85 66 86 59 87
REMARK SMILES IDX 61 88 62 89 63 90 64 91 41 92 42 93 50 94 43 95 45 96 51 97
REMARK SMILES IDX 44 98 46 99 47 100 48 101 49 102
REMARK H PARENT 7 6 12 36 71 55 39 66
REMARK Flexibility Score: inf
ROOT
ATOM      1  C   UNL A   1      40.023  19.832  26.259  1.00  0.00     0.023 C 
ENDROOT
BRANCH   1   2
ATOM      2  C   UNL A   1      39.714  21.380  26.110  1.00  0.00     0.116 C 
BRANCH   2   3
ATOM      3  N   UNL A   1      38.440  21.991  25.047  1.00  0.00    -0.356 N 
ATOM      4  C   UNL A   1      36.480  21.969  24.920  1.00  0.00     0.220 C 
ATOM      5  O   UNL A   1      35.681  22.908  24.574  1.00  0.00    -0.275 OA
ATOM      6  H   UNL A   1      38.830  22.491  24.293  1.00  0.00     0.163 HD
BRANCH   4   7
ATOM      7  C   UNL A   1      35.322  20.972  25.658  1.00  0.00     0.100 C 
BRANCH   7   8
ATOM      8  C   UNL A   1      34.737  19.779  25.003  1.00  0.00     0.013 C 
BRANCH   8   9
ATOM      9  C   UNL A   1      33.506  19.568  25.776  1.00  0.00    -0.010 C 
ATOM     10  C   UNL A   1      33.089  18.090  25.895  1.00  0.00     0.008 C 
BRANCH   9  11
ATOM     11  C   UNL A   1      32.428  20.315  25.005  1.00  0.00     0.005 C 
ATOM     12  C   UNL A   1      32.318  19.973  22.935  1.00  0.00     0.005 C 
ATOM     13  C   UNL A   1      31.846  22.246  25.339  1.00  0.00     0.032 C 
ATOM     14  C   UNL A   1      31.687  21.740  22.105  1.00  0.00     0.005 C 
ATOM     15  C   UNL A   1      31.659  23.128  23.591  1.00  0.00     0.006 C 
ATOM     16  C   UNL A   1      32.553  23.327  26.139  1.00  0.00     0.139 C 
ATOM     17  C   UNL A   1      30.396  22.340  25.963  1.00  0.00     0.020 C 
ATOM     18  C   UNL A   1      31.090  24.543  23.485  1.00  0.00    -0.003 C 
ATOM     19  C   UNL A   1      31.885  24.773  26.096  1.00  0.00     0.080 C 
ATOM     20  O   UNL A   1      33.478  23.058  26.902  1.00  0.00    -0.299 OA
ATOM     21  C   UNL A   1      31.747  25.167  22.210  1.00  0.00     0.004 C 
ATOM     22  C   UNL A   1      31.600  25.426  24.692  1.00  0.00     0.006 C 
ATOM     23  C   UNL A   1      31.784  26.690  22.097  1.00  0.00     0.005 C 
ATOM     24  C   UNL A   1      31.044  26.948  24.563  1.00  0.00    -0.025 C 
ATOM     25  C   UNL A   1      31.937  27.521  23.414  1.00  0.00     0.002 C 
ATOM     26  C   UNL A   1      29.537  27.174  24.115  1.00  0.00     0.015 C 
ATOM     27  C   UNL A   1      31.240  27.725  25.904  1.00  0.00     0.012 C 
ATOM     28  C   UNL A   1      31.649  28.999  23.147  1.00  0.00     0.079 C 
ATOM     29  C   UNL A   1      29.207  28.206  22.990  1.00  0.00     0.076 C 
ATOM     30  C   UNL A   1      30.323  29.090  22.464  1.00  0.00     0.133 C 
ATOM     31  O   UNL A   1      30.173  29.828  21.490  1.00  0.00    -0.300 OA
ENDBRANCH   9  11
ENDBRANCH   8   9
ENDBRANCH   7   8
ENDBRANCH   4   7
ENDBRANCH   2   3
ENDBRANCH   1   2
BRANCH   1  32
ATOM     32  C   UNL A   1      41.446  19.366  26.462  1.00  0.00     0.023 C 
BRANCH  32  33
ATOM     33  C   UNL A   1      42.411  20.278  25.772  1.00  0.00     0.116 C 
BRANCH  33  34
ATOM     34  N   UNL A   1      43.512  19.472  25.270  1.00  0.00    -0.352 N 
ATOM     35  C   UNL A   1      44.554  20.009  24.548  1.00  0.00     0.251 C 
ATOM     36  H   UNL A   1      43.513  18.505  25.454  1.00  0.00     0.163 HD
ATOM     37  O   UNL A   1      45.161  19.367  23.705  1.00  0.00    -0.269 OA
BRANCH  35  38
ATOM     38  C   UNL A   1      44.859  21.419  24.853  1.00  0.00     0.039 A 
ATOM     39  C   UNL A   1      44.401  22.434  24.020  1.00  0.00     0.014 A 
ATOM     40  C   UNL A   1      45.421  21.697  26.107  1.00  0.00     0.014 A 
ATOM     41  C   UNL A   1      44.541  23.752  24.448  1.00  0.00     0.010 A 
ATOM     42  C   UNL A   1      45.372  22.985  26.597  1.00  0.00     0.010 A 
ATOM     43  C   UNL A   1      45.029  24.031  25.738  1.00  0.00    -0.014 A 
BRANCH  43  44
ATOM     44  C   UNL A   1      45.334  25.413  26.165  1.00  0.00     0.031 A 
ATOM     45  C   UNL A   1      44.216  26.255  26.728  1.00  0.00     0.074 A 
ATOM     46  C   UNL A   1      46.577  25.907  26.030  1.00  0.00     0.049 A 
ATOM     47  N   UNL A   1      44.255  27.483  27.171  1.00  0.00    -0.248 NA
ATOM     48  C   UNL A   1      42.864  25.660  26.765  1.00  0.00     0.031 C 
ATOM     49  C   UNL A   1      47.712  25.205  25.426  1.00  0.00     0.029 A 
ATOM     50  N   UNL A   1      47.091  27.123  26.394  1.00  0.00    -0.354 N 
ATOM     51  C   UNL A   1      42.943  27.808  27.492  1.00  0.00     0.074 A 
ATOM     52  C   UNL A   1      42.116  26.685  27.130  1.00  0.00     0.031 C 
ATOM     53  C   UNL A   1      48.800  25.990  25.499  1.00  0.00     0.029 A 
ATOM     54  C   UNL A   1      48.429  27.260  26.114  1.00  0.00     0.049 A 
ATOM     55  H   UNL A   1      46.553  27.831  26.815  1.00  0.00     0.167 HD
ATOM     56  C   UNL A   1      42.467  28.926  28.081  1.00  0.00     0.034 A 
ATOM     57  C   UNL A   1      49.256  28.299  26.333  1.00  0.00     0.034 A 
ATOM     58  C   UNL A   1      43.304  30.017  28.486  1.00  0.00     0.049 A 
ATOM     59  C   UNL A   1      48.709  29.524  27.014  1.00  0.00     0.074 A 
ATOM     60  C   UNL A   1      42.949  31.162  29.170  1.00  0.00     0.029 A 
ATOM     61  N   UNL A   1      44.663  30.099  28.231  1.00  0.00    -0.354 N 
ATOM     62  N   UNL A   1      47.493  29.755  27.446  1.00  0.00    -0.248 NA
ATOM     63  C   UNL A   1      49.656  30.618  27.268  1.00  0.00     0.031 C 
ATOM     64  C   UNL A   1      44.086  31.966  29.282  1.00  0.00     0.029 A 
ATOM     65  C   UNL A   1      45.161  31.290  28.721  1.00  0.00     0.049 A 
ATOM     66  H   UNL A   1      45.194  29.411  27.769  1.00  0.00     0.167 HD
ATOM     67  C   UNL A   1      47.536  31.002  28.057  1.00  0.00     0.074 A 
ATOM     68  C   UNL A   1      48.905  31.466  27.956  1.00  0.00     0.031 C 
ATOM     69  C   UNL A   1      46.536  31.707  28.642  1.00  0.00     0.034 A 
BRANCH  56  70
ATOM     70  C   UNL A   1      40.987  29.008  28.341  1.00  0.00     0.023 A 
ATOM     71  C   UNL A   1      40.089  29.255  27.281  1.00  0.00     0.012 A 
ATOM     72  C   UNL A   1      40.482  28.805  29.639  1.00  0.00     0.148 A 
ATOM     73  C   UNL A   1      38.717  29.337  27.516  1.00  0.00     0.002 A 
ATOM     74  C   UNL A   1      39.110  28.831  29.855  1.00  0.00     0.091 A 
ATOM     75  F   UNL A   1      41.352  28.603  30.638  1.00  0.00    -0.205 F 
ATOM     76  C   UNL A   1      38.228  29.112  28.799  1.00  0.00     0.022 A 
BRANCH  74  77
ATOM     77  S   UNL A   1      38.377  28.469  31.452  1.00  0.00     0.127 S 
ATOM     78  O   UNL A   1      38.596  27.027  31.557  1.00  0.00    -0.237 OA
ATOM     79  O   UNL A   1      39.198  29.278  32.354  1.00  0.00    -0.237 OA
ATOM     80  O   UNL A   1      36.984  28.880  31.359  1.00  0.00    -0.744 OA
ENDBRANCH  74  77
ENDBRANCH  56  70
BRANCH  57  81
ATOM     81  C   UNL A   1      50.693  28.206  25.949  1.00  0.00     0.023 A 
ATOM     82  C   UNL A   1      51.098  28.586  24.654  1.00  0.00     0.012 A 
ATOM     83  C   UNL A   1      51.659  27.758  26.868  1.00  0.00     0.148 A 
ATOM     84  C   UNL A   1      52.435  28.483  24.269  1.00  0.00     0.002 A 
ATOM     85  C   UNL A   1      52.997  27.713  26.499  1.00  0.00     0.091 A 
ATOM     86  F   UNL A   1      51.251  27.398  28.093  1.00  0.00    -0.205 F 
ATOM     87  C   UNL A   1      53.386  28.055  25.194  1.00  0.00     0.022 A 
BRANCH  85  88
ATOM     88  S   UNL A   1      54.301  27.300  27.662  1.00  0.00     0.127 S 
ATOM     89  O   UNL A   1      54.106  28.308  28.700  1.00  0.00    -0.237 OA
ATOM     90  O   UNL A   1      53.936  25.936  28.049  1.00  0.00    -0.237 OA
ATOM     91  O   UNL A   1      55.547  27.398  26.913  1.00  0.00    -0.744 OA
ENDBRANCH  85  88
ENDBRANCH  57  81
BRANCH  69  92
ATOM     92  C   UNL A   1      46.889  33.030  29.265  1.00  0.00     0.023 A 
ATOM     93  C   UNL A   1      47.336  33.091  30.598  1.00  0.00     0.012 A 
ATOM     94  C   UNL A   1      46.848  34.207  28.490  1.00  0.00     0.148 A 
ATOM     95  C   UNL A   1      47.698  34.311  31.165  1.00  0.00     0.002 A 
ATOM     96  C   UNL A   1      47.269  35.408  29.043  1.00  0.00     0.091 A 
ATOM     97  F   UNL A   1      46.409  34.126  27.226  1.00  0.00    -0.205 F 
ATOM     98  C   UNL A   1      47.677  35.465  30.386  1.00  0.00     0.022 A 
BRANCH  96  99
ATOM     99  S   UNL A   1      47.377  36.922  28.086  1.00  0.00     0.127 S 
ATOM    100  O   UNL A   1      48.414  36.584  27.113  1.00  0.00    -0.237 OA
ATOM    101  O   UNL A   1      46.028  37.031  27.529  1.00  0.00    -0.237 OA
ATOM    102  O   UNL A   1      47.729  37.974  29.030  1.00  0.00    -0.744 OA
ENDBRANCH  96  99
ENDBRANCH  69  92
ENDBRANCH  43  44
ENDBRANCH  35  38
ENDBRANCH  33  34
ENDBRANCH  32  33
ENDBRANCH   1  32
TORSDOF 17
ENDMDL
