MODEL 1
REMARK VINA RESULT:     -12.2      0.000      0.000
REMARK SMILES COc1cc(OC)cc(-c2cc3nc(C)c(CCC(=O)NCCCCNC(=O)c4ccc(-c5c6nc(c(-c7cccc(S(=O)(=O)[O-])c7F)c7ccc([nH]7)c(-c7cccc(S(=O)(=O)[O-])c7F)c7nc(c(-c8cccc(S(=O)(=O)[O-])c8F)c8ccc5[nH]8)C=C7)C=C6)cc4)c(C)n3n2)c1
REMARK SMILES IDX 23 1 22 2 21 3 19 4 20 5 18 7 17 8 16 9 10 10 11 11 95 12
REMARK SMILES IDX 12 13 94 14 13 15 92 16 14 17 93 18 15 19 9 20 3 21 4 22
REMARK SMILES IDX 96 23 5 24 8 25 2 26 1 27 6 28 7 29 24 30 25 31 26 32 27 33
REMARK SMILES IDX 28 35 29 36 30 37 91 38 31 39 90 40 32 41 33 42 34 43 84 44
REMARK SMILES IDX 35 45 89 46 83 47 85 48 36 49 88 50 82 51 81 52 37 54 69 55
REMARK SMILES IDX 49 56 68 57 50 58 53 59 67 60 86 61 51 62 52 63 66 65 87 66
REMARK SMILES IDX 54 67 38 68 39 69 47 70 40 71 42 72 48 73 41 74 43 75 44 76
REMARK SMILES IDX 45 77 46 78 70 79 71 80 79 81 72 82 74 83 80 84 73 85 75 86
REMARK SMILES IDX 76 87 77 88 78 89 55 90 56 91 64 92 57 93 59 94 65 95 58 96
REMARK SMILES IDX 60 97 61 98 62 99 63 100
REMARK H PARENT 21 6 26 34 85 53 53 64
REMARK Flexibility Score: inf
ROOT
ATOM      1  C   UNL A   1      33.302  30.947  27.593  1.00  0.00     0.023 C 
ENDROOT
BRANCH   1   2
ATOM      2  C   UNL A   1      32.878  29.702  26.842  1.00  0.00     0.116 C 
BRANCH   2   3
ATOM      3  N   UNL A   1      33.644  29.627  25.610  1.00  0.00    -0.356 N 
ATOM      4  C   UNL A   1      33.169  29.327  24.359  1.00  0.00     0.220 C 
ATOM      5  O   UNL A   1      33.960  29.011  23.470  1.00  0.00    -0.275 OA
ATOM      6  H   UNL A   1      34.608  29.813  25.682  1.00  0.00     0.163 HD
BRANCH   4   7
ATOM      7  C   UNL A   1      31.662  29.388  24.076  1.00  0.00     0.105 C 
BRANCH   7   8
ATOM      8  C   UNL A   1      31.212  28.691  22.758  1.00  0.00     0.049 C 
BRANCH   8   9
ATOM      9  C   UNL A   1      31.022  27.169  22.832  1.00  0.00    -0.005 A 
ATOM     10  C   UNL A   1      32.204  22.893  23.698  1.00  0.00     0.095 A 
ATOM     11  C   UNL A   1      30.902  23.248  24.129  1.00  0.00     0.080 A 
ATOM     12  N   UNL A   1      32.716  23.854  22.904  1.00  0.00    -0.166 NA
ATOM     13  C   UNL A   1      30.667  24.516  23.653  1.00  0.00     0.156 A 
ATOM     14  N   UNL A   1      31.797  24.885  22.923  1.00  0.00    -0.219 N 
ATOM     15  N   UNL A   1      29.618  25.362  23.848  1.00  0.00    -0.234 NA
ATOM     16  C   UNL A   1      31.938  26.226  22.459  1.00  0.00     0.046 A 
ATOM     17  C   UNL A   1      29.771  26.602  23.481  1.00  0.00     0.045 A 
ATOM     18  C   UNL A   1      33.207  26.557  21.720  1.00  0.00     0.067 C 
ATOM     19  C   UNL A   1      28.551  27.484  23.660  1.00  0.00     0.067 C 
BRANCH  10  20
ATOM     20  C   UNL A   1      32.906  21.654  24.082  1.00  0.00     0.009 A 
ATOM     21  C   UNL A   1      34.948  20.516  24.816  1.00  0.00     0.123 A 
ATOM     22  C   UNL A   1      34.215  19.422  25.234  1.00  0.00     0.092 A 
ATOM     23  C   UNL A   1      34.306  21.588  24.189  1.00  0.00     0.057 A 
ATOM     24  C   UNL A   1      32.838  19.422  25.033  1.00  0.00     0.123 A 
ATOM     25  C   UNL A   1      32.176  20.544  24.505  1.00  0.00     0.057 A 
BRANCH  21  26
ATOM     26  O   UNL A   1      36.312  20.503  24.926  1.00  0.00    -0.497 OA
ATOM     27  C   UNL A   1      36.792  21.661  25.624  1.00  0.00     0.278 C 
ENDBRANCH  21  26
BRANCH  24  28
ATOM     28  O   UNL A   1      32.187  18.278  25.412  1.00  0.00    -0.497 OA
ATOM     29  C   UNL A   1      32.849  17.107  24.943  1.00  0.00     0.278 C 
ENDBRANCH  24  28
ENDBRANCH  10  20
ENDBRANCH   8   9
ENDBRANCH   7   8
ENDBRANCH   4   7
ENDBRANCH   2   3
ENDBRANCH   1   2
BRANCH   1  30
ATOM     30  C   UNL A   1      32.361  32.140  27.603  1.00  0.00     0.023 C 
BRANCH  30  31
ATOM     31  C   UNL A   1      33.061  33.422  27.262  1.00  0.00     0.116 C 
BRANCH  31  32
ATOM     32  N   UNL A   1      32.545  34.550  28.048  1.00  0.00    -0.352 N 
ATOM     33  C   UNL A   1      33.051  35.065  29.218  1.00  0.00     0.251 C 
ATOM     34  H   UNL A   1      31.737  34.989  27.695  1.00  0.00     0.163 HD
ATOM     35  O   UNL A   1      32.479  35.867  29.924  1.00  0.00    -0.269 OA
BRANCH  33  36
ATOM     36  C   UNL A   1      34.365  34.536  29.531  1.00  0.00     0.039 A 
ATOM     37  C   UNL A   1      34.446  33.456  30.409  1.00  0.00     0.014 A 
ATOM     38  C   UNL A   1      35.315  34.789  28.552  1.00  0.00     0.014 A 
ATOM     39  C   UNL A   1      35.563  32.658  30.380  1.00  0.00     0.010 A 
ATOM     40  C   UNL A   1      36.288  33.842  28.380  1.00  0.00     0.010 A 
ATOM     41  C   UNL A   1      36.504  32.889  29.381  1.00  0.00    -0.014 A 
BRANCH  41  42
ATOM     42  C   UNL A   1      37.788  32.222  29.469  1.00  0.00     0.031 A 
ATOM     43  C   UNL A   1      37.889  30.818  28.994  1.00  0.00     0.074 A 
ATOM     44  C   UNL A   1      38.821  32.876  30.041  1.00  0.00     0.049 A 
ATOM     45  N   UNL A   1      38.145  29.787  29.734  1.00  0.00    -0.248 NA
ATOM     46  C   UNL A   1      37.549  30.485  27.603  1.00  0.00     0.031 C 
ATOM     47  C   UNL A   1      38.901  34.284  30.466  1.00  0.00     0.029 A 
ATOM     48  N   UNL A   1      40.096  32.449  30.200  1.00  0.00    -0.354 N 
ATOM     49  C   UNL A   1      38.228  28.705  28.868  1.00  0.00     0.074 A 
ATOM     50  C   UNL A   1      37.701  29.157  27.605  1.00  0.00     0.031 C 
ATOM     51  C   UNL A   1      40.185  34.679  30.449  1.00  0.00     0.029 A 
ATOM     52  C   UNL A   1      40.996  33.499  30.269  1.00  0.00     0.049 A 
ATOM     53  H   UNL A   1      40.353  31.501  30.258  1.00  0.00     0.167 HD
ATOM     54  C   UNL A   1      38.939  27.592  29.195  1.00  0.00     0.034 A 
ATOM     55  C   UNL A   1      42.332  33.421  30.130  1.00  0.00     0.034 A 
ATOM     56  C   UNL A   1      39.201  27.508  30.607  1.00  0.00     0.049 A 
ATOM     57  C   UNL A   1      42.716  32.050  30.534  1.00  0.00     0.074 A 
ATOM     58  C   UNL A   1      38.418  27.454  31.743  1.00  0.00     0.029 A 
ATOM     59  N   UNL A   1      40.466  27.827  31.035  1.00  0.00    -0.354 N 
ATOM     60  N   UNL A   1      42.553  31.597  31.750  1.00  0.00    -0.248 NA
ATOM     61  C   UNL A   1      42.845  31.032  29.505  1.00  0.00     0.031 C 
ATOM     62  C   UNL A   1      39.142  28.194  32.724  1.00  0.00     0.029 A 
ATOM     63  C   UNL A   1      40.339  28.621  32.145  1.00  0.00     0.049 A 
ATOM     64  H   UNL A   1      41.311  27.538  30.620  1.00  0.00     0.167 HD
ATOM     65  C   UNL A   1      42.101  30.293  31.580  1.00  0.00     0.074 A 
ATOM     66  C   UNL A   1      42.438  29.963  30.196  1.00  0.00     0.031 C 
ATOM     67  C   UNL A   1      41.239  29.710  32.470  1.00  0.00     0.034 A 
BRANCH  54  68
ATOM     68  C   UNL A   1      39.697  26.755  28.198  1.00  0.00     0.023 A 
ATOM     69  C   UNL A   1      39.495  25.358  28.205  1.00  0.00     0.012 A 
ATOM     70  C   UNL A   1      40.787  27.243  27.445  1.00  0.00     0.148 A 
ATOM     71  C   UNL A   1      40.352  24.492  27.513  1.00  0.00     0.002 A 
ATOM     72  C   UNL A   1      41.578  26.389  26.688  1.00  0.00     0.091 A 
ATOM     73  F   UNL A   1      41.166  28.521  27.563  1.00  0.00    -0.205 F 
ATOM     74  C   UNL A   1      41.385  25.008  26.739  1.00  0.00     0.022 A 
BRANCH  72  75
ATOM     75  S   UNL A   1      42.863  27.048  25.623  1.00  0.00     0.127 S 
ATOM     76  O   UNL A   1      43.274  25.859  24.884  1.00  0.00    -0.237 OA
ATOM     77  O   UNL A   1      42.135  28.046  24.839  1.00  0.00    -0.237 OA
ATOM     78  O   UNL A   1      43.846  27.618  26.538  1.00  0.00    -0.744 OA
ENDBRANCH  72  75
ENDBRANCH  54  68
BRANCH  55  79
ATOM     79  C   UNL A   1      43.180  34.410  29.447  1.00  0.00     0.023 A 
ATOM     80  C   UNL A   1      43.601  35.557  30.131  1.00  0.00     0.012 A 
ATOM     81  C   UNL A   1      43.735  34.143  28.167  1.00  0.00     0.148 A 
ATOM     82  C   UNL A   1      44.555  36.410  29.567  1.00  0.00     0.002 A 
ATOM     83  C   UNL A   1      44.668  35.005  27.603  1.00  0.00     0.091 A 
ATOM     84  F   UNL A   1      43.410  33.004  27.536  1.00  0.00    -0.205 F 
ATOM     85  C   UNL A   1      45.089  36.137  28.307  1.00  0.00     0.022 A 
BRANCH  83  86
ATOM     86  S   UNL A   1      45.369  34.709  25.972  1.00  0.00     0.127 S 
ATOM     87  O   UNL A   1      46.232  35.878  25.790  1.00  0.00    -0.237 OA
ATOM     88  O   UNL A   1      46.080  33.449  26.170  1.00  0.00    -0.237 OA
ATOM     89  O   UNL A   1      44.232  34.666  25.059  1.00  0.00    -0.744 OA
ENDBRANCH  83  86
ENDBRANCH  55  79
BRANCH  67  90
ATOM     90  C   UNL A   1      40.969  30.415  33.782  1.00  0.00     0.023 A 
ATOM     91  C   UNL A   1      41.896  30.384  34.846  1.00  0.00     0.012 A 
ATOM     92  C   UNL A   1      39.868  31.284  33.878  1.00  0.00     0.148 A 
ATOM     93  C   UNL A   1      41.714  31.173  35.987  1.00  0.00     0.002 A 
ATOM     94  C   UNL A   1      39.711  32.099  34.998  1.00  0.00     0.091 A 
ATOM     95  F   UNL A   1      38.997  31.327  32.858  1.00  0.00    -0.205 F 
ATOM     96  C   UNL A   1      40.628  32.039  36.058  1.00  0.00     0.022 A 
BRANCH  94  97
ATOM     97  S   UNL A   1      38.401  33.325  35.072  1.00  0.00     0.127 S 
ATOM     98  O   UNL A   1      37.201  32.493  35.110  1.00  0.00    -0.237 OA
ATOM     99  O   UNL A   1      38.688  34.036  36.321  1.00  0.00    -0.237 OA
ATOM    100  O   UNL A   1      38.571  34.145  33.878  1.00  0.00    -0.744 OA
ENDBRANCH  94  97
ENDBRANCH  67  90
ENDBRANCH  41  42
ENDBRANCH  33  36
ENDBRANCH  31  32
ENDBRANCH  30  31
ENDBRANCH   1  30
TORSDOF 19
ENDMDL
MODEL 2
REMARK VINA RESULT:     -11.8      5.384     10.279
REMARK SMILES COc1cc(OC)cc(-c2cc3nc(C)c(CCC(=O)NCCCCNC(=O)c4ccc(-c5c6nc(c(-c7cccc(S(=O)(=O)[O-])c7F)c7ccc([nH]7)c(-c7cccc(S(=O)(=O)[O-])c7F)c7nc(c(-c8cccc(S(=O)(=O)[O-])c8F)c8ccc5[nH]8)C=C7)C=C6)cc4)c(C)n3n2)c1
REMARK SMILES IDX 23 1 22 2 21 3 19 4 20 5 18 7 17 8 16 9 10 10 11 11 95 12
REMARK SMILES IDX 12 13 94 14 13 15 92 16 14 17 93 18 15 19 9 20 3 21 4 22
REMARK SMILES IDX 96 23 5 24 8 25 2 26 1 27 6 28 7 29 24 30 25 31 26 32 27 33
REMARK SMILES IDX 28 35 29 36 30 37 91 38 31 39 90 40 32 41 33 42 34 43 84 44
REMARK SMILES IDX 35 45 89 46 83 47 85 48 36 49 88 50 82 51 81 52 37 54 69 55
REMARK SMILES IDX 49 56 68 57 50 58 53 59 67 60 86 61 51 62 52 63 66 65 87 66
REMARK SMILES IDX 54 67 38 68 39 69 47 70 40 71 42 72 48 73 41 74 43 75 44 76
REMARK SMILES IDX 45 77 46 78 70 79 71 80 79 81 72 82 74 83 80 84 73 85 75 86
REMARK SMILES IDX 76 87 77 88 78 89 55 90 56 91 64 92 57 93 59 94 65 95 58 96
REMARK SMILES IDX 60 97 61 98 62 99 63 100
REMARK H PARENT 21 6 26 34 85 53 53 64
REMARK Flexibility Score: inf
ROOT
ATOM      1  C   UNL A   1      44.328  26.151  25.221  1.00  0.00     0.023 C 
ENDROOT
BRANCH   1   2
ATOM      2  C   UNL A   1      44.410  27.371  26.116  1.00  0.00     0.116 C 
BRANCH   2   3
ATOM      3  N   UNL A   1      45.112  28.419  25.398  1.00  0.00    -0.356 N 
ATOM      4  C   UNL A   1      46.171  29.164  25.851  1.00  0.00     0.220 C 
ATOM      5  O   UNL A   1      46.476  30.204  25.265  1.00  0.00    -0.275 OA
ATOM      6  H   UNL A   1      44.794  28.615  24.487  1.00  0.00     0.163 HD
BRANCH   4   7
ATOM      7  C   UNL A   1      46.967  28.699  27.077  1.00  0.00     0.105 C 
BRANCH   7   8
ATOM      8  C   UNL A   1      48.288  27.941  26.754  1.00  0.00     0.049 C 
BRANCH   8   9
ATOM      9  C   UNL A   1      48.131  26.563  26.096  1.00  0.00    -0.005 A 
ATOM     10  C   UNL A   1      46.159  22.583  25.259  1.00  0.00     0.095 A 
ATOM     11  C   UNL A   1      46.623  23.268  24.109  1.00  0.00     0.080 A 
ATOM     12  N   UNL A   1      46.628  23.168  26.378  1.00  0.00    -0.166 NA
ATOM     13  C   UNL A   1      47.316  24.365  24.564  1.00  0.00     0.156 A 
ATOM     14  N   UNL A   1      47.291  24.304  25.957  1.00  0.00    -0.219 N 
ATOM     15  N   UNL A   1      47.888  25.400  23.890  1.00  0.00    -0.234 NA
ATOM     16  C   UNL A   1      47.764  25.408  26.727  1.00  0.00     0.046 A 
ATOM     17  C   UNL A   1      48.264  26.434  24.588  1.00  0.00     0.045 A 
ATOM     18  C   UNL A   1      47.660  25.284  28.224  1.00  0.00     0.067 C 
ATOM     19  C   UNL A   1      48.954  27.530  23.798  1.00  0.00     0.067 C 
BRANCH  10  20
ATOM     20  C   UNL A   1      45.271  21.405  25.231  1.00  0.00     0.009 A 
ATOM     21  C   UNL A   1      44.959  18.982  25.425  1.00  0.00     0.123 A 
ATOM     22  C   UNL A   1      43.602  19.149  25.620  1.00  0.00     0.092 A 
ATOM     23  C   UNL A   1      45.770  20.092  25.170  1.00  0.00     0.057 A 
ATOM     24  C   UNL A   1      43.072  20.436  25.572  1.00  0.00     0.123 A 
ATOM     25  C   UNL A   1      43.900  21.562  25.427  1.00  0.00     0.057 A 
BRANCH  21  26
ATOM     26  O   UNL A   1      45.490  17.722  25.383  1.00  0.00    -0.497 OA
ATOM     27  C   UNL A   1      46.862  17.716  25.802  1.00  0.00     0.278 C 
ENDBRANCH  21  26
BRANCH  24  28
ATOM     28  O   UNL A   1      41.712  20.518  25.708  1.00  0.00    -0.497 OA
ATOM     29  C   UNL A   1      41.134  19.267  26.067  1.00  0.00     0.278 C 
ENDBRANCH  24  28
ENDBRANCH  10  20
ENDBRANCH   8   9
ENDBRANCH   7   8
ENDBRANCH   4   7
ENDBRANCH   2   3
ENDBRANCH   1   2
BRANCH   1  30
ATOM     30  C   UNL A   1      43.629  24.911  25.752  1.00  0.00     0.023 C 
BRANCH  30  31
ATOM     31  C   UNL A   1      42.141  24.974  25.576  1.00  0.00     0.116 C 
BRANCH  31  32
ATOM     32  N   UNL A   1      41.476  23.789  26.132  1.00  0.00    -0.352 N 
ATOM     33  C   UNL A   1      40.989  23.615  27.405  1.00  0.00     0.251 C 
ATOM     34  H   UNL A   1      41.367  23.026  25.519  1.00  0.00     0.163 HD
ATOM     35  O   UNL A   1      40.625  22.556  27.867  1.00  0.00    -0.269 OA
BRANCH  33  36
ATOM     36  C   UNL A   1      40.959  24.855  28.159  1.00  0.00     0.039 A 
ATOM     37  C   UNL A   1      42.119  25.249  28.822  1.00  0.00     0.014 A 
ATOM     38  C   UNL A   1      39.998  25.753  27.716  1.00  0.00     0.014 A 
ATOM     39  C   UNL A   1      42.282  26.573  29.148  1.00  0.00     0.010 A 
ATOM     40  C   UNL A   1      40.299  27.083  27.830  1.00  0.00     0.010 A 
ATOM     41  C   UNL A   1      41.337  27.481  28.679  1.00  0.00    -0.014 A 
BRANCH  41  42
ATOM     42  C   UNL A   1      41.357  28.834  29.198  1.00  0.00     0.031 A 
ATOM     43  C   UNL A   1      42.379  29.777  28.672  1.00  0.00     0.074 A 
ATOM     44  C   UNL A   1      40.498  29.164  30.184  1.00  0.00     0.049 A 
ATOM     45  N   UNL A   1      43.346  30.299  29.356  1.00  0.00    -0.248 NA
ATOM     46  C   UNL A   1      42.432  30.078  27.234  1.00  0.00     0.031 C 
ATOM     47  C   UNL A   1      39.379  28.380  30.736  1.00  0.00     0.029 A 
ATOM     48  N   UNL A   1      40.337  30.366  30.787  1.00  0.00    -0.354 N 
ATOM     49  C   UNL A   1      43.993  31.175  28.494  1.00  0.00     0.074 A 
ATOM     50  C   UNL A   1      43.496  30.885  27.172  1.00  0.00     0.031 C 
ATOM     51  C   UNL A   1      38.466  29.217  31.256  1.00  0.00     0.029 A 
ATOM     52  C   UNL A   1      39.061  30.531  31.298  1.00  0.00     0.049 A 
ATOM     53  H   UNL A   1      41.047  31.045  30.853  1.00  0.00     0.167 HD
ATOM     54  C   UNL A   1      44.715  32.227  28.968  1.00  0.00     0.034 A 
ATOM     55  C   UNL A   1      38.495  31.688  31.684  1.00  0.00     0.034 A 
ATOM     56  C   UNL A   1      45.058  32.071  30.356  1.00  0.00     0.049 A 
ATOM     57  C   UNL A   1      39.602  32.586  32.076  1.00  0.00     0.074 A 
ATOM     58  C   UNL A   1      45.765  31.138  31.088  1.00  0.00     0.029 A 
ATOM     59  N   UNL A   1      44.341  32.802  31.270  1.00  0.00    -0.354 N 
ATOM     60  N   UNL A   1      40.395  32.336  33.085  1.00  0.00    -0.248 NA
ATOM     61  C   UNL A   1      40.129  33.515  31.090  1.00  0.00     0.031 C 
ATOM     62  C   UNL A   1      45.083  31.055  32.337  1.00  0.00     0.029 A 
ATOM     63  C   UNL A   1      44.026  31.969  32.311  1.00  0.00     0.049 A 
ATOM     64  H   UNL A   1      44.097  33.753  31.192  1.00  0.00     0.167 HD
ATOM     65  C   UNL A   1      41.661  32.692  32.633  1.00  0.00     0.074 A 
ATOM     66  C   UNL A   1      41.412  33.536  31.465  1.00  0.00     0.031 C 
ATOM     67  C   UNL A   1      42.786  32.039  33.060  1.00  0.00     0.034 A 
BRANCH  54  68
ATOM     68  C   UNL A   1      44.816  33.559  28.272  1.00  0.00     0.023 A 
ATOM     69  C   UNL A   1      43.629  34.290  28.047  1.00  0.00     0.012 A 
ATOM     70  C   UNL A   1      45.977  33.996  27.598  1.00  0.00     0.148 A 
ATOM     71  C   UNL A   1      43.599  35.385  27.175  1.00  0.00     0.002 A 
ATOM     72  C   UNL A   1      45.962  35.137  26.807  1.00  0.00     0.091 A 
ATOM     73  F   UNL A   1      47.077  33.235  27.594  1.00  0.00    -0.205 F 
ATOM     74  C   UNL A   1      44.771  35.822  26.567  1.00  0.00     0.022 A 
BRANCH  72  75
ATOM     75  S   UNL A   1      47.482  35.757  26.080  1.00  0.00     0.127 S 
ATOM     76  O   UNL A   1      47.740  34.764  25.043  1.00  0.00    -0.237 OA
ATOM     77  O   UNL A   1      47.076  37.075  25.589  1.00  0.00    -0.237 OA
ATOM     78  O   UNL A   1      48.429  35.805  27.187  1.00  0.00    -0.744 OA
ENDBRANCH  72  75
ENDBRANCH  54  68
BRANCH  55  79
ATOM     79  C   UNL A   1      37.086  32.061  31.478  1.00  0.00     0.023 A 
ATOM     80  C   UNL A   1      36.303  32.449  32.572  1.00  0.00     0.012 A 
ATOM     81  C   UNL A   1      36.549  32.213  30.172  1.00  0.00     0.148 A 
ATOM     82  C   UNL A   1      35.026  32.986  32.377  1.00  0.00     0.002 A 
ATOM     83  C   UNL A   1      35.271  32.728  29.985  1.00  0.00     0.091 A 
ATOM     84  F   UNL A   1      37.318  31.930  29.110  1.00  0.00    -0.205 F 
ATOM     85  C   UNL A   1      34.510  33.126  31.088  1.00  0.00     0.022 A 
BRANCH  83  86
ATOM     86  S   UNL A   1      34.552  32.908  28.346  1.00  0.00     0.127 S 
ATOM     87  O   UNL A   1      34.339  31.516  27.947  1.00  0.00    -0.237 OA
ATOM     88  O   UNL A   1      33.330  33.657  28.630  1.00  0.00    -0.237 OA
ATOM     89  O   UNL A   1      35.558  33.604  27.551  1.00  0.00    -0.744 OA
ENDBRANCH  83  86
ENDBRANCH  55  79
BRANCH  67  90
ATOM     90  C   UNL A   1      42.667  31.077  34.223  1.00  0.00     0.023 A 
ATOM     91  C   UNL A   1      42.625  31.529  35.559  1.00  0.00     0.012 A 
ATOM     92  C   UNL A   1      42.390  29.722  33.964  1.00  0.00     0.148 A 
ATOM     93  C   UNL A   1      42.347  30.650  36.611  1.00  0.00     0.002 A 
ATOM     94  C   UNL A   1      42.073  28.858  35.010  1.00  0.00     0.091 A 
ATOM     95  F   UNL A   1      42.411  29.298  32.691  1.00  0.00    -0.205 F 
ATOM     96  C   UNL A   1      42.060  29.317  36.336  1.00  0.00     0.022 A 
BRANCH  94  97
ATOM     97  S   UNL A   1      41.566  27.165  34.689  1.00  0.00     0.127 S 
ATOM     98  O   UNL A   1      40.431  27.349  33.788  1.00  0.00    -0.237 OA
ATOM     99  O   UNL A   1      42.754  26.582  34.059  1.00  0.00    -0.237 OA
ATOM    100  O   UNL A   1      41.258  26.599  35.997  1.00  0.00    -0.744 OA
ENDBRANCH  94  97
ENDBRANCH  67  90
ENDBRANCH  41  42
ENDBRANCH  33  36
ENDBRANCH  31  32
ENDBRANCH  30  31
ENDBRANCH   1  30
TORSDOF 19
ENDMDL
MODEL 3
REMARK VINA RESULT:     -11.5      4.080      7.626
REMARK SMILES COc1cc(OC)cc(-c2cc3nc(C)c(CCC(=O)NCCCCNC(=O)c4ccc(-c5c6nc(c(-c7cccc(S(=O)(=O)[O-])c7F)c7ccc([nH]7)c(-c7cccc(S(=O)(=O)[O-])c7F)c7nc(c(-c8cccc(S(=O)(=O)[O-])c8F)c8ccc5[nH]8)C=C7)C=C6)cc4)c(C)n3n2)c1
REMARK SMILES IDX 23 1 22 2 21 3 19 4 20 5 18 7 17 8 16 9 10 10 11 11 95 12
REMARK SMILES IDX 12 13 94 14 13 15 92 16 14 17 93 18 15 19 9 20 3 21 4 22
REMARK SMILES IDX 96 23 5 24 8 25 2 26 1 27 6 28 7 29 24 30 25 31 26 32 27 33
REMARK SMILES IDX 28 35 29 36 30 37 91 38 31 39 90 40 32 41 33 42 34 43 84 44
REMARK SMILES IDX 35 45 89 46 83 47 85 48 36 49 88 50 82 51 81 52 37 54 69 55
REMARK SMILES IDX 49 56 68 57 50 58 53 59 67 60 86 61 51 62 52 63 66 65 87 66
REMARK SMILES IDX 54 67 38 68 39 69 47 70 40 71 42 72 48 73 41 74 43 75 44 76
REMARK SMILES IDX 45 77 46 78 70 79 71 80 79 81 72 82 74 83 80 84 73 85 75 86
REMARK SMILES IDX 76 87 77 88 78 89 55 90 56 91 64 92 57 93 59 94 65 95 58 96
REMARK SMILES IDX 60 97 61 98 62 99 63 100
REMARK H PARENT 21 6 26 34 85 53 53 64
REMARK Flexibility Score: inf
ROOT
ATOM      1  C   UNL A   1      35.772  30.103  27.884  1.00  0.00     0.023 C 
ENDROOT
BRANCH   1   2
ATOM      2  C   UNL A   1      34.471  29.477  27.426  1.00  0.00     0.116 C 
BRANCH   2   3
ATOM      3  N   UNL A   1      33.438  30.497  27.452  1.00  0.00    -0.356 N 
ATOM      4  C   UNL A   1      32.206  30.440  26.853  1.00  0.00     0.220 C 
ATOM      5  O   UNL A   1      31.555  31.475  26.706  1.00  0.00    -0.275 OA
ATOM      6  H   UNL A   1      33.645  31.317  27.954  1.00  0.00     0.163 HD
BRANCH   4   7
ATOM      7  C   UNL A   1      31.647  29.093  26.374  1.00  0.00     0.105 C 
BRANCH   7   8
ATOM      8  C   UNL A   1      31.365  29.004  24.845  1.00  0.00     0.049 C 
BRANCH   8   9
ATOM      9  C   UNL A   1      31.410  27.597  24.233  1.00  0.00    -0.005 A 
ATOM     10  C   UNL A   1      32.581  23.240  23.967  1.00  0.00     0.095 A 
ATOM     11  C   UNL A   1      31.220  23.507  23.681  1.00  0.00     0.080 A 
ATOM     12  N   UNL A   1      33.285  24.387  24.023  1.00  0.00    -0.166 NA
ATOM     13  C   UNL A   1      31.087  24.875  23.662  1.00  0.00     0.156 A 
ATOM     14  N   UNL A   1      32.357  25.403  23.898  1.00  0.00    -0.219 N 
ATOM     15  N   UNL A   1      29.985  25.663  23.525  1.00  0.00    -0.234 NA
ATOM     16  C   UNL A   1      32.515  26.801  24.128  1.00  0.00     0.046 A 
ATOM     17  C   UNL A   1      30.117  26.930  23.797  1.00  0.00     0.045 A 
ATOM     18  C   UNL A   1      33.911  27.286  24.421  1.00  0.00     0.067 C 
ATOM     19  C   UNL A   1      28.877  27.772  23.565  1.00  0.00     0.067 C 
BRANCH  10  20
ATOM     20  C   UNL A   1      33.143  21.894  24.191  1.00  0.00     0.009 A 
ATOM     21  C   UNL A   1      35.018  20.465  24.859  1.00  0.00     0.123 A 
ATOM     22  C   UNL A   1      34.165  19.396  25.052  1.00  0.00     0.092 A 
ATOM     23  C   UNL A   1      34.520  21.677  24.372  1.00  0.00     0.057 A 
ATOM     24  C   UNL A   1      32.811  19.560  24.769  1.00  0.00     0.123 A 
ATOM     25  C   UNL A   1      32.291  20.808  24.387  1.00  0.00     0.057 A 
BRANCH  21  26
ATOM     26  O   UNL A   1      36.364  20.304  25.048  1.00  0.00    -0.497 OA
ATOM     27  C   UNL A   1      37.005  21.553  25.340  1.00  0.00     0.278 C 
ENDBRANCH  21  26
BRANCH  24  28
ATOM     28  O   UNL A   1      32.038  18.441  24.921  1.00  0.00    -0.497 OA
ATOM     29  C   UNL A   1      32.737  17.255  24.554  1.00  0.00     0.278 C 
ENDBRANCH  24  28
ENDBRANCH  10  20
ENDBRANCH   8   9
ENDBRANCH   7   8
ENDBRANCH   4   7
ENDBRANCH   2   3
ENDBRANCH   1   2
BRANCH   1  30
ATOM     30  C   UNL A   1      35.903  31.616  27.833  1.00  0.00     0.023 C 
BRANCH  30  31
ATOM     31  C   UNL A   1      36.916  32.135  28.810  1.00  0.00     0.116 C 
BRANCH  31  32
ATOM     32  N   UNL A   1      36.376  32.193  30.174  1.00  0.00    -0.352 N 
ATOM     33  C   UNL A   1      36.769  31.461  31.268  1.00  0.00     0.251 C 
ATOM     34  H   UNL A   1      35.643  32.834  30.322  1.00  0.00     0.163 HD
ATOM     35  O   UNL A   1      36.166  31.408  32.318  1.00  0.00    -0.269 OA
BRANCH  33  36
ATOM     36  C   UNL A   1      38.003  30.735  31.033  1.00  0.00     0.039 A 
ATOM     37  C   UNL A   1      39.207  31.377  31.318  1.00  0.00     0.014 A 
ATOM     38  C   UNL A   1      37.854  29.356  31.067  1.00  0.00     0.014 A 
ATOM     39  C   UNL A   1      40.328  30.618  31.545  1.00  0.00     0.010 A 
ATOM     40  C   UNL A   1      38.917  28.633  31.537  1.00  0.00     0.010 A 
ATOM     41  C   UNL A   1      40.177  29.235  31.611  1.00  0.00    -0.014 A 
BRANCH  41  42
ATOM     42  C   UNL A   1      41.367  28.407  31.615  1.00  0.00     0.031 A 
ATOM     43  C   UNL A   1      42.063  28.179  32.908  1.00  0.00     0.074 A 
ATOM     44  C   UNL A   1      41.833  27.933  30.441  1.00  0.00     0.049 A 
ATOM     45  N   UNL A   1      43.256  28.588  33.204  1.00  0.00    -0.248 NA
ATOM     46  C   UNL A   1      41.346  27.563  34.033  1.00  0.00     0.031 C 
ATOM     47  C   UNL A   1      41.209  27.992  29.108  1.00  0.00     0.029 A 
ATOM     48  N   UNL A   1      42.902  27.131  30.228  1.00  0.00    -0.354 N 
ATOM     49  C   UNL A   1      43.530  28.082  34.468  1.00  0.00     0.074 A 
ATOM     50  C   UNL A   1      42.277  27.600  34.992  1.00  0.00     0.031 C 
ATOM     51  C   UNL A   1      41.667  26.975  28.360  1.00  0.00     0.029 A 
ATOM     52  C   UNL A   1      42.775  26.384  29.069  1.00  0.00     0.049 A 
ATOM     53  H   UNL A   1      43.680  27.083  30.829  1.00  0.00     0.167 HD
ATOM     54  C   UNL A   1      44.810  27.889  34.889  1.00  0.00     0.034 A 
ATOM     55  C   UNL A   1      43.499  25.301  28.729  1.00  0.00     0.034 A 
ATOM     56  C   UNL A   1      45.760  28.624  34.098  1.00  0.00     0.049 A 
ATOM     57  C   UNL A   1      44.799  25.432  29.421  1.00  0.00     0.074 A 
ATOM     58  C   UNL A   1      45.961  29.959  33.805  1.00  0.00     0.029 A 
ATOM     59  N   UNL A   1      46.493  27.921  33.174  1.00  0.00    -0.354 N 
ATOM     60  N   UNL A   1      45.643  26.399  29.169  1.00  0.00    -0.248 NA
ATOM     61  C   UNL A   1      44.972  24.778  30.707  1.00  0.00     0.031 C 
ATOM     62  C   UNL A   1      46.416  29.974  32.454  1.00  0.00     0.029 A 
ATOM     63  C   UNL A   1      46.506  28.651  32.015  1.00  0.00     0.049 A 
ATOM     64  H   UNL A   1      46.929  27.050  33.319  1.00  0.00     0.167 HD
ATOM     65  C   UNL A   1      46.129  26.774  30.417  1.00  0.00     0.074 A 
ATOM     66  C   UNL A   1      45.792  25.655  31.296  1.00  0.00     0.031 C 
ATOM     67  C   UNL A   1      46.491  28.067  30.688  1.00  0.00     0.034 A 
BRANCH  54  68
ATOM     68  C   UNL A   1      45.236  26.764  35.796  1.00  0.00     0.023 A 
ATOM     69  C   UNL A   1      45.959  27.084  36.966  1.00  0.00     0.012 A 
ATOM     70  C   UNL A   1      45.194  25.404  35.419  1.00  0.00     0.148 A 
ATOM     71  C   UNL A   1      46.624  26.099  37.707  1.00  0.00     0.002 A 
ATOM     72  C   UNL A   1      45.778  24.421  36.207  1.00  0.00     0.091 A 
ATOM     73  F   UNL A   1      44.715  25.055  34.219  1.00  0.00    -0.205 F 
ATOM     74  C   UNL A   1      46.519  24.762  37.337  1.00  0.00     0.022 A 
BRANCH  72  75
ATOM     75  S   UNL A   1      45.584  22.687  35.786  1.00  0.00     0.127 S 
ATOM     76  O   UNL A   1      44.155  22.609  35.502  1.00  0.00    -0.237 OA
ATOM     77  O   UNL A   1      46.456  22.553  34.618  1.00  0.00    -0.237 OA
ATOM     78  O   UNL A   1      46.056  21.966  36.962  1.00  0.00    -0.744 OA
ENDBRANCH  72  75
ENDBRANCH  54  68
BRANCH  55  79
ATOM     79  C   UNL A   1      42.981  24.108  28.041  1.00  0.00     0.023 A 
ATOM     80  C   UNL A   1      41.645  23.728  28.217  1.00  0.00     0.012 A 
ATOM     81  C   UNL A   1      43.753  23.434  27.058  1.00  0.00     0.148 A 
ATOM     82  C   UNL A   1      41.084  22.716  27.432  1.00  0.00     0.002 A 
ATOM     83  C   UNL A   1      43.197  22.414  26.294  1.00  0.00     0.091 A 
ATOM     84  F   UNL A   1      45.007  23.844  26.814  1.00  0.00    -0.205 F 
ATOM     85  C   UNL A   1      41.856  22.059  26.472  1.00  0.00     0.022 A 
BRANCH  83  86
ATOM     86  S   UNL A   1      44.155  21.522  25.059  1.00  0.00     0.127 S 
ATOM     87  O   UNL A   1      44.027  22.387  23.884  1.00  0.00    -0.237 OA
ATOM     88  O   UNL A   1      45.485  21.504  25.662  1.00  0.00    -0.237 OA
ATOM     89  O   UNL A   1      43.500  20.227  24.915  1.00  0.00    -0.744 OA
ENDBRANCH  83  86
ENDBRANCH  55  79
BRANCH  67  90
ATOM     90  C   UNL A   1      46.589  29.047  29.539  1.00  0.00     0.023 A 
ATOM     91  C   UNL A   1      47.750  29.142  28.742  1.00  0.00     0.012 A 
ATOM     92  C   UNL A   1      45.434  29.735  29.126  1.00  0.00     0.148 A 
ATOM     93  C   UNL A   1      47.769  29.927  27.584  1.00  0.00     0.002 A 
ATOM     94  C   UNL A   1      45.444  30.483  27.950  1.00  0.00     0.091 A 
ATOM     95  F   UNL A   1      44.325  29.628  29.874  1.00  0.00    -0.205 F 
ATOM     96  C   UNL A   1      46.613  30.588  27.182  1.00  0.00     0.022 A 
BRANCH  94  97
ATOM     97  S   UNL A   1      43.942  31.242  27.325  1.00  0.00     0.127 S 
ATOM     98  O   UNL A   1      44.401  31.859  26.083  1.00  0.00    -0.237 OA
ATOM     99  O   UNL A   1      43.048  30.095  27.140  1.00  0.00    -0.237 OA
ATOM    100  O   UNL A   1      43.508  32.160  28.371  1.00  0.00    -0.744 OA
ENDBRANCH  94  97
ENDBRANCH  67  90
ENDBRANCH  41  42
ENDBRANCH  33  36
ENDBRANCH  31  32
ENDBRANCH  30  31
ENDBRANCH   1  30
TORSDOF 19
ENDMDL
