MODEL 1
REMARK VINA RESULT:     -14.0      0.000      0.000
REMARK SMILES O=C(NCCCCNC(=O)c1nccnc1C(=O)Nc1n[nH]c2ncccc12)c1ccc(-c2c3nc(c(-c4cccc(S(=O)(=O)[O-])c4F)c4ccc([nH]4)c(-c4cccc(S(=O)(=O)[O-])c4F)c4nc(c(-c5cccc(S(=O)(=O)[O-])c5F)c5ccc2[nH]5)C=C4)C=C3)cc1
REMARK SMILES IDX 5 1 4 2 3 3 1 4 2 5 29 7 30 8 91 9 31 10 90 11 32 12 33 13
REMARK SMILES IDX 34 14 84 15 35 16 89 17 83 18 85 19 36 20 88 21 82 22 81 23
REMARK SMILES IDX 37 25 69 26 49 27 68 28 50 29 53 30 67 31 86 32 51 33 52 34
REMARK SMILES IDX 66 36 87 37 54 38 38 39 39 40 47 41 40 42 42 43 48 44 41 45
REMARK SMILES IDX 43 46 44 47 45 48 46 49 70 50 71 51 79 52 72 53 74 54 80 55
REMARK SMILES IDX 73 56 75 57 76 58 77 59 78 60 55 61 56 62 64 63 57 64 59 65
REMARK SMILES IDX 65 66 58 67 60 68 61 69 62 70 63 71 6 72 7 73 8 74 9 75
REMARK SMILES IDX 10 77 11 78 12 79 16 80 13 81 15 82 14 83 17 84 18 85 19 86
REMARK SMILES IDX 20 88 21 89 28 90 22 91 23 92 27 93 24 95 26 96 25 97
REMARK H PARENT 3 6 85 24 53 35 8 76 19 87 22 94
REMARK Flexibility Score: inf
ROOT
ATOM      1  C   UNL A   1      35.829  21.785  24.546  1.00  0.00     0.023 C 
ENDROOT
BRANCH   1   2
ATOM      2  C   UNL A   1      36.992  21.885  25.525  1.00  0.00     0.116 C 
BRANCH   2   3
ATOM      3  N   UNL A   1      38.054  20.897  25.386  1.00  0.00    -0.352 N 
ATOM      4  O   UNL A   1      40.044  19.969  25.967  1.00  0.00    -0.269 OA
ATOM      5  C   UNL A   1      39.270  20.915  26.039  1.00  0.00     0.251 C 
ATOM      6  H   UNL A   1      37.889  20.147  24.770  1.00  0.00     0.163 HD
BRANCH   5   7
ATOM      7  C   UNL A   1      39.640  22.177  26.709  1.00  0.00     0.039 A 
ATOM      8  C   UNL A   1      39.195  23.395  26.195  1.00  0.00     0.014 A 
ATOM      9  C   UNL A   1      40.654  22.124  27.666  1.00  0.00     0.014 A 
ATOM     10  C   UNL A   1      39.916  24.544  26.480  1.00  0.00     0.010 A 
ATOM     11  C   UNL A   1      41.280  23.304  28.058  1.00  0.00     0.010 A 
ATOM     12  C   UNL A   1      40.946  24.517  27.436  1.00  0.00    -0.014 A 
BRANCH  12  13
ATOM     13  C   UNL A   1      41.588  25.786  27.855  1.00  0.00     0.031 A 
ATOM     14  C   UNL A   1      40.831  26.851  28.593  1.00  0.00     0.074 A 
ATOM     15  C   UNL A   1      42.869  25.983  27.490  1.00  0.00     0.049 A 
ATOM     16  N   UNL A   1      41.224  28.052  28.926  1.00  0.00    -0.248 NA
ATOM     17  C   UNL A   1      39.450  26.538  28.999  1.00  0.00     0.031 C 
ATOM     18  C   UNL A   1      43.683  25.024  26.736  1.00  0.00     0.029 A 
ATOM     19  N   UNL A   1      43.701  27.055  27.671  1.00  0.00    -0.354 N 
ATOM     20  C   UNL A   1      40.130  28.663  29.526  1.00  0.00     0.074 A 
ATOM     21  C   UNL A   1      39.053  27.695  29.513  1.00  0.00     0.031 C 
ATOM     22  C   UNL A   1      44.895  25.545  26.524  1.00  0.00     0.029 A 
ATOM     23  C   UNL A   1      44.910  26.907  27.035  1.00  0.00     0.049 A 
ATOM     24  H   UNL A   1      43.459  27.849  28.201  1.00  0.00     0.167 HD
ATOM     25  C   UNL A   1      40.037  29.918  30.030  1.00  0.00     0.034 A 
ATOM     26  C   UNL A   1      45.902  27.787  26.816  1.00  0.00     0.034 A 
ATOM     27  C   UNL A   1      41.123  30.865  30.026  1.00  0.00     0.049 A 
ATOM     28  C   UNL A   1      45.768  29.171  27.364  1.00  0.00     0.074 A 
ATOM     29  C   UNL A   1      41.159  32.134  30.575  1.00  0.00     0.029 A 
ATOM     30  N   UNL A   1      42.350  30.661  29.411  1.00  0.00    -0.354 N 
ATOM     31  N   UNL A   1      44.767  29.696  28.026  1.00  0.00    -0.248 NA
ATOM     32  C   UNL A   1      46.905  30.076  27.163  1.00  0.00     0.031 C 
ATOM     33  C   UNL A   1      42.381  32.723  30.233  1.00  0.00     0.029 A 
ATOM     34  C   UNL A   1      43.138  31.794  29.537  1.00  0.00     0.049 A 
ATOM     35  H   UNL A   1      42.621  29.834  28.951  1.00  0.00     0.167 HD
ATOM     36  C   UNL A   1      45.164  30.985  28.351  1.00  0.00     0.074 A 
ATOM     37  C   UNL A   1      46.502  31.156  27.819  1.00  0.00     0.031 C 
ATOM     38  C   UNL A   1      44.480  31.939  29.028  1.00  0.00     0.034 A 
BRANCH  25  39
ATOM     39  C   UNL A   1      38.708  30.351  30.602  1.00  0.00     0.023 A 
ATOM     40  C   UNL A   1      38.415  30.143  31.966  1.00  0.00     0.012 A 
ATOM     41  C   UNL A   1      37.757  30.999  29.788  1.00  0.00     0.148 A 
ATOM     42  C   UNL A   1      37.178  30.516  32.493  1.00  0.00     0.002 A 
ATOM     43  C   UNL A   1      36.548  31.417  30.333  1.00  0.00     0.091 A 
ATOM     44  F   UNL A   1      38.043  31.182  28.491  1.00  0.00    -0.205 F 
ATOM     45  C   UNL A   1      36.249  31.160  31.680  1.00  0.00     0.022 A 
BRANCH  43  46
ATOM     46  S   UNL A   1      35.322  32.327  29.387  1.00  0.00     0.127 S 
ATOM     47  O   UNL A   1      34.895  31.322  28.415  1.00  0.00    -0.237 OA
ATOM     48  O   UNL A   1      34.325  32.650  30.409  1.00  0.00    -0.237 OA
ATOM     49  O   UNL A   1      36.017  33.479  28.830  1.00  0.00    -0.744 OA
ENDBRANCH  43  46
ENDBRANCH  25  39
BRANCH  26  50
ATOM     50  C   UNL A   1      47.082  27.360  26.020  1.00  0.00     0.023 A 
ATOM     51  C   UNL A   1      48.013  26.464  26.573  1.00  0.00     0.012 A 
ATOM     52  C   UNL A   1      47.228  27.774  24.680  1.00  0.00     0.148 A 
ATOM     53  C   UNL A   1      49.085  26.003  25.810  1.00  0.00     0.002 A 
ATOM     54  C   UNL A   1      48.261  27.264  23.909  1.00  0.00     0.091 A 
ATOM     55  F   UNL A   1      46.318  28.622  24.177  1.00  0.00    -0.205 F 
ATOM     56  C   UNL A   1      49.202  26.393  24.476  1.00  0.00     0.022 A 
BRANCH  54  57
ATOM     57  S   UNL A   1      48.405  27.594  22.149  1.00  0.00     0.127 S 
ATOM     58  O   UNL A   1      49.558  28.490  22.109  1.00  0.00    -0.237 OA
ATOM     59  O   UNL A   1      48.644  26.253  21.614  1.00  0.00    -0.237 OA
ATOM     60  O   UNL A   1      47.136  28.186  21.749  1.00  0.00    -0.744 OA
ENDBRANCH  54  57
ENDBRANCH  26  50
BRANCH  38  61
ATOM     61  C   UNL A   1      45.183  33.242  29.293  1.00  0.00     0.023 A 
ATOM     62  C   UNL A   1      45.980  33.404  30.442  1.00  0.00     0.012 A 
ATOM     63  C   UNL A   1      45.115  34.280  28.343  1.00  0.00     0.148 A 
ATOM     64  C   UNL A   1      46.682  34.591  30.652  1.00  0.00     0.002 A 
ATOM     65  C   UNL A   1      45.861  35.434  28.528  1.00  0.00     0.091 A 
ATOM     66  F   UNL A   1      44.332  34.110  27.268  1.00  0.00    -0.205 F 
ATOM     67  C   UNL A   1      46.636  35.598  29.689  1.00  0.00     0.022 A 
BRANCH  65  68
ATOM     68  S   UNL A   1      45.943  36.737  27.296  1.00  0.00     0.127 S 
ATOM     69  O   UNL A   1      46.851  37.691  27.933  1.00  0.00    -0.237 OA
ATOM     70  O   UNL A   1      46.506  36.033  26.144  1.00  0.00    -0.237 OA
ATOM     71  O   UNL A   1      44.578  37.212  27.115  1.00  0.00    -0.744 OA
ENDBRANCH  65  68
ENDBRANCH  38  61
ENDBRANCH  12  13
ENDBRANCH   5   7
ENDBRANCH   2   3
ENDBRANCH   1   2
BRANCH   1  72
ATOM     72  C   UNL A   1      35.358  23.114  23.569  1.00  0.00     0.023 C 
BRANCH  72  73
ATOM     73  C   UNL A   1      34.219  24.961  23.938  1.00  0.00     0.116 C 
BRANCH  73  74
ATOM     74  N   UNL A   1      33.544  26.039  22.945  1.00  0.00    -0.351 N 
ATOM     75  C   UNL A   1      32.640  27.047  23.223  1.00  0.00     0.272 C 
ATOM     76  H   UNL A   1      33.817  25.969  22.003  1.00  0.00     0.163 HD
ATOM     77  O   UNL A   1      32.085  27.691  22.342  1.00  0.00    -0.267 OA
BRANCH  75  78
ATOM     78  C   UNL A   1      32.405  27.345  24.644  1.00  0.00     0.159 A 
ATOM     79  N   UNL A   1      33.435  28.068  25.202  1.00  0.00    -0.247 NA
ATOM     80  C   UNL A   1      31.358  26.819  25.389  1.00  0.00     0.159 A 
ATOM     81  C   UNL A   1      33.378  28.249  26.532  1.00  0.00     0.132 A 
ATOM     82  N   UNL A   1      31.330  27.015  26.748  1.00  0.00    -0.247 NA
ATOM     83  C   UNL A   1      32.348  27.730  27.288  1.00  0.00     0.132 A 
BRANCH  80  84
ATOM     84  C   UNL A   1      30.161  26.087  24.859  1.00  0.00     0.277 C 
ATOM     85  O   UNL A   1      29.181  26.765  24.530  1.00  0.00    -0.267 OA
ATOM     86  N   UNL A   1      30.090  24.724  24.671  1.00  0.00    -0.303 N 
ATOM     87  H   UNL A   1      29.321  24.417  24.140  1.00  0.00     0.172 HD
BRANCH  86  88
ATOM     88  C   UNL A   1      30.923  23.731  25.111  1.00  0.00     0.164 A 
ATOM     89  N   UNL A   1      31.137  23.618  26.433  1.00  0.00    -0.155 NA
ATOM     90  C   UNL A   1      31.507  22.701  24.349  1.00  0.00     0.063 A 
ATOM     91  N   UNL A   1      31.536  22.341  26.718  1.00  0.00    -0.259 N 
ATOM     92  C   UNL A   1      31.813  21.570  25.625  1.00  0.00     0.157 A 
ATOM     93  C   UNL A   1      31.793  22.173  22.661  1.00  0.00     0.017 A 
ATOM     94  H   UNL A   1      31.616  22.004  27.640  1.00  0.00     0.192 HD
ATOM     95  N   UNL A   1      32.234  19.906  25.360  1.00  0.00    -0.237 NA
ATOM     96  C   UNL A   1      32.271  20.496  22.298  1.00  0.00     0.021 A 
ATOM     97  C   UNL A   1      32.513  19.418  23.662  1.00  0.00     0.113 A 
ENDBRANCH  86  88
ENDBRANCH  80  84
ENDBRANCH  75  78
ENDBRANCH  73  74
ENDBRANCH  72  73
ENDBRANCH   1  72
TORSDOF 16
ENDMDL
MODEL 2
REMARK VINA RESULT:     -14.0      1.812      3.145
REMARK SMILES O=C(NCCCCNC(=O)c1nccnc1C(=O)Nc1n[nH]c2ncccc12)c1ccc(-c2c3nc(c(-c4cccc(S(=O)(=O)[O-])c4F)c4ccc([nH]4)c(-c4cccc(S(=O)(=O)[O-])c4F)c4nc(c(-c5cccc(S(=O)(=O)[O-])c5F)c5ccc2[nH]5)C=C4)C=C3)cc1
REMARK SMILES IDX 5 1 4 2 3 3 1 4 2 5 29 7 30 8 91 9 31 10 90 11 32 12 33 13
REMARK SMILES IDX 34 14 84 15 35 16 89 17 83 18 85 19 36 20 88 21 82 22 81 23
REMARK SMILES IDX 37 25 69 26 49 27 68 28 50 29 53 30 67 31 86 32 51 33 52 34
REMARK SMILES IDX 66 36 87 37 54 38 38 39 39 40 47 41 40 42 42 43 48 44 41 45
REMARK SMILES IDX 43 46 44 47 45 48 46 49 70 50 71 51 79 52 72 53 74 54 80 55
REMARK SMILES IDX 73 56 75 57 76 58 77 59 78 60 55 61 56 62 64 63 57 64 59 65
REMARK SMILES IDX 65 66 58 67 60 68 61 69 62 70 63 71 6 72 7 73 8 74 9 75
REMARK SMILES IDX 10 77 11 78 12 79 16 80 13 81 15 82 14 83 17 84 18 85 19 86
REMARK SMILES IDX 20 88 21 89 28 90 22 91 23 92 27 93 24 95 26 96 25 97
REMARK H PARENT 3 6 85 24 53 35 8 76 19 87 22 94
REMARK Flexibility Score: inf
ROOT
ATOM      1  C   UNL A   1      37.018  22.344  23.848  1.00  0.00     0.023 C 
ENDROOT
BRANCH   1   2
ATOM      2  C   UNL A   1      37.359  21.805  25.231  1.00  0.00     0.116 C 
BRANCH   2   3
ATOM      3  N   UNL A   1      38.375  20.763  25.298  1.00  0.00    -0.352 N 
ATOM      4  O   UNL A   1      40.208  19.778  26.208  1.00  0.00    -0.269 OA
ATOM      5  C   UNL A   1      39.483  20.762  26.120  1.00  0.00     0.251 C 
ATOM      6  H   UNL A   1      38.260  19.988  24.702  1.00  0.00     0.163 HD
BRANCH   5   7
ATOM      7  C   UNL A   1      39.820  22.040  26.775  1.00  0.00     0.039 A 
ATOM      8  C   UNL A   1      39.338  23.240  26.251  1.00  0.00     0.014 A 
ATOM      9  C   UNL A   1      40.840  22.026  27.728  1.00  0.00     0.014 A 
ATOM     10  C   UNL A   1      40.027  24.411  26.520  1.00  0.00     0.010 A 
ATOM     11  C   UNL A   1      41.433  23.228  28.105  1.00  0.00     0.010 A 
ATOM     12  C   UNL A   1      41.062  24.425  27.471  1.00  0.00    -0.014 A 
BRANCH  12  13
ATOM     13  C   UNL A   1      41.669  25.715  27.873  1.00  0.00     0.031 A 
ATOM     14  C   UNL A   1      40.891  26.758  28.620  1.00  0.00     0.074 A 
ATOM     15  C   UNL A   1      42.937  25.952  27.486  1.00  0.00     0.049 A 
ATOM     16  N   UNL A   1      41.250  27.974  28.941  1.00  0.00    -0.248 NA
ATOM     17  C   UNL A   1      39.528  26.403  29.051  1.00  0.00     0.031 C 
ATOM     18  C   UNL A   1      43.769  25.017  26.722  1.00  0.00     0.029 A 
ATOM     19  N   UNL A   1      43.737  27.052  27.648  1.00  0.00    -0.354 N 
ATOM     20  C   UNL A   1      40.147  28.551  29.557  1.00  0.00     0.074 A 
ATOM     21  C   UNL A   1      39.103  27.548  29.568  1.00  0.00     0.031 C 
ATOM     22  C   UNL A   1      44.960  25.576  26.487  1.00  0.00     0.029 A 
ATOM     23  C   UNL A   1      44.938  26.939  26.992  1.00  0.00     0.049 A 
ATOM     24  H   UNL A   1      43.478  27.839  28.179  1.00  0.00     0.167 HD
ATOM     25  C   UNL A   1      40.022  29.805  30.058  1.00  0.00     0.034 A 
ATOM     26  C   UNL A   1      45.897  27.851  26.752  1.00  0.00     0.034 A 
ATOM     27  C   UNL A   1      41.076  30.787  30.031  1.00  0.00     0.049 A 
ATOM     28  C   UNL A   1      45.728  29.232  27.297  1.00  0.00     0.074 A 
ATOM     29  C   UNL A   1      41.080  32.058  30.574  1.00  0.00     0.029 A 
ATOM     30  N   UNL A   1      42.299  30.620  29.396  1.00  0.00    -0.354 N 
ATOM     31  N   UNL A   1      44.722  29.728  27.974  1.00  0.00    -0.248 NA
ATOM     32  C   UNL A   1      46.831  30.172  27.072  1.00  0.00     0.031 C 
ATOM     33  C   UNL A   1      42.276  32.685  30.209  1.00  0.00     0.029 A 
ATOM     34  C   UNL A   1      43.051  31.778  29.504  1.00  0.00     0.049 A 
ATOM     35  H   UNL A   1      42.588  29.800  28.935  1.00  0.00     0.167 HD
ATOM     36  C   UNL A   1      45.082  31.031  28.286  1.00  0.00     0.074 A 
ATOM     37  C   UNL A   1      46.404  31.242  27.731  1.00  0.00     0.031 C 
ATOM     38  C   UNL A   1      44.379  31.965  28.971  1.00  0.00     0.034 A 
BRANCH  25  39
ATOM     39  C   UNL A   1      38.690  30.197  30.651  1.00  0.00     0.023 A 
ATOM     40  C   UNL A   1      38.375  29.864  31.985  1.00  0.00     0.012 A 
ATOM     41  C   UNL A   1      37.757  30.931  29.890  1.00  0.00     0.148 A 
ATOM     42  C   UNL A   1      37.135  30.200  32.529  1.00  0.00     0.002 A 
ATOM     43  C   UNL A   1      36.545  31.309  30.455  1.00  0.00     0.091 A 
ATOM     44  F   UNL A   1      38.063  31.233  28.620  1.00  0.00    -0.205 F 
ATOM     45  C   UNL A   1      36.224  30.929  31.768  1.00  0.00     0.022 A 
BRANCH  43  46
ATOM     46  S   UNL A   1      35.342  32.319  29.584  1.00  0.00     0.127 S 
ATOM     47  O   UNL A   1      34.855  31.386  28.569  1.00  0.00    -0.237 OA
ATOM     48  O   UNL A   1      34.378  32.627  30.641  1.00  0.00    -0.237 OA
ATOM     49  O   UNL A   1      36.075  33.470  29.075  1.00  0.00    -0.744 OA
ENDBRANCH  43  46
ENDBRANCH  25  39
BRANCH  26  50
ATOM     50  C   UNL A   1      47.078  27.459  25.938  1.00  0.00     0.023 A 
ATOM     51  C   UNL A   1      47.104  27.740  24.562  1.00  0.00     0.012 A 
ATOM     52  C   UNL A   1      48.212  26.891  26.554  1.00  0.00     0.148 A 
ATOM     53  C   UNL A   1      48.236  27.440  23.804  1.00  0.00     0.002 A 
ATOM     54  C   UNL A   1      49.356  26.652  25.806  1.00  0.00     0.091 A 
ATOM     55  F   UNL A   1      48.161  26.643  27.871  1.00  0.00    -0.205 F 
ATOM     56  C   UNL A   1      49.365  26.909  24.427  1.00  0.00     0.022 A 
BRANCH  54  57
ATOM     57  S   UNL A   1      50.898  26.109  26.550  1.00  0.00     0.127 S 
ATOM     58  O   UNL A   1      50.509  24.827  27.133  1.00  0.00    -0.237 OA
ATOM     59  O   UNL A   1      51.774  26.015  25.381  1.00  0.00    -0.237 OA
ATOM     60  O   UNL A   1      51.269  27.145  27.502  1.00  0.00    -0.744 OA
ENDBRANCH  54  57
ENDBRANCH  26  50
BRANCH  38  61
ATOM     61  C   UNL A   1      45.044  33.291  29.219  1.00  0.00     0.023 A 
ATOM     62  C   UNL A   1      45.843  33.489  30.360  1.00  0.00     0.012 A 
ATOM     63  C   UNL A   1      44.938  34.317  28.259  1.00  0.00     0.148 A 
ATOM     64  C   UNL A   1      46.510  34.699  30.553  1.00  0.00     0.002 A 
ATOM     65  C   UNL A   1      45.650  35.495  28.428  1.00  0.00     0.091 A 
ATOM     66  F   UNL A   1      44.153  34.112  27.190  1.00  0.00    -0.205 F 
ATOM     67  C   UNL A   1      46.426  35.694  29.581  1.00  0.00     0.022 A 
BRANCH  65  68
ATOM     68  S   UNL A   1      45.684  36.787  27.182  1.00  0.00     0.127 S 
ATOM     69  O   UNL A   1      46.550  37.784  27.812  1.00  0.00    -0.237 OA
ATOM     70  O   UNL A   1      46.280  36.095  26.039  1.00  0.00    -0.237 OA
ATOM     71  O   UNL A   1      44.302  37.204  26.990  1.00  0.00    -0.744 OA
ENDBRANCH  65  68
ENDBRANCH  38  61
ENDBRANCH  12  13
ENDBRANCH   5   7
ENDBRANCH   2   3
ENDBRANCH   1   2
BRANCH   1  72
ATOM     72  C   UNL A   1      35.548  23.174  23.542  1.00  0.00     0.023 C 
BRANCH  72  73
ATOM     73  C   UNL A   1      33.525  22.541  22.949  1.00  0.00     0.116 C 
BRANCH  73  74
ATOM     74  N   UNL A   1      32.631  21.255  23.335  1.00  0.00    -0.351 N 
ATOM     75  C   UNL A   1      32.377  20.699  24.575  1.00  0.00     0.272 C 
ATOM     76  H   UNL A   1      32.202  20.800  22.576  1.00  0.00     0.163 HD
ATOM     77  O   UNL A   1      31.810  19.623  24.707  1.00  0.00    -0.267 OA
BRANCH  75  78
ATOM     78  C   UNL A   1      32.786  21.490  25.746  1.00  0.00     0.159 A 
ATOM     79  N   UNL A   1      34.078  21.216  26.135  1.00  0.00    -0.247 NA
ATOM     80  C   UNL A   1      31.926  22.292  26.485  1.00  0.00     0.159 A 
ATOM     81  C   UNL A   1      34.480  21.777  27.287  1.00  0.00     0.132 A 
ATOM     82  N   UNL A   1      32.363  22.846  27.663  1.00  0.00    -0.247 NA
ATOM     83  C   UNL A   1      33.638  22.571  28.036  1.00  0.00     0.132 A 
BRANCH  80  84
ATOM     84  C   UNL A   1      30.535  22.703  26.103  1.00  0.00     0.277 C 
ATOM     85  O   UNL A   1      29.599  22.100  26.638  1.00  0.00    -0.267 OA
ATOM     86  N   UNL A   1      30.227  23.730  25.238  1.00  0.00    -0.303 N 
ATOM     87  H   UNL A   1      29.282  24.004  25.238  1.00  0.00     0.172 HD
BRANCH  86  88
ATOM     88  C   UNL A   1      31.031  24.426  24.377  1.00  0.00     0.164 A 
ATOM     89  N   UNL A   1      30.857  24.245  23.056  1.00  0.00    -0.155 NA
ATOM     90  C   UNL A   1      31.963  25.433  24.696  1.00  0.00     0.063 A 
ATOM     91  N   UNL A   1      31.340  25.333  22.383  1.00  0.00    -0.259 N 
ATOM     92  C   UNL A   1      32.042  26.217  23.153  1.00  0.00     0.157 A 
ATOM     93  C   UNL A   1      32.813  26.191  26.078  1.00  0.00     0.017 A 
ATOM     94  H   UNL A   1      31.193  25.469  21.419  1.00  0.00     0.192 HD
ATOM     95  N   UNL A   1      32.768  27.774  22.898  1.00  0.00    -0.237 NA
ATOM     96  C   UNL A   1      33.624  27.766  25.897  1.00  0.00     0.021 A 
ATOM     97  C   UNL A   1      33.609  28.498  24.302  1.00  0.00     0.113 A 
ENDBRANCH  86  88
ENDBRANCH  80  84
ENDBRANCH  75  78
ENDBRANCH  73  74
ENDBRANCH  72  73
ENDBRANCH   1  72
TORSDOF 16
ENDMDL
MODEL 3
REMARK VINA RESULT:     -14.0      5.149      9.842
REMARK SMILES O=C(NCCCCNC(=O)c1nccnc1C(=O)Nc1n[nH]c2ncccc12)c1ccc(-c2c3nc(c(-c4cccc(S(=O)(=O)[O-])c4F)c4ccc([nH]4)c(-c4cccc(S(=O)(=O)[O-])c4F)c4nc(c(-c5cccc(S(=O)(=O)[O-])c5F)c5ccc2[nH]5)C=C4)C=C3)cc1
REMARK SMILES IDX 5 1 4 2 3 3 1 4 2 5 29 7 30 8 91 9 31 10 90 11 32 12 33 13
REMARK SMILES IDX 34 14 84 15 35 16 89 17 83 18 85 19 36 20 88 21 82 22 81 23
REMARK SMILES IDX 37 25 69 26 49 27 68 28 50 29 53 30 67 31 86 32 51 33 52 34
REMARK SMILES IDX 66 36 87 37 54 38 38 39 39 40 47 41 40 42 42 43 48 44 41 45
REMARK SMILES IDX 43 46 44 47 45 48 46 49 70 50 71 51 79 52 72 53 74 54 80 55
REMARK SMILES IDX 73 56 75 57 76 58 77 59 78 60 55 61 56 62 64 63 57 64 59 65
REMARK SMILES IDX 65 66 58 67 60 68 61 69 62 70 63 71 6 72 7 73 8 74 9 75
REMARK SMILES IDX 10 77 11 78 12 79 16 80 13 81 15 82 14 83 17 84 18 85 19 86
REMARK SMILES IDX 20 88 21 89 28 90 22 91 23 92 27 93 24 95 26 96 25 97
REMARK H PARENT 3 6 85 24 53 35 8 76 19 87 22 94
REMARK Flexibility Score: inf
ROOT
ATOM      1  C   UNL A   1      32.113  28.462  26.008  1.00  0.00     0.023 C 
ENDROOT
BRANCH   1   2
ATOM      2  C   UNL A   1      32.884  29.758  25.800  1.00  0.00     0.116 C 
BRANCH   2   3
ATOM      3  N   UNL A   1      32.395  30.935  26.505  1.00  0.00    -0.352 N 
ATOM      4  O   UNL A   1      32.683  32.851  27.690  1.00  0.00    -0.269 OA
ATOM      5  C   UNL A   1      33.158  31.812  27.248  1.00  0.00     0.251 C 
ATOM      6  H   UNL A   1      31.429  31.122  26.446  1.00  0.00     0.163 HD
BRANCH   5   7
ATOM      7  C   UNL A   1      34.523  31.371  27.592  1.00  0.00     0.039 A 
ATOM      8  C   UNL A   1      34.743  30.066  28.032  1.00  0.00     0.014 A 
ATOM      9  C   UNL A   1      35.501  32.356  27.735  1.00  0.00     0.014 A 
ATOM     10  C   UNL A   1      35.858  29.803  28.812  1.00  0.00     0.010 A 
ATOM     11  C   UNL A   1      36.687  32.044  28.395  1.00  0.00     0.010 A 
ATOM     12  C   UNL A   1      36.856  30.778  28.978  1.00  0.00    -0.014 A 
BRANCH  12  13
ATOM     13  C   UNL A   1      38.119  30.423  29.667  1.00  0.00     0.031 A 
ATOM     14  C   UNL A   1      39.112  29.475  29.061  1.00  0.00     0.074 A 
ATOM     15  C   UNL A   1      38.319  30.932  30.897  1.00  0.00     0.049 A 
ATOM     16  N   UNL A   1      40.203  28.985  29.590  1.00  0.00    -0.248 NA
ATOM     17  C   UNL A   1      38.845  29.001  27.693  1.00  0.00     0.031 C 
ATOM     18  C   UNL A   1      37.395  31.835  31.591  1.00  0.00     0.029 A 
ATOM     19  N   UNL A   1      39.338  30.747  31.793  1.00  0.00    -0.354 N 
ATOM     20  C   UNL A   1      40.723  28.103  28.652  1.00  0.00     0.074 A 
ATOM     21  C   UNL A   1      39.827  28.128  27.514  1.00  0.00     0.031 C 
ATOM     22  C   UNL A   1      37.887  32.129  32.798  1.00  0.00     0.029 A 
ATOM     23  C   UNL A   1      39.104  31.359  33.001  1.00  0.00     0.049 A 
ATOM     24  H   UNL A   1      40.150  30.229  31.593  1.00  0.00     0.167 HD
ATOM     25  C   UNL A   1      41.841  27.341  28.740  1.00  0.00     0.034 A 
ATOM     26  C   UNL A   1      39.753  31.262  34.175  1.00  0.00     0.034 A 
ATOM     27  C   UNL A   1      42.715  27.332  29.885  1.00  0.00     0.049 A 
ATOM     28  C   UNL A   1      40.971  30.399  34.254  1.00  0.00     0.074 A 
ATOM     29  C   UNL A   1      43.909  26.655  30.050  1.00  0.00     0.029 A 
ATOM     30  N   UNL A   1      42.469  28.001  31.076  1.00  0.00    -0.354 N 
ATOM     31  N   UNL A   1      41.510  29.657  33.319  1.00  0.00    -0.248 NA
ATOM     32  C   UNL A   1      41.686  30.380  35.534  1.00  0.00     0.031 C 
ATOM     33  C   UNL A   1      44.350  26.859  31.362  1.00  0.00     0.029 A 
ATOM     34  C   UNL A   1      43.471  27.726  31.991  1.00  0.00     0.049 A 
ATOM     35  H   UNL A   1      41.695  28.585  31.246  1.00  0.00     0.167 HD
ATOM     36  C   UNL A   1      42.649  29.104  33.887  1.00  0.00     0.074 A 
ATOM     37  C   UNL A   1      42.724  29.607  35.244  1.00  0.00     0.031 C 
ATOM     38  C   UNL A   1      43.549  28.257  33.330  1.00  0.00     0.034 A 
BRANCH  25  39
ATOM     39  C   UNL A   1      42.167  26.432  27.580  1.00  0.00     0.023 A 
ATOM     40  C   UNL A   1      42.923  26.909  26.488  1.00  0.00     0.012 A 
ATOM     41  C   UNL A   1      41.751  25.085  27.588  1.00  0.00     0.148 A 
ATOM     42  C   UNL A   1      43.204  26.081  25.401  1.00  0.00     0.002 A 
ATOM     43  C   UNL A   1      42.080  24.251  26.526  1.00  0.00     0.091 A 
ATOM     44  F   UNL A   1      41.025  24.646  28.625  1.00  0.00    -0.205 F 
ATOM     45  C   UNL A   1      42.791  24.751  25.424  1.00  0.00     0.022 A 
BRANCH  43  46
ATOM     46  S   UNL A   1      41.665  22.503  26.501  1.00  0.00     0.127 S 
ATOM     47  O   UNL A   1      42.282  22.074  25.247  1.00  0.00    -0.237 OA
ATOM     48  O   UNL A   1      42.332  22.013  27.708  1.00  0.00    -0.237 OA
ATOM     49  O   UNL A   1      40.211  22.434  26.538  1.00  0.00    -0.744 OA
ENDBRANCH  43  46
ENDBRANCH  25  39
BRANCH  26  50
ATOM     50  C   UNL A   1      39.223  31.996  35.354  1.00  0.00     0.023 A 
ATOM     51  C   UNL A   1      38.379  31.341  36.266  1.00  0.00     0.012 A 
ATOM     52  C   UNL A   1      39.637  33.318  35.616  1.00  0.00     0.148 A 
ATOM     53  C   UNL A   1      37.935  32.001  37.412  1.00  0.00     0.002 A 
ATOM     54  C   UNL A   1      39.242  33.946  36.788  1.00  0.00     0.091 A 
ATOM     55  F   UNL A   1      40.452  33.915  34.732  1.00  0.00    -0.205 F 
ATOM     56  C   UNL A   1      38.376  33.296  37.679  1.00  0.00     0.022 A 
BRANCH  54  57
ATOM     57  S   UNL A   1      39.875  35.552  37.282  1.00  0.00     0.127 S 
ATOM     58  O   UNL A   1      39.128  35.798  38.513  1.00  0.00    -0.237 OA
ATOM     59  O   UNL A   1      41.297  35.266  37.469  1.00  0.00    -0.237 OA
ATOM     60  O   UNL A   1      39.580  36.454  36.179  1.00  0.00    -0.744 OA
ENDBRANCH  54  57
ENDBRANCH  26  50
BRANCH  38  61
ATOM     61  C   UNL A   1      44.737  27.860  34.165  1.00  0.00     0.023 A 
ATOM     62  C   UNL A   1      45.890  28.666  34.197  1.00  0.00     0.012 A 
ATOM     63  C   UNL A   1      44.663  26.718  34.986  1.00  0.00     0.148 A 
ATOM     64  C   UNL A   1      46.963  28.328  35.022  1.00  0.00     0.002 A 
ATOM     65  C   UNL A   1      45.710  26.420  35.847  1.00  0.00     0.091 A 
ATOM     66  F   UNL A   1      43.563  25.954  34.921  1.00  0.00    -0.205 F 
ATOM     67  C   UNL A   1      46.866  27.217  35.856  1.00  0.00     0.022 A 
BRANCH  65  68
ATOM     68  S   UNL A   1      45.631  25.071  37.028  1.00  0.00     0.127 S 
ATOM     69  O   UNL A   1      46.926  25.188  37.699  1.00  0.00    -0.237 OA
ATOM     70  O   UNL A   1      44.481  25.449  37.848  1.00  0.00    -0.237 OA
ATOM     71  O   UNL A   1      45.450  23.856  36.246  1.00  0.00    -0.744 OA
ENDBRANCH  65  68
ENDBRANCH  38  61
ENDBRANCH  12  13
ENDBRANCH   5   7
ENDBRANCH   2   3
ENDBRANCH   1   2
BRANCH   1  72
ATOM     72  C   UNL A   1      32.912  26.949  26.135  1.00  0.00     0.023 C 
BRANCH  72  73
ATOM     73  C   UNL A   1      34.094  25.717  24.746  1.00  0.00     0.116 C 
BRANCH  73  74
ATOM     74  N   UNL A   1      33.679  24.783  23.499  1.00  0.00    -0.351 N 
ATOM     75  C   UNL A   1      34.200  23.567  23.097  1.00  0.00     0.272 C 
ATOM     76  H   UNL A   1      32.946  25.129  22.941  1.00  0.00     0.163 HD
ATOM     77  O   UNL A   1      33.897  23.043  22.034  1.00  0.00    -0.267 OA
BRANCH  75  78
ATOM     78  C   UNL A   1      35.113  22.900  24.039  1.00  0.00     0.159 A 
ATOM     79  N   UNL A   1      36.396  22.813  23.548  1.00  0.00    -0.247 NA
ATOM     80  C   UNL A   1      34.706  22.276  25.210  1.00  0.00     0.159 A 
ATOM     81  C   UNL A   1      37.258  22.082  24.273  1.00  0.00     0.132 A 
ATOM     82  N   UNL A   1      35.609  21.529  25.927  1.00  0.00    -0.247 NA
ATOM     83  C   UNL A   1      36.871  21.451  25.436  1.00  0.00     0.132 A 
BRANCH  80  84
ATOM     84  C   UNL A   1      33.356  22.376  25.857  1.00  0.00     0.277 C 
ATOM     85  O   UNL A   1      33.253  23.115  26.842  1.00  0.00    -0.267 OA
ATOM     86  N   UNL A   1      32.219  21.742  25.409  1.00  0.00    -0.303 N 
ATOM     87  H   UNL A   1      31.380  22.056  25.816  1.00  0.00     0.172 HD
BRANCH  86  88
ATOM     88  C   UNL A   1      32.075  20.742  24.486  1.00  0.00     0.164 A 
ATOM     89  N   UNL A   1      31.735  21.079  23.230  1.00  0.00    -0.155 NA
ATOM     90  C   UNL A   1      32.365  19.374  24.650  1.00  0.00     0.063 A 
ATOM     91  N   UNL A   1      32.127  20.086  22.374  1.00  0.00    -0.259 N 
ATOM     92  C   UNL A   1      32.564  18.944  22.984  1.00  0.00     0.157 A 
ATOM     93  C   UNL A   1      32.758  18.147  25.895  1.00  0.00     0.017 A 
ATOM     94  H   UNL A   1      32.097  20.188  21.395  1.00  0.00     0.192 HD
ATOM     95  N   UNL A   1      33.267  17.449  22.450  1.00  0.00    -0.237 NA
ATOM     96  C   UNL A   1      33.442  16.568  25.436  1.00  0.00     0.021 A 
ATOM     97  C   UNL A   1      33.645  16.249  23.722  1.00  0.00     0.113 A 
ENDBRANCH  86  88
ENDBRANCH  80  84
ENDBRANCH  75  78
ENDBRANCH  73  74
ENDBRANCH  72  73
ENDBRANCH   1  72
TORSDOF 16
ENDMDL
