MODEL 1
REMARK VINA RESULT:     -12.2      0.000      0.000
REMARK SMILES CCn1cc(C)c(C(=O)NCCCCNC(=O)c2ccc(-c3c4nc(c(-c5cccc(S(=O)(=O)[O-])c5F)c5ccc([nH]5)c(-c5cccc(S(=O)(=O)[O-])c5F)c5nc(c(-c6cccc(S(=O)(=O)[O-])c6F)c6ccc3[nH]6)C=C5)C=C4)cc2)c1CC(=O)NCc1cccc(C)c1
REMARK SMILES IDX 12 1 11 2 10 3 8 4 9 5 7 7 3 8 4 9 81 10 5 11 6 12 2 13 1 14
REMARK SMILES IDX 82 15 83 16 84 17 85 18 86 20 87 21 88 22 93 23 89 24 91 25
REMARK SMILES IDX 90 26 92 27 13 28 14 29 15 30 16 31 17 33 18 34 19 35 80 36
REMARK SMILES IDX 20 37 79 38 21 39 22 40 23 41 73 42 24 43 78 44 72 45 74 46
REMARK SMILES IDX 25 47 77 48 71 49 70 50 26 52 58 53 38 54 57 55 39 56 42 57
REMARK SMILES IDX 56 58 75 59 40 60 41 61 55 63 76 64 43 65 27 66 28 67 36 68
REMARK SMILES IDX 29 69 31 70 37 71 30 72 32 73 33 74 34 75 35 76 59 77 60 78
REMARK SMILES IDX 68 79 61 80 63 81 69 82 62 83 64 84 65 85 66 86 67 87 44 88
REMARK SMILES IDX 45 89 53 90 46 91 48 92 54 93 47 94 49 95 50 96 51 97 52 98
REMARK H PARENT 10 6 85 19 15 32 74 51 42 62
REMARK Flexibility Score: inf
ROOT
ATOM      1  C   UNL A   1      38.667  22.361  25.963  1.00  0.00     0.023 C 
ENDROOT
BRANCH   1   2
ATOM      2  C   UNL A   1      37.247  22.851  25.609  1.00  0.00     0.116 C 
BRANCH   2   3
ATOM      3  N   UNL A   1      36.235  22.279  26.475  1.00  0.00    -0.352 N 
ATOM      4  C   UNL A   1      34.880  22.050  26.423  1.00  0.00     0.253 C 
ATOM      5  O   UNL A   1      34.445  21.482  27.434  1.00  0.00    -0.269 OA
ATOM      6  H   UNL A   1      36.622  21.974  27.328  1.00  0.00     0.163 HD
BRANCH   4   7
ATOM      7  C   UNL A   1      33.953  22.374  25.302  1.00  0.00     0.064 A 
ATOM      8  N   UNL A   1      32.591  23.288  23.747  1.00  0.00    -0.350 N 
ATOM      9  C   UNL A   1      32.587  21.948  23.504  1.00  0.00     0.090 A 
ATOM     10  C   UNL A   1      33.255  23.541  24.938  1.00  0.00     0.040 A 
ATOM     11  C   UNL A   1      33.374  21.338  24.453  1.00  0.00    -0.020 A 
ATOM     12  C   UNL A   1      33.541  19.862  24.591  1.00  0.00     0.047 C 
BRANCH   8  13
ATOM     13  C   UNL A   1      31.893  24.228  22.878  1.00  0.00     0.118 C 
ATOM     14  C   UNL A   1      32.821  25.207  22.172  1.00  0.00     0.027 C 
ENDBRANCH   8  13
BRANCH  10  15
ATOM     15  C   UNL A   1      33.036  24.817  25.687  1.00  0.00     0.154 C 
BRANCH  15  16
ATOM     16  C   UNL A   1      31.808  24.690  26.586  1.00  0.00     0.226 C 
ATOM     17  O   UNL A   1      31.590  23.785  27.388  1.00  0.00    -0.275 OA
ATOM     18  N   UNL A   1      30.841  25.654  26.488  1.00  0.00    -0.352 N 
ATOM     19  H   UNL A   1      30.708  26.317  27.204  1.00  0.00     0.163 HD
BRANCH  18  20
ATOM     20  C   UNL A   1      30.026  25.668  25.298  1.00  0.00     0.151 C 
BRANCH  20  21
ATOM     21  C   UNL A   1      30.194  26.997  24.590  1.00  0.00    -0.029 A 
ATOM     22  C   UNL A   1      31.198  27.884  24.991  1.00  0.00     0.005 A 
ATOM     23  C   UNL A   1      29.244  27.438  23.650  1.00  0.00     0.009 A 
ATOM     24  C   UNL A   1      31.255  29.170  24.454  1.00  0.00     0.001 A 
ATOM     25  C   UNL A   1      29.280  28.733  23.121  1.00  0.00    -0.051 A 
ATOM     26  C   UNL A   1      30.301  29.594  23.527  1.00  0.00     0.003 A 
ATOM     27  C   UNL A   1      28.193  29.219  22.208  1.00  0.00     0.044 C 
ENDBRANCH  20  21
ENDBRANCH  18  20
ENDBRANCH  15  16
ENDBRANCH  10  15
ENDBRANCH   4   7
ENDBRANCH   2   3
ENDBRANCH   1   2
BRANCH   1  28
ATOM     28  C   UNL A   1      39.118  20.982  25.476  1.00  0.00     0.023 C 
BRANCH  28  29
ATOM     29  C   UNL A   1      39.708  20.109  26.561  1.00  0.00     0.116 C 
BRANCH  29  30
ATOM     30  N   UNL A   1      40.818  19.270  26.080  1.00  0.00    -0.352 N 
ATOM     31  C   UNL A   1      42.080  19.697  25.711  1.00  0.00     0.251 C 
ATOM     32  H   UNL A   1      40.644  18.304  26.015  1.00  0.00     0.163 HD
ATOM     33  O   UNL A   1      42.825  19.018  25.008  1.00  0.00    -0.269 OA
BRANCH  31  34
ATOM     34  C   UNL A   1      42.517  20.987  26.249  1.00  0.00     0.039 A 
ATOM     35  C   UNL A   1      42.706  22.116  25.445  1.00  0.00     0.014 A 
ATOM     36  C   UNL A   1      42.555  21.051  27.638  1.00  0.00     0.014 A 
ATOM     37  C   UNL A   1      42.866  23.348  26.072  1.00  0.00     0.010 A 
ATOM     38  C   UNL A   1      42.491  22.275  28.228  1.00  0.00     0.010 A 
ATOM     39  C   UNL A   1      42.743  23.411  27.465  1.00  0.00    -0.014 A 
BRANCH  39  40
ATOM     40  C   UNL A   1      42.767  24.666  28.196  1.00  0.00     0.031 A 
ATOM     41  C   UNL A   1      41.565  25.519  27.978  1.00  0.00     0.074 A 
ATOM     42  C   UNL A   1      43.640  24.826  29.216  1.00  0.00     0.049 A 
ATOM     43  N   UNL A   1      41.494  26.651  27.358  1.00  0.00    -0.248 NA
ATOM     44  C   UNL A   1      40.247  24.954  28.319  1.00  0.00     0.031 C 
ATOM     45  C   UNL A   1      44.593  23.840  29.754  1.00  0.00     0.029 A 
ATOM     46  N   UNL A   1      43.723  25.828  30.124  1.00  0.00    -0.354 N 
ATOM     47  C   UNL A   1      40.166  27.062  27.493  1.00  0.00     0.074 A 
ATOM     48  C   UNL A   1      39.427  25.873  27.804  1.00  0.00     0.031 C 
ATOM     49  C   UNL A   1      44.912  24.170  31.024  1.00  0.00     0.029 A 
ATOM     50  C   UNL A   1      44.334  25.465  31.321  1.00  0.00     0.049 A 
ATOM     51  H   UNL A   1      43.383  26.735  29.951  1.00  0.00     0.167 HD
ATOM     52  C   UNL A   1      39.854  28.379  27.676  1.00  0.00     0.034 A 
ATOM     53  C   UNL A   1      44.285  26.151  32.493  1.00  0.00     0.034 A 
ATOM     54  C   UNL A   1      40.996  29.215  27.366  1.00  0.00     0.049 A 
ATOM     55  C   UNL A   1      43.856  27.532  32.159  1.00  0.00     0.074 A 
ATOM     56  C   UNL A   1      41.829  29.366  26.274  1.00  0.00     0.029 A 
ATOM     57  N   UNL A   1      41.685  29.745  28.433  1.00  0.00    -0.354 N 
ATOM     58  N   UNL A   1      44.562  28.343  31.418  1.00  0.00    -0.248 NA
ATOM     59  C   UNL A   1      42.431  27.818  32.221  1.00  0.00     0.031 C 
ATOM     60  C   UNL A   1      43.138  29.487  26.833  1.00  0.00     0.029 A 
ATOM     61  C   UNL A   1      43.017  29.510  28.223  1.00  0.00     0.049 A 
ATOM     62  H   UNL A   1      41.292  30.209  29.207  1.00  0.00     0.167 HD
ATOM     63  C   UNL A   1      43.631  28.927  30.566  1.00  0.00     0.074 A 
ATOM     64  C   UNL A   1      42.328  28.635  31.169  1.00  0.00     0.031 C 
ATOM     65  C   UNL A   1      43.967  29.306  29.295  1.00  0.00     0.034 A 
BRANCH  52  66
ATOM     66  C   UNL A   1      38.719  28.916  28.547  1.00  0.00     0.023 A 
ATOM     67  C   UNL A   1      37.835  29.835  27.929  1.00  0.00     0.012 A 
ATOM     68  C   UNL A   1      38.633  28.821  29.956  1.00  0.00     0.148 A 
ATOM     69  C   UNL A   1      37.026  30.703  28.670  1.00  0.00     0.002 A 
ATOM     70  C   UNL A   1      37.788  29.650  30.689  1.00  0.00     0.091 A 
ATOM     71  F   UNL A   1      39.427  27.998  30.634  1.00  0.00    -0.205 F 
ATOM     72  C   UNL A   1      37.013  30.620  30.054  1.00  0.00     0.022 A 
BRANCH  70  73
ATOM     73  S   UNL A   1      37.704  29.566  32.486  1.00  0.00     0.127 S 
ATOM     74  O   UNL A   1      39.032  30.044  32.857  1.00  0.00    -0.237 OA
ATOM     75  O   UNL A   1      36.606  30.491  32.772  1.00  0.00    -0.237 OA
ATOM     76  O   UNL A   1      37.415  28.175  32.807  1.00  0.00    -0.744 OA
ENDBRANCH  70  73
ENDBRANCH  52  66
BRANCH  53  77
ATOM     77  C   UNL A   1      44.273  25.627  33.882  1.00  0.00     0.023 A 
ATOM     78  C   UNL A   1      43.047  25.367  34.527  1.00  0.00     0.012 A 
ATOM     79  C   UNL A   1      45.453  25.137  34.487  1.00  0.00     0.148 A 
ATOM     80  C   UNL A   1      42.997  24.627  35.718  1.00  0.00     0.002 A 
ATOM     81  C   UNL A   1      45.400  24.419  35.679  1.00  0.00     0.091 A 
ATOM     82  F   UNL A   1      46.619  25.292  33.847  1.00  0.00    -0.205 F 
ATOM     83  C   UNL A   1      44.171  24.150  36.293  1.00  0.00     0.022 A 
BRANCH  81  84
ATOM     84  S   UNL A   1      46.882  23.775  36.471  1.00  0.00     0.127 S 
ATOM     85  O   UNL A   1      47.475  22.975  35.399  1.00  0.00    -0.237 OA
ATOM     86  O   UNL A   1      47.605  25.002  36.794  1.00  0.00    -0.237 OA
ATOM     87  O   UNL A   1      46.407  22.995  37.608  1.00  0.00    -0.744 OA
ENDBRANCH  81  84
ENDBRANCH  53  77
BRANCH  65  88
ATOM     88  C   UNL A   1      45.421  29.286  28.888  1.00  0.00     0.023 A 
ATOM     89  C   UNL A   1      46.334  30.294  29.261  1.00  0.00     0.012 A 
ATOM     90  C   UNL A   1      45.915  28.110  28.300  1.00  0.00     0.148 A 
ATOM     91  C   UNL A   1      47.707  30.137  29.041  1.00  0.00     0.002 A 
ATOM     92  C   UNL A   1      47.282  27.937  28.126  1.00  0.00     0.091 A 
ATOM     93  F   UNL A   1      45.034  27.157  27.957  1.00  0.00    -0.205 F 
ATOM     94  C   UNL A   1      48.183  28.952  28.487  1.00  0.00     0.022 A 
BRANCH  92  95
ATOM     95  S   UNL A   1      47.957  26.383  27.539  1.00  0.00     0.127 S 
ATOM     96  O   UNL A   1      47.401  26.301  26.190  1.00  0.00    -0.237 OA
ATOM     97  O   UNL A   1      49.400  26.627  27.592  1.00  0.00    -0.237 OA
ATOM     98  O   UNL A   1      47.492  25.366  28.473  1.00  0.00    -0.744 OA
ENDBRANCH  92  95
ENDBRANCH  65  88
ENDBRANCH  39  40
ENDBRANCH  31  34
ENDBRANCH  29  30
ENDBRANCH  28  29
ENDBRANCH   1  28
TORSDOF 19
ENDMDL
MODEL 2
REMARK VINA RESULT:     -11.2      2.845      6.947
REMARK SMILES CCn1cc(C)c(C(=O)NCCCCNC(=O)c2ccc(-c3c4nc(c(-c5cccc(S(=O)(=O)[O-])c5F)c5ccc([nH]5)c(-c5cccc(S(=O)(=O)[O-])c5F)c5nc(c(-c6cccc(S(=O)(=O)[O-])c6F)c6ccc3[nH]6)C=C5)C=C4)cc2)c1CC(=O)NCc1cccc(C)c1
REMARK SMILES IDX 12 1 11 2 10 3 8 4 9 5 7 7 3 8 4 9 81 10 5 11 6 12 2 13 1 14
REMARK SMILES IDX 82 15 83 16 84 17 85 18 86 20 87 21 88 22 93 23 89 24 91 25
REMARK SMILES IDX 90 26 92 27 13 28 14 29 15 30 16 31 17 33 18 34 19 35 80 36
REMARK SMILES IDX 20 37 79 38 21 39 22 40 23 41 73 42 24 43 78 44 72 45 74 46
REMARK SMILES IDX 25 47 77 48 71 49 70 50 26 52 58 53 38 54 57 55 39 56 42 57
REMARK SMILES IDX 56 58 75 59 40 60 41 61 55 63 76 64 43 65 27 66 28 67 36 68
REMARK SMILES IDX 29 69 31 70 37 71 30 72 32 73 33 74 34 75 35 76 59 77 60 78
REMARK SMILES IDX 68 79 61 80 63 81 69 82 62 83 64 84 65 85 66 86 67 87 44 88
REMARK SMILES IDX 45 89 53 90 46 91 48 92 54 93 47 94 49 95 50 96 51 97 52 98
REMARK H PARENT 10 6 85 19 15 32 74 51 42 62
REMARK Flexibility Score: inf
ROOT
ATOM      1  C   UNL A   1      38.655  23.819  26.824  1.00  0.00     0.023 C 
ENDROOT
BRANCH   1   2
ATOM      2  C   UNL A   1      37.498  23.666  25.814  1.00  0.00     0.116 C 
BRANCH   2   3
ATOM      3  N   UNL A   1      36.218  23.481  26.469  1.00  0.00    -0.352 N 
ATOM      4  C   UNL A   1      34.890  23.598  26.130  1.00  0.00     0.253 C 
ATOM      5  O   UNL A   1      34.124  23.288  27.053  1.00  0.00    -0.269 OA
ATOM      6  H   UNL A   1      36.329  23.195  27.405  1.00  0.00     0.163 HD
BRANCH   4   7
ATOM      7  C   UNL A   1      34.328  24.005  24.811  1.00  0.00     0.064 A 
ATOM      8  N   UNL A   1      33.562  25.040  22.954  1.00  0.00    -0.350 N 
ATOM      9  C   UNL A   1      33.366  23.707  22.746  1.00  0.00     0.090 A 
ATOM     10  C   UNL A   1      33.963  25.250  24.264  1.00  0.00     0.040 A 
ATOM     11  C   UNL A   1      33.783  23.033  23.869  1.00  0.00    -0.020 A 
ATOM     12  C   UNL A   1      33.637  21.562  24.076  1.00  0.00     0.047 C 
BRANCH   8  13
ATOM     13  C   UNL A   1      33.273  26.028  21.922  1.00  0.00     0.118 C 
ATOM     14  C   UNL A   1      31.837  25.978  21.418  1.00  0.00     0.027 C 
ENDBRANCH   8  13
BRANCH  10  15
ATOM     15  C   UNL A   1      33.814  26.591  24.911  1.00  0.00     0.154 C 
BRANCH  15  16
ATOM     16  C   UNL A   1      32.355  26.825  25.294  1.00  0.00     0.226 C 
ATOM     17  O   UNL A   1      31.545  25.962  25.620  1.00  0.00    -0.275 OA
ATOM     18  N   UNL A   1      31.884  28.110  25.258  1.00  0.00    -0.352 N 
ATOM     19  H   UNL A   1      31.685  28.605  26.086  1.00  0.00     0.163 HD
BRANCH  18  20
ATOM     20  C   UNL A   1      31.689  28.717  23.963  1.00  0.00     0.151 C 
BRANCH  20  21
ATOM     21  C   UNL A   1      30.210  28.958  23.739  1.00  0.00    -0.029 A 
ATOM     22  C   UNL A   1      29.365  27.890  23.421  1.00  0.00     0.005 A 
ATOM     23  C   UNL A   1      29.697  30.266  23.667  1.00  0.00     0.009 A 
ATOM     24  C   UNL A   1      28.039  28.127  23.057  1.00  0.00     0.001 A 
ATOM     25  C   UNL A   1      28.374  30.516  23.283  1.00  0.00    -0.051 A 
ATOM     26  C   UNL A   1      27.547  29.433  22.984  1.00  0.00     0.003 A 
ATOM     27  C   UNL A   1      27.881  31.922  23.103  1.00  0.00     0.044 C 
ENDBRANCH  20  21
ENDBRANCH  18  20
ENDBRANCH  15  16
ENDBRANCH  10  15
ENDBRANCH   4   7
ENDBRANCH   2   3
ENDBRANCH   1   2
BRANCH   1  28
ATOM     28  C   UNL A   1      39.565  22.619  27.095  1.00  0.00     0.023 C 
BRANCH  28  29
ATOM     29  C   UNL A   1      39.817  21.751  25.881  1.00  0.00     0.116 C 
BRANCH  29  30
ATOM     30  N   UNL A   1      40.824  20.705  26.125  1.00  0.00    -0.352 N 
ATOM     31  C   UNL A   1      42.192  20.877  26.220  1.00  0.00     0.251 C 
ATOM     32  H   UNL A   1      40.487  19.786  26.231  1.00  0.00     0.163 HD
ATOM     33  O   UNL A   1      42.984  19.948  26.078  1.00  0.00    -0.269 OA
BRANCH  31  34
ATOM     34  C   UNL A   1      42.658  22.224  26.558  1.00  0.00     0.039 A 
ATOM     35  C   UNL A   1      42.586  23.296  25.663  1.00  0.00     0.014 A 
ATOM     36  C   UNL A   1      43.010  22.395  27.893  1.00  0.00     0.014 A 
ATOM     37  C   UNL A   1      42.808  24.578  26.155  1.00  0.00     0.010 A 
ATOM     38  C   UNL A   1      43.006  23.657  28.403  1.00  0.00     0.010 A 
ATOM     39  C   UNL A   1      43.004  24.742  27.531  1.00  0.00    -0.014 A 
BRANCH  39  40
ATOM     40  C   UNL A   1      43.116  26.048  28.156  1.00  0.00     0.031 A 
ATOM     41  C   UNL A   1      44.290  26.842  27.699  1.00  0.00     0.074 A 
ATOM     42  C   UNL A   1      42.050  26.569  28.804  1.00  0.00     0.049 A 
ATOM     43  N   UNL A   1      45.343  27.167  28.376  1.00  0.00    -0.248 NA
ATOM     44  C   UNL A   1      44.402  27.145  26.261  1.00  0.00     0.031 C 
ATOM     45  C   UNL A   1      40.701  25.992  28.937  1.00  0.00     0.029 A 
ATOM     46  N   UNL A   1      41.878  27.815  29.308  1.00  0.00    -0.354 N 
ATOM     47  C   UNL A   1      46.104  27.961  27.515  1.00  0.00     0.074 A 
ATOM     48  C   UNL A   1      45.635  27.651  26.194  1.00  0.00     0.031 C 
ATOM     49  C   UNL A   1      39.814  26.977  29.197  1.00  0.00     0.029 A 
ATOM     50  C   UNL A   1      40.546  28.207  29.421  1.00  0.00     0.049 A 
ATOM     51  H   UNL A   1      42.630  28.392  29.573  1.00  0.00     0.167 HD
ATOM     52  C   UNL A   1      46.798  29.040  27.983  1.00  0.00     0.034 A 
ATOM     53  C   UNL A   1      40.090  29.474  29.599  1.00  0.00     0.034 A 
ATOM     54  C   UNL A   1      46.889  28.990  29.428  1.00  0.00     0.049 A 
ATOM     55  C   UNL A   1      41.242  30.275  30.086  1.00  0.00     0.074 A 
ATOM     56  C   UNL A   1      47.335  28.061  30.348  1.00  0.00     0.029 A 
ATOM     57  N   UNL A   1      46.068  29.843  30.131  1.00  0.00    -0.354 N 
ATOM     58  N   UNL A   1      41.837  30.056  31.226  1.00  0.00    -0.248 NA
ATOM     59  C   UNL A   1      42.037  30.970  29.085  1.00  0.00     0.031 C 
ATOM     60  C   UNL A   1      46.364  28.096  31.395  1.00  0.00     0.029 A 
ATOM     61  C   UNL A   1      45.449  29.110  31.107  1.00  0.00     0.049 A 
ATOM     62  H   UNL A   1      45.949  30.805  29.963  1.00  0.00     0.167 HD
ATOM     63  C   UNL A   1      43.192  30.149  30.930  1.00  0.00     0.074 A 
ATOM     64  C   UNL A   1      43.250  30.804  29.620  1.00  0.00     0.031 C 
ATOM     65  C   UNL A   1      44.123  29.406  31.603  1.00  0.00     0.034 A 
BRANCH  52  66
ATOM     66  C   UNL A   1      47.008  30.359  27.242  1.00  0.00     0.023 A 
ATOM     67  C   UNL A   1      48.310  30.914  27.305  1.00  0.00     0.012 A 
ATOM     68  C   UNL A   1      45.990  31.214  26.757  1.00  0.00     0.148 A 
ATOM     69  C   UNL A   1      48.556  32.266  27.043  1.00  0.00     0.002 A 
ATOM     70  C   UNL A   1      46.247  32.546  26.446  1.00  0.00     0.091 A 
ATOM     71  F   UNL A   1      44.731  30.794  26.670  1.00  0.00    -0.205 F 
ATOM     72  C   UNL A   1      47.520  33.088  26.627  1.00  0.00     0.022 A 
BRANCH  70  73
ATOM     73  S   UNL A   1      44.949  33.653  25.870  1.00  0.00     0.127 S 
ATOM     74  O   UNL A   1      45.728  34.818  25.461  1.00  0.00    -0.237 OA
ATOM     75  O   UNL A   1      44.365  32.878  24.775  1.00  0.00    -0.237 OA
ATOM     76  O   UNL A   1      44.060  33.850  27.007  1.00  0.00    -0.744 OA
ENDBRANCH  70  73
ENDBRANCH  52  66
BRANCH  53  77
ATOM     77  C   UNL A   1      38.844  30.099  29.088  1.00  0.00     0.023 A 
ATOM     78  C   UNL A   1      38.295  29.676  27.861  1.00  0.00     0.012 A 
ATOM     79  C   UNL A   1      38.049  30.924  29.917  1.00  0.00     0.148 A 
ATOM     80  C   UNL A   1      36.995  30.043  27.484  1.00  0.00     0.002 A 
ATOM     81  C   UNL A   1      36.765  31.300  29.530  1.00  0.00     0.091 A 
ATOM     82  F   UNL A   1      38.513  31.262  31.127  1.00  0.00    -0.205 F 
ATOM     83  C   UNL A   1      36.228  30.851  28.318  1.00  0.00     0.022 A 
BRANCH  81  84
ATOM     84  S   UNL A   1      35.725  32.342  30.563  1.00  0.00     0.127 S 
ATOM     85  O   UNL A   1      35.613  31.542  31.784  1.00  0.00    -0.237 OA
ATOM     86  O   UNL A   1      36.541  33.546  30.691  1.00  0.00    -0.237 OA
ATOM     87  O   UNL A   1      34.474  32.492  29.830  1.00  0.00    -0.744 OA
ENDBRANCH  81  84
ENDBRANCH  53  77
BRANCH  65  88
ATOM     88  C   UNL A   1      43.693  28.636  32.828  1.00  0.00     0.023 A 
ATOM     89  C   UNL A   1      43.358  27.266  32.793  1.00  0.00     0.012 A 
ATOM     90  C   UNL A   1      43.842  29.263  34.076  1.00  0.00     0.148 A 
ATOM     91  C   UNL A   1      43.166  26.543  33.976  1.00  0.00     0.002 A 
ATOM     92  C   UNL A   1      43.696  28.533  35.247  1.00  0.00     0.091 A 
ATOM     93  F   UNL A   1      44.167  30.566  34.093  1.00  0.00    -0.205 F 
ATOM     94  C   UNL A   1      43.350  27.173  35.203  1.00  0.00     0.022 A 
BRANCH  92  95
ATOM     95  S   UNL A   1      44.047  29.259  36.849  1.00  0.00     0.127 S 
ATOM     96  O   UNL A   1      45.263  30.022  36.576  1.00  0.00    -0.237 OA
ATOM     97  O   UNL A   1      42.856  30.074  37.093  1.00  0.00    -0.237 OA
ATOM     98  O   UNL A   1      44.201  28.141  37.771  1.00  0.00    -0.744 OA
ENDBRANCH  92  95
ENDBRANCH  65  88
ENDBRANCH  39  40
ENDBRANCH  31  34
ENDBRANCH  29  30
ENDBRANCH  28  29
ENDBRANCH   1  28
TORSDOF 19
ENDMDL
MODEL 3
REMARK VINA RESULT:     -11.1      3.619      7.339
REMARK SMILES CCn1cc(C)c(C(=O)NCCCCNC(=O)c2ccc(-c3c4nc(c(-c5cccc(S(=O)(=O)[O-])c5F)c5ccc([nH]5)c(-c5cccc(S(=O)(=O)[O-])c5F)c5nc(c(-c6cccc(S(=O)(=O)[O-])c6F)c6ccc3[nH]6)C=C5)C=C4)cc2)c1CC(=O)NCc1cccc(C)c1
REMARK SMILES IDX 12 1 11 2 10 3 8 4 9 5 7 7 3 8 4 9 81 10 5 11 6 12 2 13 1 14
REMARK SMILES IDX 82 15 83 16 84 17 85 18 86 20 87 21 88 22 93 23 89 24 91 25
REMARK SMILES IDX 90 26 92 27 13 28 14 29 15 30 16 31 17 33 18 34 19 35 80 36
REMARK SMILES IDX 20 37 79 38 21 39 22 40 23 41 73 42 24 43 78 44 72 45 74 46
REMARK SMILES IDX 25 47 77 48 71 49 70 50 26 52 58 53 38 54 57 55 39 56 42 57
REMARK SMILES IDX 56 58 75 59 40 60 41 61 55 63 76 64 43 65 27 66 28 67 36 68
REMARK SMILES IDX 29 69 31 70 37 71 30 72 32 73 33 74 34 75 35 76 59 77 60 78
REMARK SMILES IDX 68 79 61 80 63 81 69 82 62 83 64 84 65 85 66 86 67 87 44 88
REMARK SMILES IDX 45 89 53 90 46 91 48 92 54 93 47 94 49 95 50 96 51 97 52 98
REMARK H PARENT 10 6 85 19 15 32 74 51 42 62
REMARK Flexibility Score: inf
ROOT
ATOM      1  C   UNL A   1      37.225  22.203  24.644  1.00  0.00     0.023 C 
ENDROOT
BRANCH   1   2
ATOM      2  C   UNL A   1      36.356  21.126  25.327  1.00  0.00     0.116 C 
BRANCH   2   3
ATOM      3  N   UNL A   1      35.265  21.701  26.088  1.00  0.00    -0.352 N 
ATOM      4  C   UNL A   1      34.189  22.522  25.840  1.00  0.00     0.253 C 
ATOM      5  O   UNL A   1      33.486  22.717  26.841  1.00  0.00    -0.269 OA
ATOM      6  H   UNL A   1      35.304  21.431  27.034  1.00  0.00     0.163 HD
BRANCH   4   7
ATOM      7  C   UNL A   1      33.800  23.129  24.536  1.00  0.00     0.064 A 
ATOM      8  N   UNL A   1      33.355  24.434  22.745  1.00  0.00    -0.350 N 
ATOM      9  C   UNL A   1      32.954  23.178  22.400  1.00  0.00     0.090 A 
ATOM     10  C   UNL A   1      33.689  24.460  24.090  1.00  0.00     0.040 A 
ATOM     11  C   UNL A   1      33.170  22.349  23.476  1.00  0.00    -0.020 A 
ATOM     12  C   UNL A   1      32.765  20.914  23.533  1.00  0.00     0.047 C 
BRANCH   8  13
ATOM     13  C   UNL A   1      33.311  25.541  21.797  1.00  0.00     0.118 C 
ATOM     14  C   UNL A   1      31.901  25.895  21.342  1.00  0.00     0.027 C 
ENDBRANCH   8  13
BRANCH  10  15
ATOM     15  C   UNL A   1      33.721  25.748  24.851  1.00  0.00     0.154 C 
BRANCH  15  16
ATOM     16  C   UNL A   1      32.302  26.158  25.239  1.00  0.00     0.226 C 
ATOM     17  O   UNL A   1      31.365  25.397  25.466  1.00  0.00    -0.275 OA
ATOM     18  N   UNL A   1      32.026  27.496  25.329  1.00  0.00    -0.352 N 
ATOM     19  H   UNL A   1      31.881  27.930  26.202  1.00  0.00     0.163 HD
BRANCH  18  20
ATOM     20  C   UNL A   1      31.958  28.251  24.101  1.00  0.00     0.151 C 
BRANCH  20  21
ATOM     21  C   UNL A   1      30.525  28.674  23.851  1.00  0.00    -0.029 A 
ATOM     22  C   UNL A   1      29.584  27.739  23.412  1.00  0.00     0.005 A 
ATOM     23  C   UNL A   1      30.160  30.033  23.879  1.00  0.00     0.009 A 
ATOM     24  C   UNL A   1      28.308  28.153  23.027  1.00  0.00     0.001 A 
ATOM     25  C   UNL A   1      28.891  30.461  23.475  1.00  0.00    -0.051 A 
ATOM     26  C   UNL A   1      27.964  29.506  23.054  1.00  0.00     0.003 A 
ATOM     27  C   UNL A   1      28.561  31.923  23.404  1.00  0.00     0.044 C 
ENDBRANCH  20  21
ENDBRANCH  18  20
ENDBRANCH  15  16
ENDBRANCH  10  15
ENDBRANCH   4   7
ENDBRANCH   2   3
ENDBRANCH   1   2
BRANCH   1  28
ATOM     28  C   UNL A   1      37.313  23.594  25.275  1.00  0.00     0.023 C 
BRANCH  28  29
ATOM     29  C   UNL A   1      38.225  23.666  26.480  1.00  0.00     0.116 C 
BRANCH  29  30
ATOM     30  N   UNL A   1      39.441  22.851  26.327  1.00  0.00    -0.352 N 
ATOM     31  C   UNL A   1      40.736  23.230  26.625  1.00  0.00     0.251 C 
ATOM     32  H   UNL A   1      39.320  21.940  25.976  1.00  0.00     0.163 HD
ATOM     33  O   UNL A   1      41.716  22.650  26.162  1.00  0.00    -0.269 OA
BRANCH  31  34
ATOM     34  C   UNL A   1      40.891  24.333  27.577  1.00  0.00     0.039 A 
ATOM     35  C   UNL A   1      42.069  24.549  28.298  1.00  0.00     0.014 A 
ATOM     36  C   UNL A   1      39.845  25.250  27.574  1.00  0.00     0.014 A 
ATOM     37  C   UNL A   1      42.214  25.757  28.973  1.00  0.00     0.010 A 
ATOM     38  C   UNL A   1      40.085  26.503  28.048  1.00  0.00     0.010 A 
ATOM     39  C   UNL A   1      41.216  26.729  28.827  1.00  0.00    -0.014 A 
BRANCH  39  40
ATOM     40  C   UNL A   1      41.336  28.064  29.385  1.00  0.00     0.031 A 
ATOM     41  C   UNL A   1      42.265  28.955  28.636  1.00  0.00     0.074 A 
ATOM     42  C   UNL A   1      40.415  28.499  30.275  1.00  0.00     0.049 A 
ATOM     43  N   UNL A   1      43.411  29.414  29.020  1.00  0.00    -0.248 NA
ATOM     44  C   UNL A   1      41.980  29.209  27.212  1.00  0.00     0.031 C 
ATOM     45  C   UNL A   1      39.214  27.792  30.752  1.00  0.00     0.029 A 
ATOM     46  N   UNL A   1      40.240  29.740  30.790  1.00  0.00    -0.354 N 
ATOM     47  C   UNL A   1      43.841  30.246  27.984  1.00  0.00     0.074 A 
ATOM     48  C   UNL A   1      43.095  29.835  26.829  1.00  0.00     0.031 C 
ATOM     49  C   UNL A   1      38.319  28.691  31.214  1.00  0.00     0.029 A 
ATOM     50  C   UNL A   1      38.944  29.997  31.229  1.00  0.00     0.049 A 
ATOM     51  H   UNL A   1      40.966  30.402  30.848  1.00  0.00     0.167 HD
ATOM     52  C   UNL A   1      44.508  31.408  28.247  1.00  0.00     0.034 A 
ATOM     53  C   UNL A   1      38.411  31.217  31.500  1.00  0.00     0.034 A 
ATOM     54  C   UNL A   1      44.962  31.427  29.623  1.00  0.00     0.049 A 
ATOM     55  C   UNL A   1      39.553  32.152  31.670  1.00  0.00     0.074 A 
ATOM     56  C   UNL A   1      45.723  30.586  30.412  1.00  0.00     0.029 A 
ATOM     57  N   UNL A   1      44.255  32.218  30.499  1.00  0.00    -0.354 N 
ATOM     58  N   UNL A   1      40.435  32.041  32.625  1.00  0.00    -0.248 NA
ATOM     59  C   UNL A   1      39.992  32.883  30.491  1.00  0.00     0.031 C 
ATOM     60  C   UNL A   1      45.047  30.564  31.670  1.00  0.00     0.029 A 
ATOM     61  C   UNL A   1      43.983  31.466  31.609  1.00  0.00     0.049 A 
ATOM     62  H   UNL A   1      43.993  33.156  30.354  1.00  0.00     0.167 HD
ATOM     63  C   UNL A   1      41.654  32.261  31.994  1.00  0.00     0.074 A 
ATOM     64  C   UNL A   1      41.311  32.864  30.703  1.00  0.00     0.031 C 
ATOM     65  C   UNL A   1      42.799  31.645  32.420  1.00  0.00     0.034 A 
BRANCH  52  66
ATOM     66  C   UNL A   1      44.380  32.711  27.459  1.00  0.00     0.023 A 
ATOM     67  C   UNL A   1      45.319  32.909  26.417  1.00  0.00     0.012 A 
ATOM     68  C   UNL A   1      43.626  33.845  27.841  1.00  0.00     0.148 A 
ATOM     69  C   UNL A   1      45.593  34.176  25.893  1.00  0.00     0.002 A 
ATOM     70  C   UNL A   1      43.863  35.097  27.280  1.00  0.00     0.091 A 
ATOM     71  F   UNL A   1      42.726  33.769  28.817  1.00  0.00    -0.205 F 
ATOM     72  C   UNL A   1      44.874  35.276  26.336  1.00  0.00     0.022 A 
BRANCH  70  73
ATOM     73  S   UNL A   1      42.939  36.555  27.791  1.00  0.00     0.127 S 
ATOM     74  O   UNL A   1      43.241  36.600  29.219  1.00  0.00    -0.237 OA
ATOM     75  O   UNL A   1      43.570  37.601  26.987  1.00  0.00    -0.237 OA
ATOM     76  O   UNL A   1      41.549  36.288  27.443  1.00  0.00    -0.744 OA
ENDBRANCH  70  73
ENDBRANCH  52  66
BRANCH  53  77
ATOM     77  C   UNL A   1      37.016  31.690  31.313  1.00  0.00     0.023 A 
ATOM     78  C   UNL A   1      36.293  32.204  32.408  1.00  0.00     0.012 A 
ATOM     79  C   UNL A   1      36.478  31.879  30.019  1.00  0.00     0.148 A 
ATOM     80  C   UNL A   1      35.090  32.901  32.219  1.00  0.00     0.002 A 
ATOM     81  C   UNL A   1      35.274  32.556  29.838  1.00  0.00     0.091 A 
ATOM     82  F   UNL A   1      37.191  31.480  28.958  1.00  0.00    -0.205 F 
ATOM     83  C   UNL A   1      34.582  33.081  30.936  1.00  0.00     0.022 A 
BRANCH  81  84
ATOM     84  S   UNL A   1      34.565  32.821  28.206  1.00  0.00     0.127 S 
ATOM     85  O   UNL A   1      33.379  33.619  28.518  1.00  0.00    -0.237 OA
ATOM     86  O   UNL A   1      35.635  33.549  27.530  1.00  0.00    -0.237 OA
ATOM     87  O   UNL A   1      34.271  31.489  27.689  1.00  0.00    -0.744 OA
ENDBRANCH  81  84
ENDBRANCH  53  77
BRANCH  65  88
ATOM     88  C   UNL A   1      42.776  30.886  33.724  1.00  0.00     0.023 A 
ATOM     89  C   UNL A   1      42.844  31.521  34.982  1.00  0.00     0.012 A 
ATOM     90  C   UNL A   1      42.462  29.517  33.675  1.00  0.00     0.148 A 
ATOM     91  C   UNL A   1      42.614  30.805  36.163  1.00  0.00     0.002 A 
ATOM     92  C   UNL A   1      42.190  28.820  34.844  1.00  0.00     0.091 A 
ATOM     93  F   UNL A   1      42.396  28.929  32.471  1.00  0.00    -0.205 F 
ATOM     94  C   UNL A   1      42.272  29.457  36.092  1.00  0.00     0.022 A 
BRANCH  92  95
ATOM     95  S   UNL A   1      41.619  27.121  34.804  1.00  0.00     0.127 S 
ATOM     96  O   UNL A   1      42.798  26.416  34.307  1.00  0.00    -0.237 OA
ATOM     97  O   UNL A   1      41.299  26.863  36.210  1.00  0.00    -0.237 OA
ATOM     98  O   UNL A   1      40.460  27.108  33.920  1.00  0.00    -0.744 OA
ENDBRANCH  92  95
ENDBRANCH  65  88
ENDBRANCH  39  40
ENDBRANCH  31  34
ENDBRANCH  29  30
ENDBRANCH  28  29
ENDBRANCH   1  28
TORSDOF 19
ENDMDL
