MODEL 1
REMARK VINA RESULT:     -12.5      0.000      0.000
REMARK SMILES O=C(CSc1ccc(Cl)cc1)Nc1ccc(C(=O)NCCCCNC(=O)c2ccc(-c3c4nc(c(-c5cccc(S(=O)(=O)[O-])c5F)c5ccc([nH]5)c(-c5cccc(S(=O)(=O)[O-])c5F)c5nc(c(-c6cccc(S(=O)(=O)[O-])c6F)c6ccc3[nH]6)C=C5)C=C4)cc2)cc1
REMARK SMILES IDX 21 1 20 2 19 3 17 4 18 5 16 7 13 8 14 9 91 10 15 11 90 12
REMARK SMILES IDX 12 13 1 14 2 15 3 17 4 18 5 19 6 20 11 21 7 22 10 23 8 24
REMARK SMILES IDX 9 25 22 26 23 27 24 28 25 29 26 31 27 32 28 33 89 34 29 35
REMARK SMILES IDX 88 36 30 37 31 38 32 39 82 40 33 41 87 42 81 43 83 44 34 45
REMARK SMILES IDX 86 46 80 47 79 48 35 50 67 51 47 52 66 53 48 54 51 55 65 56
REMARK SMILES IDX 84 57 49 58 50 59 64 61 85 62 52 63 36 64 37 65 45 66 38 67
REMARK SMILES IDX 40 68 46 69 39 70 41 71 42 72 43 73 44 74 68 75 69 76 77 77
REMARK SMILES IDX 70 78 72 79 78 80 71 81 73 82 74 83 75 84 76 85 53 86 54 87
REMARK SMILES IDX 62 88 55 89 57 90 63 91 56 92 58 93 59 94 60 95 61 96
REMARK H PARENT 19 6 12 16 24 30 83 49 51 60
REMARK Flexibility Score: inf
ROOT
ATOM      1  C   UNL A   1      35.628  20.363  25.386  1.00  0.00     0.023 C 
ENDROOT
BRANCH   1   2
ATOM      2  C   UNL A   1      35.446  18.996  24.723  1.00  0.00     0.116 C 
BRANCH   2   3
ATOM      3  N   UNL A   1      34.169  18.419  25.099  1.00  0.00    -0.352 N 
ATOM      4  C   UNL A   1      32.882  18.886  25.022  1.00  0.00     0.251 C 
ATOM      5  O   UNL A   1      31.982  18.150  25.428  1.00  0.00    -0.269 OA
ATOM      6  H   UNL A   1      34.241  17.517  25.485  1.00  0.00     0.163 HD
BRANCH   4   7
ATOM      7  C   UNL A   1      32.513  20.199  24.416  1.00  0.00     0.039 A 
ATOM      8  C   UNL A   1      32.033  22.635  23.072  1.00  0.00     0.041 A 
ATOM      9  C   UNL A   1      32.093  21.440  22.354  1.00  0.00     0.027 A 
ATOM     10  C   UNL A   1      32.107  22.592  24.463  1.00  0.00     0.027 A 
ATOM     11  C   UNL A   1      32.358  20.237  23.020  1.00  0.00     0.016 A 
ATOM     12  C   UNL A   1      32.303  21.378  25.129  1.00  0.00     0.016 A 
BRANCH   8  13
ATOM     13  N   UNL A   1      31.879  23.838  22.361  1.00  0.00    -0.325 N 
ATOM     14  O   UNL A   1      34.103  24.471  22.144  1.00  0.00    -0.274 OA
ATOM     15  C   UNL A   1      32.903  24.694  21.992  1.00  0.00     0.234 C 
ATOM     16  H   UNL A   1      30.964  24.094  22.105  1.00  0.00     0.169 HD
BRANCH  15  17
ATOM     17  C   UNL A   1      32.453  26.032  21.429  1.00  0.00     0.175 C 
BRANCH  17  18
ATOM     18  S   UNL A   1      32.510  27.405  22.626  1.00  0.00    -0.116 SA
BRANCH  18  19
ATOM     19  C   UNL A   1      30.775  27.626  22.968  1.00  0.00     0.008 A 
ATOM     20  C   UNL A   1      30.140  28.783  22.503  1.00  0.00     0.016 A 
ATOM     21  C   UNL A   1      30.022  26.648  23.628  1.00  0.00     0.016 A 
ATOM     22  C   UNL A   1      28.771  28.969  22.705  1.00  0.00     0.021 A 
ATOM     23  C   UNL A   1      28.649  26.831  23.825  1.00  0.00     0.021 A 
ATOM     24  C   UNL A   1      28.030  27.991  23.361  1.00  0.00     0.041 A 
ATOM     25  Cl  UNL A   1      26.337  28.203  23.580  1.00  0.00    -0.084 Cl
ENDBRANCH  18  19
ENDBRANCH  17  18
ENDBRANCH  15  17
ENDBRANCH   8  13
ENDBRANCH   4   7
ENDBRANCH   2   3
ENDBRANCH   1   2
BRANCH   1  26
ATOM     26  C   UNL A   1      36.368  21.383  24.513  1.00  0.00     0.023 C 
BRANCH  26  27
ATOM     27  C   UNL A   1      37.622  21.980  25.145  1.00  0.00     0.116 C 
BRANCH  27  28
ATOM     28  N   UNL A   1      38.553  20.973  25.628  1.00  0.00    -0.352 N 
ATOM     29  C   UNL A   1      39.714  21.138  26.345  1.00  0.00     0.251 C 
ATOM     30  H   UNL A   1      38.319  20.041  25.409  1.00  0.00     0.163 HD
ATOM     31  O   UNL A   1      40.440  20.179  26.561  1.00  0.00    -0.269 OA
BRANCH  29  32
ATOM     32  C   UNL A   1      40.094  22.488  26.819  1.00  0.00     0.039 A 
ATOM     33  C   UNL A   1      41.063  22.591  27.818  1.00  0.00     0.014 A 
ATOM     34  C   UNL A   1      39.514  23.638  26.276  1.00  0.00     0.014 A 
ATOM     35  C   UNL A   1      41.495  23.854  28.230  1.00  0.00     0.010 A 
ATOM     36  C   UNL A   1      40.000  24.893  26.634  1.00  0.00     0.010 A 
ATOM     37  C   UNL A   1      40.994  25.015  27.614  1.00  0.00    -0.014 A 
BRANCH  37  38
ATOM     38  C   UNL A   1      41.545  26.349  27.966  1.00  0.00     0.031 A 
ATOM     39  C   UNL A   1      42.965  26.714  27.632  1.00  0.00     0.074 A 
ATOM     40  C   UNL A   1      40.768  27.217  28.645  1.00  0.00     0.049 A 
ATOM     41  N   UNL A   1      43.590  27.846  27.831  1.00  0.00    -0.248 NA
ATOM     42  C   UNL A   1      43.800  25.671  27.015  1.00  0.00     0.031 C 
ATOM     43  C   UNL A   1      39.408  26.944  29.116  1.00  0.00     0.029 A 
ATOM     44  N   UNL A   1      41.014  28.498  29.069  1.00  0.00    -0.354 N 
ATOM     45  C   UNL A   1      44.892  27.646  27.390  1.00  0.00     0.074 A 
ATOM     46  C   UNL A   1      44.980  26.272  26.947  1.00  0.00     0.031 C 
ATOM     47  C   UNL A   1      38.933  28.030  29.744  1.00  0.00     0.029 A 
ATOM     48  C   UNL A   1      39.959  29.067  29.744  1.00  0.00     0.049 A 
ATOM     49  H   UNL A   1      41.864  28.966  28.906  1.00  0.00     0.167 HD
ATOM     50  C   UNL A   1      45.915  28.534  27.329  1.00  0.00     0.034 A 
ATOM     51  C   UNL A   1      39.830  30.287  30.301  1.00  0.00     0.034 A 
ATOM     52  C   UNL A   1      45.815  29.908  27.746  1.00  0.00     0.049 A 
ATOM     53  C   UNL A   1      40.964  31.267  30.175  1.00  0.00     0.074 A 
ATOM     54  C   UNL A   1      46.764  30.910  27.642  1.00  0.00     0.029 A 
ATOM     55  N   UNL A   1      44.707  30.473  28.361  1.00  0.00    -0.354 N 
ATOM     56  N   UNL A   1      42.127  31.116  29.591  1.00  0.00    -0.248 NA
ATOM     57  C   UNL A   1      40.748  32.603  30.749  1.00  0.00     0.031 C 
ATOM     58  C   UNL A   1      46.242  32.072  28.223  1.00  0.00     0.029 A 
ATOM     59  C   UNL A   1      44.953  31.803  28.656  1.00  0.00     0.049 A 
ATOM     60  H   UNL A   1      43.868  29.997  28.557  1.00  0.00     0.167 HD
ATOM     61  C   UNL A   1      42.772  32.341  29.702  1.00  0.00     0.074 A 
ATOM     62  C   UNL A   1      41.853  33.235  30.377  1.00  0.00     0.031 C 
ATOM     63  C   UNL A   1      44.019  32.692  29.298  1.00  0.00     0.034 A 
BRANCH  50  64
ATOM     64  C   UNL A   1      47.220  28.058  26.745  1.00  0.00     0.023 A 
ATOM     65  C   UNL A   1      48.259  27.645  27.607  1.00  0.00     0.012 A 
ATOM     66  C   UNL A   1      47.400  27.958  25.352  1.00  0.00     0.148 A 
ATOM     67  C   UNL A   1      49.468  27.177  27.091  1.00  0.00     0.002 A 
ATOM     68  C   UNL A   1      48.590  27.446  24.847  1.00  0.00     0.091 A 
ATOM     69  F   UNL A   1      46.411  28.373  24.548  1.00  0.00    -0.205 F 
ATOM     70  C   UNL A   1      49.628  27.067  25.713  1.00  0.00     0.022 A 
BRANCH  68  71
ATOM     71  S   UNL A   1      48.867  27.186  23.091  1.00  0.00     0.127 S 
ATOM     72  O   UNL A   1      48.225  28.366  22.513  1.00  0.00    -0.237 OA
ATOM     73  O   UNL A   1      50.328  27.184  23.007  1.00  0.00    -0.237 OA
ATOM     74  O   UNL A   1      48.237  25.913  22.768  1.00  0.00    -0.744 OA
ENDBRANCH  68  71
ENDBRANCH  50  64
BRANCH  51  75
ATOM     75  C   UNL A   1      38.554  30.672  30.966  1.00  0.00     0.023 A 
ATOM     76  C   UNL A   1      38.359  30.364  32.327  1.00  0.00     0.012 A 
ATOM     77  C   UNL A   1      37.546  31.364  30.267  1.00  0.00     0.148 A 
ATOM     78  C   UNL A   1      37.168  30.704  32.969  1.00  0.00     0.002 A 
ATOM     79  C   UNL A   1      36.387  31.752  30.929  1.00  0.00     0.091 A 
ATOM     80  F   UNL A   1      37.747  31.639  28.971  1.00  0.00    -0.205 F 
ATOM     81  C   UNL A   1      36.187  31.407  32.274  1.00  0.00     0.022 A 
BRANCH  79  82
ATOM     82  S   UNL A   1      35.134  32.776  30.151  1.00  0.00     0.127 S 
ATOM     83  O   UNL A   1      35.922  33.917  29.691  1.00  0.00    -0.237 OA
ATOM     84  O   UNL A   1      34.641  31.897  29.090  1.00  0.00    -0.237 OA
ATOM     85  O   UNL A   1      34.158  33.061  31.194  1.00  0.00    -0.744 OA
ENDBRANCH  79  82
ENDBRANCH  51  75
BRANCH  63  86
ATOM     86  C   UNL A   1      44.455  34.112  29.561  1.00  0.00     0.023 A 
ATOM     87  C   UNL A   1      44.987  34.461  30.819  1.00  0.00     0.012 A 
ATOM     88  C   UNL A   1      44.368  35.092  28.553  1.00  0.00     0.148 A 
ATOM     89  C   UNL A   1      45.377  35.774  31.085  1.00  0.00     0.002 A 
ATOM     90  C   UNL A   1      44.808  36.385  28.809  1.00  0.00     0.091 A 
ATOM     91  F   UNL A   1      43.843  34.748  27.368  1.00  0.00    -0.205 F 
ATOM     92  C   UNL A   1      45.297  36.732  30.079  1.00  0.00     0.022 A 
BRANCH  90  93
ATOM     93  S   UNL A   1      44.832  37.660  27.542  1.00  0.00     0.127 S 
ATOM     94  O   UNL A   1      43.433  37.688  27.123  1.00  0.00    -0.237 OA
ATOM     95  O   UNL A   1      45.267  38.837  28.294  1.00  0.00    -0.237 OA
ATOM     96  O   UNL A   1      45.781  37.204  26.536  1.00  0.00    -0.744 OA
ENDBRANCH  90  93
ENDBRANCH  63  86
ENDBRANCH  37  38
ENDBRANCH  29  32
ENDBRANCH  27  28
ENDBRANCH  26  27
ENDBRANCH   1  26
TORSDOF 18
ENDMDL
MODEL 2
REMARK VINA RESULT:     -12.5      1.778      2.255
REMARK SMILES O=C(CSc1ccc(Cl)cc1)Nc1ccc(C(=O)NCCCCNC(=O)c2ccc(-c3c4nc(c(-c5cccc(S(=O)(=O)[O-])c5F)c5ccc([nH]5)c(-c5cccc(S(=O)(=O)[O-])c5F)c5nc(c(-c6cccc(S(=O)(=O)[O-])c6F)c6ccc3[nH]6)C=C5)C=C4)cc2)cc1
REMARK SMILES IDX 21 1 20 2 19 3 17 4 18 5 16 7 13 8 14 9 91 10 15 11 90 12
REMARK SMILES IDX 12 13 1 14 2 15 3 17 4 18 5 19 6 20 11 21 7 22 10 23 8 24
REMARK SMILES IDX 9 25 22 26 23 27 24 28 25 29 26 31 27 32 28 33 89 34 29 35
REMARK SMILES IDX 88 36 30 37 31 38 32 39 82 40 33 41 87 42 81 43 83 44 34 45
REMARK SMILES IDX 86 46 80 47 79 48 35 50 67 51 47 52 66 53 48 54 51 55 65 56
REMARK SMILES IDX 84 57 49 58 50 59 64 61 85 62 52 63 36 64 37 65 45 66 38 67
REMARK SMILES IDX 40 68 46 69 39 70 41 71 42 72 43 73 44 74 68 75 69 76 77 77
REMARK SMILES IDX 70 78 72 79 78 80 71 81 73 82 74 83 75 84 76 85 53 86 54 87
REMARK SMILES IDX 62 88 55 89 57 90 63 91 56 92 58 93 59 94 60 95 61 96
REMARK H PARENT 19 6 12 16 24 30 83 49 51 60
REMARK Flexibility Score: inf
ROOT
ATOM      1  C   UNL A   1      35.029  20.307  24.985  1.00  0.00     0.023 C 
ENDROOT
BRANCH   1   2
ATOM      2  C   UNL A   1      33.590  20.268  25.503  1.00  0.00     0.116 C 
BRANCH   2   3
ATOM      3  N   UNL A   1      33.513  20.863  26.824  1.00  0.00    -0.352 N 
ATOM      4  C   UNL A   1      33.002  22.052  27.276  1.00  0.00     0.251 C 
ATOM      5  O   UNL A   1      33.081  22.287  28.483  1.00  0.00    -0.269 OA
ATOM      6  H   UNL A   1      33.904  20.303  27.533  1.00  0.00     0.163 HD
BRANCH   4   7
ATOM      7  C   UNL A   1      32.301  23.038  26.401  1.00  0.00     0.039 A 
ATOM      8  C   UNL A   1      30.942  25.070  24.990  1.00  0.00     0.041 A 
ATOM      9  C   UNL A   1      32.044  25.387  25.785  1.00  0.00     0.027 A 
ATOM     10  C   UNL A   1      30.593  23.731  24.822  1.00  0.00     0.027 A 
ATOM     11  C   UNL A   1      32.700  24.381  26.504  1.00  0.00     0.016 A 
ATOM     12  C   UNL A   1      31.295  22.722  25.489  1.00  0.00     0.016 A 
BRANCH   8  13
ATOM     13  N   UNL A   1      30.237  26.116  24.371  1.00  0.00    -0.325 N 
ATOM     14  O   UNL A   1      31.241  26.102  22.277  1.00  0.00    -0.274 OA
ATOM     15  C   UNL A   1      30.461  26.594  23.091  1.00  0.00     0.234 C 
ATOM     16  H   UNL A   1      29.522  26.548  24.893  1.00  0.00     0.169 HD
BRANCH  15  17
ATOM     17  C   UNL A   1      29.718  27.873  22.740  1.00  0.00     0.175 C 
BRANCH  17  18
ATOM     18  S   UNL A   1      30.794  29.328  22.520  1.00  0.00    -0.116 SA
BRANCH  18  19
ATOM     19  C   UNL A   1      31.845  29.190  23.953  1.00  0.00     0.008 A 
ATOM     20  C   UNL A   1      33.144  28.696  23.787  1.00  0.00     0.016 A 
ATOM     21  C   UNL A   1      31.429  29.621  25.217  1.00  0.00     0.016 A 
ATOM     22  C   UNL A   1      34.016  28.622  24.876  1.00  0.00     0.021 A 
ATOM     23  C   UNL A   1      32.304  29.553  26.307  1.00  0.00     0.021 A 
ATOM     24  C   UNL A   1      33.595  29.055  26.130  1.00  0.00     0.041 A 
ATOM     25  Cl  UNL A   1      34.680  28.995  27.464  1.00  0.00    -0.084 Cl
ENDBRANCH  18  19
ENDBRANCH  17  18
ENDBRANCH  15  17
ENDBRANCH   8  13
ENDBRANCH   4   7
ENDBRANCH   2   3
ENDBRANCH   1   2
BRANCH   1  26
ATOM     26  C   UNL A   1      35.507  21.708  24.587  1.00  0.00     0.023 C 
BRANCH  26  27
ATOM     27  C   UNL A   1      36.759  22.191  25.314  1.00  0.00     0.116 C 
BRANCH  27  28
ATOM     28  N   UNL A   1      37.744  21.139  25.514  1.00  0.00    -0.352 N 
ATOM     29  C   UNL A   1      39.020  21.231  26.017  1.00  0.00     0.251 C 
ATOM     30  H   UNL A   1      37.456  20.234  25.252  1.00  0.00     0.163 HD
ATOM     31  O   UNL A   1      39.755  20.255  25.999  1.00  0.00    -0.269 OA
BRANCH  29  32
ATOM     32  C   UNL A   1      39.506  22.526  26.543  1.00  0.00     0.039 A 
ATOM     33  C   UNL A   1      40.569  22.517  27.448  1.00  0.00     0.014 A 
ATOM     34  C   UNL A   1      38.934  23.735  26.139  1.00  0.00     0.014 A 
ATOM     35  C   UNL A   1      41.097  23.727  27.901  1.00  0.00     0.010 A 
ATOM     36  C   UNL A   1      39.510  24.940  26.533  1.00  0.00     0.010 A 
ATOM     37  C   UNL A   1      40.597  24.950  27.418  1.00  0.00    -0.014 A 
BRANCH  37  38
ATOM     38  C   UNL A   1      41.240  26.231  27.805  1.00  0.00     0.031 A 
ATOM     39  C   UNL A   1      42.660  26.535  27.413  1.00  0.00     0.074 A 
ATOM     40  C   UNL A   1      40.551  27.104  28.567  1.00  0.00     0.049 A 
ATOM     41  N   UNL A   1      43.359  27.619  27.635  1.00  0.00    -0.248 NA
ATOM     42  C   UNL A   1      43.401  25.481  26.701  1.00  0.00     0.031 C 
ATOM     43  C   UNL A   1      39.203  26.881  29.097  1.00  0.00     0.029 A 
ATOM     44  N   UNL A   1      40.892  28.345  29.041  1.00  0.00    -0.354 N 
ATOM     45  C   UNL A   1      44.623  27.371  27.114  1.00  0.00     0.074 A 
ATOM     46  C   UNL A   1      44.608  26.019  26.600  1.00  0.00     0.031 C 
ATOM     47  C   UNL A   1      38.825  27.958  29.804  1.00  0.00     0.029 A 
ATOM     48  C   UNL A   1      39.908  28.935  29.800  1.00  0.00     0.049 A 
ATOM     49  H   UNL A   1      41.758  28.774  28.855  1.00  0.00     0.167 HD
ATOM     50  C   UNL A   1      45.691  28.203  27.042  1.00  0.00     0.034 A 
ATOM     51  C   UNL A   1      39.878  30.129  30.422  1.00  0.00     0.034 A 
ATOM     52  C   UNL A   1      45.692  29.557  27.531  1.00  0.00     0.049 A 
ATOM     53  C   UNL A   1      41.059  31.051  30.284  1.00  0.00     0.074 A 
ATOM     54  C   UNL A   1      46.691  30.508  27.426  1.00  0.00     0.029 A 
ATOM     55  N   UNL A   1      44.652  30.148  28.232  1.00  0.00    -0.354 N 
ATOM     56  N   UNL A   1      42.180  30.866  29.631  1.00  0.00    -0.248 NA
ATOM     57  C   UNL A   1      40.950  32.365  30.934  1.00  0.00     0.031 C 
ATOM     58  C   UNL A   1      46.267  31.665  28.091  1.00  0.00     0.029 A 
ATOM     59  C   UNL A   1      44.989  31.446  28.580  1.00  0.00     0.049 A 
ATOM     60  H   UNL A   1      43.798  29.709  28.450  1.00  0.00     0.167 HD
ATOM     61  C   UNL A   1      42.900  32.047  29.767  1.00  0.00     0.074 A 
ATOM     62  C   UNL A   1      42.070  32.953  30.534  1.00  0.00     0.031 C 
ATOM     63  C   UNL A   1      44.142  32.350  29.315  1.00  0.00     0.034 A 
BRANCH  50  64
ATOM     64  C   UNL A   1      46.935  27.687  26.365  1.00  0.00     0.023 A 
ATOM     65  C   UNL A   1      47.871  26.936  27.108  1.00  0.00     0.012 A 
ATOM     66  C   UNL A   1      47.150  27.888  24.989  1.00  0.00     0.148 A 
ATOM     67  C   UNL A   1      49.018  26.426  26.499  1.00  0.00     0.002 A 
ATOM     68  C   UNL A   1      48.272  27.336  24.379  1.00  0.00     0.091 A 
ATOM     69  F   UNL A   1      46.262  28.620  24.302  1.00  0.00    -0.205 F 
ATOM     70  C   UNL A   1      49.212  26.616  25.134  1.00  0.00     0.022 A 
BRANCH  68  71
ATOM     71  S   UNL A   1      48.574  27.453  22.612  1.00  0.00     0.127 S 
ATOM     72  O   UNL A   1      49.896  28.077  22.580  1.00  0.00    -0.237 OA
ATOM     73  O   UNL A   1      48.552  26.049  22.203  1.00  0.00    -0.237 OA
ATOM     74  O   UNL A   1      47.490  28.262  22.071  1.00  0.00    -0.744 OA
ENDBRANCH  68  71
ENDBRANCH  50  64
BRANCH  51  75
ATOM     75  C   UNL A   1      38.662  30.549  31.174  1.00  0.00     0.023 A 
ATOM     76  C   UNL A   1      38.572  30.283  32.554  1.00  0.00     0.012 A 
ATOM     77  C   UNL A   1      37.609  31.232  30.535  1.00  0.00     0.148 A 
ATOM     78  C   UNL A   1      37.439  30.655  33.278  1.00  0.00     0.002 A 
ATOM     79  C   UNL A   1      36.509  31.653  31.274  1.00  0.00     0.091 A 
ATOM     80  F   UNL A   1      37.709  31.467  29.220  1.00  0.00    -0.205 F 
ATOM     81  C   UNL A   1      36.413  31.349  32.641  1.00  0.00     0.022 A 
BRANCH  79  82
ATOM     82  S   UNL A   1      35.208  32.668  30.568  1.00  0.00     0.127 S 
ATOM     83  O   UNL A   1      35.926  33.903  30.261  1.00  0.00    -0.237 OA
ATOM     84  O   UNL A   1      34.810  31.879  29.401  1.00  0.00    -0.237 OA
ATOM     85  O   UNL A   1      34.186  32.770  31.599  1.00  0.00    -0.744 OA
ENDBRANCH  79  82
ENDBRANCH  51  75
BRANCH  63  86
ATOM     86  C   UNL A   1      44.672  33.728  29.624  1.00  0.00     0.023 A 
ATOM     87  C   UNL A   1      45.406  33.948  30.808  1.00  0.00     0.012 A 
ATOM     88  C   UNL A   1      44.473  34.795  28.727  1.00  0.00     0.148 A 
ATOM     89  C   UNL A   1      45.887  35.220  31.118  1.00  0.00     0.002 A 
ATOM     90  C   UNL A   1      45.001  36.047  29.018  1.00  0.00     0.091 A 
ATOM     91  F   UNL A   1      43.758  34.574  27.615  1.00  0.00    -0.205 F 
ATOM     92  C   UNL A   1      45.693  36.266  30.221  1.00  0.00     0.022 A 
BRANCH  90  93
ATOM     93  S   UNL A   1      44.883  37.428  27.874  1.00  0.00     0.127 S 
ATOM     94  O   UNL A   1      45.616  38.471  28.590  1.00  0.00    -0.237 OA
ATOM     95  O   UNL A   1      45.565  36.909  26.688  1.00  0.00    -0.237 OA
ATOM     96  O   UNL A   1      43.460  37.674  27.690  1.00  0.00    -0.744 OA
ENDBRANCH  90  93
ENDBRANCH  63  86
ENDBRANCH  37  38
ENDBRANCH  29  32
ENDBRANCH  27  28
ENDBRANCH  26  27
ENDBRANCH   1  26
TORSDOF 18
ENDMDL
MODEL 3
REMARK VINA RESULT:     -12.4      2.600      3.041
REMARK SMILES O=C(CSc1ccc(Cl)cc1)Nc1ccc(C(=O)NCCCCNC(=O)c2ccc(-c3c4nc(c(-c5cccc(S(=O)(=O)[O-])c5F)c5ccc([nH]5)c(-c5cccc(S(=O)(=O)[O-])c5F)c5nc(c(-c6cccc(S(=O)(=O)[O-])c6F)c6ccc3[nH]6)C=C5)C=C4)cc2)cc1
REMARK SMILES IDX 21 1 20 2 19 3 17 4 18 5 16 7 13 8 14 9 91 10 15 11 90 12
REMARK SMILES IDX 12 13 1 14 2 15 3 17 4 18 5 19 6 20 11 21 7 22 10 23 8 24
REMARK SMILES IDX 9 25 22 26 23 27 24 28 25 29 26 31 27 32 28 33 89 34 29 35
REMARK SMILES IDX 88 36 30 37 31 38 32 39 82 40 33 41 87 42 81 43 83 44 34 45
REMARK SMILES IDX 86 46 80 47 79 48 35 50 67 51 47 52 66 53 48 54 51 55 65 56
REMARK SMILES IDX 84 57 49 58 50 59 64 61 85 62 52 63 36 64 37 65 45 66 38 67
REMARK SMILES IDX 40 68 46 69 39 70 41 71 42 72 43 73 44 74 68 75 69 76 77 77
REMARK SMILES IDX 70 78 72 79 78 80 71 81 73 82 74 83 75 84 76 85 53 86 54 87
REMARK SMILES IDX 62 88 55 89 57 90 63 91 56 92 58 93 59 94 60 95 61 96
REMARK H PARENT 19 6 12 16 24 30 83 49 51 60
REMARK Flexibility Score: inf
ROOT
ATOM      1  C   UNL A   1      35.355  21.551  26.127  1.00  0.00     0.023 C 
ENDROOT
BRANCH   1   2
ATOM      2  C   UNL A   1      35.351  20.502  25.013  1.00  0.00     0.116 C 
BRANCH   2   3
ATOM      3  N   UNL A   1      34.233  19.592  25.181  1.00  0.00    -0.352 N 
ATOM      4  C   UNL A   1      32.878  19.757  25.057  1.00  0.00     0.251 C 
ATOM      5  O   UNL A   1      32.162  18.776  25.264  1.00  0.00    -0.269 OA
ATOM      6  H   UNL A   1      34.502  18.679  25.433  1.00  0.00     0.163 HD
BRANCH   4   7
ATOM      7  C   UNL A   1      32.235  21.031  24.620  1.00  0.00     0.039 A 
ATOM      8  C   UNL A   1      31.264  23.491  23.634  1.00  0.00     0.041 A 
ATOM      9  C   UNL A   1      31.736  22.520  22.750  1.00  0.00     0.027 A 
ATOM     10  C   UNL A   1      31.182  23.186  24.991  1.00  0.00     0.027 A 
ATOM     11  C   UNL A   1      32.242  21.311  23.244  1.00  0.00     0.016 A 
ATOM     12  C   UNL A   1      31.625  21.950  25.472  1.00  0.00     0.016 A 
BRANCH   8  13
ATOM     13  N   UNL A   1      30.869  24.737  23.115  1.00  0.00    -0.325 N 
ATOM     14  O   UNL A   1      32.926  25.562  22.424  1.00  0.00    -0.274 OA
ATOM     15  C   UNL A   1      31.717  25.701  22.598  1.00  0.00     0.234 C 
ATOM     16  H   UNL A   1      29.906  24.941  23.121  1.00  0.00     0.169 HD
BRANCH  15  17
ATOM     17  C   UNL A   1      31.066  27.043  22.308  1.00  0.00     0.175 C 
BRANCH  17  18
ATOM     18  S   UNL A   1      30.062  27.701  23.680  1.00  0.00    -0.116 SA
BRANCH  18  19
ATOM     19  C   UNL A   1      31.337  28.232  24.806  1.00  0.00     0.008 A 
ATOM     20  C   UNL A   1      31.460  27.578  26.038  1.00  0.00     0.016 A 
ATOM     21  C   UNL A   1      32.253  29.233  24.466  1.00  0.00     0.016 A 
ATOM     22  C   UNL A   1      32.479  27.929  26.927  1.00  0.00     0.021 A 
ATOM     23  C   UNL A   1      33.278  29.581  25.352  1.00  0.00     0.021 A 
ATOM     24  C   UNL A   1      33.386  28.925  26.578  1.00  0.00     0.041 A 
ATOM     25  Cl  UNL A   1      34.662  29.334  27.658  1.00  0.00    -0.084 Cl
ENDBRANCH  18  19
ENDBRANCH  17  18
ENDBRANCH  15  17
ENDBRANCH   8  13
ENDBRANCH   4   7
ENDBRANCH   2   3
ENDBRANCH   1   2
BRANCH   1  26
ATOM     26  C   UNL A   1      35.715  22.962  25.649  1.00  0.00     0.023 C 
BRANCH  26  27
ATOM     27  C   UNL A   1      37.102  23.446  26.063  1.00  0.00     0.116 C 
BRANCH  27  28
ATOM     28  N   UNL A   1      38.077  22.370  26.159  1.00  0.00    -0.352 N 
ATOM     29  C   UNL A   1      39.409  22.434  26.493  1.00  0.00     0.251 C 
ATOM     30  H   UNL A   1      37.734  21.469  25.956  1.00  0.00     0.163 HD
ATOM     31  O   UNL A   1      40.110  21.436  26.403  1.00  0.00    -0.269 OA
BRANCH  29  32
ATOM     32  C   UNL A   1      39.993  23.724  26.924  1.00  0.00     0.039 A 
ATOM     33  C   UNL A   1      39.942  24.803  26.040  1.00  0.00     0.014 A 
ATOM     34  C   UNL A   1      40.570  23.873  28.188  1.00  0.00     0.014 A 
ATOM     35  C   UNL A   1      40.416  26.051  26.450  1.00  0.00     0.010 A 
ATOM     36  C   UNL A   1      40.973  25.134  28.620  1.00  0.00     0.010 A 
ATOM     37  C   UNL A   1      40.902  26.236  27.756  1.00  0.00    -0.014 A 
BRANCH  37  38
ATOM     38  C   UNL A   1      41.290  27.589  28.230  1.00  0.00     0.031 A 
ATOM     39  C   UNL A   1      42.730  28.021  28.246  1.00  0.00     0.074 A 
ATOM     40  C   UNL A   1      40.335  28.414  28.703  1.00  0.00     0.049 A 
ATOM     41  N   UNL A   1      43.237  29.177  28.589  1.00  0.00    -0.248 NA
ATOM     42  C   UNL A   1      43.736  27.023  27.846  1.00  0.00     0.031 C 
ATOM     43  C   UNL A   1      38.915  28.075  28.835  1.00  0.00     0.029 A 
ATOM     44  N   UNL A   1      40.412  29.700  29.174  1.00  0.00    -0.354 N 
ATOM     45  C   UNL A   1      44.614  29.040  28.473  1.00  0.00     0.074 A 
ATOM     46  C   UNL A   1      44.869  27.677  28.064  1.00  0.00     0.031 C 
ATOM     47  C   UNL A   1      38.254  29.132  29.331  1.00  0.00     0.029 A 
ATOM     48  C   UNL A   1      39.202  30.214  29.577  1.00  0.00     0.049 A 
ATOM     49  H   UNL A   1      41.254  30.208  29.219  1.00  0.00     0.167 HD
ATOM     50  C   UNL A   1      45.580  29.973  28.659  1.00  0.00     0.034 A 
ATOM     51  C   UNL A   1      38.888  31.420  30.086  1.00  0.00     0.034 A 
ATOM     52  C   UNL A   1      45.321  31.337  29.040  1.00  0.00     0.049 A 
ATOM     53  C   UNL A   1      39.972  32.452  30.237  1.00  0.00     0.074 A 
ATOM     54  C   UNL A   1      46.220  32.381  29.167  1.00  0.00     0.029 A 
ATOM     55  N   UNL A   1      44.073  31.845  29.371  1.00  0.00    -0.354 N 
ATOM     56  N   UNL A   1      41.247  32.358  29.948  1.00  0.00    -0.248 NA
ATOM     57  C   UNL A   1      39.564  33.770  30.742  1.00  0.00     0.031 C 
ATOM     58  C   UNL A   1      45.521  33.512  29.605  1.00  0.00     0.029 A 
ATOM     59  C   UNL A   1      44.180  33.182  29.717  1.00  0.00     0.049 A 
ATOM     60  H   UNL A   1      43.234  31.330  29.361  1.00  0.00     0.167 HD
ATOM     61  C   UNL A   1      41.790  33.610  30.210  1.00  0.00     0.074 A 
ATOM     62  C   UNL A   1      40.697  34.455  30.645  1.00  0.00     0.031 C 
ATOM     63  C   UNL A   1      43.080  34.021  30.117  1.00  0.00     0.034 A 
BRANCH  50  64
ATOM     64  C   UNL A   1      47.008  29.563  28.405  1.00  0.00     0.023 A 
ATOM     65  C   UNL A   1      47.570  29.755  27.125  1.00  0.00     0.012 A 
ATOM     66  C   UNL A   1      47.812  29.048  29.440  1.00  0.00     0.148 A 
ATOM     67  C   UNL A   1      48.897  29.407  26.870  1.00  0.00     0.002 A 
ATOM     68  C   UNL A   1      49.147  28.748  29.190  1.00  0.00     0.091 A 
ATOM     69  F   UNL A   1      47.258  28.854  30.645  1.00  0.00    -0.205 F 
ATOM     70  C   UNL A   1      49.687  28.915  27.904  1.00  0.00     0.022 A 
BRANCH  68  71
ATOM     71  S   UNL A   1      50.272  28.186  30.473  1.00  0.00     0.127 S 
ATOM     72  O   UNL A   1      49.676  26.905  30.847  1.00  0.00    -0.237 OA
ATOM     73  O   UNL A   1      51.538  28.080  29.746  1.00  0.00    -0.237 OA
ATOM     74  O   UNL A   1      50.248  29.211  31.507  1.00  0.00    -0.744 OA
ENDBRANCH  68  71
ENDBRANCH  50  64
BRANCH  51  75
ATOM     75  C   UNL A   1      37.473  31.741  30.427  1.00  0.00     0.023 A 
ATOM     76  C   UNL A   1      36.985  31.449  31.716  1.00  0.00     0.012 A 
ATOM     77  C   UNL A   1      36.619  32.357  29.492  1.00  0.00     0.148 A 
ATOM     78  C   UNL A   1      35.660  31.728  32.055  1.00  0.00     0.002 A 
ATOM     79  C   UNL A   1      35.319  32.688  29.856  1.00  0.00     0.091 A 
ATOM     80  F   UNL A   1      37.100  32.618  28.268  1.00  0.00    -0.205 F 
ATOM     81  C   UNL A   1      34.831  32.357  31.129  1.00  0.00     0.022 A 
BRANCH  79  82
ATOM     82  S   UNL A   1      34.226  33.619  28.777  1.00  0.00     0.127 S 
ATOM     83  O   UNL A   1      33.289  34.203  29.733  1.00  0.00    -0.237 OA
ATOM     84  O   UNL A   1      35.152  34.570  28.160  1.00  0.00    -0.237 OA
ATOM     85  O   UNL A   1      33.663  32.645  27.852  1.00  0.00    -0.744 OA
ENDBRANCH  79  82
ENDBRANCH  51  75
BRANCH  63  86
ATOM     86  C   UNL A   1      43.374  35.456  30.477  1.00  0.00     0.023 A 
ATOM     87  C   UNL A   1      43.803  35.779  31.781  1.00  0.00     0.012 A 
ATOM     88  C   UNL A   1      43.259  36.479  29.516  1.00  0.00     0.148 A 
ATOM     89  C   UNL A   1      44.061  37.103  32.136  1.00  0.00     0.002 A 
ATOM     90  C   UNL A   1      43.570  37.788  29.863  1.00  0.00     0.091 A 
ATOM     91  F   UNL A   1      42.833  36.158  28.286  1.00  0.00    -0.205 F 
ATOM     92  C   UNL A   1      43.954  38.105  31.176  1.00  0.00     0.022 A 
BRANCH  90  93
ATOM     93  S   UNL A   1      43.553  39.128  28.665  1.00  0.00     0.127 S 
ATOM     94  O   UNL A   1      42.135  39.202  28.321  1.00  0.00    -0.237 OA
ATOM     95  O   UNL A   1      44.048  40.257  29.455  1.00  0.00    -0.237 OA
ATOM     96  O   UNL A   1      44.441  38.712  27.589  1.00  0.00    -0.744 OA
ENDBRANCH  90  93
ENDBRANCH  63  86
ENDBRANCH  37  38
ENDBRANCH  29  32
ENDBRANCH  27  28
ENDBRANCH  26  27
ENDBRANCH   1  26
TORSDOF 18
ENDMDL
