MODEL 1
REMARK VINA RESULT:     -11.9      0.000      0.000
REMARK SMILES CC(C)(C)OC(=O)N1CCC(c2c(C(=O)NCCCCNC(=O)c3ccc(-c4c5nc(c(-c6cccc(S(=O)(=O)[O-])c6F)c6ccc([nH]6)c(-c6cccc(S(=O)(=O)[O-])c6F)c6nc(c(-c7cccc(S(=O)(=O)[O-])c7F)c7ccc4[nH]7)C=C6)C=C5)cc3)cnn2-c2ccccc2)CC1
REMARK SMILES IDX 18 1 17 2 16 3 14 4 15 5 13 7 12 8 89 9 87 10 88 11 11 12
REMARK SMILES IDX 6 13 7 14 8 15 9 16 97 17 10 18 96 19 5 20 2 21 1 22 3 23
REMARK SMILES IDX 4 24 90 25 91 26 95 27 92 28 94 29 93 30 19 31 20 32 21 33
REMARK SMILES IDX 22 34 23 36 24 37 25 38 86 39 26 40 85 41 27 42 28 43 29 44
REMARK SMILES IDX 79 45 30 46 84 47 78 48 80 49 31 50 83 51 77 52 76 53 32 55
REMARK SMILES IDX 64 56 44 57 63 58 45 59 48 60 62 61 81 62 46 63 47 64 61 66
REMARK SMILES IDX 82 67 49 68 33 69 34 70 42 71 35 72 37 73 43 74 36 75 38 76
REMARK SMILES IDX 39 77 40 78 41 79 65 80 66 81 74 82 67 83 69 84 75 85 68 86
REMARK SMILES IDX 70 87 71 88 72 89 73 90 50 91 51 92 59 93 52 94 54 95 60 96
REMARK SMILES IDX 53 97 55 98 56 99 57 100 58 101
REMARK H PARENT 16 6 21 35 80 54 48 65
REMARK Flexibility Score: inf
ROOT
ATOM      1  C   UNL A   1      39.689  21.775  26.079  1.00  0.00     0.023 C 
ENDROOT
BRANCH   1   2
ATOM      2  C   UNL A   1      38.358  22.526  25.997  1.00  0.00     0.116 C 
BRANCH   2   3
ATOM      3  N   UNL A   1      37.860  22.662  24.644  1.00  0.00    -0.352 N 
ATOM      4  C   UNL A   1      36.622  22.727  24.058  1.00  0.00     0.254 C 
ATOM      5  O   UNL A   1      36.645  22.825  22.830  1.00  0.00    -0.269 OA
ATOM      6  H   UNL A   1      38.588  22.724  23.985  1.00  0.00     0.163 HD
BRANCH   4   7
ATOM      7  C   UNL A   1      35.352  22.644  24.793  1.00  0.00     0.081 A 
ATOM      8  C   UNL A   1      34.275  23.564  24.698  1.00  0.00     0.060 A 
ATOM      9  N   UNL A   1      33.333  23.128  25.625  1.00  0.00    -0.237 N 
ATOM     10  C   UNL A   1      34.921  21.736  25.775  1.00  0.00     0.149 A 
ATOM     11  N   UNL A   1      33.731  22.020  26.287  1.00  0.00    -0.175 NA
BRANCH   8  12
ATOM     12  C   UNL A   1      34.232  24.844  23.848  1.00  0.00     0.043 C 
ATOM     13  C   UNL A   1      31.712  27.567  22.337  1.00  0.00     0.410 C 
ATOM     14  O   UNL A   1      30.806  26.940  21.781  1.00  0.00    -0.224 OA
ATOM     15  N   UNL A   1      32.986  27.060  22.477  1.00  0.00    -0.308 N 
ATOM     16  C   UNL A   1      33.340  25.861  21.742  1.00  0.00     0.124 C 
ATOM     17  C   UNL A   1      33.903  27.392  23.565  1.00  0.00     0.124 C 
ATOM     18  C   UNL A   1      33.241  24.667  22.678  1.00  0.00     0.032 C 
ATOM     19  C   UNL A   1      33.968  26.202  24.546  1.00  0.00     0.032 C 
BRANCH  13  20
ATOM     20  O   UNL A   1      31.567  28.830  22.815  1.00  0.00    -0.444 OA
BRANCH  20  21
ATOM     21  C   UNL A   1      30.553  29.098  23.822  1.00  0.00     0.106 C 
ATOM     22  C   UNL A   1      31.309  29.705  25.014  1.00  0.00     0.056 C 
ATOM     23  C   UNL A   1      29.890  27.791  24.271  1.00  0.00     0.056 C 
ATOM     24  C   UNL A   1      29.508  30.134  23.367  1.00  0.00     0.056 C 
ENDBRANCH  20  21
ENDBRANCH  13  20
ENDBRANCH   8  12
BRANCH   9  25
ATOM     25  C   UNL A   1      32.074  23.647  25.992  1.00  0.00     0.065 A 
ATOM     26  C   UNL A   1      30.998  22.755  26.100  1.00  0.00     0.028 A 
ATOM     27  C   UNL A   1      31.883  25.020  26.160  1.00  0.00     0.028 A 
ATOM     28  C   UNL A   1      29.744  23.232  26.474  1.00  0.00     0.002 A 
ATOM     29  C   UNL A   1      30.620  25.489  26.532  1.00  0.00     0.002 A 
ATOM     30  C   UNL A   1      29.559  24.595  26.702  1.00  0.00     0.000 A 
ENDBRANCH   9  25
ENDBRANCH   4   7
ENDBRANCH   2   3
ENDBRANCH   1   2
BRANCH   1  31
ATOM     31  C   UNL A   1      39.650  20.290  25.678  1.00  0.00     0.023 C 
BRANCH  31  32
ATOM     32  C   UNL A   1      40.410  19.339  26.600  1.00  0.00     0.116 C 
BRANCH  32  33
ATOM     33  N   UNL A   1      41.606  18.762  25.978  1.00  0.00    -0.352 N 
ATOM     34  C   UNL A   1      42.738  19.423  25.537  1.00  0.00     0.251 C 
ATOM     35  H   UNL A   1      41.602  17.784  25.860  1.00  0.00     0.163 HD
ATOM     36  O   UNL A   1      43.489  18.912  24.716  1.00  0.00    -0.269 OA
BRANCH  34  37
ATOM     37  C   UNL A   1      43.032  20.758  26.085  1.00  0.00     0.039 A 
ATOM     38  C   UNL A   1      43.397  21.827  25.262  1.00  0.00     0.014 A 
ATOM     39  C   UNL A   1      42.887  20.929  27.457  1.00  0.00     0.014 A 
ATOM     40  C   UNL A   1      43.522  23.096  25.823  1.00  0.00     0.010 A 
ATOM     41  C   UNL A   1      42.863  22.195  27.981  1.00  0.00     0.010 A 
ATOM     42  C   UNL A   1      43.233  23.275  27.182  1.00  0.00    -0.014 A 
BRANCH  42  43
ATOM     43  C   UNL A   1      43.200  24.607  27.778  1.00  0.00     0.031 A 
ATOM     44  C   UNL A   1      41.869  25.281  27.766  1.00  0.00     0.074 A 
ATOM     45  C   UNL A   1      44.223  25.056  28.540  1.00  0.00     0.049 A 
ATOM     46  N   UNL A   1      41.565  26.417  27.228  1.00  0.00    -0.248 NA
ATOM     47  C   UNL A   1      40.711  24.563  28.324  1.00  0.00     0.031 C 
ATOM     48  C   UNL A   1      45.447  24.330  28.907  1.00  0.00     0.029 A 
ATOM     49  N   UNL A   1      44.284  26.165  29.326  1.00  0.00    -0.354 N 
ATOM     50  C   UNL A   1      40.237  26.661  27.577  1.00  0.00     0.074 A 
ATOM     51  C   UNL A   1      39.715  25.413  28.066  1.00  0.00     0.031 C 
ATOM     52  C   UNL A   1      45.942  24.850  30.049  1.00  0.00     0.029 A 
ATOM     53  C   UNL A   1      45.174  26.032  30.389  1.00  0.00     0.049 A 
ATOM     54  H   UNL A   1      43.755  26.978  29.160  1.00  0.00     0.167 HD
ATOM     55  C   UNL A   1      39.747  27.931  27.672  1.00  0.00     0.034 A 
ATOM     56  C   UNL A   1      45.205  26.779  31.520  1.00  0.00     0.034 A 
ATOM     57  C   UNL A   1      40.642  28.887  27.070  1.00  0.00     0.049 A 
ATOM     58  C   UNL A   1      44.498  28.048  31.226  1.00  0.00     0.074 A 
ATOM     59  C   UNL A   1      41.225  29.028  25.826  1.00  0.00     0.029 A 
ATOM     60  N   UNL A   1      41.379  29.679  27.920  1.00  0.00    -0.354 N 
ATOM     61  N   UNL A   1      44.928  28.923  30.358  1.00  0.00    -0.248 NA
ATOM     62  C   UNL A   1      43.082  28.130  31.548  1.00  0.00     0.031 C 
ATOM     63  C   UNL A   1      42.557  29.458  26.101  1.00  0.00     0.029 A 
ATOM     64  C   UNL A   1      42.674  29.631  27.482  1.00  0.00     0.049 A 
ATOM     65  H   UNL A   1      41.039  30.184  28.693  1.00  0.00     0.167 HD
ATOM     66  C   UNL A   1      43.781  29.325  29.683  1.00  0.00     0.074 A 
ATOM     67  C   UNL A   1      42.671  28.894  30.533  1.00  0.00     0.031 C 
ATOM     68  C   UNL A   1      43.820  29.684  28.363  1.00  0.00     0.034 A 
BRANCH  55  69
ATOM     69  C   UNL A   1      38.654  28.388  28.616  1.00  0.00     0.023 A 
ATOM     70  C   UNL A   1      37.600  29.151  28.061  1.00  0.00     0.012 A 
ATOM     71  C   UNL A   1      38.747  28.363  30.026  1.00  0.00     0.148 A 
ATOM     72  C   UNL A   1      36.734  29.906  28.860  1.00  0.00     0.002 A 
ATOM     73  C   UNL A   1      37.831  29.048  30.818  1.00  0.00     0.091 A 
ATOM     74  F   UNL A   1      39.798  27.794  30.620  1.00  0.00    -0.205 F 
ATOM     75  C   UNL A   1      36.846  29.851  30.241  1.00  0.00     0.022 A 
BRANCH  73  76
ATOM     76  S   UNL A   1      37.899  28.964  32.613  1.00  0.00     0.127 S 
ATOM     77  O   UNL A   1      39.173  29.621  32.888  1.00  0.00    -0.237 OA
ATOM     78  O   UNL A   1      36.711  29.726  32.995  1.00  0.00    -0.237 OA
ATOM     79  O   UNL A   1      37.825  27.544  32.936  1.00  0.00    -0.744 OA
ENDBRANCH  73  76
ENDBRANCH  55  69
BRANCH  56  80
ATOM     80  C   UNL A   1      45.561  26.346  32.893  1.00  0.00     0.023 A 
ATOM     81  C   UNL A   1      46.516  27.065  33.636  1.00  0.00     0.012 A 
ATOM     82  C   UNL A   1      44.801  25.364  33.571  1.00  0.00     0.148 A 
ATOM     83  C   UNL A   1      46.698  26.822  35.005  1.00  0.00     0.002 A 
ATOM     84  C   UNL A   1      45.006  25.104  34.922  1.00  0.00     0.091 A 
ATOM     85  F   UNL A   1      43.805  24.747  32.919  1.00  0.00    -0.205 F 
ATOM     86  C   UNL A   1      45.947  25.841  35.649  1.00  0.00     0.022 A 
BRANCH  84  87
ATOM     87  S   UNL A   1      44.069  23.836  35.788  1.00  0.00     0.127 S 
ATOM     88  O   UNL A   1      44.413  22.629  35.034  1.00  0.00    -0.237 OA
ATOM     89  O   UNL A   1      44.637  23.901  37.131  1.00  0.00    -0.237 OA
ATOM     90  O   UNL A   1      42.671  24.234  35.662  1.00  0.00    -0.744 OA
ENDBRANCH  84  87
ENDBRANCH  56  80
BRANCH  68  91
ATOM     91  C   UNL A   1      45.158  29.865  27.690  1.00  0.00     0.023 A 
ATOM     92  C   UNL A   1      45.925  31.041  27.837  1.00  0.00     0.012 A 
ATOM     93  C   UNL A   1      45.750  28.749  27.074  1.00  0.00     0.148 A 
ATOM     94  C   UNL A   1      47.239  31.107  27.369  1.00  0.00     0.002 A 
ATOM     95  C   UNL A   1      47.073  28.801  26.652  1.00  0.00     0.091 A 
ATOM     96  F   UNL A   1      45.015  27.634  26.941  1.00  0.00    -0.205 F 
ATOM     97  C   UNL A   1      47.819  29.982  26.790  1.00  0.00     0.022 A 
BRANCH  95  98
ATOM     98  S   UNL A   1      47.912  27.344  26.027  1.00  0.00     0.127 S 
ATOM     99  O   UNL A   1      47.162  27.062  24.803  1.00  0.00    -0.237 OA
ATOM    100  O   UNL A   1      49.275  27.830  25.810  1.00  0.00    -0.237 OA
ATOM    101  O   UNL A   1      47.802  26.340  27.078  1.00  0.00    -0.744 OA
ENDBRANCH  95  98
ENDBRANCH  68  91
ENDBRANCH  42  43
ENDBRANCH  34  37
ENDBRANCH  32  33
ENDBRANCH  31  32
ENDBRANCH   1  31
TORSDOF 18
ENDMDL
MODEL 2
REMARK VINA RESULT:     -11.6      3.952      7.842
REMARK SMILES CC(C)(C)OC(=O)N1CCC(c2c(C(=O)NCCCCNC(=O)c3ccc(-c4c5nc(c(-c6cccc(S(=O)(=O)[O-])c6F)c6ccc([nH]6)c(-c6cccc(S(=O)(=O)[O-])c6F)c6nc(c(-c7cccc(S(=O)(=O)[O-])c7F)c7ccc4[nH]7)C=C6)C=C5)cc3)cnn2-c2ccccc2)CC1
REMARK SMILES IDX 18 1 17 2 16 3 14 4 15 5 13 7 12 8 89 9 87 10 88 11 11 12
REMARK SMILES IDX 6 13 7 14 8 15 9 16 97 17 10 18 96 19 5 20 2 21 1 22 3 23
REMARK SMILES IDX 4 24 90 25 91 26 95 27 92 28 94 29 93 30 19 31 20 32 21 33
REMARK SMILES IDX 22 34 23 36 24 37 25 38 86 39 26 40 85 41 27 42 28 43 29 44
REMARK SMILES IDX 79 45 30 46 84 47 78 48 80 49 31 50 83 51 77 52 76 53 32 55
REMARK SMILES IDX 64 56 44 57 63 58 45 59 48 60 62 61 81 62 46 63 47 64 61 66
REMARK SMILES IDX 82 67 49 68 33 69 34 70 42 71 35 72 37 73 43 74 36 75 38 76
REMARK SMILES IDX 39 77 40 78 41 79 65 80 66 81 74 82 67 83 69 84 75 85 68 86
REMARK SMILES IDX 70 87 71 88 72 89 73 90 50 91 51 92 59 93 52 94 54 95 60 96
REMARK SMILES IDX 53 97 55 98 56 99 57 100 58 101
REMARK H PARENT 16 6 21 35 80 54 48 65
REMARK Flexibility Score: inf
ROOT
ATOM      1  C   UNL A   1      38.768  23.915  26.580  1.00  0.00     0.023 C 
ENDROOT
BRANCH   1   2
ATOM      2  C   UNL A   1      37.241  23.826  26.580  1.00  0.00     0.116 C 
BRANCH   2   3
ATOM      3  N   UNL A   1      36.656  24.018  25.269  1.00  0.00    -0.352 N 
ATOM      4  C   UNL A   1      36.087  23.206  24.321  1.00  0.00     0.254 C 
ATOM      5  O   UNL A   1      35.725  23.793  23.300  1.00  0.00    -0.269 OA
ATOM      6  H   UNL A   1      36.669  24.962  24.992  1.00  0.00     0.163 HD
BRANCH   4   7
ATOM      7  C   UNL A   1      35.947  21.749  24.455  1.00  0.00     0.081 A 
ATOM      8  C   UNL A   1      34.724  21.029  24.460  1.00  0.00     0.060 A 
ATOM      9  N   UNL A   1      35.076  19.702  24.690  1.00  0.00    -0.237 N 
ATOM     10  C   UNL A   1      36.914  20.753  24.672  1.00  0.00     0.149 A 
ATOM     11  N   UNL A   1      36.408  19.537  24.827  1.00  0.00    -0.175 NA
BRANCH   8  12
ATOM     12  C   UNL A   1      33.308  21.622  24.371  1.00  0.00     0.043 C 
ATOM     13  C   UNL A   1      31.290  25.074  24.627  1.00  0.00     0.410 C 
ATOM     14  O   UNL A   1      31.661  25.623  25.668  1.00  0.00    -0.224 OA
ATOM     15  N   UNL A   1      31.309  23.705  24.464  1.00  0.00    -0.308 N 
ATOM     16  C   UNL A   1      31.541  22.872  25.628  1.00  0.00     0.124 C 
ATOM     17  C   UNL A   1      31.483  23.018  23.187  1.00  0.00     0.124 C 
ATOM     18  C   UNL A   1      33.000  22.445  25.640  1.00  0.00     0.032 C 
ATOM     19  C   UNL A   1      32.914  22.443  23.117  1.00  0.00     0.032 C 
BRANCH  13  20
ATOM     20  O   UNL A   1      30.780  25.747  23.564  1.00  0.00    -0.444 OA
BRANCH  20  21
ATOM     21  C   UNL A   1      31.642  26.640  22.805  1.00  0.00     0.106 C 
ATOM     22  C   UNL A   1      31.765  26.005  21.411  1.00  0.00     0.056 C 
ATOM     23  C   UNL A   1      33.034  26.705  23.444  1.00  0.00     0.056 C 
ATOM     24  C   UNL A   1      31.040  28.045  22.617  1.00  0.00     0.056 C 
ENDBRANCH  20  21
ENDBRANCH  13  20
ENDBRANCH   8  12
BRANCH   9  25
ATOM     25  C   UNL A   1      34.293  18.537  24.817  1.00  0.00     0.065 A 
ATOM     26  C   UNL A   1      34.691  17.393  24.111  1.00  0.00     0.028 A 
ATOM     27  C   UNL A   1      33.108  18.543  25.556  1.00  0.00     0.028 A 
ATOM     28  C   UNL A   1      33.948  16.220  24.225  1.00  0.00     0.002 A 
ATOM     29  C   UNL A   1      32.367  17.363  25.662  1.00  0.00     0.002 A 
ATOM     30  C   UNL A   1      32.795  16.202  25.010  1.00  0.00     0.000 A 
ENDBRANCH   9  25
ENDBRANCH   4   7
ENDBRANCH   2   3
ENDBRANCH   1   2
BRANCH   1  31
ATOM     31  C   UNL A   1      39.520  22.574  26.518  1.00  0.00     0.023 C 
BRANCH  31  32
ATOM     32  C   UNL A   1      40.913  22.571  27.144  1.00  0.00     0.116 C 
BRANCH  32  33
ATOM     33  N   UNL A   1      41.982  22.854  26.181  1.00  0.00    -0.352 N 
ATOM     34  C   UNL A   1      42.527  24.082  25.853  1.00  0.00     0.251 C 
ATOM     35  H   UNL A   1      42.357  22.075  25.710  1.00  0.00     0.163 HD
ATOM     36  O   UNL A   1      43.128  24.246  24.798  1.00  0.00    -0.269 OA
BRANCH  34  37
ATOM     37  C   UNL A   1      42.381  25.195  26.807  1.00  0.00     0.039 A 
ATOM     38  C   UNL A   1      43.127  25.256  27.986  1.00  0.00     0.014 A 
ATOM     39  C   UNL A   1      41.499  26.214  26.465  1.00  0.00     0.014 A 
ATOM     40  C   UNL A   1      43.048  26.402  28.775  1.00  0.00     0.010 A 
ATOM     41  C   UNL A   1      41.533  27.396  27.156  1.00  0.00     0.010 A 
ATOM     42  C   UNL A   1      42.262  27.478  28.341  1.00  0.00    -0.014 A 
BRANCH  42  43
ATOM     43  C   UNL A   1      42.270  28.753  29.050  1.00  0.00     0.031 A 
ATOM     44  C   UNL A   1      43.312  29.725  28.610  1.00  0.00     0.074 A 
ATOM     45  C   UNL A   1      41.229  29.123  29.830  1.00  0.00     0.049 A 
ATOM     46  N   UNL A   1      44.243  30.263  29.328  1.00  0.00    -0.248 NA
ATOM     47  C   UNL A   1      43.401  30.062  27.180  1.00  0.00     0.031 C 
ATOM     48  C   UNL A   1      39.980  28.383  30.062  1.00  0.00     0.029 A 
ATOM     49  N   UNL A   1      40.971  30.332  30.399  1.00  0.00    -0.354 N 
ATOM     50  C   UNL A   1      44.889  31.176  28.495  1.00  0.00     0.074 A 
ATOM     51  C   UNL A   1      44.468  30.863  27.155  1.00  0.00     0.031 C 
ATOM     52  C   UNL A   1      39.013  29.252  30.423  1.00  0.00     0.029 A 
ATOM     53  C   UNL A   1      39.613  30.560  30.607  1.00  0.00     0.049 A 
ATOM     54  H   UNL A   1      41.672  30.980  30.639  1.00  0.00     0.167 HD
ATOM     55  C   UNL A   1      45.521  32.277  28.997  1.00  0.00     0.034 A 
ATOM     56  C   UNL A   1      39.011  31.758  30.811  1.00  0.00     0.034 A 
ATOM     57  C   UNL A   1      45.700  32.175  30.423  1.00  0.00     0.049 A 
ATOM     58  C   UNL A   1      40.058  32.699  31.277  1.00  0.00     0.074 A 
ATOM     59  C   UNL A   1      46.282  31.251  31.270  1.00  0.00     0.029 A 
ATOM     60  N   UNL A   1      44.880  32.944  31.216  1.00  0.00    -0.354 N 
ATOM     61  N   UNL A   1      40.692  32.561  32.409  1.00  0.00    -0.248 NA
ATOM     62  C   UNL A   1      40.726  33.522  30.280  1.00  0.00     0.031 C 
ATOM     63  C   UNL A   1      45.394  31.178  32.384  1.00  0.00     0.029 A 
ATOM     64  C   UNL A   1      44.381  32.118  32.186  1.00  0.00     0.049 A 
ATOM     65  H   UNL A   1      44.691  33.903  31.108  1.00  0.00     0.167 HD
ATOM     66  C   UNL A   1      42.013  32.860  32.099  1.00  0.00     0.074 A 
ATOM     67  C   UNL A   1      41.952  33.554  30.811  1.00  0.00     0.031 C 
ATOM     68  C   UNL A   1      43.054  32.251  32.745  1.00  0.00     0.034 A 
BRANCH  55  69
ATOM     69  C   UNL A   1      45.658  33.612  28.297  1.00  0.00     0.023 A 
ATOM     70  C   UNL A   1      46.959  34.161  28.204  1.00  0.00     0.012 A 
ATOM     71  C   UNL A   1      44.581  34.475  27.991  1.00  0.00     0.148 A 
ATOM     72  C   UNL A   1      47.173  35.510  27.898  1.00  0.00     0.002 A 
ATOM     73  C   UNL A   1      44.804  35.793  27.606  1.00  0.00     0.091 A 
ATOM     74  F   UNL A   1      43.324  34.080  28.201  1.00  0.00    -0.205 F 
ATOM     75  C   UNL A   1      46.093  36.327  27.594  1.00  0.00     0.022 A 
BRANCH  73  76
ATOM     76  S   UNL A   1      43.444  36.876  27.147  1.00  0.00     0.127 S 
ATOM     77  O   UNL A   1      42.732  37.004  28.414  1.00  0.00    -0.237 OA
ATOM     78  O   UNL A   1      44.153  38.078  26.707  1.00  0.00    -0.237 OA
ATOM     79  O   UNL A   1      42.738  36.178  26.079  1.00  0.00    -0.744 OA
ENDBRANCH  73  76
ENDBRANCH  55  69
BRANCH  56  80
ATOM     80  C   UNL A   1      37.666  32.193  30.365  1.00  0.00     0.023 A 
ATOM     81  C   UNL A   1      37.135  31.716  29.152  1.00  0.00     0.012 A 
ATOM     82  C   UNL A   1      36.798  32.896  31.233  1.00  0.00     0.148 A 
ATOM     83  C   UNL A   1      35.788  31.921  28.822  1.00  0.00     0.002 A 
ATOM     84  C   UNL A   1      35.470  33.125  30.889  1.00  0.00     0.091 A 
ATOM     85  F   UNL A   1      37.243  33.259  32.444  1.00  0.00    -0.205 F 
ATOM     86  C   UNL A   1      34.955  32.628  29.688  1.00  0.00     0.022 A 
BRANCH  84  87
ATOM     87  S   UNL A   1      34.365  34.046  31.970  1.00  0.00     0.127 S 
ATOM     88  O   UNL A   1      33.349  34.530  31.034  1.00  0.00    -0.237 OA
ATOM     89  O   UNL A   1      33.906  33.010  32.890  1.00  0.00    -0.237 OA
ATOM     90  O   UNL A   1      35.185  35.103  32.552  1.00  0.00    -0.744 OA
ENDBRANCH  84  87
ENDBRANCH  56  80
BRANCH  68  91
ATOM     91  C   UNL A   1      42.769  31.413  33.967  1.00  0.00     0.023 A 
ATOM     92  C   UNL A   1      42.546  31.982  35.239  1.00  0.00     0.012 A 
ATOM     93  C   UNL A   1      42.509  30.043  33.788  1.00  0.00     0.148 A 
ATOM     94  C   UNL A   1      42.092  31.204  36.307  1.00  0.00     0.002 A 
ATOM     95  C   UNL A   1      42.012  29.281  34.839  1.00  0.00     0.091 A 
ATOM     96  F   UNL A   1      42.720  29.510  32.574  1.00  0.00    -0.205 F 
ATOM     97  C   UNL A   1      41.810  29.856  36.103  1.00  0.00     0.022 A 
BRANCH  95  98
ATOM     98  S   UNL A   1      41.502  27.578  34.598  1.00  0.00     0.127 S 
ATOM     99  O   UNL A   1      41.156  27.168  35.957  1.00  0.00    -0.237 OA
ATOM    100  O   UNL A   1      40.362  27.713  33.690  1.00  0.00    -0.237 OA
ATOM    101  O   UNL A   1      42.650  26.899  34.008  1.00  0.00    -0.744 OA
ENDBRANCH  95  98
ENDBRANCH  68  91
ENDBRANCH  42  43
ENDBRANCH  34  37
ENDBRANCH  32  33
ENDBRANCH  31  32
ENDBRANCH   1  31
TORSDOF 18
ENDMDL
MODEL 3
REMARK VINA RESULT:     -11.1      2.896      7.070
REMARK SMILES CC(C)(C)OC(=O)N1CCC(c2c(C(=O)NCCCCNC(=O)c3ccc(-c4c5nc(c(-c6cccc(S(=O)(=O)[O-])c6F)c6ccc([nH]6)c(-c6cccc(S(=O)(=O)[O-])c6F)c6nc(c(-c7cccc(S(=O)(=O)[O-])c7F)c7ccc4[nH]7)C=C6)C=C5)cc3)cnn2-c2ccccc2)CC1
REMARK SMILES IDX 18 1 17 2 16 3 14 4 15 5 13 7 12 8 89 9 87 10 88 11 11 12
REMARK SMILES IDX 6 13 7 14 8 15 9 16 97 17 10 18 96 19 5 20 2 21 1 22 3 23
REMARK SMILES IDX 4 24 90 25 91 26 95 27 92 28 94 29 93 30 19 31 20 32 21 33
REMARK SMILES IDX 22 34 23 36 24 37 25 38 86 39 26 40 85 41 27 42 28 43 29 44
REMARK SMILES IDX 79 45 30 46 84 47 78 48 80 49 31 50 83 51 77 52 76 53 32 55
REMARK SMILES IDX 64 56 44 57 63 58 45 59 48 60 62 61 81 62 46 63 47 64 61 66
REMARK SMILES IDX 82 67 49 68 33 69 34 70 42 71 35 72 37 73 43 74 36 75 38 76
REMARK SMILES IDX 39 77 40 78 41 79 65 80 66 81 74 82 67 83 69 84 75 85 68 86
REMARK SMILES IDX 70 87 71 88 72 89 73 90 50 91 51 92 59 93 52 94 54 95 60 96
REMARK SMILES IDX 53 97 55 98 56 99 57 100 58 101
REMARK H PARENT 16 6 21 35 80 54 48 65
REMARK Flexibility Score: inf
ROOT
ATOM      1  C   UNL A   1      40.660  22.165  26.142  1.00  0.00     0.023 C 
ENDROOT
BRANCH   1   2
ATOM      2  C   UNL A   1      39.283  22.486  26.728  1.00  0.00     0.116 C 
BRANCH   2   3
ATOM      3  N   UNL A   1      38.393  23.126  25.781  1.00  0.00    -0.352 N 
ATOM      4  C   UNL A   1      37.379  22.711  24.955  1.00  0.00     0.254 C 
ATOM      5  O   UNL A   1      36.880  23.608  24.274  1.00  0.00    -0.269 OA
ATOM      6  H   UNL A   1      38.555  24.094  25.716  1.00  0.00     0.163 HD
BRANCH   4   7
ATOM      7  C   UNL A   1      36.929  21.318  24.831  1.00  0.00     0.081 A 
ATOM      8  C   UNL A   1      35.581  20.876  24.845  1.00  0.00     0.060 A 
ATOM      9  N   UNL A   1      35.645  19.486  24.781  1.00  0.00    -0.237 N 
ATOM     10  C   UNL A   1      37.664  20.123  24.745  1.00  0.00     0.149 A 
ATOM     11  N   UNL A   1      36.915  19.029  24.729  1.00  0.00    -0.175 NA
BRANCH   8  12
ATOM     12  C   UNL A   1      34.330  21.748  25.033  1.00  0.00     0.043 C 
ATOM     13  C   UNL A   1      33.130  25.562  25.301  1.00  0.00     0.410 C 
ATOM     14  O   UNL A   1      33.868  26.107  26.127  1.00  0.00    -0.224 OA
ATOM     15  N   UNL A   1      32.852  24.212  25.334  1.00  0.00    -0.308 N 
ATOM     16  C   UNL A   1      33.238  23.453  26.507  1.00  0.00     0.124 C 
ATOM     17  C   UNL A   1      32.537  23.395  24.164  1.00  0.00     0.124 C 
ATOM     18  C   UNL A   1      34.540  22.725  26.211  1.00  0.00     0.032 C 
ATOM     19  C   UNL A   1      33.762  22.523  23.817  1.00  0.00     0.032 C 
BRANCH  13  20
ATOM     20  O   UNL A   1      32.479  26.234  24.318  1.00  0.00    -0.444 OA
BRANCH  20  21
ATOM     21  C   UNL A   1      31.213  26.886  24.618  1.00  0.00     0.106 C 
ATOM     22  C   UNL A   1      31.412  28.361  24.237  1.00  0.00     0.056 C 
ATOM     23  C   UNL A   1      30.913  26.799  26.118  1.00  0.00     0.056 C 
ATOM     24  C   UNL A   1      30.042  26.349  23.775  1.00  0.00     0.056 C 
ENDBRANCH  20  21
ENDBRANCH  13  20
ENDBRANCH   8  12
BRANCH   9  25
ATOM     25  C   UNL A   1      34.635  18.503  24.780  1.00  0.00     0.065 A 
ATOM     26  C   UNL A   1      33.344  18.883  25.174  1.00  0.00     0.028 A 
ATOM     27  C   UNL A   1      34.926  17.171  24.480  1.00  0.00     0.028 A 
ATOM     28  C   UNL A   1      32.318  17.940  25.172  1.00  0.00     0.002 A 
ATOM     29  C   UNL A   1      33.892  16.232  24.484  1.00  0.00     0.002 A 
ATOM     30  C   UNL A   1      32.590  16.619  24.815  1.00  0.00     0.000 A 
ENDBRANCH   9  25
ENDBRANCH   4   7
ENDBRANCH   2   3
ENDBRANCH   1   2
BRANCH   1  31
ATOM     31  C   UNL A   1      41.062  20.681  26.146  1.00  0.00     0.023 C 
BRANCH  31  32
ATOM     32  C   UNL A   1      42.485  20.386  26.619  1.00  0.00     0.116 C 
BRANCH  32  33
ATOM     33  N   UNL A   1      43.425  20.157  25.518  1.00  0.00    -0.352 N 
ATOM     34  C   UNL A   1      44.090  21.102  24.758  1.00  0.00     0.251 C 
ATOM     35  H   UNL A   1      43.605  19.215  25.292  1.00  0.00     0.163 HD
ATOM     36  O   UNL A   1      44.542  20.821  23.654  1.00  0.00    -0.269 OA
BRANCH  34  37
ATOM     37  C   UNL A   1      44.256  22.458  25.307  1.00  0.00     0.039 A 
ATOM     38  C   UNL A   1      43.496  23.537  24.846  1.00  0.00     0.014 A 
ATOM     39  C   UNL A   1      45.170  22.618  26.342  1.00  0.00     0.014 A 
ATOM     40  C   UNL A   1      43.598  24.761  25.503  1.00  0.00     0.010 A 
ATOM     41  C   UNL A   1      45.160  23.772  27.080  1.00  0.00     0.010 A 
ATOM     42  C   UNL A   1      44.418  24.865  26.634  1.00  0.00    -0.014 A 
BRANCH  42  43
ATOM     43  C   UNL A   1      44.437  26.079  27.444  1.00  0.00     0.031 A 
ATOM     44  C   UNL A   1      45.500  27.066  27.095  1.00  0.00     0.074 A 
ATOM     45  C   UNL A   1      43.392  26.402  28.239  1.00  0.00     0.049 A 
ATOM     46  N   UNL A   1      46.431  27.528  27.864  1.00  0.00    -0.248 NA
ATOM     47  C   UNL A   1      45.612  27.515  25.698  1.00  0.00     0.031 C 
ATOM     48  C   UNL A   1      42.129  25.667  28.397  1.00  0.00     0.029 A 
ATOM     49  N   UNL A   1      43.147  27.565  28.901  1.00  0.00    -0.354 N 
ATOM     50  C   UNL A   1      47.101  28.495  27.115  1.00  0.00     0.074 A 
ATOM     51  C   UNL A   1      46.692  28.297  25.750  1.00  0.00     0.031 C 
ATOM     52  C   UNL A   1      41.172  26.520  28.816  1.00  0.00     0.029 A 
ATOM     53  C   UNL A   1      41.790  27.799  29.111  1.00  0.00     0.049 A 
ATOM     54  H   UNL A   1      43.855  28.180  29.201  1.00  0.00     0.167 HD
ATOM     55  C   UNL A   1      47.744  29.540  27.711  1.00  0.00     0.034 A 
ATOM     56  C   UNL A   1      41.205  28.986  29.405  1.00  0.00     0.034 A 
ATOM     57  C   UNL A   1      47.904  29.321  29.126  1.00  0.00     0.049 A 
ATOM     58  C   UNL A   1      42.260  29.869  29.956  1.00  0.00     0.074 A 
ATOM     59  C   UNL A   1      48.460  28.322  29.902  1.00  0.00     0.029 A 
ATOM     60  N   UNL A   1      47.086  30.037  29.970  1.00  0.00    -0.354 N 
ATOM     61  N   UNL A   1      42.878  29.630  31.081  1.00  0.00    -0.248 NA
ATOM     62  C   UNL A   1      42.954  30.758  29.037  1.00  0.00     0.031 C 
ATOM     63  C   UNL A   1      47.558  28.175  30.997  1.00  0.00     0.029 A 
ATOM     64  C   UNL A   1      46.562  29.144  30.864  1.00  0.00     0.049 A 
ATOM     65  H   UNL A   1      46.913  31.005  29.937  1.00  0.00     0.167 HD
ATOM     66  C   UNL A   1      44.207  29.931  30.810  1.00  0.00     0.074 A 
ATOM     67  C   UNL A   1      44.173  30.727  29.582  1.00  0.00     0.031 C 
ATOM     68  C   UNL A   1      45.230  29.255  31.417  1.00  0.00     0.034 A 
BRANCH  55  69
ATOM     69  C   UNL A   1      47.911  30.925  27.123  1.00  0.00     0.023 A 
ATOM     70  C   UNL A   1      49.206  31.494  27.170  1.00  0.00     0.012 A 
ATOM     71  C   UNL A   1      46.846  31.796  26.799  1.00  0.00     0.148 A 
ATOM     72  C   UNL A   1      49.419  32.864  26.980  1.00  0.00     0.002 A 
ATOM     73  C   UNL A   1      47.074  33.142  26.529  1.00  0.00     0.091 A 
ATOM     74  F   UNL A   1      45.583  31.372  26.883  1.00  0.00    -0.205 F 
ATOM     75  C   UNL A   1      48.352  33.689  26.654  1.00  0.00     0.022 A 
BRANCH  73  76
ATOM     76  S   UNL A   1      45.735  34.240  26.048  1.00  0.00     0.127 S 
ATOM     77  O   UNL A   1      45.217  33.567  24.861  1.00  0.00    -0.237 OA
ATOM     78  O   UNL A   1      44.865  34.187  27.222  1.00  0.00    -0.237 OA
ATOM     79  O   UNL A   1      46.361  35.539  25.829  1.00  0.00    -0.744 OA
ENDBRANCH  73  76
ENDBRANCH  55  69
BRANCH  56  80
ATOM     80  C   UNL A   1      39.872  29.478  28.980  1.00  0.00     0.023 A 
ATOM     81  C   UNL A   1      39.393  29.194  27.688  1.00  0.00     0.012 A 
ATOM     82  C   UNL A   1      38.965  30.031  29.913  1.00  0.00     0.148 A 
ATOM     83  C   UNL A   1      38.056  29.440  27.343  1.00  0.00     0.002 A 
ATOM     84  C   UNL A   1      37.647  30.304  29.558  1.00  0.00     0.091 A 
ATOM     85  F   UNL A   1      39.359  30.203  31.183  1.00  0.00    -0.205 F 
ATOM     86  C   UNL A   1      37.183  29.998  28.275  1.00  0.00     0.022 A 
BRANCH  84  87
ATOM     87  S   UNL A   1      36.492  31.038  30.726  1.00  0.00     0.127 S 
ATOM     88  O   UNL A   1      37.239  32.199  31.212  1.00  0.00    -0.237 OA
ATOM     89  O   UNL A   1      35.354  31.356  29.869  1.00  0.00    -0.237 OA
ATOM     90  O   UNL A   1      36.264  30.014  31.740  1.00  0.00    -0.744 OA
ENDBRANCH  84  87
ENDBRANCH  56  80
BRANCH  68  91
ATOM     91  C   UNL A   1      44.917  28.325  32.564  1.00  0.00     0.023 A 
ATOM     92  C   UNL A   1      44.555  26.976  32.366  1.00  0.00     0.012 A 
ATOM     93  C   UNL A   1      45.202  28.760  33.870  1.00  0.00     0.148 A 
ATOM     94  C   UNL A   1      44.463  26.089  33.442  1.00  0.00     0.002 A 
ATOM     95  C   UNL A   1      45.157  27.865  34.932  1.00  0.00     0.091 A 
ATOM     96  F   UNL A   1      45.550  30.044  34.049  1.00  0.00    -0.205 F 
ATOM     97  C   UNL A   1      44.780  26.529  34.724  1.00  0.00     0.022 A 
BRANCH  95  98
ATOM     98  S   UNL A   1      45.687  28.343  36.579  1.00  0.00     0.127 S 
ATOM     99  O   UNL A   1      45.452  27.118  37.341  1.00  0.00    -0.237 OA
ATOM    100  O   UNL A   1      47.098  28.675  36.375  1.00  0.00    -0.237 OA
ATOM    101  O   UNL A   1      44.858  29.484  36.947  1.00  0.00    -0.744 OA
ENDBRANCH  95  98
ENDBRANCH  68  91
ENDBRANCH  42  43
ENDBRANCH  34  37
ENDBRANCH  32  33
ENDBRANCH  31  32
ENDBRANCH   1  31
TORSDOF 18
ENDMDL
