MODEL 1
REMARK VINA RESULT:     -13.1      0.000      0.000
REMARK SMILES Cc1c(C(=O)N[C@H]2C=C[C@@H](C(=O)NCCCCNC(=O)c3ccc(-c4c5nc(c(-c6cccc(S(=O)(=O)[O-])c6F)c6ccc([nH]6)c(-c6cccc(S(=O)(=O)[O-])c6F)c6nc(c(-c7cccc(S(=O)(=O)[O-])c7F)c7ccc4[nH]7)C=C6)C=C5)cc3)C2)oc2ccccc12
REMARK SMILES IDX 16 1 15 2 14 3 13 4 11 5 12 6 10 8 7 9 8 10 84 11 9 12 6 13
REMARK SMILES IDX 4 14 5 15 3 17 1 18 2 19 91 20 85 21 86 22 90 23 87 24 89 25
REMARK SMILES IDX 88 26 17 27 18 28 19 29 20 31 21 32 22 33 83 34 23 35 82 36
REMARK SMILES IDX 24 37 25 38 26 39 76 40 27 41 81 42 75 43 77 44 28 45 80 46
REMARK SMILES IDX 74 47 73 48 29 50 61 51 41 52 60 53 42 54 45 55 59 56 78 57
REMARK SMILES IDX 43 58 44 59 58 61 79 62 46 63 30 64 31 65 39 66 32 67 34 68
REMARK SMILES IDX 40 69 33 70 35 71 36 72 37 73 38 74 62 75 63 76 71 77 64 78
REMARK SMILES IDX 66 79 72 80 65 81 67 82 68 83 69 84 70 85 47 86 48 87 56 88
REMARK SMILES IDX 49 89 51 90 57 91 50 92 52 93 53 94 54 95 55 96
REMARK H PARENT 13 7 6 16 18 30 77 49 45 60
REMARK Flexibility Score: inf
ROOT
ATOM      1  C   UNL A   1      31.949  31.647  26.894  1.00  0.00     0.023 C 
ENDROOT
BRANCH   1   2
ATOM      2  C   UNL A   1      32.311  30.175  26.750  1.00  0.00     0.023 C 
BRANCH   2   3
ATOM      3  C   UNL A   1      32.667  29.775  25.328  1.00  0.00     0.116 C 
BRANCH   3   4
ATOM      4  N   UNL A   1      31.514  29.832  24.456  1.00  0.00    -0.356 N 
ATOM      5  C   UNL A   1      30.830  28.812  23.872  1.00  0.00     0.227 C 
ATOM      6  O   UNL A   1      29.900  29.085  23.110  1.00  0.00    -0.274 OA
ATOM      7  H   UNL A   1      31.178  30.736  24.256  1.00  0.00     0.163 HD
BRANCH   5   8
ATOM      8  C   UNL A   1      31.218  27.362  24.121  1.00  0.00     0.103 C 
ATOM      9  C   UNL A   1      30.683  25.322  25.193  1.00  0.00     0.106 C 
ATOM     10  C   UNL A   1      30.226  25.245  23.783  1.00  0.00    -0.006 C 
ATOM     11  C   UNL A   1      30.709  26.821  25.460  1.00  0.00     0.047 C 
ATOM     12  C   UNL A   1      30.656  26.349  23.146  1.00  0.00    -0.016 C 
BRANCH   9  13
ATOM     13  N   UNL A   1      29.983  24.577  26.163  1.00  0.00    -0.343 N 
ATOM     14  C   UNL A   1      30.409  23.385  26.721  1.00  0.00     0.287 C 
ATOM     15  O   UNL A   1      29.668  22.965  27.619  1.00  0.00    -0.266 OA
ATOM     16  H   UNL A   1      29.118  24.933  26.468  1.00  0.00     0.164 HD
BRANCH  14  17
ATOM     17  C   UNL A   1      31.617  22.635  26.296  1.00  0.00     0.195 A 
ATOM     18  C   UNL A   1      34.012  23.823  26.552  1.00  0.00     0.049 C 
ATOM     19  C   UNL A   1      33.022  22.764  26.198  1.00  0.00     0.008 A 
ATOM     20  C   UNL A   1      33.509  21.551  25.608  1.00  0.00     0.024 A 
ATOM     21  O   UNL A   1      31.295  21.373  25.814  1.00  0.00    -0.451 OA
ATOM     22  C   UNL A   1      32.416  20.740  25.408  1.00  0.00     0.135 A 
ATOM     23  C   UNL A   1      34.783  21.078  25.236  1.00  0.00     0.012 A 
ATOM     24  C   UNL A   1      32.489  19.461  24.864  1.00  0.00     0.048 A 
ATOM     25  C   UNL A   1      34.896  19.801  24.686  1.00  0.00     0.001 A 
ATOM     26  C   UNL A   1      33.763  19.005  24.505  1.00  0.00     0.004 A 
ENDBRANCH  14  17
ENDBRANCH   9  13
ENDBRANCH   5   8
ENDBRANCH   3   4
ENDBRANCH   2   3
ENDBRANCH   1   2
BRANCH   1  27
ATOM     27  C   UNL A   1      33.089  32.524  27.391  1.00  0.00     0.116 C 
BRANCH  27  28
ATOM     28  N   UNL A   1      32.682  33.901  27.643  1.00  0.00    -0.352 N 
ATOM     29  C   UNL A   1      33.149  34.775  28.596  1.00  0.00     0.251 C 
ATOM     30  H   UNL A   1      31.978  34.253  27.050  1.00  0.00     0.163 HD
ATOM     31  O   UNL A   1      32.631  35.862  28.754  1.00  0.00    -0.269 OA
BRANCH  29  32
ATOM     32  C   UNL A   1      34.273  34.332  29.444  1.00  0.00     0.039 A 
ATOM     33  C   UNL A   1      33.988  33.624  30.611  1.00  0.00     0.014 A 
ATOM     34  C   UNL A   1      35.592  34.540  29.030  1.00  0.00     0.014 A 
ATOM     35  C   UNL A   1      35.038  33.068  31.338  1.00  0.00     0.010 A 
ATOM     36  C   UNL A   1      36.627  33.909  29.707  1.00  0.00     0.010 A 
ATOM     37  C   UNL A   1      36.360  33.174  30.871  1.00  0.00    -0.014 A 
BRANCH  37  38
ATOM     38  C   UNL A   1      37.471  32.508  31.593  1.00  0.00     0.031 A 
ATOM     39  C   UNL A   1      38.190  31.345  30.965  1.00  0.00     0.074 A 
ATOM     40  C   UNL A   1      37.797  32.924  32.833  1.00  0.00     0.049 A 
ATOM     41  N   UNL A   1      39.189  30.648  31.437  1.00  0.00    -0.248 NA
ATOM     42  C   UNL A   1      37.711  30.889  29.648  1.00  0.00     0.031 C 
ATOM     43  C   UNL A   1      37.107  33.978  33.582  1.00  0.00     0.029 A 
ATOM     44  N   UNL A   1      38.782  32.502  33.688  1.00  0.00    -0.354 N 
ATOM     45  C   UNL A   1      39.448  29.667  30.488  1.00  0.00     0.074 A 
ATOM     46  C   UNL A   1      38.469  29.822  29.436  1.00  0.00     0.031 C 
ATOM     47  C   UNL A   1      37.700  34.131  34.777  1.00  0.00     0.029 A 
ATOM     48  C   UNL A   1      38.794  33.172  34.890  1.00  0.00     0.049 A 
ATOM     49  H   UNL A   1      39.421  31.787  33.464  1.00  0.00     0.167 HD
ATOM     50  C   UNL A   1      40.442  28.747  30.470  1.00  0.00     0.034 A 
ATOM     51  C   UNL A   1      39.601  33.029  35.960  1.00  0.00     0.034 A 
ATOM     52  C   UNL A   1      41.435  28.620  31.500  1.00  0.00     0.049 A 
ATOM     53  C   UNL A   1      40.719  32.024  35.892  1.00  0.00     0.074 A 
ATOM     54  C   UNL A   1      42.518  27.760  31.549  1.00  0.00     0.029 A 
ATOM     55  N   UNL A   1      41.469  29.374  32.662  1.00  0.00    -0.354 N 
ATOM     56  N   UNL A   1      41.045  31.214  34.914  1.00  0.00    -0.248 NA
ATOM     57  C   UNL A   1      41.609  31.943  37.059  1.00  0.00     0.031 C 
ATOM     58  C   UNL A   1      43.199  27.984  32.749  1.00  0.00     0.029 A 
ATOM     59  C   UNL A   1      42.555  29.001  33.436  1.00  0.00     0.049 A 
ATOM     60  H   UNL A   1      40.817  30.071  32.903  1.00  0.00     0.167 HD
ATOM     61  C   UNL A   1      42.194  30.554  35.332  1.00  0.00     0.074 A 
ATOM     62  C   UNL A   1      42.528  31.086  36.637  1.00  0.00     0.031 C 
ATOM     63  C   UNL A   1      42.901  29.582  34.706  1.00  0.00     0.034 A 
BRANCH  50  64
ATOM     64  C   UNL A   1      40.552  27.857  29.260  1.00  0.00     0.023 A 
ATOM     65  C   UNL A   1      39.702  26.737  29.152  1.00  0.00     0.012 A 
ATOM     66  C   UNL A   1      41.427  28.167  28.201  1.00  0.00     0.148 A 
ATOM     67  C   UNL A   1      39.736  25.925  28.020  1.00  0.00     0.002 A 
ATOM     68  C   UNL A   1      41.424  27.378  27.056  1.00  0.00     0.091 A 
ATOM     69  F   UNL A   1      42.239  29.224  28.333  1.00  0.00    -0.205 F 
ATOM     70  C   UNL A   1      40.588  26.252  26.969  1.00  0.00     0.022 A 
BRANCH  68  71
ATOM     71  S   UNL A   1      42.424  27.753  25.613  1.00  0.00     0.127 S 
ATOM     72  O   UNL A   1      43.764  27.836  26.196  1.00  0.00    -0.237 OA
ATOM     73  O   UNL A   1      42.198  26.578  24.771  1.00  0.00    -0.237 OA
ATOM     74  O   UNL A   1      41.906  29.002  25.075  1.00  0.00    -0.744 OA
ENDBRANCH  68  71
ENDBRANCH  50  64
BRANCH  51  75
ATOM     75  C   UNL A   1      39.422  33.890  37.163  1.00  0.00     0.023 A 
ATOM     76  C   UNL A   1      39.855  35.231  37.132  1.00  0.00     0.012 A 
ATOM     77  C   UNL A   1      38.838  33.387  38.341  1.00  0.00     0.148 A 
ATOM     78  C   UNL A   1      39.759  36.037  38.267  1.00  0.00     0.002 A 
ATOM     79  C   UNL A   1      38.690  34.214  39.449  1.00  0.00     0.091 A 
ATOM     80  F   UNL A   1      38.444  32.106  38.360  1.00  0.00    -0.205 F 
ATOM     81  C   UNL A   1      39.170  35.532  39.422  1.00  0.00     0.022 A 
BRANCH  79  82
ATOM     82  S   UNL A   1      37.818  33.678  40.925  1.00  0.00     0.127 S 
ATOM     83  O   UNL A   1      38.732  32.674  41.465  1.00  0.00    -0.237 OA
ATOM     84  O   UNL A   1      37.737  34.918  41.699  1.00  0.00    -0.237 OA
ATOM     85  O   UNL A   1      36.531  33.185  40.455  1.00  0.00    -0.744 OA
ENDBRANCH  79  82
ENDBRANCH  51  75
BRANCH  63  86
ATOM     86  C   UNL A   1      44.126  29.056  35.407  1.00  0.00     0.023 A 
ATOM     87  C   UNL A   1      45.382  29.646  35.160  1.00  0.00     0.012 A 
ATOM     88  C   UNL A   1      44.025  28.012  36.347  1.00  0.00     0.148 A 
ATOM     89  C   UNL A   1      46.526  29.173  35.802  1.00  0.00     0.002 A 
ATOM     90  C   UNL A   1      45.159  27.582  37.022  1.00  0.00     0.091 A 
ATOM     91  F   UNL A   1      42.823  27.453  36.555  1.00  0.00    -0.205 F 
ATOM     92  C   UNL A   1      46.412  28.149  36.739  1.00  0.00     0.022 A 
BRANCH  90  93
ATOM     93  S   UNL A   1      45.094  26.336  38.314  1.00  0.00     0.127 S 
ATOM     94  O   UNL A   1      44.288  25.293  37.682  1.00  0.00    -0.237 OA
ATOM     95  O   UNL A   1      46.507  25.995  38.489  1.00  0.00    -0.237 OA
ATOM     96  O   UNL A   1      44.484  26.987  39.466  1.00  0.00    -0.744 OA
ENDBRANCH  90  93
ENDBRANCH  63  86
ENDBRANCH  37  38
ENDBRANCH  29  32
ENDBRANCH  27  28
ENDBRANCH   1  27
TORSDOF 16
ENDMDL
MODEL 2
REMARK VINA RESULT:     -12.7      1.358      7.641
REMARK SMILES Cc1c(C(=O)N[C@H]2C=C[C@@H](C(=O)NCCCCNC(=O)c3ccc(-c4c5nc(c(-c6cccc(S(=O)(=O)[O-])c6F)c6ccc([nH]6)c(-c6cccc(S(=O)(=O)[O-])c6F)c6nc(c(-c7cccc(S(=O)(=O)[O-])c7F)c7ccc4[nH]7)C=C6)C=C5)cc3)C2)oc2ccccc12
REMARK SMILES IDX 16 1 15 2 14 3 13 4 11 5 12 6 10 8 7 9 8 10 84 11 9 12 6 13
REMARK SMILES IDX 4 14 5 15 3 17 1 18 2 19 91 20 85 21 86 22 90 23 87 24 89 25
REMARK SMILES IDX 88 26 17 27 18 28 19 29 20 31 21 32 22 33 83 34 23 35 82 36
REMARK SMILES IDX 24 37 25 38 26 39 76 40 27 41 81 42 75 43 77 44 28 45 80 46
REMARK SMILES IDX 74 47 73 48 29 50 61 51 41 52 60 53 42 54 45 55 59 56 78 57
REMARK SMILES IDX 43 58 44 59 58 61 79 62 46 63 30 64 31 65 39 66 32 67 34 68
REMARK SMILES IDX 40 69 33 70 35 71 36 72 37 73 38 74 62 75 63 76 71 77 64 78
REMARK SMILES IDX 66 79 72 80 65 81 67 82 68 83 69 84 70 85 47 86 48 87 56 88
REMARK SMILES IDX 49 89 51 90 57 91 50 92 52 93 53 94 54 95 55 96
REMARK H PARENT 13 7 6 16 18 30 77 49 45 60
REMARK Flexibility Score: inf
ROOT
ATOM      1  C   UNL A   1      31.898  31.607  26.871  1.00  0.00     0.023 C 
ENDROOT
BRANCH   1   2
ATOM      2  C   UNL A   1      32.262  30.135  26.727  1.00  0.00     0.023 C 
BRANCH   2   3
ATOM      3  C   UNL A   1      32.647  29.743  25.311  1.00  0.00     0.116 C 
BRANCH   3   4
ATOM      4  N   UNL A   1      31.513  29.804  24.415  1.00  0.00    -0.356 N 
ATOM      5  C   UNL A   1      30.838  28.786  23.817  1.00  0.00     0.227 C 
ATOM      6  O   UNL A   1      29.924  29.062  23.037  1.00  0.00    -0.274 OA
ATOM      7  H   UNL A   1      31.183  30.709  24.209  1.00  0.00     0.163 HD
BRANCH   5   8
ATOM      8  C   UNL A   1      31.216  27.335  24.074  1.00  0.00     0.103 C 
ATOM      9  C   UNL A   1      30.672  25.306  25.164  1.00  0.00     0.106 C 
ATOM     10  C   UNL A   1      30.206  25.224  23.757  1.00  0.00    -0.006 C 
ATOM     11  C   UNL A   1      30.712  26.807  25.419  1.00  0.00     0.047 C 
ATOM     12  C   UNL A   1      30.640  26.320  23.109  1.00  0.00    -0.016 C 
BRANCH   9  13
ATOM     13  N   UNL A   1      29.973  24.573  26.143  1.00  0.00    -0.343 N 
ATOM     14  C   UNL A   1      30.395  23.384  26.710  1.00  0.00     0.287 C 
ATOM     15  O   UNL A   1      29.657  22.976  27.615  1.00  0.00    -0.266 OA
ATOM     16  H   UNL A   1      29.111  24.936  26.448  1.00  0.00     0.164 HD
BRANCH  14  17
ATOM     17  C   UNL A   1      31.598  22.625  26.286  1.00  0.00     0.195 A 
ATOM     18  C   UNL A   1      34.004  23.785  26.565  1.00  0.00     0.049 C 
ATOM     19  C   UNL A   1      33.005  22.740  26.198  1.00  0.00     0.008 A 
ATOM     20  C   UNL A   1      33.483  21.527  25.602  1.00  0.00     0.024 A 
ATOM     21  O   UNL A   1      31.265  21.370  25.793  1.00  0.00    -0.451 OA
ATOM     22  C   UNL A   1      32.382  20.728  25.389  1.00  0.00     0.135 A 
ATOM     23  C   UNL A   1      34.754  21.043  25.234  1.00  0.00     0.012 A 
ATOM     24  C   UNL A   1      32.445  19.453  24.836  1.00  0.00     0.048 A 
ATOM     25  C   UNL A   1      34.857  19.769  24.675  1.00  0.00     0.001 A 
ATOM     26  C   UNL A   1      33.717  18.986  24.482  1.00  0.00     0.004 A 
ENDBRANCH  14  17
ENDBRANCH   9  13
ENDBRANCH   5   8
ENDBRANCH   3   4
ENDBRANCH   2   3
ENDBRANCH   1   2
BRANCH   1  27
ATOM     27  C   UNL A   1      33.065  32.503  27.259  1.00  0.00     0.116 C 
BRANCH  27  28
ATOM     28  N   UNL A   1      32.646  33.832  27.689  1.00  0.00    -0.352 N 
ATOM     29  C   UNL A   1      33.159  34.609  28.701  1.00  0.00     0.251 C 
ATOM     30  H   UNL A   1      31.896  34.226  27.186  1.00  0.00     0.163 HD
ATOM     31  O   UNL A   1      32.629  35.657  29.012  1.00  0.00    -0.269 OA
BRANCH  29  32
ATOM     32  C   UNL A   1      34.346  34.109  29.419  1.00  0.00     0.039 A 
ATOM     33  C   UNL A   1      34.166  33.159  30.424  1.00  0.00     0.014 A 
ATOM     34  C   UNL A   1      35.626  34.513  29.028  1.00  0.00     0.014 A 
ATOM     35  C   UNL A   1      35.286  32.566  31.002  1.00  0.00     0.010 A 
ATOM     36  C   UNL A   1      36.735  33.854  29.543  1.00  0.00     0.010 A 
ATOM     37  C   UNL A   1      36.576  32.882  30.540  1.00  0.00    -0.014 A 
BRANCH  37  38
ATOM     38  C   UNL A   1      37.765  32.187  31.090  1.00  0.00     0.031 A 
ATOM     39  C   UNL A   1      38.268  32.524  32.467  1.00  0.00     0.074 A 
ATOM     40  C   UNL A   1      38.415  31.286  30.326  1.00  0.00     0.049 A 
ATOM     41  N   UNL A   1      39.280  32.015  33.117  1.00  0.00    -0.248 NA
ATOM     42  C   UNL A   1      37.560  33.588  33.201  1.00  0.00     0.031 C 
ATOM     43  C   UNL A   1      38.077  30.948  28.941  1.00  0.00     0.029 A 
ATOM     44  N   UNL A   1      39.504  30.500  30.601  1.00  0.00    -0.354 N 
ATOM     45  C   UNL A   1      39.339  32.701  34.324  1.00  0.00     0.074 A 
ATOM     46  C   UNL A   1      38.296  33.701  34.297  1.00  0.00     0.031 C 
ATOM     47  C   UNL A   1      38.931  30.012  28.494  1.00  0.00     0.029 A 
ATOM     48  C   UNL A   1      39.890  29.702  29.549  1.00  0.00     0.049 A 
ATOM     49  H   UNL A   1      39.967  30.506  31.470  1.00  0.00     0.167 HD
ATOM     50  C   UNL A   1      40.159  32.488  35.380  1.00  0.00     0.034 A 
ATOM     51  C   UNL A   1      40.903  28.819  29.450  1.00  0.00     0.034 A 
ATOM     52  C   UNL A   1      41.171  31.469  35.417  1.00  0.00     0.049 A 
ATOM     53  C   UNL A   1      41.772  28.578  30.655  1.00  0.00     0.074 A 
ATOM     54  C   UNL A   1      42.016  31.132  36.460  1.00  0.00     0.029 A 
ATOM     55  N   UNL A   1      41.476  30.620  34.364  1.00  0.00    -0.354 N 
ATOM     56  N   UNL A   1      41.708  29.127  31.844  1.00  0.00    -0.248 NA
ATOM     57  C   UNL A   1      42.827  27.564  30.519  1.00  0.00     0.031 C 
ATOM     58  C   UNL A   1      42.842  30.088  36.032  1.00  0.00     0.029 A 
ATOM     59  C   UNL A   1      42.496  29.759  34.732  1.00  0.00     0.049 A 
ATOM     60  H   UNL A   1      41.034  30.629  33.485  1.00  0.00     0.167 HD
ATOM     61  C   UNL A   1      42.687  28.501  32.605  1.00  0.00     0.074 A 
ATOM     62  C   UNL A   1      43.306  27.507  31.753  1.00  0.00     0.031 C 
ATOM     63  C   UNL A   1      43.059  28.739  33.887  1.00  0.00     0.034 A 
BRANCH  50  64
ATOM     64  C   UNL A   1      39.943  33.322  36.615  1.00  0.00     0.023 A 
ATOM     65  C   UNL A   1      40.477  34.626  36.665  1.00  0.00     0.012 A 
ATOM     66  C   UNL A   1      39.153  32.856  37.684  1.00  0.00     0.148 A 
ATOM     67  C   UNL A   1      40.248  35.447  37.767  1.00  0.00     0.002 A 
ATOM     68  C   UNL A   1      38.892  33.696  38.760  1.00  0.00     0.091 A 
ATOM     69  F   UNL A   1      38.672  31.607  37.625  1.00  0.00    -0.205 F 
ATOM     70  C   UNL A   1      39.447  34.986  38.808  1.00  0.00     0.022 A 
BRANCH  68  71
ATOM     71  S   UNL A   1      37.811  33.233  40.117  1.00  0.00     0.127 S 
ATOM     72  O   UNL A   1      38.516  32.077  40.674  1.00  0.00    -0.237 OA
ATOM     73  O   UNL A   1      37.845  34.430  40.957  1.00  0.00    -0.237 OA
ATOM     74  O   UNL A   1      36.516  32.939  39.521  1.00  0.00    -0.744 OA
ENDBRANCH  68  71
ENDBRANCH  50  64
BRANCH  51  75
ATOM     75  C   UNL A   1      41.120  28.055  28.188  1.00  0.00     0.023 A 
ATOM     76  C   UNL A   1      41.703  28.695  27.076  1.00  0.00     0.012 A 
ATOM     77  C   UNL A   1      40.742  26.704  28.079  1.00  0.00     0.148 A 
ATOM     78  C   UNL A   1      41.856  28.020  25.865  1.00  0.00     0.002 A 
ATOM     79  C   UNL A   1      40.952  26.019  26.888  1.00  0.00     0.091 A 
ATOM     80  F   UNL A   1      40.175  26.112  29.140  1.00  0.00    -0.205 F 
ATOM     81  C   UNL A   1      41.489  26.680  25.773  1.00  0.00     0.022 A 
BRANCH  79  82
ATOM     82  S   UNL A   1      40.632  24.258  26.733  1.00  0.00     0.127 S 
ATOM     83  O   UNL A   1      39.230  24.243  26.324  1.00  0.00    -0.237 OA
ATOM     84  O   UNL A   1      41.583  23.865  25.692  1.00  0.00    -0.237 OA
ATOM     85  O   UNL A   1      40.922  23.698  28.046  1.00  0.00    -0.744 OA
ENDBRANCH  79  82
ENDBRANCH  51  75
BRANCH  63  86
ATOM     86  C   UNL A   1      44.161  27.885  34.457  1.00  0.00     0.023 A 
ATOM     87  C   UNL A   1      45.495  28.336  34.405  1.00  0.00     0.012 A 
ATOM     88  C   UNL A   1      43.869  26.660  35.088  1.00  0.00     0.148 A 
ATOM     89  C   UNL A   1      46.527  27.560  34.929  1.00  0.00     0.002 A 
ATOM     90  C   UNL A   1      44.895  25.917  35.655  1.00  0.00     0.091 A 
ATOM     91  F   UNL A   1      42.595  26.241  35.113  1.00  0.00    -0.205 F 
ATOM     92  C   UNL A   1      46.226  26.356  35.562  1.00  0.00     0.022 A 
BRANCH  90  93
ATOM     93  S   UNL A   1      44.591  24.404  36.575  1.00  0.00     0.127 S 
ATOM     94  O   UNL A   1      45.947  23.891  36.762  1.00  0.00    -0.237 OA
ATOM     95  O   UNL A   1      43.954  24.905  37.794  1.00  0.00    -0.237 OA
ATOM     96  O   UNL A   1      43.724  23.592  35.732  1.00  0.00    -0.744 OA
ENDBRANCH  90  93
ENDBRANCH  63  86
ENDBRANCH  37  38
ENDBRANCH  29  32
ENDBRANCH  27  28
ENDBRANCH   1  27
TORSDOF 16
ENDMDL
MODEL 3
REMARK VINA RESULT:     -12.6      0.994      7.780
REMARK SMILES Cc1c(C(=O)N[C@H]2C=C[C@@H](C(=O)NCCCCNC(=O)c3ccc(-c4c5nc(c(-c6cccc(S(=O)(=O)[O-])c6F)c6ccc([nH]6)c(-c6cccc(S(=O)(=O)[O-])c6F)c6nc(c(-c7cccc(S(=O)(=O)[O-])c7F)c7ccc4[nH]7)C=C6)C=C5)cc3)C2)oc2ccccc12
REMARK SMILES IDX 16 1 15 2 14 3 13 4 11 5 12 6 10 8 7 9 8 10 84 11 9 12 6 13
REMARK SMILES IDX 4 14 5 15 3 17 1 18 2 19 91 20 85 21 86 22 90 23 87 24 89 25
REMARK SMILES IDX 88 26 17 27 18 28 19 29 20 31 21 32 22 33 83 34 23 35 82 36
REMARK SMILES IDX 24 37 25 38 26 39 76 40 27 41 81 42 75 43 77 44 28 45 80 46
REMARK SMILES IDX 74 47 73 48 29 50 61 51 41 52 60 53 42 54 45 55 59 56 78 57
REMARK SMILES IDX 43 58 44 59 58 61 79 62 46 63 30 64 31 65 39 66 32 67 34 68
REMARK SMILES IDX 40 69 33 70 35 71 36 72 37 73 38 74 62 75 63 76 71 77 64 78
REMARK SMILES IDX 66 79 72 80 65 81 67 82 68 83 69 84 70 85 47 86 48 87 56 88
REMARK SMILES IDX 49 89 51 90 57 91 50 92 52 93 53 94 54 95 55 96
REMARK H PARENT 13 7 6 16 18 30 77 49 45 60
REMARK Flexibility Score: inf
ROOT
ATOM      1  C   UNL A   1      31.980  31.727  26.916  1.00  0.00     0.023 C 
ENDROOT
BRANCH   1   2
ATOM      2  C   UNL A   1      32.380  30.261  26.814  1.00  0.00     0.023 C 
BRANCH   2   3
ATOM      3  C   UNL A   1      32.532  29.773  25.383  1.00  0.00     0.116 C 
BRANCH   3   4
ATOM      4  N   UNL A   1      31.326  29.995  24.615  1.00  0.00    -0.356 N 
ATOM      5  C   UNL A   1      30.567  29.096  23.935  1.00  0.00     0.227 C 
ATOM      6  O   UNL A   1      29.598  29.508  23.292  1.00  0.00    -0.274 OA
ATOM      7  H   UNL A   1      31.012  30.928  24.579  1.00  0.00     0.163 HD
BRANCH   5   8
ATOM      8  C   UNL A   1      30.914  27.615  23.934  1.00  0.00     0.103 C 
ATOM      9  C   UNL A   1      30.607  25.505  24.958  1.00  0.00     0.106 C 
ATOM     10  C   UNL A   1      29.726  25.580  23.766  1.00  0.00    -0.006 C 
ATOM     11  C   UNL A   1      30.816  26.969  25.318  1.00  0.00     0.047 C 
ATOM     12  C   UNL A   1      30.008  26.722  23.112  1.00  0.00    -0.016 C 
BRANCH   9  13
ATOM     13  N   UNL A   1      30.199  24.699  26.039  1.00  0.00    -0.343 N 
ATOM     14  C   UNL A   1      30.921  23.648  26.576  1.00  0.00     0.287 C 
ATOM     15  O   UNL A   1      30.399  23.148  27.580  1.00  0.00    -0.266 OA
ATOM     16  H   UNL A   1      29.325  24.898  26.445  1.00  0.00     0.164 HD
BRANCH  14  17
ATOM     17  C   UNL A   1      32.192  23.123  26.018  1.00  0.00     0.195 A 
ATOM     18  C   UNL A   1      32.163  20.722  24.816  1.00  0.00     0.049 C 
ATOM     19  C   UNL A   1      32.724  21.999  25.344  1.00  0.00     0.008 A 
ATOM     20  C   UNL A   1      34.130  22.238  25.187  1.00  0.00     0.024 A 
ATOM     21  O   UNL A   1      33.245  24.009  26.215  1.00  0.00    -0.451 OA
ATOM     22  C   UNL A   1      34.384  23.479  25.724  1.00  0.00     0.135 A 
ATOM     23  C   UNL A   1      35.198  21.507  24.630  1.00  0.00     0.012 A 
ATOM     24  C   UNL A   1      35.643  24.071  25.744  1.00  0.00     0.048 A 
ATOM     25  C   UNL A   1      36.475  22.068  24.633  1.00  0.00     0.001 A 
ATOM     26  C   UNL A   1      36.691  23.333  25.181  1.00  0.00     0.004 A 
ENDBRANCH  14  17
ENDBRANCH   9  13
ENDBRANCH   5   8
ENDBRANCH   3   4
ENDBRANCH   2   3
ENDBRANCH   1   2
BRANCH   1  27
ATOM     27  C   UNL A   1      33.120  32.660  27.298  1.00  0.00     0.116 C 
BRANCH  27  28
ATOM     28  N   UNL A   1      32.662  33.975  27.729  1.00  0.00    -0.352 N 
ATOM     29  C   UNL A   1      33.147  34.763  28.746  1.00  0.00     0.251 C 
ATOM     30  H   UNL A   1      31.905  34.350  27.223  1.00  0.00     0.163 HD
ATOM     31  O   UNL A   1      32.587  35.795  29.057  1.00  0.00    -0.269 OA
BRANCH  29  32
ATOM     32  C   UNL A   1      34.344  34.294  29.470  1.00  0.00     0.039 A 
ATOM     33  C   UNL A   1      34.171  33.457  30.572  1.00  0.00     0.014 A 
ATOM     34  C   UNL A   1      35.621  34.609  28.997  1.00  0.00     0.014 A 
ATOM     35  C   UNL A   1      35.291  32.885  31.169  1.00  0.00     0.010 A 
ATOM     36  C   UNL A   1      36.726  33.965  29.537  1.00  0.00     0.010 A 
ATOM     37  C   UNL A   1      36.572  33.104  30.633  1.00  0.00    -0.014 A 
BRANCH  37  38
ATOM     38  C   UNL A   1      37.758  32.425  31.209  1.00  0.00     0.031 A 
ATOM     39  C   UNL A   1      38.376  32.933  32.482  1.00  0.00     0.074 A 
ATOM     40  C   UNL A   1      38.302  31.378  30.556  1.00  0.00     0.049 A 
ATOM     41  N   UNL A   1      39.402  32.464  33.140  1.00  0.00    -0.248 NA
ATOM     42  C   UNL A   1      37.781  34.139  33.085  1.00  0.00     0.031 C 
ATOM     43  C   UNL A   1      37.848  30.857  29.263  1.00  0.00     0.029 A 
ATOM     44  N   UNL A   1      39.363  30.574  30.881  1.00  0.00    -0.354 N 
ATOM     45  C   UNL A   1      39.585  33.319  34.219  1.00  0.00     0.074 A 
ATOM     46  C   UNL A   1      38.599  34.369  34.102  1.00  0.00     0.031 C 
ATOM     47  C   UNL A   1      38.615  29.811  28.915  1.00  0.00     0.029 A 
ATOM     48  C   UNL A   1      39.629  29.603  29.943  1.00  0.00     0.049 A 
ATOM     49  H   UNL A   1      39.887  30.681  31.708  1.00  0.00     0.167 HD
ATOM     50  C   UNL A   1      40.465  33.215  35.243  1.00  0.00     0.034 A 
ATOM     51  C   UNL A   1      40.582  28.651  29.920  1.00  0.00     0.034 A 
ATOM     52  C   UNL A   1      41.420  32.150  35.375  1.00  0.00     0.049 A 
ATOM     53  C   UNL A   1      41.520  28.539  31.091  1.00  0.00     0.074 A 
ATOM     54  C   UNL A   1      42.318  31.921  36.402  1.00  0.00     0.029 A 
ATOM     55  N   UNL A   1      41.603  31.134  34.450  1.00  0.00    -0.354 N 
ATOM     56  N   UNL A   1      41.571  29.265  32.183  1.00  0.00    -0.248 NA
ATOM     57  C   UNL A   1      42.506  27.449  31.050  1.00  0.00     0.031 C 
ATOM     58  C   UNL A   1      43.053  30.773  36.092  1.00  0.00     0.029 A 
ATOM     59  C   UNL A   1      42.597  30.274  34.883  1.00  0.00     0.049 A 
ATOM     60  H   UNL A   1      41.100  31.038  33.609  1.00  0.00     0.167 HD
ATOM     61  C   UNL A   1      42.567  28.699  32.970  1.00  0.00     0.074 A 
ATOM     62  C   UNL A   1      43.067  27.549  32.246  1.00  0.00     0.031 C 
ATOM     63  C   UNL A   1      43.042  29.103  34.174  1.00  0.00     0.034 A 
BRANCH  50  64
ATOM     64  C   UNL A   1      40.384  34.239  36.344  1.00  0.00     0.023 A 
ATOM     65  C   UNL A   1      40.793  35.563  36.083  1.00  0.00     0.012 A 
ATOM     66  C   UNL A   1      39.834  33.920  37.600  1.00  0.00     0.148 A 
ATOM     67  C   UNL A   1      40.679  36.550  37.060  1.00  0.00     0.002 A 
ATOM     68  C   UNL A   1      39.682  34.919  38.555  1.00  0.00     0.091 A 
ATOM     69  F   UNL A   1      39.470  32.652  37.835  1.00  0.00    -0.205 F 
ATOM     70  C   UNL A   1      40.112  36.230  38.290  1.00  0.00     0.022 A 
BRANCH  68  71
ATOM     71  S   UNL A   1      38.894  34.635  40.144  1.00  0.00     0.127 S 
ATOM     72  O   UNL A   1      39.990  34.044  40.914  1.00  0.00    -0.237 OA
ATOM     73  O   UNL A   1      38.527  35.991  40.550  1.00  0.00    -0.237 OA
ATOM     74  O   UNL A   1      37.771  33.746  39.886  1.00  0.00    -0.744 OA
ENDBRANCH  68  71
ENDBRANCH  50  64
BRANCH  51  75
ATOM     75  C   UNL A   1      40.666  27.692  28.782  1.00  0.00     0.023 A 
ATOM     76  C   UNL A   1      39.759  26.616  28.707  1.00  0.00     0.012 A 
ATOM     77  C   UNL A   1      41.646  27.830  27.781  1.00  0.00     0.148 A 
ATOM     78  C   UNL A   1      39.859  25.668  27.689  1.00  0.00     0.002 A 
ATOM     79  C   UNL A   1      41.702  26.917  26.735  1.00  0.00     0.091 A 
ATOM     80  F   UNL A   1      42.511  28.850  27.873  1.00  0.00    -0.205 F 
ATOM     81  C   UNL A   1      40.825  25.823  26.698  1.00  0.00     0.022 A 
BRANCH  79  82
ATOM     82  S   UNL A   1      42.828  27.125  25.351  1.00  0.00     0.127 S 
ATOM     83  O   UNL A   1      42.652  25.867  24.630  1.00  0.00    -0.237 OA
ATOM     84  O   UNL A   1      42.274  28.303  24.681  1.00  0.00    -0.237 OA
ATOM     85  O   UNL A   1      44.138  27.342  25.949  1.00  0.00    -0.744 OA
ENDBRANCH  79  82
ENDBRANCH  51  75
BRANCH  63  86
ATOM     86  C   UNL A   1      44.133  28.276  34.800  1.00  0.00     0.023 A 
ATOM     87  C   UNL A   1      45.474  28.480  34.417  1.00  0.00     0.012 A 
ATOM     88  C   UNL A   1      43.835  27.332  35.802  1.00  0.00     0.148 A 
ATOM     89  C   UNL A   1      46.497  27.724  34.988  1.00  0.00     0.002 A 
ATOM     90  C   UNL A   1      44.864  26.620  36.404  1.00  0.00     0.091 A 
ATOM     91  F   UNL A   1      42.552  27.140  36.140  1.00  0.00    -0.205 F 
ATOM     92  C   UNL A   1      46.193  26.802  35.987  1.00  0.00     0.022 A 
BRANCH  90  93
ATOM     93  S   UNL A   1      44.578  25.483  37.765  1.00  0.00     0.127 S 
ATOM     94  O   UNL A   1      45.935  25.033  38.068  1.00  0.00    -0.237 OA
ATOM     95  O   UNL A   1      43.984  26.356  38.778  1.00  0.00    -0.237 OA
ATOM     96  O   UNL A   1      43.679  24.460  37.248  1.00  0.00    -0.744 OA
ENDBRANCH  90  93
ENDBRANCH  63  86
ENDBRANCH  37  38
ENDBRANCH  29  32
ENDBRANCH  27  28
ENDBRANCH   1  27
TORSDOF 16
ENDMDL
