MODEL 1
REMARK VINA RESULT:     -11.4      0.000      0.000
REMARK SMILES COc1ccc([C@@H]2[NH2+][C@H](C(=O)NCCCCNC(=O)c3ccc(-c4c5nc(c(-c6cccc(S(=O)(=O)[O-])c6F)c6ccc([nH]6)c(-c6cccc(S(=O)(=O)[O-])c6F)c6nc(c(-c7cccc(S(=O)(=O)[O-])c7F)c7ccc4[nH]7)C=C6)C=C5)cc3)CS2)cc1Cn1nc(C)c(Br)c1C
REMARK SMILES IDX 14 1 13 2 12 3 10 4 11 5 9 7 7 8 8 9 84 10 83 13 6 14 3 15
REMARK SMILES IDX 4 16 86 17 5 18 85 19 2 20 1 21 87 22 88 23 89 24 94 25
REMARK SMILES IDX 90 26 92 27 95 28 91 29 93 30 15 31 16 32 17 33 18 34 19 36
REMARK SMILES IDX 20 37 21 38 82 39 22 40 81 41 23 42 24 43 25 44 75 45 26 46
REMARK SMILES IDX 80 47 74 48 76 49 27 50 79 51 73 52 72 53 28 55 60 56 40 57
REMARK SMILES IDX 59 58 41 59 44 60 58 61 77 62 42 63 43 64 57 66 78 67 45 68
REMARK SMILES IDX 29 69 30 70 38 71 31 72 33 73 39 74 32 75 34 76 35 77 36 78
REMARK SMILES IDX 37 79 61 80 62 81 70 82 63 83 65 84 71 85 64 86 66 87 67 88
REMARK SMILES IDX 68 89 69 90 46 91 47 92 55 93 48 94 50 95 56 96 49 97 51 98
REMARK SMILES IDX 52 99 53 100 54 101
REMARK H PARENT 12 6 8 11 8 12 17 35 76 54 44 65
REMARK Flexibility Score: inf
ROOT
ATOM      1  C   UNL A   1      31.321  29.194  23.912  1.00  0.00     0.023 C 
ENDROOT
BRANCH   1   2
ATOM      2  C   UNL A   1      30.395  28.009  23.660  1.00  0.00     0.116 C 
BRANCH   2   3
ATOM      3  N   UNL A   1      30.493  26.925  24.622  1.00  0.00    -0.351 N 
ATOM      4  C   UNL A   1      30.996  25.666  24.493  1.00  0.00     0.279 C 
ATOM      5  O   UNL A   1      31.303  25.091  25.551  1.00  0.00    -0.268 OA
ATOM      6  H   UNL A   1      30.138  27.137  25.516  1.00  0.00     0.163 HD
BRANCH   4   7
ATOM      7  C   UNL A   1      31.149  24.866  23.177  1.00  0.00     0.283 C 
ATOM      8  C   UNL A   1      33.127  23.733  22.348  1.00  0.00     0.274 C 
ATOM      9  N   UNL A   1      32.418  25.014  22.427  1.00  0.00    -0.321 N 
ATOM     10  S   UNL A   1      31.904  22.421  22.403  1.00  0.00    -0.088 SA
ATOM     11  H   UNL A   1      32.213  25.343  21.485  1.00  0.00     0.348 HD
ATOM     12  H   UNL A   1      33.010  25.686  22.917  1.00  0.00     0.348 HD
ATOM     13  C   UNL A   1      30.760  23.400  23.397  1.00  0.00     0.151 C 
BRANCH   8  14
ATOM     14  C   UNL A   1      34.246  23.654  23.378  1.00  0.00     0.021 A 
ATOM     15  C   UNL A   1      36.041  23.520  25.539  1.00  0.00     0.123 A 
ATOM     16  C   UNL A   1      35.437  24.734  25.207  1.00  0.00     0.047 A 
ATOM     17  C   UNL A   1      35.751  22.346  24.837  1.00  0.00     0.016 A 
ATOM     18  C   UNL A   1      34.547  24.801  24.135  1.00  0.00     0.015 A 
ATOM     19  C   UNL A   1      34.882  22.445  23.734  1.00  0.00     0.020 A 
BRANCH  15  20
ATOM     20  O   UNL A   1      36.833  23.485  26.652  1.00  0.00    -0.496 OA
ATOM     21  C   UNL A   1      38.188  23.799  26.346  1.00  0.00     0.278 C 
ENDBRANCH  15  20
BRANCH  17  22
ATOM     22  C   UNL A   1      36.349  21.017  25.255  1.00  0.00     0.184 C 
BRANCH  22  23
ATOM     23  N   UNL A   1      35.442  19.876  25.100  1.00  0.00    -0.264 N 
ATOM     24  N   UNL A   1      35.844  18.831  24.336  1.00  0.00    -0.177 NA
ATOM     25  C   UNL A   1      34.133  19.756  25.512  1.00  0.00     0.050 A 
ATOM     26  C   UNL A   1      34.799  17.994  24.313  1.00  0.00     0.074 A 
ATOM     27  C   UNL A   1      33.727  18.523  25.052  1.00  0.00     0.061 A 
ATOM     28  C   UNL A   1      33.369  20.781  26.263  1.00  0.00     0.067 C 
ATOM     29  C   UNL A   1      34.872  16.731  23.535  1.00  0.00     0.070 C 
ATOM     30  Br  UNL A   1      32.053  17.717  25.287  1.00  0.00    -0.047 Br
ENDBRANCH  22  23
ENDBRANCH  17  22
ENDBRANCH   8  14
ENDBRANCH   4   7
ENDBRANCH   2   3
ENDBRANCH   1   2
BRANCH   1  31
ATOM     31  C   UNL A   1      31.125  29.923  25.246  1.00  0.00     0.023 C 
BRANCH  31  32
ATOM     32  C   UNL A   1      32.385  30.288  26.040  1.00  0.00     0.116 C 
BRANCH  32  33
ATOM     33  N   UNL A   1      32.314  31.508  26.824  1.00  0.00    -0.352 N 
ATOM     34  C   UNL A   1      33.309  32.148  27.544  1.00  0.00     0.251 C 
ATOM     35  H   UNL A   1      31.430  31.943  26.847  1.00  0.00     0.163 HD
ATOM     36  O   UNL A   1      33.059  33.221  28.079  1.00  0.00    -0.269 OA
BRANCH  34  37
ATOM     37  C   UNL A   1      34.647  31.516  27.758  1.00  0.00     0.039 A 
ATOM     38  C   UNL A   1      35.749  32.373  27.872  1.00  0.00     0.014 A 
ATOM     39  C   UNL A   1      34.842  30.140  27.907  1.00  0.00     0.014 A 
ATOM     40  C   UNL A   1      36.988  31.879  28.295  1.00  0.00     0.010 A 
ATOM     41  C   UNL A   1      36.062  29.650  28.388  1.00  0.00     0.010 A 
ATOM     42  C   UNL A   1      37.125  30.526  28.647  1.00  0.00    -0.014 A 
BRANCH  42  43
ATOM     43  C   UNL A   1      38.267  30.094  29.501  1.00  0.00     0.031 A 
ATOM     44  C   UNL A   1      38.460  30.582  30.905  1.00  0.00     0.074 A 
ATOM     45  C   UNL A   1      39.206  29.309  28.929  1.00  0.00     0.049 A 
ATOM     46  N   UNL A   1      39.383  30.241  31.769  1.00  0.00    -0.248 NA
ATOM     47  C   UNL A   1      37.517  31.593  31.402  1.00  0.00     0.031 C 
ATOM     48  C   UNL A   1      39.196  28.872  27.529  1.00  0.00     0.029 A 
ATOM     49  N   UNL A   1      40.357  28.759  29.435  1.00  0.00    -0.354 N 
ATOM     50  C   UNL A   1      39.151  31.007  32.904  1.00  0.00     0.074 A 
ATOM     51  C   UNL A   1      38.004  31.843  32.613  1.00  0.00     0.031 C 
ATOM     52  C   UNL A   1      40.281  28.123  27.290  1.00  0.00     0.029 A 
ATOM     53  C   UNL A   1      41.073  28.032  28.510  1.00  0.00     0.049 A 
ATOM     54  H   UNL A   1      40.645  28.873  30.369  1.00  0.00     0.167 HD
ATOM     55  C   UNL A   1      39.822  30.999  34.083  1.00  0.00     0.034 A 
ATOM     56  C   UNL A   1      42.234  27.359  28.628  1.00  0.00     0.034 A 
ATOM     57  C   UNL A   1      40.948  30.146  34.368  1.00  0.00     0.049 A 
ATOM     58  C   UNL A   1      42.898  27.291  29.972  1.00  0.00     0.074 A 
ATOM     59  C   UNL A   1      41.626  29.985  35.565  1.00  0.00     0.029 A 
ATOM     60  N   UNL A   1      41.575  29.324  33.444  1.00  0.00    -0.354 N 
ATOM     61  N   UNL A   1      42.529  27.846  31.101  1.00  0.00    -0.248 NA
ATOM     62  C   UNL A   1      44.111  26.466  30.077  1.00  0.00     0.031 C 
ATOM     63  C   UNL A   1      42.672  29.078  35.360  1.00  0.00     0.029 A 
ATOM     64  C   UNL A   1      42.638  28.662  34.039  1.00  0.00     0.049 A 
ATOM     65  H   UNL A   1      41.305  29.224  32.503  1.00  0.00     0.167 HD
ATOM     66  C   UNL A   1      43.443  27.416  32.054  1.00  0.00     0.074 A 
ATOM     67  C   UNL A   1      44.368  26.530  31.376  1.00  0.00     0.031 C 
ATOM     68  C   UNL A   1      43.520  27.741  33.367  1.00  0.00     0.034 A 
BRANCH  55  69
ATOM     69  C   UNL A   1      39.323  31.897  35.186  1.00  0.00     0.023 A 
ATOM     70  C   UNL A   1      38.394  31.389  36.118  1.00  0.00     0.012 A 
ATOM     71  C   UNL A   1      39.828  33.201  35.356  1.00  0.00     0.148 A 
ATOM     72  C   UNL A   1      37.956  32.171  37.185  1.00  0.00     0.002 A 
ATOM     73  C   UNL A   1      39.412  33.964  36.442  1.00  0.00     0.091 A 
ATOM     74  F   UNL A   1      40.701  33.672  34.454  1.00  0.00    -0.205 F 
ATOM     75  C   UNL A   1      38.471  33.454  37.353  1.00  0.00     0.022 A 
BRANCH  73  76
ATOM     76  S   UNL A   1      40.064  35.604  36.786  1.00  0.00     0.127 S 
ATOM     77  O   UNL A   1      41.504  35.353  36.786  1.00  0.00    -0.237 OA
ATOM     78  O   UNL A   1      39.581  36.377  35.642  1.00  0.00    -0.237 OA
ATOM     79  O   UNL A   1      39.497  36.000  38.069  1.00  0.00    -0.744 OA
ENDBRANCH  73  76
ENDBRANCH  55  69
BRANCH  56  80
ATOM     80  C   UNL A   1      42.782  26.619  27.454  1.00  0.00     0.023 A 
ATOM     81  C   UNL A   1      43.677  27.270  26.584  1.00  0.00     0.012 A 
ATOM     82  C   UNL A   1      42.464  25.266  27.226  1.00  0.00     0.148 A 
ATOM     83  C   UNL A   1      44.223  26.598  25.491  1.00  0.00     0.002 A 
ATOM     84  C   UNL A   1      43.054  24.586  26.165  1.00  0.00     0.091 A 
ATOM     85  F   UNL A   1      41.600  24.664  28.054  1.00  0.00    -0.205 F 
ATOM     86  C   UNL A   1      43.921  25.254  25.287  1.00  0.00     0.022 A 
BRANCH  84  87
ATOM     87  S   UNL A   1      42.822  22.821  25.924  1.00  0.00     0.127 S 
ATOM     88  O   UNL A   1      43.460  22.269  27.115  1.00  0.00    -0.237 OA
ATOM     89  O   UNL A   1      41.364  22.699  25.894  1.00  0.00    -0.237 OA
ATOM     90  O   UNL A   1      43.468  22.521  24.651  1.00  0.00    -0.744 OA
ENDBRANCH  84  87
ENDBRANCH  56  80
BRANCH  68  91
ATOM     91  C   UNL A   1      44.635  27.125  34.170  1.00  0.00     0.023 A 
ATOM     92  C   UNL A   1      45.903  27.738  34.183  1.00  0.00     0.012 A 
ATOM     93  C   UNL A   1      44.412  25.979  34.957  1.00  0.00     0.148 A 
ATOM     94  C   UNL A   1      46.942  27.204  34.944  1.00  0.00     0.002 A 
ATOM     95  C   UNL A   1      45.440  25.477  35.747  1.00  0.00     0.091 A 
ATOM     96  F   UNL A   1      43.208  25.393  34.911  1.00  0.00    -0.205 F 
ATOM     97  C   UNL A   1      46.708  26.082  35.735  1.00  0.00     0.022 A 
BRANCH  95  98
ATOM     98  S   UNL A   1      45.194  24.090  36.863  1.00  0.00     0.127 S 
ATOM     99  O   UNL A   1      46.512  23.964  37.481  1.00  0.00    -0.237 OA
ATOM    100  O   UNL A   1      44.146  24.585  37.757  1.00  0.00    -0.237 OA
ATOM    101  O   UNL A   1      44.783  22.975  36.019  1.00  0.00    -0.744 OA
ENDBRANCH  95  98
ENDBRANCH  68  91
ENDBRANCH  42  43
ENDBRANCH  34  37
ENDBRANCH  32  33
ENDBRANCH  31  32
ENDBRANCH   1  31
TORSDOF 18
ENDMDL
MODEL 2
REMARK VINA RESULT:     -11.2      1.467      2.319
REMARK SMILES COc1ccc([C@@H]2[NH2+][C@H](C(=O)NCCCCNC(=O)c3ccc(-c4c5nc(c(-c6cccc(S(=O)(=O)[O-])c6F)c6ccc([nH]6)c(-c6cccc(S(=O)(=O)[O-])c6F)c6nc(c(-c7cccc(S(=O)(=O)[O-])c7F)c7ccc4[nH]7)C=C6)C=C5)cc3)CS2)cc1Cn1nc(C)c(Br)c1C
REMARK SMILES IDX 14 1 13 2 12 3 10 4 11 5 9 7 7 8 8 9 84 10 83 13 6 14 3 15
REMARK SMILES IDX 4 16 86 17 5 18 85 19 2 20 1 21 87 22 88 23 89 24 94 25
REMARK SMILES IDX 90 26 92 27 95 28 91 29 93 30 15 31 16 32 17 33 18 34 19 36
REMARK SMILES IDX 20 37 21 38 82 39 22 40 81 41 23 42 24 43 25 44 75 45 26 46
REMARK SMILES IDX 80 47 74 48 76 49 27 50 79 51 73 52 72 53 28 55 60 56 40 57
REMARK SMILES IDX 59 58 41 59 44 60 58 61 77 62 42 63 43 64 57 66 78 67 45 68
REMARK SMILES IDX 29 69 30 70 38 71 31 72 33 73 39 74 32 75 34 76 35 77 36 78
REMARK SMILES IDX 37 79 61 80 62 81 70 82 63 83 65 84 71 85 64 86 66 87 67 88
REMARK SMILES IDX 68 89 69 90 46 91 47 92 55 93 48 94 50 95 56 96 49 97 51 98
REMARK SMILES IDX 52 99 53 100 54 101
REMARK H PARENT 12 6 8 11 8 12 17 35 76 54 44 65
REMARK Flexibility Score: inf
ROOT
ATOM      1  C   UNL A   1      31.247  29.357  24.066  1.00  0.00     0.023 C 
ENDROOT
BRANCH   1   2
ATOM      2  C   UNL A   1      29.882  28.856  23.607  1.00  0.00     0.116 C 
BRANCH   2   3
ATOM      3  N   UNL A   1      29.693  27.417  23.667  1.00  0.00    -0.351 N 
ATOM      4  C   UNL A   1      30.551  26.396  23.390  1.00  0.00     0.279 C 
ATOM      5  O   UNL A   1      30.264  25.294  23.884  1.00  0.00    -0.268 OA
ATOM      6  H   UNL A   1      28.796  27.133  23.958  1.00  0.00     0.163 HD
BRANCH   4   7
ATOM      7  C   UNL A   1      31.792  26.463  22.467  1.00  0.00     0.283 C 
ATOM      8  C   UNL A   1      33.476  24.751  22.116  1.00  0.00     0.274 C 
ATOM      9  N   UNL A   1      33.053  25.867  22.968  1.00  0.00    -0.321 N 
ATOM     10  S   UNL A   1      32.863  25.061  20.457  1.00  0.00    -0.088 SA
ATOM     11  H   UNL A   1      33.780  26.581  22.972  1.00  0.00     0.348 HD
ATOM     12  H   UNL A   1      32.895  25.516  23.913  1.00  0.00     0.348 HD
ATOM     13  C   UNL A   1      31.432  25.984  21.056  1.00  0.00     0.151 C 
BRANCH   8  14
ATOM     14  C   UNL A   1      33.102  23.410  22.733  1.00  0.00     0.021 A 
ATOM     15  C   UNL A   1      32.660  20.783  23.634  1.00  0.00     0.123 A 
ATOM     16  C   UNL A   1      32.125  21.203  22.415  1.00  0.00     0.047 A 
ATOM     17  C   UNL A   1      33.446  21.635  24.416  1.00  0.00     0.016 A 
ATOM     18  C   UNL A   1      32.344  22.505  21.967  1.00  0.00     0.015 A 
ATOM     19  C   UNL A   1      33.618  22.958  23.966  1.00  0.00     0.020 A 
BRANCH  15  20
ATOM     20  O   UNL A   1      32.496  19.473  23.986  1.00  0.00    -0.496 OA
ATOM     21  C   UNL A   1      32.329  18.637  22.845  1.00  0.00     0.278 C 
ENDBRANCH  15  20
BRANCH  17  22
ATOM     22  C   UNL A   1      34.089  21.147  25.699  1.00  0.00     0.184 C 
BRANCH  22  23
ATOM     23  N   UNL A   1      35.510  21.487  25.825  1.00  0.00    -0.264 N 
ATOM     24  N   UNL A   1      35.841  22.751  26.185  1.00  0.00    -0.177 NA
ATOM     25  C   UNL A   1      36.609  20.729  25.483  1.00  0.00     0.050 A 
ATOM     26  C   UNL A   1      37.179  22.786  26.140  1.00  0.00     0.074 A 
ATOM     27  C   UNL A   1      37.692  21.543  25.732  1.00  0.00     0.061 A 
ATOM     28  C   UNL A   1      36.569  19.350  24.942  1.00  0.00     0.067 C 
ATOM     29  C   UNL A   1      37.903  24.044  26.456  1.00  0.00     0.070 C 
ATOM     30  Br  UNL A   1      39.503  21.123  25.506  1.00  0.00    -0.047 Br
ENDBRANCH  22  23
ENDBRANCH  17  22
ENDBRANCH   8  14
ENDBRANCH   4   7
ENDBRANCH   2   3
ENDBRANCH   1   2
BRANCH   1  31
ATOM     31  C   UNL A   1      31.392  29.620  25.569  1.00  0.00     0.023 C 
BRANCH  31  32
ATOM     32  C   UNL A   1      32.718  30.216  26.055  1.00  0.00     0.116 C 
BRANCH  32  33
ATOM     33  N   UNL A   1      32.619  31.428  26.849  1.00  0.00    -0.352 N 
ATOM     34  C   UNL A   1      33.591  32.062  27.605  1.00  0.00     0.251 C 
ATOM     35  H   UNL A   1      31.734  31.860  26.851  1.00  0.00     0.163 HD
ATOM     36  O   UNL A   1      33.321  33.129  28.143  1.00  0.00    -0.269 OA
BRANCH  34  37
ATOM     37  C   UNL A   1      34.925  31.432  27.852  1.00  0.00     0.039 A 
ATOM     38  C   UNL A   1      36.030  32.288  27.946  1.00  0.00     0.014 A 
ATOM     39  C   UNL A   1      35.111  30.061  28.050  1.00  0.00     0.014 A 
ATOM     40  C   UNL A   1      37.262  31.802  28.396  1.00  0.00     0.010 A 
ATOM     41  C   UNL A   1      36.325  29.582  28.558  1.00  0.00     0.010 A 
ATOM     42  C   UNL A   1      37.390  30.462  28.796  1.00  0.00    -0.014 A 
BRANCH  42  43
ATOM     43  C   UNL A   1      38.522  30.054  29.673  1.00  0.00     0.031 A 
ATOM     44  C   UNL A   1      38.680  30.553  31.078  1.00  0.00     0.074 A 
ATOM     45  C   UNL A   1      39.485  29.282  29.124  1.00  0.00     0.049 A 
ATOM     46  N   UNL A   1      39.592  30.232  31.962  1.00  0.00    -0.248 NA
ATOM     47  C   UNL A   1      37.710  31.550  31.552  1.00  0.00     0.031 C 
ATOM     48  C   UNL A   1      39.510  28.838  27.726  1.00  0.00     0.029 A 
ATOM     49  N   UNL A   1      40.636  28.755  29.654  1.00  0.00    -0.354 N 
ATOM     50  C   UNL A   1      39.325  31.000  33.088  1.00  0.00     0.074 A 
ATOM     51  C   UNL A   1      38.170  31.815  32.770  1.00  0.00     0.031 C 
ATOM     52  C   UNL A   1      40.612  28.107  27.512  1.00  0.00     0.029 A 
ATOM     53  C   UNL A   1      41.382  28.036  28.748  1.00  0.00     0.049 A 
ATOM     54  H   UNL A   1      40.904  28.879  30.594  1.00  0.00     0.167 HD
ATOM     55  C   UNL A   1      39.974  31.010  34.279  1.00  0.00     0.034 A 
ATOM     56  C   UNL A   1      42.552  27.383  28.891  1.00  0.00     0.034 A 
ATOM     57  C   UNL A   1      41.109  30.178  34.591  1.00  0.00     0.049 A 
ATOM     58  C   UNL A   1      43.191  27.334  30.249  1.00  0.00     0.074 A 
ATOM     59  C   UNL A   1      41.766  30.036  35.801  1.00  0.00     0.029 A 
ATOM     60  N   UNL A   1      41.767  29.362  33.684  1.00  0.00    -0.354 N 
ATOM     61  N   UNL A   1      42.791  27.889  31.367  1.00  0.00    -0.248 NA
ATOM     62  C   UNL A   1      44.416  26.531  30.381  1.00  0.00     0.031 C 
ATOM     63  C   UNL A   1      42.831  29.146  35.621  1.00  0.00     0.029 A 
ATOM     64  C   UNL A   1      42.830  28.722  34.302  1.00  0.00     0.049 A 
ATOM     65  H   UNL A   1      41.516  29.253  32.737  1.00  0.00     0.167 HD
ATOM     66  C   UNL A   1      43.694  27.480  32.340  1.00  0.00     0.074 A 
ATOM     67  C   UNL A   1      44.647  26.606  31.684  1.00  0.00     0.031 C 
ATOM     68  C   UNL A   1      43.740  27.813  33.653  1.00  0.00     0.034 A 
BRANCH  55  69
ATOM     69  C   UNL A   1      39.438  31.905  35.368  1.00  0.00     0.023 A 
ATOM     70  C   UNL A   1      38.523  31.377  36.302  1.00  0.00     0.012 A 
ATOM     71  C   UNL A   1      39.897  33.228  35.522  1.00  0.00     0.148 A 
ATOM     72  C   UNL A   1      38.053  32.159  37.357  1.00  0.00     0.002 A 
ATOM     73  C   UNL A   1      39.448  33.991  36.595  1.00  0.00     0.091 A 
ATOM     74  F   UNL A   1      40.757  33.717  34.617  1.00  0.00    -0.205 F 
ATOM     75  C   UNL A   1      38.521  33.461  37.509  1.00  0.00     0.022 A 
BRANCH  73  76
ATOM     76  S   UNL A   1      40.041  35.657  36.920  1.00  0.00     0.127 S 
ATOM     77  O   UNL A   1      41.485  35.444  37.005  1.00  0.00    -0.237 OA
ATOM     78  O   UNL A   1      39.602  36.381  35.726  1.00  0.00    -0.237 OA
ATOM     79  O   UNL A   1      39.397  36.079  38.156  1.00  0.00    -0.744 OA
ENDBRANCH  73  76
ENDBRANCH  55  69
BRANCH  56  80
ATOM     80  C   UNL A   1      43.135  26.647  27.733  1.00  0.00     0.023 A 
ATOM     81  C   UNL A   1      43.996  27.324  26.848  1.00  0.00     0.012 A 
ATOM     82  C   UNL A   1      42.884  25.276  27.533  1.00  0.00     0.148 A 
ATOM     83  C   UNL A   1      44.574  26.656  25.768  1.00  0.00     0.002 A 
ATOM     84  C   UNL A   1      43.506  24.603  26.486  1.00  0.00     0.091 A 
ATOM     85  F   UNL A   1      42.051  24.649  28.376  1.00  0.00    -0.205 F 
ATOM     86  C   UNL A   1      44.339  25.295  25.593  1.00  0.00     0.022 A 
BRANCH  84  87
ATOM     87  S   UNL A   1      43.362  22.824  26.283  1.00  0.00     0.127 S 
ATOM     88  O   UNL A   1      42.607  22.446  27.472  1.00  0.00    -0.237 OA
ATOM     89  O   UNL A   1      42.625  22.713  25.023  1.00  0.00    -0.237 OA
ATOM     90  O   UNL A   1      44.735  22.336  26.210  1.00  0.00    -0.744 OA
ENDBRANCH  84  87
ENDBRANCH  56  80
BRANCH  68  91
ATOM     91  C   UNL A   1      44.850  27.221  34.479  1.00  0.00     0.023 A 
ATOM     92  C   UNL A   1      46.110  27.851  34.507  1.00  0.00     0.012 A 
ATOM     93  C   UNL A   1      44.630  26.080  35.276  1.00  0.00     0.148 A 
ATOM     94  C   UNL A   1      47.142  27.339  35.290  1.00  0.00     0.002 A 
ATOM     95  C   UNL A   1      45.651  25.601  36.088  1.00  0.00     0.091 A 
ATOM     96  F   UNL A   1      43.434  25.477  35.217  1.00  0.00    -0.205 F 
ATOM     97  C   UNL A   1      46.911  26.222  36.090  1.00  0.00     0.022 A 
BRANCH  95  98
ATOM     98  S   UNL A   1      45.405  24.223  37.214  1.00  0.00     0.127 S 
ATOM     99  O   UNL A   1      44.285  24.694  38.025  1.00  0.00    -0.237 OA
ATOM    100  O   UNL A   1      45.078  23.124  36.303  1.00  0.00    -0.237 OA
ATOM    101  O   UNL A   1      46.671  24.059  37.919  1.00  0.00    -0.744 OA
ENDBRANCH  95  98
ENDBRANCH  68  91
ENDBRANCH  42  43
ENDBRANCH  34  37
ENDBRANCH  32  33
ENDBRANCH  31  32
ENDBRANCH   1  31
TORSDOF 18
ENDMDL
MODEL 3
REMARK VINA RESULT:     -11.1      5.204     10.605
REMARK SMILES COc1ccc([C@@H]2[NH2+][C@H](C(=O)NCCCCNC(=O)c3ccc(-c4c5nc(c(-c6cccc(S(=O)(=O)[O-])c6F)c6ccc([nH]6)c(-c6cccc(S(=O)(=O)[O-])c6F)c6nc(c(-c7cccc(S(=O)(=O)[O-])c7F)c7ccc4[nH]7)C=C6)C=C5)cc3)CS2)cc1Cn1nc(C)c(Br)c1C
REMARK SMILES IDX 14 1 13 2 12 3 10 4 11 5 9 7 7 8 8 9 84 10 83 13 6 14 3 15
REMARK SMILES IDX 4 16 86 17 5 18 85 19 2 20 1 21 87 22 88 23 89 24 94 25
REMARK SMILES IDX 90 26 92 27 95 28 91 29 93 30 15 31 16 32 17 33 18 34 19 36
REMARK SMILES IDX 20 37 21 38 82 39 22 40 81 41 23 42 24 43 25 44 75 45 26 46
REMARK SMILES IDX 80 47 74 48 76 49 27 50 79 51 73 52 72 53 28 55 60 56 40 57
REMARK SMILES IDX 59 58 41 59 44 60 58 61 77 62 42 63 43 64 57 66 78 67 45 68
REMARK SMILES IDX 29 69 30 70 38 71 31 72 33 73 39 74 32 75 34 76 35 77 36 78
REMARK SMILES IDX 37 79 61 80 62 81 70 82 63 83 65 84 71 85 64 86 66 87 67 88
REMARK SMILES IDX 68 89 69 90 46 91 47 92 55 93 48 94 50 95 56 96 49 97 51 98
REMARK SMILES IDX 52 99 53 100 54 101
REMARK H PARENT 12 6 8 11 8 12 17 35 76 54 44 65
REMARK Flexibility Score: inf
ROOT
ATOM      1  C   UNL A   1      39.296  20.920  25.858  1.00  0.00     0.023 C 
ENDROOT
BRANCH   1   2
ATOM      2  C   UNL A   1      37.973  21.035  25.109  1.00  0.00     0.116 C 
BRANCH   2   3
ATOM      3  N   UNL A   1      37.405  22.371  25.048  1.00  0.00    -0.351 N 
ATOM      4  C   UNL A   1      36.301  22.895  25.650  1.00  0.00     0.279 C 
ATOM      5  O   UNL A   1      36.264  24.134  25.735  1.00  0.00    -0.268 OA
ATOM      6  H   UNL A   1      37.902  23.001  24.478  1.00  0.00     0.163 HD
BRANCH   4   7
ATOM      7  C   UNL A   1      35.072  22.108  26.163  1.00  0.00     0.283 C 
ATOM      8  C   UNL A   1      32.729  22.559  25.722  1.00  0.00     0.274 C 
ATOM      9  N   UNL A   1      33.879  22.886  26.570  1.00  0.00    -0.321 N 
ATOM     10  S   UNL A   1      32.930  20.869  25.150  1.00  0.00    -0.088 SA
ATOM     11  H   UNL A   1      33.653  22.669  27.540  1.00  0.00     0.348 HD
ATOM     12  H   UNL A   1      34.088  23.880  26.468  1.00  0.00     0.348 HD
ATOM     13  C   UNL A   1      34.731  20.965  25.200  1.00  0.00     0.151 C 
BRANCH   8  14
ATOM     14  C   UNL A   1      32.517  23.613  24.643  1.00  0.00     0.021 A 
ATOM     15  C   UNL A   1      31.996  25.279  22.439  1.00  0.00     0.123 A 
ATOM     16  C   UNL A   1      33.114  24.443  22.434  1.00  0.00     0.047 A 
ATOM     17  C   UNL A   1      31.099  25.290  23.511  1.00  0.00     0.016 A 
ATOM     18  C   UNL A   1      33.372  23.616  23.527  1.00  0.00     0.015 A 
ATOM     19  C   UNL A   1      31.402  24.479  24.622  1.00  0.00     0.020 A 
BRANCH  15  20
ATOM     20  O   UNL A   1      31.734  26.002  21.309  1.00  0.00    -0.496 OA
ATOM     21  C   UNL A   1      32.515  25.556  20.204  1.00  0.00     0.278 C 
ENDBRANCH  15  20
BRANCH  17  22
ATOM     22  C   UNL A   1      29.845  26.142  23.474  1.00  0.00     0.184 C 
BRANCH  22  23
ATOM     23  N   UNL A   1      30.081  27.568  23.720  1.00  0.00    -0.264 N 
ATOM     24  N   UNL A   1      31.153  27.925  24.468  1.00  0.00    -0.177 NA
ATOM     25  C   UNL A   1      29.269  28.639  23.413  1.00  0.00     0.050 A 
ATOM     26  C   UNL A   1      31.066  29.256  24.587  1.00  0.00     0.074 A 
ATOM     27  C   UNL A   1      29.923  29.737  23.925  1.00  0.00     0.061 A 
ATOM     28  C   UNL A   1      27.969  28.559  22.707  1.00  0.00     0.067 C 
ATOM     29  C   UNL A   1      32.078  30.002  25.379  1.00  0.00     0.070 C 
ATOM     30  Br  UNL A   1      29.378  31.527  23.836  1.00  0.00    -0.047 Br
ENDBRANCH  22  23
ENDBRANCH  17  22
ENDBRANCH   8  14
ENDBRANCH   4   7
ENDBRANCH   2   3
ENDBRANCH   1   2
BRANCH   1  31
ATOM     31  C   UNL A   1      39.993  19.557  25.777  1.00  0.00     0.023 C 
BRANCH  31  32
ATOM     32  C   UNL A   1      41.262  19.364  26.616  1.00  0.00     0.116 C 
BRANCH  32  33
ATOM     33  N   UNL A   1      42.521  19.460  25.899  1.00  0.00    -0.352 N 
ATOM     34  C   UNL A   1      43.373  20.543  25.763  1.00  0.00     0.251 C 
ATOM     35  H   UNL A   1      42.810  18.636  25.443  1.00  0.00     0.163 HD
ATOM     36  O   UNL A   1      44.436  20.391  25.174  1.00  0.00    -0.269 OA
BRANCH  34  37
ATOM     37  C   UNL A   1      42.984  21.907  26.237  1.00  0.00     0.039 A 
ATOM     38  C   UNL A   1      43.093  22.163  27.610  1.00  0.00     0.014 A 
ATOM     39  C   UNL A   1      42.583  22.940  25.386  1.00  0.00     0.014 A 
ATOM     40  C   UNL A   1      42.967  23.468  28.097  1.00  0.00     0.010 A 
ATOM     41  C   UNL A   1      42.515  24.256  25.860  1.00  0.00     0.010 A 
ATOM     42  C   UNL A   1      42.771  24.537  27.208  1.00  0.00    -0.014 A 
BRANCH  42  43
ATOM     43  C   UNL A   1      43.079  25.929  27.642  1.00  0.00     0.031 A 
ATOM     44  C   UNL A   1      44.468  26.492  27.634  1.00  0.00     0.074 A 
ATOM     45  C   UNL A   1      42.063  26.658  28.153  1.00  0.00     0.049 A 
ATOM     46  N   UNL A   1      44.860  27.704  27.938  1.00  0.00    -0.248 NA
ATOM     47  C   UNL A   1      45.561  25.584  27.261  1.00  0.00     0.031 C 
ATOM     48  C   UNL A   1      40.690  26.174  28.333  1.00  0.00     0.029 A 
ATOM     49  N   UNL A   1      42.023  27.942  28.637  1.00  0.00    -0.354 N 
ATOM     50  C   UNL A   1      46.244  27.704  27.816  1.00  0.00     0.074 A 
ATOM     51  C   UNL A   1      46.626  26.363  27.422  1.00  0.00     0.031 C 
ATOM     52  C   UNL A   1      39.946  27.145  28.881  1.00  0.00     0.029 A 
ATOM     53  C   UNL A   1      40.784  28.316  29.104  1.00  0.00     0.049 A 
ATOM     54  H   UNL A   1      42.806  28.539  28.648  1.00  0.00     0.167 HD
ATOM     55  C   UNL A   1      47.110  28.731  27.998  1.00  0.00     0.034 A 
ATOM     56  C   UNL A   1      40.360  29.475  29.646  1.00  0.00     0.034 A 
ATOM     57  C   UNL A   1      46.716  30.068  28.369  1.00  0.00     0.049 A 
ATOM     58  C   UNL A   1      41.323  30.623  29.742  1.00  0.00     0.074 A 
ATOM     59  C   UNL A   1      47.504  31.201  28.471  1.00  0.00     0.029 A 
ATOM     60  N   UNL A   1      45.428  30.447  28.715  1.00  0.00    -0.354 N 
ATOM     61  N   UNL A   1      42.588  30.667  29.402  1.00  0.00    -0.248 NA
ATOM     62  C   UNL A   1      40.794  31.897  30.250  1.00  0.00     0.031 C 
ATOM     63  C   UNL A   1      46.696  32.263  28.895  1.00  0.00     0.029 A 
ATOM     64  C   UNL A   1      45.401  31.794  29.043  1.00  0.00     0.049 A 
ATOM     65  H   UNL A   1      44.647  29.848  28.726  1.00  0.00     0.167 HD
ATOM     66  C   UNL A   1      42.999  31.974  29.625  1.00  0.00     0.074 A 
ATOM     67  C   UNL A   1      41.839  32.700  30.104  1.00  0.00     0.031 C 
ATOM     68  C   UNL A   1      44.229  32.519  29.467  1.00  0.00     0.034 A 
BRANCH  55  69
ATOM     69  C   UNL A   1      48.574  28.477  27.740  1.00  0.00     0.023 A 
ATOM     70  C   UNL A   1      49.439  28.269  28.834  1.00  0.00     0.012 A 
ATOM     71  C   UNL A   1      49.077  28.357  26.429  1.00  0.00     0.148 A 
ATOM     72  C   UNL A   1      50.785  27.972  28.629  1.00  0.00     0.002 A 
ATOM     73  C   UNL A   1      50.414  28.029  26.233  1.00  0.00     0.091 A 
ATOM     74  F   UNL A   1      48.243  28.572  25.401  1.00  0.00    -0.205 F 
ATOM     75  C   UNL A   1      51.271  27.843  27.331  1.00  0.00     0.022 A 
BRANCH  73  76
ATOM     76  S   UNL A   1      51.124  27.774  24.601  1.00  0.00     0.127 S 
ATOM     77  O   UNL A   1      52.423  27.192  24.934  1.00  0.00    -0.237 OA
ATOM     78  O   UNL A   1      50.177  26.839  23.993  1.00  0.00    -0.237 OA
ATOM     79  O   UNL A   1      51.169  29.088  23.973  1.00  0.00    -0.744 OA
ENDBRANCH  73  76
ENDBRANCH  55  69
BRANCH  56  80
ATOM     80  C   UNL A   1      38.932  29.626  30.046  1.00  0.00     0.023 A 
ATOM     81  C   UNL A   1      38.523  29.194  31.322  1.00  0.00     0.012 A 
ATOM     82  C   UNL A   1      37.992  30.239  29.195  1.00  0.00     0.148 A 
ATOM     83  C   UNL A   1      37.198  29.341  31.733  1.00  0.00     0.002 A 
ATOM     84  C   UNL A   1      36.685  30.433  29.632  1.00  0.00     0.091 A 
ATOM     85  F   UNL A   1      38.393  30.633  27.979  1.00  0.00    -0.205 F 
ATOM     86  C   UNL A   1      36.282  29.971  30.894  1.00  0.00     0.022 A 
BRANCH  84  87
ATOM     87  S   UNL A   1      35.489  31.360  28.664  1.00  0.00     0.127 S 
ATOM     88  O   UNL A   1      34.604  31.883  29.699  1.00  0.00    -0.237 OA
ATOM     89  O   UNL A   1      36.330  32.361  28.007  1.00  0.00    -0.237 OA
ATOM     90  O   UNL A   1      34.902  30.387  27.749  1.00  0.00    -0.744 OA
ENDBRANCH  84  87
ENDBRANCH  56  80
BRANCH  68  91
ATOM     91  C   UNL A   1      44.389  33.979  29.798  1.00  0.00     0.023 A 
ATOM     92  C   UNL A   1      44.805  34.357  31.090  1.00  0.00     0.012 A 
ATOM     93  C   UNL A   1      44.189  34.970  28.818  1.00  0.00     0.148 A 
ATOM     94  C   UNL A   1      44.991  35.701  31.411  1.00  0.00     0.002 A 
ATOM     95  C   UNL A   1      44.418  36.305  29.133  1.00  0.00     0.091 A 
ATOM     96  F   UNL A   1      43.767  34.594  27.602  1.00  0.00    -0.205 F 
ATOM     97  C   UNL A   1      44.809  36.674  30.430  1.00  0.00     0.022 A 
BRANCH  95  98
ATOM     98  S   UNL A   1      44.294  37.608  27.902  1.00  0.00     0.127 S 
ATOM     99  O   UNL A   1      45.281  37.181  26.913  1.00  0.00    -0.237 OA
ATOM    100  O   UNL A   1      42.902  37.497  27.462  1.00  0.00    -0.237 OA
ATOM    101  O   UNL A   1      44.601  38.846  28.607  1.00  0.00    -0.744 OA
ENDBRANCH  95  98
ENDBRANCH  68  91
ENDBRANCH  42  43
ENDBRANCH  34  37
ENDBRANCH  32  33
ENDBRANCH  31  32
ENDBRANCH   1  31
TORSDOF 18
ENDMDL
