MODEL 1
REMARK VINA RESULT:     -12.8      0.000      0.000
REMARK SMILES O=C(NCCCCNC(=O)c1nn(Cc2ccc(F)cc2)c2ccccc12)c1ccc(-c2c3nc(c(-c4cccc(S(=O)(=O)[O-])c4F)c4ccc([nH]4)c(-c4cccc(S(=O)(=O)[O-])c4F)c4nc(c(-c5cccc(S(=O)(=O)[O-])c5F)c5ccc2[nH]5)C=C4)C=C3)cc1
REMARK SMILES IDX 5 1 4 2 3 3 1 4 2 5 28 7 29 8 90 9 30 10 89 11 31 12 32 13
REMARK SMILES IDX 33 14 83 15 34 16 88 17 82 18 84 19 35 20 87 21 81 22 80 23
REMARK SMILES IDX 36 25 68 26 48 27 67 28 49 29 52 30 66 31 85 32 50 33 51 34
REMARK SMILES IDX 65 36 86 37 53 38 37 39 38 40 46 41 39 42 41 43 47 44 40 45
REMARK SMILES IDX 42 46 43 47 44 48 45 49 69 50 70 51 78 52 71 53 73 54 79 55
REMARK SMILES IDX 72 56 74 57 75 58 76 59 77 60 54 61 55 62 63 63 56 64 58 65
REMARK SMILES IDX 64 66 57 67 59 68 60 69 61 70 62 71 6 72 7 73 8 74 9 75
REMARK SMILES IDX 10 77 11 78 12 79 27 80 13 81 22 82 26 83 23 84 25 85 24 86
REMARK SMILES IDX 14 87 15 88 16 89 21 90 17 91 20 92 18 93 19 94
REMARK H PARENT 3 6 84 24 52 35 8 76
REMARK Flexibility Score: inf
ROOT
ATOM      1  C   UNL A   1      39.333  21.026  25.536  1.00  0.00     0.023 C 
ENDROOT
BRANCH   1   2
ATOM      2  C   UNL A   1      39.745  19.869  26.430  1.00  0.00     0.116 C 
BRANCH   2   3
ATOM      3  N   UNL A   1      40.955  19.165  25.981  1.00  0.00    -0.352 N 
ATOM      4  O   UNL A   1      43.014  19.157  24.997  1.00  0.00    -0.269 OA
ATOM      5  C   UNL A   1      42.200  19.723  25.710  1.00  0.00     0.251 C 
ATOM      6  H   UNL A   1      40.875  18.192  25.858  1.00  0.00     0.163 HD
BRANCH   5   7
ATOM      7  C   UNL A   1      42.516  21.018  26.341  1.00  0.00     0.039 A 
ATOM      8  C   UNL A   1      42.803  22.179  25.623  1.00  0.00     0.014 A 
ATOM      9  C   UNL A   1      42.417  21.045  27.724  1.00  0.00     0.014 A 
ATOM     10  C   UNL A   1      42.910  23.376  26.331  1.00  0.00     0.010 A 
ATOM     11  C   UNL A   1      42.216  22.237  28.350  1.00  0.00     0.010 A 
ATOM     12  C   UNL A   1      42.588  23.397  27.701  1.00  0.00    -0.014 A 
BRANCH  12  13
ATOM     13  C   UNL A   1      42.537  24.628  28.480  1.00  0.00     0.031 A 
ATOM     14  C   UNL A   1      41.310  25.418  28.236  1.00  0.00     0.074 A 
ATOM     15  C   UNL A   1      43.444  24.946  29.436  1.00  0.00     0.049 A 
ATOM     16  N   UNL A   1      41.212  26.443  27.457  1.00  0.00    -0.248 NA
ATOM     17  C   UNL A   1      40.017  24.901  28.710  1.00  0.00     0.031 C 
ATOM     18  C   UNL A   1      44.556  24.132  29.960  1.00  0.00     0.029 A 
ATOM     19  N   UNL A   1      43.504  26.046  30.234  1.00  0.00    -0.354 N 
ATOM     20  C   UNL A   1      39.905  26.882  27.607  1.00  0.00     0.074 A 
ATOM     21  C   UNL A   1      39.168  25.780  28.169  1.00  0.00     0.031 C 
ATOM     22  C   UNL A   1      44.998  24.648  31.127  1.00  0.00     0.029 A 
ATOM     23  C   UNL A   1      44.354  25.925  31.336  1.00  0.00     0.049 A 
ATOM     24  H   UNL A   1      42.988  26.864  30.050  1.00  0.00     0.167 HD
ATOM     25  C   UNL A   1      39.623  28.213  27.575  1.00  0.00     0.034 A 
ATOM     26  C   UNL A   1      44.509  26.825  32.341  1.00  0.00     0.034 A 
ATOM     27  C   UNL A   1      40.734  28.978  27.068  1.00  0.00     0.049 A 
ATOM     28  C   UNL A   1      44.099  28.127  31.773  1.00  0.00     0.074 A 
ATOM     29  C   UNL A   1      41.471  28.987  25.901  1.00  0.00     0.029 A 
ATOM     30  N   UNL A   1      41.507  29.599  28.019  1.00  0.00    -0.354 N 
ATOM     31  N   UNL A   1      44.737  28.726  30.809  1.00  0.00    -0.248 NA
ATOM     32  C   UNL A   1      42.733  28.565  31.998  1.00  0.00     0.031 C 
ATOM     33  C   UNL A   1      42.816  29.222  26.312  1.00  0.00     0.029 A 
ATOM     34  C   UNL A   1      42.825  29.426  27.694  1.00  0.00     0.049 A 
ATOM     35  H   UNL A   1      41.170  30.089  28.804  1.00  0.00     0.167 HD
ATOM     36  C   UNL A   1      43.728  29.253  30.017  1.00  0.00     0.074 A 
ATOM     37  C   UNL A   1      42.535  29.236  30.861  1.00  0.00     0.031 C 
ATOM     38  C   UNL A   1      43.892  29.370  28.669  1.00  0.00     0.034 A 
BRANCH  25  39
ATOM     39  C   UNL A   1      38.550  28.856  28.412  1.00  0.00     0.023 A 
ATOM     40  C   UNL A   1      37.627  29.701  27.762  1.00  0.00     0.012 A 
ATOM     41  C   UNL A   1      38.581  28.893  29.825  1.00  0.00     0.148 A 
ATOM     42  C   UNL A   1      36.777  30.542  28.489  1.00  0.00     0.002 A 
ATOM     43  C   UNL A   1      37.679  29.666  30.542  1.00  0.00     0.091 A 
ATOM     44  F   UNL A   1      39.579  28.297  30.484  1.00  0.00    -0.205 F 
ATOM     45  C   UNL A   1      36.789  30.511  29.879  1.00  0.00     0.022 A 
BRANCH  43  46
ATOM     46  S   UNL A   1      37.642  29.637  32.338  1.00  0.00     0.127 S 
ATOM     47  O   UNL A   1      38.943  30.213  32.662  1.00  0.00    -0.237 OA
ATOM     48  O   UNL A   1      36.491  30.493  32.623  1.00  0.00    -0.237 OA
ATOM     49  O   UNL A   1      37.449  28.238  32.698  1.00  0.00    -0.744 OA
ENDBRANCH  43  46
ENDBRANCH  25  39
BRANCH  26  50
ATOM     50  C   UNL A   1      44.727  26.657  33.801  1.00  0.00     0.023 A 
ATOM     51  C   UNL A   1      45.914  27.176  34.370  1.00  0.00     0.012 A 
ATOM     52  C   UNL A   1      43.673  26.321  34.676  1.00  0.00     0.148 A 
ATOM     53  C   UNL A   1      46.011  27.444  35.741  1.00  0.00     0.002 A 
ATOM     54  C   UNL A   1      43.778  26.580  36.043  1.00  0.00     0.091 A 
ATOM     55  F   UNL A   1      42.534  25.839  34.161  1.00  0.00    -0.205 F 
ATOM     56  C   UNL A   1      44.936  27.165  36.574  1.00  0.00     0.022 A 
BRANCH  54  57
ATOM     57  S   UNL A   1      42.432  26.248  37.188  1.00  0.00     0.127 S 
ATOM     58  O   UNL A   1      43.092  26.410  38.486  1.00  0.00    -0.237 OA
ATOM     59  O   UNL A   1      41.480  27.301  36.850  1.00  0.00    -0.237 OA
ATOM     60  O   UNL A   1      42.006  24.885  36.901  1.00  0.00    -0.744 OA
ENDBRANCH  54  57
ENDBRANCH  26  50
BRANCH  38  61
ATOM     61  C   UNL A   1      45.286  29.238  28.113  1.00  0.00     0.023 A 
ATOM     62  C   UNL A   1      46.240  30.276  28.168  1.00  0.00     0.012 A 
ATOM     63  C   UNL A   1      45.690  27.957  27.703  1.00  0.00     0.148 A 
ATOM     64  C   UNL A   1      47.576  30.030  27.827  1.00  0.00     0.002 A 
ATOM     65  C   UNL A   1      47.021  27.709  27.403  1.00  0.00     0.091 A 
ATOM     66  F   UNL A   1      44.762  26.989  27.664  1.00  0.00    -0.205 F 
ATOM     67  C   UNL A   1      47.970  28.743  27.462  1.00  0.00     0.022 A 
BRANCH  65  68
ATOM     68  S   UNL A   1      47.608  26.056  27.028  1.00  0.00     0.127 S 
ATOM     69  O   UNL A   1      49.017  26.295  26.725  1.00  0.00    -0.237 OA
ATOM     70  O   UNL A   1      47.363  25.350  28.286  1.00  0.00    -0.237 OA
ATOM     71  O   UNL A   1      46.806  25.582  25.907  1.00  0.00    -0.744 OA
ENDBRANCH  65  68
ENDBRANCH  38  61
ENDBRANCH  12  13
ENDBRANCH   5   7
ENDBRANCH   2   3
ENDBRANCH   1   2
BRANCH   1  72
ATOM     72  C   UNL A   1      38.824  22.264  26.284  1.00  0.00     0.023 C 
BRANCH  72  73
ATOM     73  C   UNL A   1      37.484  22.845  25.825  1.00  0.00     0.116 C 
BRANCH  73  74
ATOM     74  N   UNL A   1      37.431  23.097  24.399  1.00  0.00    -0.351 N 
ATOM     75  C   UNL A   1      36.336  23.038  23.552  1.00  0.00     0.272 C 
ATOM     76  H   UNL A   1      38.286  23.342  23.975  1.00  0.00     0.163 HD
ATOM     77  O   UNL A   1      36.535  23.011  22.347  1.00  0.00    -0.267 OA
BRANCH  75  78
ATOM     78  C   UNL A   1      34.990  22.979  24.148  1.00  0.00     0.158 A 
ATOM     79  N   UNL A   1      34.279  21.834  24.163  1.00  0.00    -0.166 NA
ATOM     80  C   UNL A   1      34.277  24.034  24.798  1.00  0.00     0.033 A 
ATOM     81  N   UNL A   1      33.139  22.153  24.810  1.00  0.00    -0.260 N 
ATOM     82  C   UNL A   1      33.061  23.476  25.181  1.00  0.00     0.069 A 
ATOM     83  C   UNL A   1      34.534  25.386  25.110  1.00  0.00     0.013 A 
ATOM     84  C   UNL A   1      32.072  24.231  25.830  1.00  0.00     0.028 A 
ATOM     85  C   UNL A   1      33.613  26.100  25.883  1.00  0.00     0.001 A 
ATOM     86  C   UNL A   1      32.397  25.528  26.233  1.00  0.00     0.002 A 
BRANCH  81  87
ATOM     87  C   UNL A   1      32.150  21.104  25.048  1.00  0.00     0.180 C 
BRANCH  87  88
ATOM     88  C   UNL A   1      32.587  19.738  24.543  1.00  0.00    -0.026 A 
ATOM     89  C   UNL A   1      33.281  18.837  25.369  1.00  0.00     0.008 A 
ATOM     90  C   UNL A   1      32.280  19.327  23.234  1.00  0.00     0.008 A 
ATOM     91  C   UNL A   1      33.688  17.587  24.905  1.00  0.00     0.039 A 
ATOM     92  C   UNL A   1      32.669  18.064  22.774  1.00  0.00     0.039 A 
ATOM     93  C   UNL A   1      33.378  17.210  23.611  1.00  0.00     0.123 A 
ATOM     94  F   UNL A   1      33.757  16.004  23.167  1.00  0.00    -0.207 F 
ENDBRANCH  87  88
ENDBRANCH  81  87
ENDBRANCH  75  78
ENDBRANCH  73  74
ENDBRANCH  72  73
ENDBRANCH   1  72
TORSDOF 16
ENDMDL
MODEL 2
REMARK VINA RESULT:     -12.4      4.653      9.822
REMARK SMILES O=C(NCCCCNC(=O)c1nn(Cc2ccc(F)cc2)c2ccccc12)c1ccc(-c2c3nc(c(-c4cccc(S(=O)(=O)[O-])c4F)c4ccc([nH]4)c(-c4cccc(S(=O)(=O)[O-])c4F)c4nc(c(-c5cccc(S(=O)(=O)[O-])c5F)c5ccc2[nH]5)C=C4)C=C3)cc1
REMARK SMILES IDX 5 1 4 2 3 3 1 4 2 5 28 7 29 8 90 9 30 10 89 11 31 12 32 13
REMARK SMILES IDX 33 14 83 15 34 16 88 17 82 18 84 19 35 20 87 21 81 22 80 23
REMARK SMILES IDX 36 25 68 26 48 27 67 28 49 29 52 30 66 31 85 32 50 33 51 34
REMARK SMILES IDX 65 36 86 37 53 38 37 39 38 40 46 41 39 42 41 43 47 44 40 45
REMARK SMILES IDX 42 46 43 47 44 48 45 49 69 50 70 51 78 52 71 53 73 54 79 55
REMARK SMILES IDX 72 56 74 57 75 58 76 59 77 60 54 61 55 62 63 63 56 64 58 65
REMARK SMILES IDX 64 66 57 67 59 68 60 69 61 70 62 71 6 72 7 73 8 74 9 75
REMARK SMILES IDX 10 77 11 78 12 79 27 80 13 81 22 82 26 83 23 84 25 85 24 86
REMARK SMILES IDX 14 87 15 88 16 89 21 90 17 91 20 92 18 93 19 94
REMARK H PARENT 3 6 84 24 52 35 8 76
REMARK Flexibility Score: inf
ROOT
ATOM      1  C   UNL A   1      33.117  31.868  27.765  1.00  0.00     0.023 C 
ENDROOT
BRANCH   1   2
ATOM      2  C   UNL A   1      33.172  33.256  27.151  1.00  0.00     0.116 C 
BRANCH   2   3
ATOM      3  N   UNL A   1      32.743  34.330  28.058  1.00  0.00    -0.352 N 
ATOM      4  O   UNL A   1      32.540  35.219  30.151  1.00  0.00    -0.269 OA
ATOM      5  C   UNL A   1      33.197  34.572  29.351  1.00  0.00     0.251 C 
ATOM      6  H   UNL A   1      32.057  34.947  27.714  1.00  0.00     0.163 HD
BRANCH   5   7
ATOM      7  C   UNL A   1      34.524  34.038  29.715  1.00  0.00     0.039 A 
ATOM      8  C   UNL A   1      34.730  33.106  30.732  1.00  0.00     0.014 A 
ATOM      9  C   UNL A   1      35.573  34.451  28.907  1.00  0.00     0.014 A 
ATOM     10  C   UNL A   1      36.002  32.549  30.859  1.00  0.00     0.010 A 
ATOM     11  C   UNL A   1      36.698  33.688  28.840  1.00  0.00     0.010 A 
ATOM     12  C   UNL A   1      36.979  32.831  29.885  1.00  0.00    -0.014 A 
BRANCH  12  13
ATOM     13  C   UNL A   1      38.284  32.181  29.866  1.00  0.00     0.031 A 
ATOM     14  C   UNL A   1      38.240  30.808  29.318  1.00  0.00     0.074 A 
ATOM     15  C   UNL A   1      39.440  32.817  30.179  1.00  0.00     0.049 A 
ATOM     16  N   UNL A   1      38.213  29.718  30.008  1.00  0.00    -0.248 NA
ATOM     17  C   UNL A   1      37.968  30.616  27.885  1.00  0.00     0.031 C 
ATOM     18  C   UNL A   1      39.655  34.243  30.482  1.00  0.00     0.029 A 
ATOM     19  N   UNL A   1      40.711  32.334  30.189  1.00  0.00    -0.354 N 
ATOM     20  C   UNL A   1      38.246  28.698  29.068  1.00  0.00     0.074 A 
ATOM     21  C   UNL A   1      37.846  29.287  27.816  1.00  0.00     0.031 C 
ATOM     22  C   UNL A   1      40.970  34.543  30.392  1.00  0.00     0.029 A 
ATOM     23  C   UNL A   1      41.709  33.311  30.228  1.00  0.00     0.049 A 
ATOM     24  H   UNL A   1      40.914  31.370  30.171  1.00  0.00     0.167 HD
ATOM     25  C   UNL A   1      38.925  27.549  29.330  1.00  0.00     0.034 A 
ATOM     26  C   UNL A   1      43.048  33.105  30.134  1.00  0.00     0.034 A 
ATOM     27  C   UNL A   1      39.269  27.443  30.726  1.00  0.00     0.049 A 
ATOM     28  C   UNL A   1      43.265  31.709  30.568  1.00  0.00     0.074 A 
ATOM     29  C   UNL A   1      38.566  27.437  31.914  1.00  0.00     0.029 A 
ATOM     30  N   UNL A   1      40.564  27.777  31.043  1.00  0.00    -0.354 N 
ATOM     31  N   UNL A   1      43.038  31.286  31.779  1.00  0.00    -0.248 NA
ATOM     32  C   UNL A   1      43.340  30.683  29.543  1.00  0.00     0.031 C 
ATOM     33  C   UNL A   1      39.369  28.187  32.824  1.00  0.00     0.029 A 
ATOM     34  C   UNL A   1      40.553  28.544  32.176  1.00  0.00     0.049 A 
ATOM     35  H   UNL A   1      41.366  27.508  30.539  1.00  0.00     0.167 HD
ATOM     36  C   UNL A   1      42.474  30.033  31.596  1.00  0.00     0.074 A 
ATOM     37  C   UNL A   1      42.805  29.665  30.221  1.00  0.00     0.031 C 
ATOM     38  C   UNL A   1      41.548  29.552  32.473  1.00  0.00     0.034 A 
BRANCH  25  39
ATOM     39  C   UNL A   1      39.667  26.764  28.282  1.00  0.00     0.023 A 
ATOM     40  C   UNL A   1      39.498  25.365  28.266  1.00  0.00     0.012 A 
ATOM     41  C   UNL A   1      40.724  27.299  27.510  1.00  0.00     0.148 A 
ATOM     42  C   UNL A   1      40.343  24.539  27.516  1.00  0.00     0.002 A 
ATOM     43  C   UNL A   1      41.506  26.485  26.702  1.00  0.00     0.091 A 
ATOM     44  F   UNL A   1      41.079  28.578  27.664  1.00  0.00    -0.205 F 
ATOM     45  C   UNL A   1      41.335  25.100  26.719  1.00  0.00     0.022 A 
BRANCH  43  46
ATOM     46  S   UNL A   1      42.781  27.169  25.639  1.00  0.00     0.127 S 
ATOM     47  O   UNL A   1      43.756  27.636  26.619  1.00  0.00    -0.237 OA
ATOM     48  O   UNL A   1      43.184  25.994  24.867  1.00  0.00    -0.237 OA
ATOM     49  O   UNL A   1      42.116  28.200  24.852  1.00  0.00    -0.744 OA
ENDBRANCH  43  46
ENDBRANCH  25  39
BRANCH  26  50
ATOM     50  C   UNL A   1      44.130  33.884  29.478  1.00  0.00     0.023 A 
ATOM     51  C   UNL A   1      45.098  34.515  30.294  1.00  0.00     0.012 A 
ATOM     52  C   UNL A   1      44.425  33.734  28.107  1.00  0.00     0.148 A 
ATOM     53  C   UNL A   1      46.348  34.891  29.789  1.00  0.00     0.002 A 
ATOM     54  C   UNL A   1      45.669  34.120  27.605  1.00  0.00     0.091 A 
ATOM     55  F   UNL A   1      43.531  33.129  27.314  1.00  0.00    -0.205 F 
ATOM     56  C   UNL A   1      46.641  34.675  28.449  1.00  0.00     0.022 A 
BRANCH  54  57
ATOM     57  S   UNL A   1      46.127  33.875  25.883  1.00  0.00     0.127 S 
ATOM     58  O   UNL A   1      45.974  32.427  25.732  1.00  0.00    -0.237 OA
ATOM     59  O   UNL A   1      45.124  34.674  25.187  1.00  0.00    -0.237 OA
ATOM     60  O   UNL A   1      47.503  34.344  25.778  1.00  0.00    -0.744 OA
ENDBRANCH  54  57
ENDBRANCH  26  50
BRANCH  38  61
ATOM     61  C   UNL A   1      41.403  30.249  33.800  1.00  0.00     0.023 A 
ATOM     62  C   UNL A   1      42.307  30.069  34.868  1.00  0.00     0.012 A 
ATOM     63  C   UNL A   1      40.432  31.260  33.887  1.00  0.00     0.148 A 
ATOM     64  C   UNL A   1      42.244  30.895  35.997  1.00  0.00     0.002 A 
ATOM     65  C   UNL A   1      40.397  32.100  34.991  1.00  0.00     0.091 A 
ATOM     66  F   UNL A   1      39.589  31.410  32.855  1.00  0.00    -0.205 F 
ATOM     67  C   UNL A   1      41.301  31.921  36.051  1.00  0.00     0.022 A 
BRANCH  65  68
ATOM     68  S   UNL A   1      39.279  33.499  35.072  1.00  0.00     0.127 S 
ATOM     69  O   UNL A   1      37.977  32.843  35.174  1.00  0.00    -0.237 OA
ATOM     70  O   UNL A   1      39.721  34.176  36.292  1.00  0.00    -0.237 OA
ATOM     71  O   UNL A   1      39.492  34.264  33.850  1.00  0.00    -0.744 OA
ENDBRANCH  65  68
ENDBRANCH  38  61
ENDBRANCH  12  13
ENDBRANCH   5   7
ENDBRANCH   2   3
ENDBRANCH   1   2
BRANCH   1  72
ATOM     72  C   UNL A   1      34.303  30.963  27.409  1.00  0.00     0.023 C 
BRANCH  72  73
ATOM     73  C   UNL A   1      33.969  29.562  26.889  1.00  0.00     0.116 C 
BRANCH  73  74
ATOM     74  N   UNL A   1      32.957  28.888  27.678  1.00  0.00    -0.351 N 
ATOM     75  C   UNL A   1      31.957  28.030  27.248  1.00  0.00     0.272 C 
ATOM     76  H   UNL A   1      32.982  29.064  28.646  1.00  0.00     0.163 HD
ATOM     77  O   UNL A   1      31.037  27.781  28.013  1.00  0.00    -0.267 OA
BRANCH  75  78
ATOM     78  C   UNL A   1      32.039  27.486  25.881  1.00  0.00     0.158 A 
ATOM     79  N   UNL A   1      31.271  27.973  24.886  1.00  0.00    -0.166 NA
ATOM     80  C   UNL A   1      32.906  26.455  25.403  1.00  0.00     0.033 A 
ATOM     81  N   UNL A   1      31.643  27.268  23.798  1.00  0.00    -0.260 N 
ATOM     82  C   UNL A   1      32.596  26.309  24.054  1.00  0.00     0.069 A 
ATOM     83  C   UNL A   1      33.919  25.646  25.961  1.00  0.00     0.013 A 
ATOM     84  C   UNL A   1      33.234  25.354  23.248  1.00  0.00     0.028 A 
ATOM     85  C   UNL A   1      34.656  24.797  25.129  1.00  0.00     0.001 A 
ATOM     86  C   UNL A   1      34.312  24.652  23.791  1.00  0.00     0.002 A 
BRANCH  81  87
ATOM     87  C   UNL A   1      31.028  27.587  22.511  1.00  0.00     0.180 C 
BRANCH  87  88
ATOM     88  C   UNL A   1      29.945  28.649  22.608  1.00  0.00    -0.026 A 
ATOM     89  C   UNL A   1      28.650  28.338  23.057  1.00  0.00     0.008 A 
ATOM     90  C   UNL A   1      30.222  29.986  22.275  1.00  0.00     0.008 A 
ATOM     91  C   UNL A   1      27.653  29.310  23.139  1.00  0.00     0.039 A 
ATOM     92  C   UNL A   1      29.228  30.967  22.378  1.00  0.00     0.039 A 
ATOM     93  C   UNL A   1      27.951  30.617  22.800  1.00  0.00     0.123 A 
ATOM     94  F   UNL A   1      26.999  31.555  22.891  1.00  0.00    -0.207 F 
ENDBRANCH  87  88
ENDBRANCH  81  87
ENDBRANCH  75  78
ENDBRANCH  73  74
ENDBRANCH  72  73
ENDBRANCH   1  72
TORSDOF 16
ENDMDL
MODEL 3
REMARK VINA RESULT:     -12.3      4.212      9.255
REMARK SMILES O=C(NCCCCNC(=O)c1nn(Cc2ccc(F)cc2)c2ccccc12)c1ccc(-c2c3nc(c(-c4cccc(S(=O)(=O)[O-])c4F)c4ccc([nH]4)c(-c4cccc(S(=O)(=O)[O-])c4F)c4nc(c(-c5cccc(S(=O)(=O)[O-])c5F)c5ccc2[nH]5)C=C4)C=C3)cc1
REMARK SMILES IDX 5 1 4 2 3 3 1 4 2 5 28 7 29 8 90 9 30 10 89 11 31 12 32 13
REMARK SMILES IDX 33 14 83 15 34 16 88 17 82 18 84 19 35 20 87 21 81 22 80 23
REMARK SMILES IDX 36 25 68 26 48 27 67 28 49 29 52 30 66 31 85 32 50 33 51 34
REMARK SMILES IDX 65 36 86 37 53 38 37 39 38 40 46 41 39 42 41 43 47 44 40 45
REMARK SMILES IDX 42 46 43 47 44 48 45 49 69 50 70 51 78 52 71 53 73 54 79 55
REMARK SMILES IDX 72 56 74 57 75 58 76 59 77 60 54 61 55 62 63 63 56 64 58 65
REMARK SMILES IDX 64 66 57 67 59 68 60 69 61 70 62 71 6 72 7 73 8 74 9 75
REMARK SMILES IDX 10 77 11 78 12 79 27 80 13 81 22 82 26 83 23 84 25 85 24 86
REMARK SMILES IDX 14 87 15 88 16 89 21 90 17 91 20 92 18 93 19 94
REMARK H PARENT 3 6 84 24 52 35 8 76
REMARK Flexibility Score: inf
ROOT
ATOM      1  C   UNL A   1      31.580  32.117  26.469  1.00  0.00     0.023 C 
ENDROOT
BRANCH   1   2
ATOM      2  C   UNL A   1      32.658  32.646  27.399  1.00  0.00     0.116 C 
BRANCH   2   3
ATOM      3  N   UNL A   1      32.441  34.030  27.844  1.00  0.00    -0.352 N 
ATOM      4  O   UNL A   1      32.581  35.666  29.430  1.00  0.00    -0.269 OA
ATOM      5  C   UNL A   1      33.074  34.684  28.897  1.00  0.00     0.251 C 
ATOM      6  H   UNL A   1      31.773  34.552  27.344  1.00  0.00     0.163 HD
BRANCH   5   7
ATOM      7  C   UNL A   1      34.385  34.164  29.330  1.00  0.00     0.039 A 
ATOM      8  C   UNL A   1      34.554  33.295  30.408  1.00  0.00     0.014 A 
ATOM      9  C   UNL A   1      35.459  34.518  28.527  1.00  0.00     0.014 A 
ATOM     10  C   UNL A   1      35.817  32.736  30.604  1.00  0.00     0.010 A 
ATOM     11  C   UNL A   1      36.578  33.743  28.539  1.00  0.00     0.010 A 
ATOM     12  C   UNL A   1      36.823  32.950  29.642  1.00  0.00    -0.014 A 
BRANCH  12  13
ATOM     13  C   UNL A   1      38.121  32.290  29.699  1.00  0.00     0.031 A 
ATOM     14  C   UNL A   1      38.098  30.916  29.153  1.00  0.00     0.074 A 
ATOM     15  C   UNL A   1      39.262  32.917  30.076  1.00  0.00     0.049 A 
ATOM     16  N   UNL A   1      38.022  29.827  29.843  1.00  0.00    -0.248 NA
ATOM     17  C   UNL A   1      37.906  30.722  27.707  1.00  0.00     0.031 C 
ATOM     18  C   UNL A   1      39.472  34.343  30.388  1.00  0.00     0.029 A 
ATOM     19  N   UNL A   1      40.527  32.425  30.161  1.00  0.00    -0.354 N 
ATOM     20  C   UNL A   1      38.101  28.805  28.909  1.00  0.00     0.074 A 
ATOM     21  C   UNL A   1      37.778  29.393  27.635  1.00  0.00     0.031 C 
ATOM     22  C   UNL A   1      40.791  34.632  30.372  1.00  0.00     0.029 A 
ATOM     23  C   UNL A   1      41.529  33.394  30.254  1.00  0.00     0.049 A 
ATOM     24  H   UNL A   1      40.722  31.459  30.156  1.00  0.00     0.167 HD
ATOM     25  C   UNL A   1      38.755  27.651  29.213  1.00  0.00     0.034 A 
ATOM     26  C   UNL A   1      42.869  33.177  30.238  1.00  0.00     0.034 A 
ATOM     27  C   UNL A   1      39.018  27.547  30.626  1.00  0.00     0.049 A 
ATOM     28  C   UNL A   1      43.049  31.780  30.687  1.00  0.00     0.074 A 
ATOM     29  C   UNL A   1      38.248  27.550  31.772  1.00  0.00     0.029 A 
ATOM     30  N   UNL A   1      40.294  27.871  31.016  1.00  0.00    -0.354 N 
ATOM     31  N   UNL A   1      42.750  31.363  31.884  1.00  0.00    -0.248 NA
ATOM     32  C   UNL A   1      43.175  30.751  29.670  1.00  0.00     0.031 C 
ATOM     33  C   UNL A   1      39.003  28.296  32.724  1.00  0.00     0.029 A 
ATOM     34  C   UNL A   1      40.225  28.642  32.144  1.00  0.00     0.049 A 
ATOM     35  H   UNL A   1      41.122  27.595  30.560  1.00  0.00     0.167 HD
ATOM     36  C   UNL A   1      42.188  30.114  31.672  1.00  0.00     0.074 A 
ATOM     37  C   UNL A   1      42.594  29.739  30.319  1.00  0.00     0.031 C 
ATOM     38  C   UNL A   1      41.209  29.643  32.495  1.00  0.00     0.034 A 
BRANCH  25  39
ATOM     39  C   UNL A   1      39.549  26.857  28.211  1.00  0.00     0.023 A 
ATOM     40  C   UNL A   1      39.399  25.456  28.214  1.00  0.00     0.012 A 
ATOM     41  C   UNL A   1      40.630  27.392  27.472  1.00  0.00     0.148 A 
ATOM     42  C   UNL A   1      40.285  24.629  27.514  1.00  0.00     0.002 A 
ATOM     43  C   UNL A   1      41.455  26.575  26.713  1.00  0.00     0.091 A 
ATOM     44  F   UNL A   1      40.962  28.679  27.617  1.00  0.00    -0.205 F 
ATOM     45  C   UNL A   1      41.302  25.188  26.748  1.00  0.00     0.022 A 
BRANCH  43  46
ATOM     46  S   UNL A   1      42.764  27.257  25.690  1.00  0.00     0.127 S 
ATOM     47  O   UNL A   1      43.670  27.793  26.700  1.00  0.00    -0.237 OA
ATOM     48  O   UNL A   1      43.243  26.065  24.990  1.00  0.00    -0.237 OA
ATOM     49  O   UNL A   1      42.111  28.233  24.827  1.00  0.00    -0.744 OA
ENDBRANCH  43  46
ENDBRANCH  25  39
BRANCH  26  50
ATOM     50  C   UNL A   1      43.994  33.945  29.643  1.00  0.00     0.023 A 
ATOM     51  C   UNL A   1      44.942  34.535  30.511  1.00  0.00     0.012 A 
ATOM     52  C   UNL A   1      44.339  33.820  28.281  1.00  0.00     0.148 A 
ATOM     53  C   UNL A   1      46.219  34.894  30.063  1.00  0.00     0.002 A 
ATOM     54  C   UNL A   1      45.610  34.189  27.838  1.00  0.00     0.091 A 
ATOM     55  F   UNL A   1      43.463  33.254  27.440  1.00  0.00    -0.205 F 
ATOM     56  C   UNL A   1      46.560  34.702  28.731  1.00  0.00     0.022 A 
BRANCH  54  57
ATOM     57  S   UNL A   1      46.130  33.973  26.130  1.00  0.00     0.127 S 
ATOM     58  O   UNL A   1      47.524  34.419  26.178  1.00  0.00    -0.237 OA
ATOM     59  O   UNL A   1      45.953  32.537  25.939  1.00  0.00    -0.237 OA
ATOM     60  O   UNL A   1      45.254  34.834  25.346  1.00  0.00    -0.744 OA
ENDBRANCH  54  57
ENDBRANCH  26  50
BRANCH  38  61
ATOM     61  C   UNL A   1      40.994  30.345  33.811  1.00  0.00     0.023 A 
ATOM     62  C   UNL A   1      41.837  30.165  34.928  1.00  0.00     0.012 A 
ATOM     63  C   UNL A   1      40.024  31.360  33.840  1.00  0.00     0.148 A 
ATOM     64  C   UNL A   1      41.715  30.995  36.049  1.00  0.00     0.002 A 
ATOM     65  C   UNL A   1      39.932  32.203  34.938  1.00  0.00     0.091 A 
ATOM     66  F   UNL A   1      39.240  31.509  32.763  1.00  0.00    -0.205 F 
ATOM     67  C   UNL A   1      40.775  32.024  36.047  1.00  0.00     0.022 A 
BRANCH  65  68
ATOM     68  S   UNL A   1      38.817  33.607  34.953  1.00  0.00     0.127 S 
ATOM     69  O   UNL A   1      37.511  32.961  34.839  1.00  0.00    -0.237 OA
ATOM     70  O   UNL A   1      39.092  34.205  36.260  1.00  0.00    -0.237 OA
ATOM     71  O   UNL A   1      39.195  34.441  33.819  1.00  0.00    -0.744 OA
ENDBRANCH  65  68
ENDBRANCH  38  61
ENDBRANCH  12  13
ENDBRANCH   5   7
ENDBRANCH   2   3
ENDBRANCH   1   2
BRANCH   1  72
ATOM     72  C   UNL A   1      31.651  30.610  26.199  1.00  0.00     0.023 C 
BRANCH  72  73
ATOM     73  C   UNL A   1      33.032  29.955  26.296  1.00  0.00     0.116 C 
BRANCH  73  74
ATOM     74  N   UNL A   1      33.642  29.720  25.002  1.00  0.00    -0.351 N 
ATOM     75  C   UNL A   1      33.624  28.566  24.236  1.00  0.00     0.272 C 
ATOM     76  H   UNL A   1      34.136  30.481  24.618  1.00  0.00     0.163 HD
ATOM     77  O   UNL A   1      34.419  28.469  23.313  1.00  0.00    -0.267 OA
BRANCH  75  78
ATOM     78  C   UNL A   1      32.670  27.502  24.594  1.00  0.00     0.158 A 
ATOM     79  N   UNL A   1      33.020  26.495  25.419  1.00  0.00    -0.166 NA
ATOM     80  C   UNL A   1      31.304  27.383  24.189  1.00  0.00     0.033 A 
ATOM     81  N   UNL A   1      31.900  25.753  25.539  1.00  0.00    -0.260 N 
ATOM     82  C   UNL A   1      30.842  26.214  24.787  1.00  0.00     0.069 A 
ATOM     83  C   UNL A   1      30.415  28.140  23.396  1.00  0.00     0.013 A 
ATOM     84  C   UNL A   1      29.533  25.750  24.591  1.00  0.00     0.028 A 
ATOM     85  C   UNL A   1      29.072  27.758  23.316  1.00  0.00     0.001 A 
ATOM     86  C   UNL A   1      28.641  26.575  23.903  1.00  0.00     0.002 A 
BRANCH  81  87
ATOM     87  C   UNL A   1      31.919  24.590  26.423  1.00  0.00     0.180 C 
BRANCH  87  88
ATOM     88  C   UNL A   1      32.901  23.515  25.983  1.00  0.00    -0.026 A 
ATOM     89  C   UNL A   1      33.932  23.072  26.828  1.00  0.00     0.008 A 
ATOM     90  C   UNL A   1      32.782  22.912  24.719  1.00  0.00     0.008 A 
ATOM     91  C   UNL A   1      34.836  22.091  26.424  1.00  0.00     0.039 A 
ATOM     92  C   UNL A   1      33.676  21.912  24.319  1.00  0.00     0.039 A 
ATOM     93  C   UNL A   1      34.700  21.518  25.172  1.00  0.00     0.123 A 
ATOM     94  F   UNL A   1      35.561  20.567  24.786  1.00  0.00    -0.207 F 
ENDBRANCH  87  88
ENDBRANCH  81  87
ENDBRANCH  75  78
ENDBRANCH  73  74
ENDBRANCH  72  73
ENDBRANCH   1  72
TORSDOF 16
ENDMDL
