MODEL 1
REMARK VINA RESULT:     -11.8      0.000      0.000
REMARK SMILES CC(C)(C)OC(=O)N1CCC2(CC1)C[C@@H](C(=O)NCCCCNC(=O)c1ccc(-c3c4nc(c(-c5cccc(S(=O)(=O)[O-])c5F)c5ccc([nH]5)c(-c5cccc(S(=O)(=O)[O-])c5F)c5nc(c(-c6cccc(S(=O)(=O)[O-])c6F)c6ccc3[nH]6)C=C5)C=C4)cc1)CO2
REMARK SMILES IDX 21 1 20 2 19 3 18 4 16 5 17 6 15 8 6 9 7 10 8 11 9 12 13 13
REMARK SMILES IDX 10 14 12 15 11 16 14 17 90 18 89 19 5 20 2 21 1 22 3 23 4 24
REMARK SMILES IDX 22 25 23 26 24 27 25 29 26 30 27 31 88 32 28 33 87 34 29 35
REMARK SMILES IDX 30 36 31 37 81 38 32 39 86 40 80 41 82 42 33 43 85 44 79 45
REMARK SMILES IDX 78 46 34 48 66 49 46 50 65 51 47 52 50 53 64 54 83 55 48 56
REMARK SMILES IDX 49 57 63 59 84 60 51 61 35 62 36 63 44 64 37 65 39 66 45 67
REMARK SMILES IDX 38 68 40 69 41 70 42 71 43 72 67 73 68 74 76 75 69 76 71 77
REMARK SMILES IDX 77 78 70 79 72 80 73 81 74 82 75 83 52 84 53 85 61 86 54 87
REMARK SMILES IDX 56 88 62 89 55 90 57 91 58 92 59 93 60 94
REMARK H PARENT 18 7 23 28 82 47 50 58
REMARK Flexibility Score: inf
ROOT
ATOM      1  C   UNL A   1      31.380  31.949  26.850  1.00  0.00     0.023 C 
ENDROOT
BRANCH   1   2
ATOM      2  C   UNL A   1      31.791  30.479  26.874  1.00  0.00     0.023 C 
BRANCH   2   3
ATOM      3  C   UNL A   1      32.751  30.068  25.765  1.00  0.00     0.116 C 
BRANCH   3   4
ATOM      4  N   UNL A   1      32.124  29.487  24.597  1.00  0.00    -0.356 N 
ATOM      5  C   UNL A   1      31.323  28.400  24.439  1.00  0.00     0.225 C 
ATOM      6  O   UNL A   1      30.768  28.283  23.339  1.00  0.00    -0.275 OA
ATOM      7  H   UNL A   1      32.312  29.970  23.760  1.00  0.00     0.163 HD
BRANCH   5   8
ATOM      8  C   UNL A   1      31.046  27.341  25.509  1.00  0.00     0.107 C 
ATOM      9  C   UNL A   1      33.387  21.183  24.906  1.00  0.00     0.410 C 
ATOM     10  O   UNL A   1      33.023  20.207  25.551  1.00  0.00    -0.224 OA
ATOM     11  N   UNL A   1      32.691  22.371  24.860  1.00  0.00    -0.308 N 
ATOM     12  C   UNL A   1      31.635  22.655  25.824  1.00  0.00     0.126 C 
ATOM     13  C   UNL A   1      32.935  23.394  23.851  1.00  0.00     0.126 C 
ATOM     14  C   UNL A   1      31.872  24.017  26.507  1.00  0.00     0.057 C 
ATOM     15  C   UNL A   1      33.212  24.722  24.532  1.00  0.00     0.057 C 
ATOM     16  C   UNL A   1      32.031  25.119  25.443  1.00  0.00     0.072 C 
ATOM     17  C   UNL A   1      32.242  26.537  25.992  1.00  0.00     0.051 C 
ATOM     18  O   UNL A   1      30.776  25.148  24.726  1.00  0.00    -0.374 OA
ATOM     19  C   UNL A   1      30.029  26.298  25.135  1.00  0.00     0.174 C 
BRANCH   9  20
ATOM     20  O   UNL A   1      34.550  21.266  24.215  1.00  0.00    -0.444 OA
BRANCH  20  21
ATOM     21  C   UNL A   1      35.799  21.653  24.837  1.00  0.00     0.106 C 
ATOM     22  C   UNL A   1      36.572  20.334  25.000  1.00  0.00     0.056 C 
ATOM     23  C   UNL A   1      35.510  22.248  26.213  1.00  0.00     0.056 C 
ATOM     24  C   UNL A   1      36.644  22.595  23.969  1.00  0.00     0.056 C 
ENDBRANCH  20  21
ENDBRANCH   9  20
ENDBRANCH   5   8
ENDBRANCH   3   4
ENDBRANCH   2   3
ENDBRANCH   1   2
BRANCH   1  25
ATOM     25  C   UNL A   1      32.513  32.962  26.693  1.00  0.00     0.116 C 
BRANCH  25  26
ATOM     26  N   UNL A   1      32.370  34.169  27.497  1.00  0.00    -0.352 N 
ATOM     27  C   UNL A   1      33.183  34.587  28.530  1.00  0.00     0.251 C 
ATOM     28  H   UNL A   1      31.607  34.751  27.279  1.00  0.00     0.163 HD
ATOM     29  O   UNL A   1      32.926  35.605  29.163  1.00  0.00    -0.269 OA
BRANCH  27  30
ATOM     30  C   UNL A   1      34.349  33.752  28.891  1.00  0.00     0.039 A 
ATOM     31  C   UNL A   1      35.633  34.228  28.619  1.00  0.00     0.014 A 
ATOM     32  C   UNL A   1      34.167  32.562  29.598  1.00  0.00     0.014 A 
ATOM     33  C   UNL A   1      36.741  33.551  29.138  1.00  0.00     0.010 A 
ATOM     34  C   UNL A   1      35.267  31.932  30.174  1.00  0.00     0.010 A 
ATOM     35  C   UNL A   1      36.564  32.425  29.959  1.00  0.00    -0.014 A 
BRANCH  35  36
ATOM     36  C   UNL A   1      37.713  31.769  30.636  1.00  0.00     0.031 A 
ATOM     37  C   UNL A   1      38.497  30.698  29.926  1.00  0.00     0.074 A 
ATOM     38  C   UNL A   1      37.981  32.056  31.927  1.00  0.00     0.049 A 
ATOM     39  N   UNL A   1      39.483  29.967  30.374  1.00  0.00    -0.248 NA
ATOM     40  C   UNL A   1      38.101  30.386  28.543  1.00  0.00     0.031 C 
ATOM     41  C   UNL A   1      37.238  33.008  32.758  1.00  0.00     0.029 A 
ATOM     42  N   UNL A   1      38.934  31.553  32.778  1.00  0.00    -0.354 N 
ATOM     43  C   UNL A   1      39.793  29.078  29.351  1.00  0.00     0.074 A 
ATOM     44  C   UNL A   1      38.874  29.346  28.266  1.00  0.00     0.031 C 
ATOM     45  C   UNL A   1      37.768  33.025  33.992  1.00  0.00     0.029 A 
ATOM     46  C   UNL A   1      38.869  32.070  34.052  1.00  0.00     0.049 A 
ATOM     47  H   UNL A   1      39.603  30.885  32.502  1.00  0.00     0.167 HD
ATOM     48  C   UNL A   1      40.772  28.146  29.306  1.00  0.00     0.034 A 
ATOM     49  C   UNL A   1      39.614  31.805  35.145  1.00  0.00     0.034 A 
ATOM     50  C   UNL A   1      41.731  27.933  30.355  1.00  0.00     0.049 A 
ATOM     51  C   UNL A   1      40.738  30.808  35.040  1.00  0.00     0.074 A 
ATOM     52  C   UNL A   1      42.837  27.100  30.351  1.00  0.00     0.029 A 
ATOM     53  N   UNL A   1      41.698  28.551  31.594  1.00  0.00    -0.354 N 
ATOM     54  N   UNL A   1      41.135  30.119  33.999  1.00  0.00    -0.248 NA
ATOM     55  C   UNL A   1      41.541  30.582  36.251  1.00  0.00     0.031 C 
ATOM     56  C   UNL A   1      43.464  27.204  31.596  1.00  0.00     0.029 A 
ATOM     57  C   UNL A   1      42.757  28.112  32.368  1.00  0.00     0.049 A 
ATOM     58  H   UNL A   1      41.021  29.206  31.881  1.00  0.00     0.167 HD
ATOM     59  C   UNL A   1      42.257  29.411  34.416  1.00  0.00     0.074 A 
ATOM     60  C   UNL A   1      42.488  29.770  35.800  1.00  0.00     0.031 C 
ATOM     61  C   UNL A   1      43.018  28.531  33.721  1.00  0.00     0.034 A 
BRANCH  48  62
ATOM     62  C   UNL A   1      40.905  27.322  28.052  1.00  0.00     0.023 A 
ATOM     63  C   UNL A   1      41.504  27.890  26.910  1.00  0.00     0.012 A 
ATOM     64  C   UNL A   1      40.514  25.970  28.031  1.00  0.00     0.148 A 
ATOM     65  C   UNL A   1      41.689  27.133  25.755  1.00  0.00     0.002 A 
ATOM     66  C   UNL A   1      40.739  25.209  26.889  1.00  0.00     0.091 A 
ATOM     67  F   UNL A   1      39.926  25.456  29.121  1.00  0.00    -0.205 F 
ATOM     68  C   UNL A   1      41.318  25.790  25.749  1.00  0.00     0.022 A 
BRANCH  66  69
ATOM     69  S   UNL A   1      40.368  23.453  26.805  1.00  0.00     0.127 S 
ATOM     70  O   UNL A   1      40.698  23.017  28.161  1.00  0.00    -0.237 OA
ATOM     71  O   UNL A   1      38.939  23.455  26.497  1.00  0.00    -0.237 OA
ATOM     72  O   UNL A   1      41.217  22.913  25.752  1.00  0.00    -0.744 OA
ENDBRANCH  66  69
ENDBRANCH  48  62
BRANCH  49  73
ATOM     73  C   UNL A   1      39.380  32.550  36.416  1.00  0.00     0.023 A 
ATOM     74  C   UNL A   1      40.112  33.729  36.662  1.00  0.00     0.012 A 
ATOM     75  C   UNL A   1      38.449  32.110  37.375  1.00  0.00     0.148 A 
ATOM     76  C   UNL A   1      39.951  34.433  37.855  1.00  0.00     0.002 A 
ATOM     77  C   UNL A   1      38.254  32.846  38.539  1.00  0.00     0.091 A 
ATOM     78  F   UNL A   1      37.773  30.977  37.134  1.00  0.00    -0.205 F 
ATOM     79  C   UNL A   1      39.015  33.997  38.790  1.00  0.00     0.022 A 
BRANCH  77  80
ATOM     80  S   UNL A   1      36.978  32.422  39.732  1.00  0.00     0.127 S 
ATOM     81  O   UNL A   1      35.775  32.444  38.906  1.00  0.00    -0.237 OA
ATOM     82  O   UNL A   1      37.399  31.092  40.174  1.00  0.00    -0.237 OA
ATOM     83  O   UNL A   1      37.065  33.447  40.765  1.00  0.00    -0.744 OA
ENDBRANCH  77  80
ENDBRANCH  49  73
BRANCH  61  84
ATOM     84  C   UNL A   1      44.202  27.919  34.421  1.00  0.00     0.023 A 
ATOM     85  C   UNL A   1      45.447  28.577  34.391  1.00  0.00     0.012 A 
ATOM     86  C   UNL A   1      44.058  26.741  35.181  1.00  0.00     0.148 A 
ATOM     87  C   UNL A   1      46.539  28.055  35.083  1.00  0.00     0.002 A 
ATOM     88  C   UNL A   1      45.138  26.253  35.906  1.00  0.00     0.091 A 
ATOM     89  F   UNL A   1      42.869  26.120  35.180  1.00  0.00    -0.205 F 
ATOM     90  C   UNL A   1      46.382  26.902  35.849  1.00  0.00     0.022 A 
BRANCH  88  91
ATOM     91  S   UNL A   1      44.997  24.831  36.996  1.00  0.00     0.127 S 
ATOM     92  O   UNL A   1      44.627  23.772  36.058  1.00  0.00    -0.237 OA
ATOM     93  O   UNL A   1      46.351  24.718  37.540  1.00  0.00    -0.237 OA
ATOM     94  O   UNL A   1      43.981  25.183  37.979  1.00  0.00    -0.744 OA
ENDBRANCH  88  91
ENDBRANCH  61  84
ENDBRANCH  35  36
ENDBRANCH  27  30
ENDBRANCH  25  26
ENDBRANCH   1  25
TORSDOF 16
ENDMDL
MODEL 2
REMARK VINA RESULT:     -11.8      1.767      7.836
REMARK SMILES CC(C)(C)OC(=O)N1CCC2(CC1)C[C@@H](C(=O)NCCCCNC(=O)c1ccc(-c3c4nc(c(-c5cccc(S(=O)(=O)[O-])c5F)c5ccc([nH]5)c(-c5cccc(S(=O)(=O)[O-])c5F)c5nc(c(-c6cccc(S(=O)(=O)[O-])c6F)c6ccc3[nH]6)C=C5)C=C4)cc1)CO2
REMARK SMILES IDX 21 1 20 2 19 3 18 4 16 5 17 6 15 8 6 9 7 10 8 11 9 12 13 13
REMARK SMILES IDX 10 14 12 15 11 16 14 17 90 18 89 19 5 20 2 21 1 22 3 23 4 24
REMARK SMILES IDX 22 25 23 26 24 27 25 29 26 30 27 31 88 32 28 33 87 34 29 35
REMARK SMILES IDX 30 36 31 37 81 38 32 39 86 40 80 41 82 42 33 43 85 44 79 45
REMARK SMILES IDX 78 46 34 48 66 49 46 50 65 51 47 52 50 53 64 54 83 55 48 56
REMARK SMILES IDX 49 57 63 59 84 60 51 61 35 62 36 63 44 64 37 65 39 66 45 67
REMARK SMILES IDX 38 68 40 69 41 70 42 71 43 72 67 73 68 74 76 75 69 76 71 77
REMARK SMILES IDX 77 78 70 79 72 80 73 81 74 82 75 83 52 84 53 85 61 86 54 87
REMARK SMILES IDX 56 88 62 89 55 90 57 91 58 92 59 93 60 94
REMARK H PARENT 18 7 23 28 82 47 50 58
REMARK Flexibility Score: inf
ROOT
ATOM      1  C   UNL A   1      32.516  29.453  24.772  1.00  0.00     0.023 C 
ENDROOT
BRANCH   1   2
ATOM      2  C   UNL A   1      31.032  29.669  24.485  1.00  0.00     0.023 C 
BRANCH   2   3
ATOM      3  C   UNL A   1      30.450  28.755  23.414  1.00  0.00     0.116 C 
BRANCH   3   4
ATOM      4  N   UNL A   1      29.940  27.491  23.899  1.00  0.00    -0.356 N 
ATOM      5  C   UNL A   1      30.509  26.262  24.012  1.00  0.00     0.225 C 
ATOM      6  O   UNL A   1      29.877  25.424  24.668  1.00  0.00    -0.275 OA
ATOM      7  H   UNL A   1      29.005  27.528  24.205  1.00  0.00     0.163 HD
BRANCH   5   8
ATOM      8  C   UNL A   1      31.858  25.852  23.416  1.00  0.00     0.107 C 
ATOM      9  C   UNL A   1      34.684  20.084  24.998  1.00  0.00     0.410 C 
ATOM     10  O   UNL A   1      35.850  19.773  24.792  1.00  0.00    -0.224 OA
ATOM     11  N   UNL A   1      34.211  21.376  24.913  1.00  0.00    -0.308 N 
ATOM     12  C   UNL A   1      35.001  22.418  24.268  1.00  0.00     0.126 C 
ATOM     13  C   UNL A   1      32.932  21.790  25.475  1.00  0.00     0.126 C 
ATOM     14  C   UNL A   1      34.169  23.144  23.192  1.00  0.00     0.057 C 
ATOM     15  C   UNL A   1      32.101  22.464  24.398  1.00  0.00     0.057 C 
ATOM     16  C   UNL A   1      32.859  23.672  23.806  1.00  0.00     0.072 C 
ATOM     17  C   UNL A   1      31.948  24.447  22.844  1.00  0.00     0.051 C 
ATOM     18  O   UNL A   1      33.262  24.614  24.826  1.00  0.00    -0.374 OA
ATOM     19  C   UNL A   1      33.031  25.945  24.352  1.00  0.00     0.174 C 
BRANCH   9  20
ATOM     20  O   UNL A   1      33.682  19.210  25.259  1.00  0.00    -0.444 OA
BRANCH  20  21
ATOM     21  C   UNL A   1      33.224  18.238  24.288  1.00  0.00     0.106 C 
ATOM     22  C   UNL A   1      32.189  17.393  25.048  1.00  0.00     0.056 C 
ATOM     23  C   UNL A   1      34.398  17.354  23.873  1.00  0.00     0.056 C 
ATOM     24  C   UNL A   1      32.525  18.871  23.078  1.00  0.00     0.056 C 
ENDBRANCH  20  21
ENDBRANCH   9  20
ENDBRANCH   5   8
ENDBRANCH   3   4
ENDBRANCH   2   3
ENDBRANCH   1   2
BRANCH   1  25
ATOM     25  C   UNL A   1      32.961  29.676  26.216  1.00  0.00     0.116 C 
BRANCH  25  26
ATOM     26  N   UNL A   1      32.736  31.024  26.724  1.00  0.00    -0.352 N 
ATOM     27  C   UNL A   1      33.589  31.775  27.506  1.00  0.00     0.251 C 
ATOM     28  H   UNL A   1      31.880  31.444  26.482  1.00  0.00     0.163 HD
ATOM     29  O   UNL A   1      33.261  32.885  27.910  1.00  0.00    -0.269 OA
BRANCH  27  30
ATOM     30  C   UNL A   1      34.893  31.191  27.889  1.00  0.00     0.039 A 
ATOM     31  C   UNL A   1      36.002  32.032  28.011  1.00  0.00     0.014 A 
ATOM     32  C   UNL A   1      34.982  29.842  28.235  1.00  0.00     0.014 A 
ATOM     33  C   UNL A   1      37.182  31.534  28.570  1.00  0.00     0.010 A 
ATOM     34  C   UNL A   1      36.134  29.370  28.858  1.00  0.00     0.010 A 
ATOM     35  C   UNL A   1      37.242  30.212  29.041  1.00  0.00    -0.014 A 
BRANCH  35  36
ATOM     36  C   UNL A   1      38.435  29.698  29.763  1.00  0.00     0.031 A 
ATOM     37  C   UNL A   1      38.791  30.245  31.119  1.00  0.00     0.074 A 
ATOM     38  C   UNL A   1      39.260  28.822  29.151  1.00  0.00     0.049 A 
ATOM     39  N   UNL A   1      39.826  29.972  31.870  1.00  0.00    -0.248 NA
ATOM     40  C   UNL A   1      37.884  31.252  31.693  1.00  0.00     0.031 C 
ATOM     41  C   UNL A   1      39.077  28.284  27.801  1.00  0.00     0.029 A 
ATOM     42  N   UNL A   1      40.436  28.251  29.576  1.00  0.00    -0.354 N 
ATOM     43  C   UNL A   1      39.722  30.806  32.978  1.00  0.00     0.074 A 
ATOM     44  C   UNL A   1      38.535  31.611  32.791  1.00  0.00     0.031 C 
ATOM     45  C   UNL A   1      40.097  27.458  27.512  1.00  0.00     0.029 A 
ATOM     46  C   UNL A   1      41.019  27.425  28.642  1.00  0.00     0.049 A 
ATOM     47  H   UNL A   1      40.824  28.417  30.465  1.00  0.00     0.167 HD
ATOM     48  C   UNL A   1      40.524  30.873  34.065  1.00  0.00     0.034 A 
ATOM     49  C   UNL A   1      42.168  26.721  28.692  1.00  0.00     0.034 A 
ATOM     50  C   UNL A   1      41.660  30.020  34.284  1.00  0.00     0.049 A 
ATOM     51  C   UNL A   1      43.002  26.769  29.945  1.00  0.00     0.074 A 
ATOM     52  C   UNL A   1      42.458  29.926  35.410  1.00  0.00     0.029 A 
ATOM     53  N   UNL A   1      42.162  29.120  33.359  1.00  0.00    -0.354 N 
ATOM     54  N   UNL A   1      42.779  27.419  31.060  1.00  0.00    -0.248 NA
ATOM     55  C   UNL A   1      44.227  25.954  29.960  1.00  0.00     0.031 C 
ATOM     56  C   UNL A   1      43.454  28.977  35.160  1.00  0.00     0.029 A 
ATOM     57  C   UNL A   1      43.265  28.472  33.884  1.00  0.00     0.049 A 
ATOM     58  H   UNL A   1      41.788  28.963  32.462  1.00  0.00     0.167 HD
ATOM     59  C   UNL A   1      43.809  27.061  31.923  1.00  0.00     0.074 A 
ATOM     60  C   UNL A   1      44.647  26.121  31.207  1.00  0.00     0.031 C 
ATOM     61  C   UNL A   1      44.049  27.485  33.188  1.00  0.00     0.034 A 
BRANCH  48  62
ATOM     62  C   UNL A   1      40.167  31.861  35.144  1.00  0.00     0.023 A 
ATOM     63  C   UNL A   1      40.810  33.114  35.178  1.00  0.00     0.012 A 
ATOM     64  C   UNL A   1      39.142  31.582  36.069  1.00  0.00     0.148 A 
ATOM     65  C   UNL A   1      40.459  34.067  36.133  1.00  0.00     0.002 A 
ATOM     66  C   UNL A   1      38.768  32.552  36.992  1.00  0.00     0.091 A 
ATOM     67  F   UNL A   1      38.558  30.375  36.034  1.00  0.00    -0.205 F 
ATOM     68  C   UNL A   1      39.431  33.790  37.031  1.00  0.00     0.022 A 
BRANCH  66  69
ATOM     69  S   UNL A   1      37.406  32.324  38.141  1.00  0.00     0.127 S 
ATOM     70  O   UNL A   1      37.937  32.943  39.354  1.00  0.00    -0.237 OA
ATOM     71  O   UNL A   1      36.330  33.076  37.495  1.00  0.00    -0.237 OA
ATOM     72  O   UNL A   1      37.183  30.887  38.219  1.00  0.00    -0.744 OA
ENDBRANCH  66  69
ENDBRANCH  48  62
BRANCH  49  73
ATOM     73  C   UNL A   1      42.563  25.841  27.554  1.00  0.00     0.023 A 
ATOM     74  C   UNL A   1      43.383  26.368  26.535  1.00  0.00     0.012 A 
ATOM     75  C   UNL A   1      42.142  24.501  27.468  1.00  0.00     0.148 A 
ATOM     76  C   UNL A   1      43.742  25.590  25.434  1.00  0.00     0.002 A 
ATOM     77  C   UNL A   1      42.547  23.715  26.395  1.00  0.00     0.091 A 
ATOM     78  F   UNL A   1      41.348  24.020  28.436  1.00  0.00    -0.205 F 
ATOM     79  C   UNL A   1      43.333  24.261  25.368  1.00  0.00     0.022 A 
BRANCH  77  80
ATOM     80  S   UNL A   1      42.169  21.961  26.302  1.00  0.00     0.127 S 
ATOM     81  O   UNL A   1      42.962  21.543  25.150  1.00  0.00    -0.237 OA
ATOM     82  O   UNL A   1      42.653  21.472  27.594  1.00  0.00    -0.237 OA
ATOM     83  O   UNL A   1      40.722  21.889  26.143  1.00  0.00    -0.744 OA
ENDBRANCH  77  80
ENDBRANCH  49  73
BRANCH  61  84
ATOM     84  C   UNL A   1      45.240  26.909  33.907  1.00  0.00     0.023 A 
ATOM     85  C   UNL A   1      46.473  27.589  33.871  1.00  0.00     0.012 A 
ATOM     86  C   UNL A   1      45.114  25.743  34.688  1.00  0.00     0.148 A 
ATOM     87  C   UNL A   1      47.571  27.102  34.578  1.00  0.00     0.002 A 
ATOM     88  C   UNL A   1      46.199  25.289  35.428  1.00  0.00     0.091 A 
ATOM     89  F   UNL A   1      43.937  25.100  34.692  1.00  0.00    -0.205 F 
ATOM     90  C   UNL A   1      47.431  25.961  35.366  1.00  0.00     0.022 A 
BRANCH  88  91
ATOM     91  S   UNL A   1      46.078  23.887  36.544  1.00  0.00     0.127 S 
ATOM     92  O   UNL A   1      47.391  23.903  37.187  1.00  0.00    -0.237 OA
ATOM     93  O   UNL A   1      44.967  24.275  37.415  1.00  0.00    -0.237 OA
ATOM     94  O   UNL A   1      45.805  22.730  35.702  1.00  0.00    -0.744 OA
ENDBRANCH  88  91
ENDBRANCH  61  84
ENDBRANCH  35  36
ENDBRANCH  27  30
ENDBRANCH  25  26
ENDBRANCH   1  25
TORSDOF 16
ENDMDL
MODEL 3
REMARK VINA RESULT:     -11.8      1.661      2.097
REMARK SMILES CC(C)(C)OC(=O)N1CCC2(CC1)C[C@@H](C(=O)NCCCCNC(=O)c1ccc(-c3c4nc(c(-c5cccc(S(=O)(=O)[O-])c5F)c5ccc([nH]5)c(-c5cccc(S(=O)(=O)[O-])c5F)c5nc(c(-c6cccc(S(=O)(=O)[O-])c6F)c6ccc3[nH]6)C=C5)C=C4)cc1)CO2
REMARK SMILES IDX 21 1 20 2 19 3 18 4 16 5 17 6 15 8 6 9 7 10 8 11 9 12 13 13
REMARK SMILES IDX 10 14 12 15 11 16 14 17 90 18 89 19 5 20 2 21 1 22 3 23 4 24
REMARK SMILES IDX 22 25 23 26 24 27 25 29 26 30 27 31 88 32 28 33 87 34 29 35
REMARK SMILES IDX 30 36 31 37 81 38 32 39 86 40 80 41 82 42 33 43 85 44 79 45
REMARK SMILES IDX 78 46 34 48 66 49 46 50 65 51 47 52 50 53 64 54 83 55 48 56
REMARK SMILES IDX 49 57 63 59 84 60 51 61 35 62 36 63 44 64 37 65 39 66 45 67
REMARK SMILES IDX 38 68 40 69 41 70 42 71 43 72 67 73 68 74 76 75 69 76 71 77
REMARK SMILES IDX 77 78 70 79 72 80 73 81 74 82 75 83 52 84 53 85 61 86 54 87
REMARK SMILES IDX 56 88 62 89 55 90 57 91 58 92 59 93 60 94
REMARK H PARENT 18 7 23 28 82 47 50 58
REMARK Flexibility Score: inf
ROOT
ATOM      1  C   UNL A   1      32.178  31.385  26.911  1.00  0.00     0.023 C 
ENDROOT
BRANCH   1   2
ATOM      2  C   UNL A   1      32.615  29.922  26.939  1.00  0.00     0.023 C 
BRANCH   2   3
ATOM      3  C   UNL A   1      33.096  29.374  25.602  1.00  0.00     0.116 C 
BRANCH   3   4
ATOM      4  N   UNL A   1      32.228  29.653  24.478  1.00  0.00    -0.356 N 
ATOM      5  C   UNL A   1      31.075  29.074  24.053  1.00  0.00     0.225 C 
ATOM      6  O   UNL A   1      30.449  29.680  23.173  1.00  0.00    -0.275 OA
ATOM      7  H   UNL A   1      32.529  30.404  23.918  1.00  0.00     0.163 HD
BRANCH   5   8
ATOM      8  C   UNL A   1      30.493  27.761  24.585  1.00  0.00     0.107 C 
ATOM      9  C   UNL A   1      33.743  22.045  23.868  1.00  0.00     0.410 C 
ATOM     10  O   UNL A   1      33.272  20.924  24.018  1.00  0.00    -0.224 OA
ATOM     11  N   UNL A   1      32.980  23.185  23.750  1.00  0.00    -0.308 N 
ATOM     12  C   UNL A   1      31.566  23.176  24.107  1.00  0.00     0.126 C 
ATOM     13  C   UNL A   1      33.510  24.445  23.245  1.00  0.00     0.126 C 
ATOM     14  C   UNL A   1      31.248  24.313  25.099  1.00  0.00     0.057 C 
ATOM     15  C   UNL A   1      33.232  25.550  24.248  1.00  0.00     0.057 C 
ATOM     16  C   UNL A   1      31.717  25.662  24.524  1.00  0.00     0.072 C 
ATOM     17  C   UNL A   1      31.430  26.887  25.402  1.00  0.00     0.051 C 
ATOM     18  O   UNL A   1      30.956  25.850  23.310  1.00  0.00    -0.374 OA
ATOM     19  C   UNL A   1      29.940  26.832  23.541  1.00  0.00     0.174 C 
BRANCH   9  20
ATOM     20  O   UNL A   1      35.067  22.337  23.875  1.00  0.00    -0.444 OA
BRANCH  20  21
ATOM     21  C   UNL A   1      35.896  22.165  25.050  1.00  0.00     0.106 C 
ATOM     22  C   UNL A   1      37.051  23.160  24.854  1.00  0.00     0.056 C 
ATOM     23  C   UNL A   1      36.447  20.741  25.070  1.00  0.00     0.056 C 
ATOM     24  C   UNL A   1      35.178  22.522  26.358  1.00  0.00     0.056 C 
ENDBRANCH  20  21
ENDBRANCH   9  20
ENDBRANCH   5   8
ENDBRANCH   3   4
ENDBRANCH   2   3
ENDBRANCH   1   2
BRANCH   1  25
ATOM     25  C   UNL A   1      33.184  32.398  27.456  1.00  0.00     0.116 C 
BRANCH  25  26
ATOM     26  N   UNL A   1      32.655  33.743  27.645  1.00  0.00    -0.352 N 
ATOM     27  C   UNL A   1      33.113  34.705  28.522  1.00  0.00     0.251 C 
ATOM     28  H   UNL A   1      31.884  33.992  27.086  1.00  0.00     0.163 HD
ATOM     29  O   UNL A   1      32.547  35.788  28.621  1.00  0.00    -0.269 OA
BRANCH  27  30
ATOM     30  C   UNL A   1      34.274  34.383  29.378  1.00  0.00     0.039 A 
ATOM     31  C   UNL A   1      34.051  33.839  30.645  1.00  0.00     0.014 A 
ATOM     32  C   UNL A   1      35.572  34.512  28.878  1.00  0.00     0.014 A 
ATOM     33  C   UNL A   1      35.132  33.340  31.378  1.00  0.00     0.010 A 
ATOM     34  C   UNL A   1      36.634  33.948  29.578  1.00  0.00     0.010 A 
ATOM     35  C   UNL A   1      36.425  33.347  30.829  1.00  0.00    -0.014 A 
BRANCH  35  36
ATOM     36  C   UNL A   1      37.568  32.699  31.526  1.00  0.00     0.031 A 
ATOM     37  C   UNL A   1      38.287  31.544  30.884  1.00  0.00     0.074 A 
ATOM     38  C   UNL A   1      37.885  33.078  32.782  1.00  0.00     0.049 A 
ATOM     39  N   UNL A   1      39.257  30.810  31.363  1.00  0.00    -0.248 NA
ATOM     40  C   UNL A   1      37.838  31.139  29.542  1.00  0.00     0.031 C 
ATOM     41  C   UNL A   1      37.206  34.123  33.552  1.00  0.00     0.029 A 
ATOM     42  N   UNL A   1      38.844  32.604  33.645  1.00  0.00    -0.354 N 
ATOM     43  C   UNL A   1      39.501  29.831  30.407  1.00  0.00     0.074 A 
ATOM     44  C   UNL A   1      38.561  30.049  29.329  1.00  0.00     0.031 C 
ATOM     45  C   UNL A   1      37.773  34.216  34.767  1.00  0.00     0.029 A 
ATOM     46  C   UNL A   1      38.837  33.224  34.874  1.00  0.00     0.049 A 
ATOM     47  H   UNL A   1      39.477  31.889  33.406  1.00  0.00     0.167 HD
ATOM     48  C   UNL A   1      40.440  28.857  30.412  1.00  0.00     0.034 A 
ATOM     49  C   UNL A   1      39.603  33.016  35.964  1.00  0.00     0.034 A 
ATOM     50  C   UNL A   1      41.421  28.689  31.449  1.00  0.00     0.049 A 
ATOM     51  C   UNL A   1      40.684  31.968  35.910  1.00  0.00     0.074 A 
ATOM     52  C   UNL A   1      42.493  27.814  31.483  1.00  0.00     0.029 A 
ATOM     53  N   UNL A   1      41.450  29.405  32.635  1.00  0.00    -0.354 N 
ATOM     54  N   UNL A   1      41.022  31.182  34.918  1.00  0.00    -0.248 NA
ATOM     55  C   UNL A   1      41.513  31.806  37.114  1.00  0.00     0.031 C 
ATOM     56  C   UNL A   1      43.161  27.990  32.698  1.00  0.00     0.029 A 
ATOM     57  C   UNL A   1      42.514  28.986  33.412  1.00  0.00     0.049 A 
ATOM     58  H   UNL A   1      40.809  30.109  32.885  1.00  0.00     0.167 HD
ATOM     59  C   UNL A   1      42.127  30.463  35.361  1.00  0.00     0.074 A 
ATOM     60  C   UNL A   1      42.413  30.922  36.705  1.00  0.00     0.031 C 
ATOM     61  C   UNL A   1      42.831  29.500  34.720  1.00  0.00     0.034 A 
BRANCH  48  62
ATOM     62  C   UNL A   1      40.503  27.932  29.226  1.00  0.00     0.023 A 
ATOM     63  C   UNL A   1      39.592  26.860  29.134  1.00  0.00     0.012 A 
ATOM     64  C   UNL A   1      41.404  28.170  28.170  1.00  0.00     0.148 A 
ATOM     65  C   UNL A   1      39.594  26.022  28.020  1.00  0.00     0.002 A 
ATOM     66  C   UNL A   1      41.371  27.355  27.044  1.00  0.00     0.091 A 
ATOM     67  F   UNL A   1      42.276  29.182  28.288  1.00  0.00    -0.205 F 
ATOM     68  C   UNL A   1      40.473  26.277  26.972  1.00  0.00     0.022 A 
BRANCH  66  69
ATOM     69  S   UNL A   1      42.409  27.645  25.607  1.00  0.00     0.127 S 
ATOM     70  O   UNL A   1      43.741  27.677  26.208  1.00  0.00    -0.237 OA
ATOM     71  O   UNL A   1      42.138  26.464  24.788  1.00  0.00    -0.237 OA
ATOM     72  O   UNL A   1      41.954  28.903  25.030  1.00  0.00    -0.744 OA
ENDBRANCH  66  69
ENDBRANCH  48  62
BRANCH  49  73
ATOM     73  C   UNL A   1      39.437  33.869  37.177  1.00  0.00     0.023 A 
ATOM     74  C   UNL A   1      39.930  35.189  37.157  1.00  0.00     0.012 A 
ATOM     75  C   UNL A   1      38.802  33.394  38.339  1.00  0.00     0.148 A 
ATOM     76  C   UNL A   1      39.829  36.006  38.283  1.00  0.00     0.002 A 
ATOM     77  C   UNL A   1      38.656  34.231  39.440  1.00  0.00     0.091 A 
ATOM     78  F   UNL A   1      38.354  32.130  38.349  1.00  0.00    -0.205 F 
ATOM     79  C   UNL A   1      39.184  35.531  39.421  1.00  0.00     0.022 A 
BRANCH  77  80
ATOM     80  S   UNL A   1      37.727  33.738  40.897  1.00  0.00     0.127 S 
ATOM     81  O   UNL A   1      37.544  35.014  41.583  1.00  0.00    -0.237 OA
ATOM     82  O   UNL A   1      36.511  33.173  40.310  1.00  0.00    -0.237 OA
ATOM     83  O   UNL A   1      38.569  32.761  41.576  1.00  0.00    -0.744 OA
ENDBRANCH  77  80
ENDBRANCH  49  73
BRANCH  61  84
ATOM     84  C   UNL A   1      44.011  28.897  35.436  1.00  0.00     0.023 A 
ATOM     85  C   UNL A   1      45.286  29.477  35.290  1.00  0.00     0.012 A 
ATOM     86  C   UNL A   1      43.838  27.813  36.319  1.00  0.00     0.148 A 
ATOM     87  C   UNL A   1      46.378  28.968  35.991  1.00  0.00     0.002 A 
ATOM     88  C   UNL A   1      44.922  27.341  37.050  1.00  0.00     0.091 A 
ATOM     89  F   UNL A   1      42.619  27.263  36.427  1.00  0.00    -0.205 F 
ATOM     90  C   UNL A   1      46.194  27.910  36.879  1.00  0.00     0.022 A 
BRANCH  88  91
ATOM     91  S   UNL A   1      44.753  26.049  38.287  1.00  0.00     0.127 S 
ATOM     92  O   UNL A   1      46.128  25.912  38.764  1.00  0.00    -0.237 OA
ATOM     93  O   UNL A   1      43.831  26.656  39.249  1.00  0.00    -0.237 OA
ATOM     94  O   UNL A   1      44.213  24.893  37.584  1.00  0.00    -0.744 OA
ENDBRANCH  88  91
ENDBRANCH  61  84
ENDBRANCH  35  36
ENDBRANCH  27  30
ENDBRANCH  25  26
ENDBRANCH   1  25
TORSDOF 16
ENDMDL
