MODEL 1
REMARK VINA RESULT:     -13.4      0.000      0.000
REMARK SMILES COc1ccc(-c2[nH]nc3nc(-c4ccc(C(F)(F)F)cc4)cc(C(=O)NCCCCNC(=O)c4ccc(-c5c6nc(c(-c7cccc(S(=O)(=O)[O-])c7F)c7ccc([nH]7)c(-c7cccc(S(=O)(=O)[O-])c7F)c7nc(c(-c8cccc(S(=O)(=O)[O-])c8F)c8ccc5[nH]8)C=C7)C=C6)cc4)c23)cc1
REMARK SMILES IDX 30 1 29 2 28 3 27 4 25 5 26 6 24 8 7 9 8 10 98 11 9 12 10 14
REMARK SMILES IDX 11 15 23 16 12 17 6 18 3 19 4 20 100 21 5 22 99 23 2 24 1 25
REMARK SMILES IDX 13 26 14 27 22 28 15 29 21 30 16 31 17 32 18 33 19 34 20 35
REMARK SMILES IDX 31 36 32 37 33 38 34 40 35 41 36 42 97 43 37 44 96 45 38 46
REMARK SMILES IDX 39 47 40 48 90 49 41 50 95 51 89 52 91 53 42 54 94 55 88 56
REMARK SMILES IDX 87 57 43 59 75 60 55 61 74 62 56 63 59 64 73 65 92 66 57 67
REMARK SMILES IDX 58 68 72 70 93 71 60 72 44 73 45 74 53 75 46 76 48 77 54 78
REMARK SMILES IDX 47 79 49 80 50 81 51 82 52 83 76 84 77 85 85 86 78 87 80 88
REMARK SMILES IDX 86 89 79 90 81 91 82 92 83 93 84 94 61 95 62 96 70 97 63 98
REMARK SMILES IDX 65 99 71 100 64 101 66 102 67 103 68 104 69 105
REMARK H PARENT 27 7 8 13 32 39 91 58 59 69
REMARK Flexibility Score: inf
ROOT
ATOM      1  C   UNL A   1      37.416  21.569  23.971  1.00  0.00     0.023 C 
ENDROOT
BRANCH   1   2
ATOM      2  C   UNL A   1      36.642  22.875  23.719  1.00  0.00     0.023 C 
BRANCH   2   3
ATOM      3  C   UNL A   1      36.415  23.729  24.966  1.00  0.00     0.116 C 
BRANCH   3   4
ATOM      4  N   UNL A   1      35.477  24.803  24.723  1.00  0.00    -0.352 N 
ATOM      5  C   UNL A   1      34.116  24.963  24.733  1.00  0.00     0.252 C 
ATOM      6  O   UNL A   1      33.762  26.114  24.528  1.00  0.00    -0.269 OA
ATOM      7  H   UNL A   1      35.938  25.641  24.489  1.00  0.00     0.163 HD
BRANCH   5   8
ATOM      8  C   UNL A   1      33.124  23.891  24.996  1.00  0.00     0.055 A 
ATOM      9  C   UNL A   1      31.199  25.129  26.125  1.00  0.00     0.075 A 
ATOM     10  N   UNL A   1      30.087  24.626  26.759  1.00  0.00    -0.275 N 
ATOM     11  C   UNL A   1      31.892  24.012  25.679  1.00  0.00     0.059 A 
ATOM     12  N   UNL A   1      29.941  23.297  26.690  1.00  0.00    -0.154 NA
ATOM     13  H   UNL A   1      29.444  25.203  27.231  1.00  0.00     0.190 HD
ATOM     14  C   UNL A   1      31.043  22.899  26.055  1.00  0.00     0.182 A 
ATOM     15  N   UNL A   1      31.351  21.604  25.786  1.00  0.00    -0.226 NA
ATOM     16  C   UNL A   1      33.329  22.549  24.655  1.00  0.00     0.043 A 
ATOM     17  C   UNL A   1      32.515  21.481  25.106  1.00  0.00     0.074 A 
BRANCH   9  18
ATOM     18  C   UNL A   1      31.372  26.575  26.036  1.00  0.00     0.001 A 
ATOM     19  C   UNL A   1      31.811  29.347  25.815  1.00  0.00     0.118 A 
ATOM     20  C   UNL A   1      32.180  28.660  26.973  1.00  0.00     0.047 A 
ATOM     21  C   UNL A   1      31.206  28.648  24.770  1.00  0.00     0.047 A 
ATOM     22  C   UNL A   1      31.958  27.284  27.090  1.00  0.00     0.014 A 
ATOM     23  C   UNL A   1      30.970  27.272  24.890  1.00  0.00     0.014 A 
BRANCH  19  24
ATOM     24  O   UNL A   1      32.124  30.678  25.817  1.00  0.00    -0.497 OA
ATOM     25  C   UNL A   1      31.421  31.505  26.732  1.00  0.00     0.278 C 
ENDBRANCH  19  24
ENDBRANCH   9  18
BRANCH  17  26
ATOM     26  C   UNL A   1      33.018  20.110  24.905  1.00  0.00     0.000 A 
ATOM     27  C   UNL A   1      34.378  19.833  24.733  1.00  0.00     0.011 A 
ATOM     28  C   UNL A   1      32.119  19.026  24.958  1.00  0.00     0.011 A 
ATOM     29  C   UNL A   1      34.831  18.510  24.665  1.00  0.00     0.014 A 
ATOM     30  C   UNL A   1      32.567  17.706  24.889  1.00  0.00     0.014 A 
ATOM     31  C   UNL A   1      33.932  17.433  24.754  1.00  0.00     0.056 A 
BRANCH  31  32
ATOM     32  C   UNL A   1      34.436  16.012  24.706  1.00  0.00     0.416 C 
ATOM     33  F   UNL A   1      33.576  15.131  25.289  1.00  0.00    -0.166 F 
ATOM     34  F   UNL A   1      34.612  15.566  23.428  1.00  0.00    -0.166 F 
ATOM     35  F   UNL A   1      35.633  15.831  25.329  1.00  0.00    -0.166 F 
ENDBRANCH  31  32
ENDBRANCH  17  26
ENDBRANCH   5   8
ENDBRANCH   3   4
ENDBRANCH   2   3
ENDBRANCH   1   2
BRANCH   1  36
ATOM     36  C   UNL A   1      37.944  21.390  25.395  1.00  0.00     0.116 C 
BRANCH  36  37
ATOM     37  N   UNL A   1      38.718  20.161  25.555  1.00  0.00    -0.352 N 
ATOM     38  C   UNL A   1      40.062  20.027  25.841  1.00  0.00     0.251 C 
ATOM     39  H   UNL A   1      38.217  19.321  25.445  1.00  0.00     0.163 HD
ATOM     40  O   UNL A   1      40.653  18.993  25.556  1.00  0.00    -0.269 OA
BRANCH  38  41
ATOM     41  C   UNL A   1      40.776  21.132  26.506  1.00  0.00     0.039 A 
ATOM     42  C   UNL A   1      41.423  22.117  25.758  1.00  0.00     0.014 A 
ATOM     43  C   UNL A   1      40.791  21.177  27.898  1.00  0.00     0.014 A 
ATOM     44  C   UNL A   1      42.003  23.193  26.426  1.00  0.00     0.010 A 
ATOM     45  C   UNL A   1      41.268  22.289  28.555  1.00  0.00     0.010 A 
ATOM     46  C   UNL A   1      41.896  23.291  27.824  1.00  0.00    -0.014 A 
BRANCH  46  47
ATOM     47  C   UNL A   1      42.251  24.542  28.494  1.00  0.00     0.031 A 
ATOM     48  C   UNL A   1      41.280  25.637  28.223  1.00  0.00     0.074 A 
ATOM     49  C   UNL A   1      43.222  24.662  29.425  1.00  0.00     0.049 A 
ATOM     50  N   UNL A   1      41.459  26.667  27.462  1.00  0.00    -0.248 NA
ATOM     51  C   UNL A   1      39.890  25.472  28.677  1.00  0.00     0.031 C 
ATOM     52  C   UNL A   1      44.034  23.584  30.001  1.00  0.00     0.029 A 
ATOM     53  N   UNL A   1      43.602  25.749  30.160  1.00  0.00    -0.354 N 
ATOM     54  C   UNL A   1      40.299  27.425  27.596  1.00  0.00     0.074 A 
ATOM     55  C   UNL A   1      39.302  26.531  28.116  1.00  0.00     0.031 C 
ATOM     56  C   UNL A   1      44.611  24.015  31.144  1.00  0.00     0.029 A 
ATOM     57  C   UNL A   1      44.348  25.433  31.296  1.00  0.00     0.049 A 
ATOM     58  H   UNL A   1      43.371  26.673  29.909  1.00  0.00     0.167 HD
ATOM     59  C   UNL A   1      40.367  28.787  27.596  1.00  0.00     0.034 A 
ATOM     60  C   UNL A   1      44.697  26.267  32.308  1.00  0.00     0.034 A 
ATOM     61  C   UNL A   1      41.654  29.228  27.111  1.00  0.00     0.049 A 
ATOM     62  C   UNL A   1      44.620  27.643  31.778  1.00  0.00     0.074 A 
ATOM     63  C   UNL A   1      42.387  29.095  25.950  1.00  0.00     0.029 A 
ATOM     64  N   UNL A   1      42.533  29.601  28.094  1.00  0.00    -0.354 N 
ATOM     65  N   UNL A   1      45.434  28.109  30.875  1.00  0.00    -0.248 NA
ATOM     66  C   UNL A   1      43.409  28.415  31.993  1.00  0.00     0.031 C 
ATOM     67  C   UNL A   1      43.753  29.056  26.367  1.00  0.00     0.029 A 
ATOM     68  C   UNL A   1      43.802  29.235  27.751  1.00  0.00     0.049 A 
ATOM     69  H   UNL A   1      42.285  30.064  28.927  1.00  0.00     0.167 HD
ATOM     70  C   UNL A   1      44.625  28.909  30.084  1.00  0.00     0.074 A 
ATOM     71  C   UNL A   1      43.464  29.206  30.917  1.00  0.00     0.031 C 
ATOM     72  C   UNL A   1      44.832  28.976  28.735  1.00  0.00     0.034 A 
BRANCH  59  73
ATOM     73  C   UNL A   1      39.532  29.709  28.482  1.00  0.00     0.023 A 
ATOM     74  C   UNL A   1      39.958  29.847  29.826  1.00  0.00     0.012 A 
ATOM     75  C   UNL A   1      38.229  30.171  28.188  1.00  0.00     0.148 A 
ATOM     76  C   UNL A   1      39.105  30.318  30.831  1.00  0.00     0.002 A 
ATOM     77  C   UNL A   1      37.408  30.705  29.176  1.00  0.00     0.091 A 
ATOM     78  F   UNL A   1      37.705  29.996  26.976  1.00  0.00    -0.205 F 
ATOM     79  C   UNL A   1      37.826  30.745  30.507  1.00  0.00     0.022 A 
BRANCH  77  80
ATOM     80  S   UNL A   1      35.755  31.313  28.809  1.00  0.00     0.127 S 
ATOM     81  O   UNL A   1      36.041  32.357  27.829  1.00  0.00    -0.237 OA
ATOM     82  O   UNL A   1      35.114  30.113  28.271  1.00  0.00    -0.237 OA
ATOM     83  O   UNL A   1      35.205  31.765  30.080  1.00  0.00    -0.744 OA
ENDBRANCH  77  80
ENDBRANCH  59  73
BRANCH  60  84
ATOM     84  C   UNL A   1      44.938  26.016  33.748  1.00  0.00     0.023 A 
ATOM     85  C   UNL A   1      46.256  26.062  34.252  1.00  0.00     0.012 A 
ATOM     86  C   UNL A   1      43.873  26.040  34.673  1.00  0.00     0.148 A 
ATOM     87  C   UNL A   1      46.503  26.188  35.625  1.00  0.00     0.002 A 
ATOM     88  C   UNL A   1      44.124  26.162  36.038  1.00  0.00     0.091 A 
ATOM     89  F   UNL A   1      42.616  26.039  34.209  1.00  0.00    -0.205 F 
ATOM     90  C   UNL A   1      45.437  26.253  36.516  1.00  0.00     0.022 A 
BRANCH  88  91
ATOM     91  S   UNL A   1      42.799  26.285  37.248  1.00  0.00     0.127 S 
ATOM     92  O   UNL A   1      42.069  25.036  37.024  1.00  0.00    -0.237 OA
ATOM     93  O   UNL A   1      43.542  26.343  38.503  1.00  0.00    -0.237 OA
ATOM     94  O   UNL A   1      42.052  27.486  36.896  1.00  0.00    -0.744 OA
ENDBRANCH  88  91
ENDBRANCH  60  84
BRANCH  72  95
ATOM     95  C   UNL A   1      46.179  28.549  28.213  1.00  0.00     0.023 A 
ATOM     96  C   UNL A   1      47.319  29.379  28.235  1.00  0.00     0.012 A 
ATOM     97  C   UNL A   1      46.315  27.218  27.785  1.00  0.00     0.148 A 
ATOM     98  C   UNL A   1      48.559  28.897  27.806  1.00  0.00     0.002 A 
ATOM     99  C   UNL A   1      47.558  26.729  27.409  1.00  0.00     0.091 A 
ATOM    100  F   UNL A   1      45.220  26.443  27.764  1.00  0.00    -0.205 F 
ATOM    101  C   UNL A   1      48.682  27.569  27.404  1.00  0.00     0.022 A 
BRANCH  99 102
ATOM    102  S   UNL A   1      47.788  24.999  27.000  1.00  0.00     0.127 S 
ATOM    103  O   UNL A   1      47.390  24.961  25.594  1.00  0.00    -0.237 OA
ATOM    104  O   UNL A   1      49.220  24.805  27.236  1.00  0.00    -0.237 OA
ATOM    105  O   UNL A   1      46.932  24.255  27.917  1.00  0.00    -0.744 OA
ENDBRANCH  99 102
ENDBRANCH  72  95
ENDBRANCH  46  47
ENDBRANCH  38  41
ENDBRANCH  36  37
ENDBRANCH   1  36
TORSDOF 18
ENDMDL
MODEL 2
REMARK VINA RESULT:     -13.3      3.679      5.953
REMARK SMILES COc1ccc(-c2[nH]nc3nc(-c4ccc(C(F)(F)F)cc4)cc(C(=O)NCCCCNC(=O)c4ccc(-c5c6nc(c(-c7cccc(S(=O)(=O)[O-])c7F)c7ccc([nH]7)c(-c7cccc(S(=O)(=O)[O-])c7F)c7nc(c(-c8cccc(S(=O)(=O)[O-])c8F)c8ccc5[nH]8)C=C7)C=C6)cc4)c23)cc1
REMARK SMILES IDX 30 1 29 2 28 3 27 4 25 5 26 6 24 8 7 9 8 10 98 11 9 12 10 14
REMARK SMILES IDX 11 15 23 16 12 17 6 18 3 19 4 20 100 21 5 22 99 23 2 24 1 25
REMARK SMILES IDX 13 26 14 27 22 28 15 29 21 30 16 31 17 32 18 33 19 34 20 35
REMARK SMILES IDX 31 36 32 37 33 38 34 40 35 41 36 42 97 43 37 44 96 45 38 46
REMARK SMILES IDX 39 47 40 48 90 49 41 50 95 51 89 52 91 53 42 54 94 55 88 56
REMARK SMILES IDX 87 57 43 59 75 60 55 61 74 62 56 63 59 64 73 65 92 66 57 67
REMARK SMILES IDX 58 68 72 70 93 71 60 72 44 73 45 74 53 75 46 76 48 77 54 78
REMARK SMILES IDX 47 79 49 80 50 81 51 82 52 83 76 84 77 85 85 86 78 87 80 88
REMARK SMILES IDX 86 89 79 90 81 91 82 92 83 93 84 94 61 95 62 96 70 97 63 98
REMARK SMILES IDX 65 99 71 100 64 101 66 102 67 103 68 104 69 105
REMARK H PARENT 27 7 8 13 32 39 91 58 59 69
REMARK Flexibility Score: inf
ROOT
ATOM      1  C   UNL A   1      38.767  20.218  25.344  1.00  0.00     0.023 C 
ENDROOT
BRANCH   1   2
ATOM      2  C   UNL A   1      38.270  21.647  25.621  1.00  0.00     0.023 C 
BRANCH   2   3
ATOM      3  C   UNL A   1      36.791  21.877  25.309  1.00  0.00     0.116 C 
BRANCH   3   4
ATOM      4  N   UNL A   1      35.938  21.495  26.412  1.00  0.00    -0.352 N 
ATOM      5  C   UNL A   1      34.653  21.748  26.817  1.00  0.00     0.252 C 
ATOM      6  O   UNL A   1      34.328  21.124  27.815  1.00  0.00    -0.269 OA
ATOM      7  H   UNL A   1      36.402  20.893  27.038  1.00  0.00     0.163 HD
BRANCH   5   8
ATOM      8  C   UNL A   1      33.696  22.650  26.131  1.00  0.00     0.055 A 
ATOM      9  C   UNL A   1      32.735  21.193  24.270  1.00  0.00     0.075 A 
ATOM     10  N   UNL A   1      31.942  21.544  23.202  1.00  0.00    -0.275 N 
ATOM     11  C   UNL A   1      32.936  22.374  24.971  1.00  0.00     0.059 A 
ATOM     12  N   UNL A   1      31.532  22.819  23.191  1.00  0.00    -0.154 NA
ATOM     13  H   UNL A   1      31.693  20.905  22.498  1.00  0.00     0.190 HD
ATOM     14  C   UNL A   1      32.145  23.349  24.248  1.00  0.00     0.182 A 
ATOM     15  N   UNL A   1      32.053  24.653  24.618  1.00  0.00    -0.226 NA
ATOM     16  C   UNL A   1      33.472  23.977  26.519  1.00  0.00     0.043 A 
ATOM     17  C   UNL A   1      32.753  24.921  25.746  1.00  0.00     0.074 A 
BRANCH   9  18
ATOM     18  C   UNL A   1      33.121  19.795  24.436  1.00  0.00     0.001 A 
ATOM     19  C   UNL A   1      33.847  17.083  24.640  1.00  0.00     0.118 A 
ATOM     20  C   UNL A   1      32.527  17.483  24.854  1.00  0.00     0.047 A 
ATOM     21  C   UNL A   1      34.811  18.045  24.337  1.00  0.00     0.047 A 
ATOM     22  C   UNL A   1      32.163  18.830  24.760  1.00  0.00     0.014 A 
ATOM     23  C   UNL A   1      34.452  19.397  24.256  1.00  0.00     0.014 A 
BRANCH  19  24
ATOM     24  O   UNL A   1      34.055  15.734  24.721  1.00  0.00    -0.497 OA
ATOM     25  C   UNL A   1      33.055  14.964  25.371  1.00  0.00     0.278 C 
ENDBRANCH  19  24
ENDBRANCH   9  18
BRANCH  17  26
ATOM     26  C   UNL A   1      32.847  26.337  26.141  1.00  0.00     0.000 A 
ATOM     27  C   UNL A   1      33.965  27.122  25.842  1.00  0.00     0.011 A 
ATOM     28  C   UNL A   1      31.751  26.955  26.778  1.00  0.00     0.011 A 
ATOM     29  C   UNL A   1      33.969  28.493  26.127  1.00  0.00     0.014 A 
ATOM     30  C   UNL A   1      31.752  28.321  27.065  1.00  0.00     0.014 A 
ATOM     31  C   UNL A   1      32.858  29.108  26.730  1.00  0.00     0.056 A 
BRANCH  31  32
ATOM     32  C   UNL A   1      32.865  30.591  27.008  1.00  0.00     0.416 C 
ATOM     33  F   UNL A   1      31.626  31.150  26.904  1.00  0.00    -0.166 F 
ATOM     34  F   UNL A   1      33.297  30.882  28.269  1.00  0.00    -0.166 F 
ATOM     35  F   UNL A   1      33.666  31.305  26.170  1.00  0.00    -0.166 F 
ENDBRANCH  31  32
ENDBRANCH  17  26
ENDBRANCH   5   8
ENDBRANCH   3   4
ENDBRANCH   2   3
ENDBRANCH   1   2
BRANCH   1  36
ATOM     36  C   UNL A   1      39.649  19.613  26.436  1.00  0.00     0.116 C 
BRANCH  36  37
ATOM     37  N   UNL A   1      40.892  19.056  25.908  1.00  0.00    -0.352 N 
ATOM     38  C   UNL A   1      42.081  19.708  25.649  1.00  0.00     0.251 C 
ATOM     39  H   UNL A   1      40.880  18.091  25.712  1.00  0.00     0.163 HD
ATOM     40  O   UNL A   1      42.885  19.234  24.856  1.00  0.00    -0.269 OA
BRANCH  38  41
ATOM     41  C   UNL A   1      42.382  20.972  26.346  1.00  0.00     0.039 A 
ATOM     42  C   UNL A   1      42.652  22.137  25.628  1.00  0.00     0.014 A 
ATOM     43  C   UNL A   1      42.390  20.981  27.740  1.00  0.00     0.014 A 
ATOM     44  C   UNL A   1      42.837  23.328  26.327  1.00  0.00     0.010 A 
ATOM     45  C   UNL A   1      42.466  22.171  28.428  1.00  0.00     0.010 A 
ATOM     46  C   UNL A   1      42.711  23.346  27.727  1.00  0.00    -0.014 A 
BRANCH  46  47
ATOM     47  C   UNL A   1      42.625  24.625  28.431  1.00  0.00     0.031 A 
ATOM     48  C   UNL A   1      41.377  25.372  28.120  1.00  0.00     0.074 A 
ATOM     49  C   UNL A   1      43.463  25.012  29.418  1.00  0.00     0.049 A 
ATOM     50  N   UNL A   1      41.263  26.429  27.385  1.00  0.00    -0.248 NA
ATOM     51  C   UNL A   1      40.086  24.770  28.493  1.00  0.00     0.031 C 
ATOM     52  C   UNL A   1      44.540  24.223  30.025  1.00  0.00     0.029 A 
ATOM     53  N   UNL A   1      43.448  26.142  30.187  1.00  0.00    -0.354 N 
ATOM     54  C   UNL A   1      39.920  26.785  27.462  1.00  0.00     0.074 A 
ATOM     55  C   UNL A   1      39.226  25.611  27.913  1.00  0.00     0.031 C 
ATOM     56  C   UNL A   1      44.897  24.777  31.205  1.00  0.00     0.029 A 
ATOM     57  C   UNL A   1      44.198  26.039  31.359  1.00  0.00     0.049 A 
ATOM     58  H   UNL A   1      42.953  26.955  29.936  1.00  0.00     0.167 HD
ATOM     59  C   UNL A   1      39.559  28.100  27.484  1.00  0.00     0.034 A 
ATOM     60  C   UNL A   1      44.218  26.908  32.400  1.00  0.00     0.034 A 
ATOM     61  C   UNL A   1      40.668  28.934  27.078  1.00  0.00     0.049 A 
ATOM     62  C   UNL A   1      43.743  28.208  31.885  1.00  0.00     0.074 A 
ATOM     63  C   UNL A   1      41.463  29.070  25.959  1.00  0.00     0.029 A 
ATOM     64  N   UNL A   1      41.337  29.531  28.115  1.00  0.00    -0.354 N 
ATOM     65  N   UNL A   1      44.416  28.930  31.035  1.00  0.00    -0.248 NA
ATOM     66  C   UNL A   1      42.343  28.559  32.040  1.00  0.00     0.031 C 
ATOM     67  C   UNL A   1      42.750  29.443  26.453  1.00  0.00     0.029 A 
ATOM     68  C   UNL A   1      42.672  29.587  27.839  1.00  0.00     0.049 A 
ATOM     69  H   UNL A   1      40.916  29.869  28.938  1.00  0.00     0.167 HD
ATOM     70  C   UNL A   1      43.438  29.464  30.210  1.00  0.00     0.074 A 
ATOM     71  C   UNL A   1      42.203  29.360  30.980  1.00  0.00     0.031 C 
ATOM     72  C   UNL A   1      43.681  29.631  28.877  1.00  0.00     0.034 A 
BRANCH  59  73
ATOM     73  C   UNL A   1      38.436  28.691  28.333  1.00  0.00     0.023 A 
ATOM     74  C   UNL A   1      37.524  29.545  27.665  1.00  0.00     0.012 A 
ATOM     75  C   UNL A   1      38.407  28.726  29.746  1.00  0.00     0.148 A 
ATOM     76  C   UNL A   1      36.711  30.450  28.357  1.00  0.00     0.002 A 
ATOM     77  C   UNL A   1      37.545  29.576  30.433  1.00  0.00     0.091 A 
ATOM     78  F   UNL A   1      39.292  28.032  30.460  1.00  0.00    -0.205 F 
ATOM     79  C   UNL A   1      36.723  30.467  29.744  1.00  0.00     0.022 A 
BRANCH  77  80
ATOM     80  S   UNL A   1      37.488  29.615  32.231  1.00  0.00     0.127 S 
ATOM     81  O   UNL A   1      37.421  28.192  32.550  1.00  0.00    -0.237 OA
ATOM     82  O   UNL A   1      38.758  30.266  32.551  1.00  0.00    -0.237 OA
ATOM     83  O   UNL A   1      36.310  30.401  32.575  1.00  0.00    -0.744 OA
ENDBRANCH  77  80
ENDBRANCH  59  73
BRANCH  60  84
ATOM     84  C   UNL A   1      44.453  26.702  33.849  1.00  0.00     0.023 A 
ATOM     85  C   UNL A   1      43.392  26.265  34.671  1.00  0.00     0.012 A 
ATOM     86  C   UNL A   1      45.765  26.630  34.364  1.00  0.00     0.148 A 
ATOM     87  C   UNL A   1      43.634  25.720  35.938  1.00  0.00     0.002 A 
ATOM     88  C   UNL A   1      46.000  26.091  35.627  1.00  0.00     0.091 A 
ATOM     89  F   UNL A   1      46.786  27.001  33.581  1.00  0.00    -0.205 F 
ATOM     90  C   UNL A   1      44.938  25.620  36.410  1.00  0.00     0.022 A 
BRANCH  88  91
ATOM     91  S   UNL A   1      47.660  25.897  36.292  1.00  0.00     0.127 S 
ATOM     92  O   UNL A   1      48.280  25.012  35.305  1.00  0.00    -0.237 OA
ATOM     93  O   UNL A   1      48.152  27.271  36.276  1.00  0.00    -0.237 OA
ATOM     94  O   UNL A   1      47.490  25.298  37.609  1.00  0.00    -0.744 OA
ENDBRANCH  88  91
ENDBRANCH  60  84
BRANCH  72  95
ATOM     95  C   UNL A   1      45.118  29.660  28.427  1.00  0.00     0.023 A 
ATOM     96  C   UNL A   1      45.887  28.499  28.206  1.00  0.00     0.012 A 
ATOM     97  C   UNL A   1      45.672  30.912  28.112  1.00  0.00     0.148 A 
ATOM     98  C   UNL A   1      47.193  28.592  27.715  1.00  0.00     0.002 A 
ATOM     99  C   UNL A   1      46.950  30.996  27.576  1.00  0.00     0.091 A 
ATOM    100  F   UNL A   1      44.930  32.009  28.333  1.00  0.00    -0.205 F 
ATOM    101  C   UNL A   1      47.720  29.839  27.388  1.00  0.00     0.022 A 
BRANCH  99 102
ATOM    102  S   UNL A   1      47.624  32.565  27.029  1.00  0.00     0.127 S 
ATOM    103  O   UNL A   1      47.733  33.306  28.283  1.00  0.00    -0.237 OA
ATOM    104  O   UNL A   1      48.903  32.170  26.437  1.00  0.00    -0.237 OA
ATOM    105  O   UNL A   1      46.667  33.096  26.065  1.00  0.00    -0.744 OA
ENDBRANCH  99 102
ENDBRANCH  72  95
ENDBRANCH  46  47
ENDBRANCH  38  41
ENDBRANCH  36  37
ENDBRANCH   1  36
TORSDOF 18
ENDMDL
MODEL 3
REMARK VINA RESULT:     -13.1      4.417      8.420
REMARK SMILES COc1ccc(-c2[nH]nc3nc(-c4ccc(C(F)(F)F)cc4)cc(C(=O)NCCCCNC(=O)c4ccc(-c5c6nc(c(-c7cccc(S(=O)(=O)[O-])c7F)c7ccc([nH]7)c(-c7cccc(S(=O)(=O)[O-])c7F)c7nc(c(-c8cccc(S(=O)(=O)[O-])c8F)c8ccc5[nH]8)C=C7)C=C6)cc4)c23)cc1
REMARK SMILES IDX 30 1 29 2 28 3 27 4 25 5 26 6 24 8 7 9 8 10 98 11 9 12 10 14
REMARK SMILES IDX 11 15 23 16 12 17 6 18 3 19 4 20 100 21 5 22 99 23 2 24 1 25
REMARK SMILES IDX 13 26 14 27 22 28 15 29 21 30 16 31 17 32 18 33 19 34 20 35
REMARK SMILES IDX 31 36 32 37 33 38 34 40 35 41 36 42 97 43 37 44 96 45 38 46
REMARK SMILES IDX 39 47 40 48 90 49 41 50 95 51 89 52 91 53 42 54 94 55 88 56
REMARK SMILES IDX 87 57 43 59 75 60 55 61 74 62 56 63 59 64 73 65 92 66 57 67
REMARK SMILES IDX 58 68 72 70 93 71 60 72 44 73 45 74 53 75 46 76 48 77 54 78
REMARK SMILES IDX 47 79 49 80 50 81 51 82 52 83 76 84 77 85 85 86 78 87 80 88
REMARK SMILES IDX 86 89 79 90 81 91 82 92 83 93 84 94 61 95 62 96 70 97 63 98
REMARK SMILES IDX 65 99 71 100 64 101 66 102 67 103 68 104 69 105
REMARK H PARENT 27 7 8 13 32 39 91 58 59 69
REMARK Flexibility Score: inf
ROOT
ATOM      1  C   UNL A   1      35.341  23.079  26.759  1.00  0.00     0.023 C 
ENDROOT
BRANCH   1   2
ATOM      2  C   UNL A   1      34.195  23.928  26.181  1.00  0.00     0.023 C 
BRANCH   2   3
ATOM      3  C   UNL A   1      32.993  24.092  27.112  1.00  0.00     0.116 C 
BRANCH   3   4
ATOM      4  N   UNL A   1      31.874  23.275  26.701  1.00  0.00    -0.352 N 
ATOM      5  C   UNL A   1      31.067  23.165  25.599  1.00  0.00     0.252 C 
ATOM      6  O   UNL A   1      30.266  22.246  25.673  1.00  0.00    -0.269 OA
ATOM      7  H   UNL A   1      31.625  22.624  27.397  1.00  0.00     0.163 HD
BRANCH   5   8
ATOM      8  C   UNL A   1      31.137  24.024  24.391  1.00  0.00     0.055 A 
ATOM      9  C   UNL A   1      32.687  22.729  22.831  1.00  0.00     0.075 A 
ATOM     10  N   UNL A   1      33.265  23.121  21.646  1.00  0.00    -0.275 N 
ATOM     11  C   UNL A   1      31.925  23.817  23.235  1.00  0.00     0.059 A 
ATOM     12  N   UNL A   1      32.882  24.322  21.193  1.00  0.00    -0.154 NA
ATOM     13  H   UNL A   1      33.914  22.559  21.165  1.00  0.00     0.190 HD
ATOM     14  C   UNL A   1      32.083  24.774  22.159  1.00  0.00     0.182 A 
ATOM     15  N   UNL A   1      31.479  25.991  22.151  1.00  0.00    -0.226 NA
ATOM     16  C   UNL A   1      30.461  25.244  24.270  1.00  0.00     0.043 A 
ATOM     17  C   UNL A   1      30.698  26.186  23.240  1.00  0.00     0.074 A 
BRANCH   9  18
ATOM     18  C   UNL A   1      32.943  21.383  23.333  1.00  0.00     0.001 A 
ATOM     19  C   UNL A   1      33.359  18.806  24.388  1.00  0.00     0.118 A 
ATOM     20  C   UNL A   1      34.155  19.878  24.796  1.00  0.00     0.047 A 
ATOM     21  C   UNL A   1      32.361  19.021  23.438  1.00  0.00     0.047 A 
ATOM     22  C   UNL A   1      33.957  21.158  24.270  1.00  0.00     0.014 A 
ATOM     23  C   UNL A   1      32.168  20.300  22.899  1.00  0.00     0.014 A 
BRANCH  19  24
ATOM     24  O   UNL A   1      33.633  17.622  25.013  1.00  0.00    -0.497 OA
ATOM     25  C   UNL A   1      33.565  16.444  24.224  1.00  0.00     0.278 C 
ENDBRANCH  19  24
ENDBRANCH   9  18
BRANCH  17  26
ATOM     26  C   UNL A   1      30.126  27.535  23.406  1.00  0.00     0.000 A 
ATOM     27  C   UNL A   1      30.908  28.636  23.768  1.00  0.00     0.011 A 
ATOM     28  C   UNL A   1      28.762  27.750  23.123  1.00  0.00     0.011 A 
ATOM     29  C   UNL A   1      30.353  29.922  23.798  1.00  0.00     0.014 A 
ATOM     30  C   UNL A   1      28.206  29.029  23.155  1.00  0.00     0.014 A 
ATOM     31  C   UNL A   1      29.000  30.133  23.481  1.00  0.00     0.056 A 
BRANCH  31  32
ATOM     32  C   UNL A   1      28.422  31.527  23.493  1.00  0.00     0.416 C 
ATOM     33  F   UNL A   1      29.160  32.394  24.240  1.00  0.00    -0.166 F 
ATOM     34  F   UNL A   1      28.359  32.073  22.245  1.00  0.00    -0.166 F 
ATOM     35  F   UNL A   1      27.155  31.593  23.989  1.00  0.00    -0.166 F 
ENDBRANCH  31  32
ENDBRANCH  17  26
ENDBRANCH   5   8
ENDBRANCH   3   4
ENDBRANCH   2   3
ENDBRANCH   1   2
BRANCH   1  36
ATOM     36  C   UNL A   1      36.695  23.263  26.074  1.00  0.00     0.116 C 
BRANCH  36  37
ATOM     37  N   UNL A   1      37.617  22.164  26.353  1.00  0.00    -0.352 N 
ATOM     38  C   UNL A   1      38.993  22.206  26.457  1.00  0.00     0.251 C 
ATOM     39  H   UNL A   1      37.204  21.281  26.485  1.00  0.00     0.163 HD
ATOM     40  O   UNL A   1      39.656  21.190  26.293  1.00  0.00    -0.269 OA
BRANCH  38  41
ATOM     41  C   UNL A   1      39.657  23.483  26.780  1.00  0.00     0.039 A 
ATOM     42  C   UNL A   1      39.308  24.659  26.116  1.00  0.00     0.014 A 
ATOM     43  C   UNL A   1      40.643  23.492  27.765  1.00  0.00     0.014 A 
ATOM     44  C   UNL A   1      39.893  25.856  26.520  1.00  0.00     0.010 A 
ATOM     45  C   UNL A   1      41.143  24.685  28.238  1.00  0.00     0.010 A 
ATOM     46  C   UNL A   1      40.788  25.869  27.604  1.00  0.00    -0.014 A 
BRANCH  46  47
ATOM     47  C   UNL A   1      41.182  27.143  28.205  1.00  0.00     0.031 A 
ATOM     48  C   UNL A   1      42.475  27.655  27.676  1.00  0.00     0.074 A 
ATOM     49  C   UNL A   1      40.384  27.896  28.994  1.00  0.00     0.049 A 
ATOM     50  N   UNL A   1      43.614  27.676  28.287  1.00  0.00    -0.248 NA
ATOM     51  C   UNL A   1      42.565  27.991  26.246  1.00  0.00     0.031 C 
ATOM     52  C   UNL A   1      38.978  27.644  29.328  1.00  0.00     0.029 A 
ATOM     53  N   UNL A   1      40.612  29.119  29.558  1.00  0.00    -0.354 N 
ATOM     54  C   UNL A   1      44.487  28.311  27.409  1.00  0.00     0.074 A 
ATOM     55  C   UNL A   1      43.872  28.231  26.114  1.00  0.00     0.031 C 
ATOM     56  C   UNL A   1      38.417  28.776  29.806  1.00  0.00     0.029 A 
ATOM     57  C   UNL A   1      39.452  29.779  29.967  1.00  0.00     0.049 A 
ATOM     58  H   UNL A   1      41.513  29.501  29.665  1.00  0.00     0.167 HD
ATOM     59  C   UNL A   1      45.457  29.142  27.889  1.00  0.00     0.034 A 
ATOM     60  C   UNL A   1      39.342  31.068  30.377  1.00  0.00     0.034 A 
ATOM     61  C   UNL A   1      45.622  28.956  29.312  1.00  0.00     0.049 A 
ATOM     62  C   UNL A   1      40.685  31.497  30.815  1.00  0.00     0.074 A 
ATOM     63  C   UNL A   1      45.959  27.918  30.155  1.00  0.00     0.029 A 
ATOM     64  N   UNL A   1      45.009  29.910  30.083  1.00  0.00    -0.354 N 
ATOM     65  N   UNL A   1      41.278  31.024  31.873  1.00  0.00    -0.248 NA
ATOM     66  C   UNL A   1      41.539  32.208  29.880  1.00  0.00     0.031 C 
ATOM     67  C   UNL A   1      45.212  28.145  31.352  1.00  0.00     0.029 A 
ATOM     68  C   UNL A   1      44.508  29.343  31.218  1.00  0.00     0.049 A 
ATOM     69  H   UNL A   1      44.940  30.865  29.851  1.00  0.00     0.167 HD
ATOM     70  C   UNL A   1      42.608  30.936  31.494  1.00  0.00     0.074 A 
ATOM     71  C   UNL A   1      42.732  31.841  30.356  1.00  0.00     0.031 C 
ATOM     72  C   UNL A   1      43.382  29.902  31.937  1.00  0.00     0.034 A 
BRANCH  59  73
ATOM     73  C   UNL A   1      45.894  30.453  27.238  1.00  0.00     0.023 A 
ATOM     74  C   UNL A   1      47.286  30.715  27.221  1.00  0.00     0.012 A 
ATOM     75  C   UNL A   1      45.047  31.547  26.950  1.00  0.00     0.148 A 
ATOM     76  C   UNL A   1      47.797  32.004  27.033  1.00  0.00     0.002 A 
ATOM     77  C   UNL A   1      45.562  32.814  26.692  1.00  0.00     0.091 A 
ATOM     78  F   UNL A   1      43.723  31.423  27.036  1.00  0.00    -0.205 F 
ATOM     79  C   UNL A   1      46.933  33.057  26.770  1.00  0.00     0.022 A 
BRANCH  77  80
ATOM     80  S   UNL A   1      44.494  34.210  26.305  1.00  0.00     0.127 S 
ATOM     81  O   UNL A   1      43.940  33.803  25.017  1.00  0.00    -0.237 OA
ATOM     82  O   UNL A   1      43.554  34.179  27.426  1.00  0.00    -0.237 OA
ATOM     83  O   UNL A   1      45.361  35.381  26.285  1.00  0.00    -0.744 OA
ENDBRANCH  77  80
ENDBRANCH  59  73
BRANCH  60  84
ATOM     84  C   UNL A   1      38.224  32.036  30.281  1.00  0.00     0.023 A 
ATOM     85  C   UNL A   1      37.519  32.168  29.065  1.00  0.00     0.012 A 
ATOM     86  C   UNL A   1      37.653  32.596  31.444  1.00  0.00     0.148 A 
ATOM     87  C   UNL A   1      36.262  32.783  29.020  1.00  0.00     0.002 A 
ATOM     88  C   UNL A   1      36.404  33.210  31.393  1.00  0.00     0.091 A 
ATOM     89  F   UNL A   1      38.290  32.443  32.612  1.00  0.00    -0.205 F 
ATOM     90  C   UNL A   1      35.698  33.291  30.185  1.00  0.00     0.022 A 
BRANCH  88  91
ATOM     91  S   UNL A   1      35.596  33.860  32.862  1.00  0.00     0.127 S 
ATOM     92  O   UNL A   1      36.507  34.935  33.257  1.00  0.00    -0.237 OA
ATOM     93  O   UNL A   1      34.315  34.310  32.327  1.00  0.00    -0.237 OA
ATOM     94  O   UNL A   1      35.536  32.751  33.805  1.00  0.00    -0.744 OA
ENDBRANCH  88  91
ENDBRANCH  60  84
BRANCH  72  95
ATOM     95  C   UNL A   1      42.915  29.153  33.158  1.00  0.00     0.023 A 
ATOM     96  C   UNL A   1      41.920  28.155  33.124  1.00  0.00     0.012 A 
ATOM     97  C   UNL A   1      43.592  29.397  34.365  1.00  0.00     0.148 A 
ATOM     98  C   UNL A   1      41.585  27.443  34.280  1.00  0.00     0.002 A 
ATOM     99  C   UNL A   1      43.293  28.652  35.497  1.00  0.00     0.091 A 
ATOM    100  F   UNL A   1      44.533  30.355  34.383  1.00  0.00    -0.205 F 
ATOM    101  C   UNL A   1      42.280  27.682  35.463  1.00  0.00     0.022 A 
BRANCH  99 102
ATOM    102  S   UNL A   1      44.240  28.840  37.007  1.00  0.00     0.127 S 
ATOM    103  O   UNL A   1      45.613  28.863  36.507  1.00  0.00    -0.237 OA
ATOM    104  O   UNL A   1      43.756  30.120  37.526  1.00  0.00    -0.237 OA
ATOM    105  O   UNL A   1      43.892  27.695  37.841  1.00  0.00    -0.744 OA
ENDBRANCH  99 102
ENDBRANCH  72  95
ENDBRANCH  46  47
ENDBRANCH  38  41
ENDBRANCH  36  37
ENDBRANCH   1  36
TORSDOF 18
ENDMDL
