MODEL 1
REMARK VINA RESULT:     -11.8      0.000      0.000
REMARK SMILES Cc1ncsc1Cn1c(SCC(=O)NCCCCNC(=O)c2ccc(-c3c4nc(c(-c5cccc(S(=O)(=O)[O-])c5F)c5ccc([nH]5)c(-c5cccc(S(=O)(=O)[O-])c5F)c5nc(c(-c6cccc(S(=O)(=O)[O-])c6F)c6ccc3[nH]6)C=C5)C=C4)cc2)nc2cnccc21
REMARK SMILES IDX 16 1 15 2 14 3 12 4 13 5 11 7 10 8 9 9 8 10 91 11 85 12
REMARK SMILES IDX 86 13 90 14 87 15 89 16 88 17 7 18 6 19 1 20 2 21 3 22 4 23
REMARK SMILES IDX 5 24 17 25 18 26 19 27 20 28 21 30 22 31 23 32 84 33 24 34
REMARK SMILES IDX 83 35 25 36 26 37 27 38 77 39 28 40 82 41 76 42 78 43 29 44
REMARK SMILES IDX 81 45 75 46 74 47 30 49 62 50 42 51 61 52 43 53 46 54 60 55
REMARK SMILES IDX 79 56 44 57 45 58 59 60 80 61 47 62 31 63 32 64 40 65 33 66
REMARK SMILES IDX 35 67 41 68 34 69 36 70 37 71 38 72 39 73 63 74 64 75 72 76
REMARK SMILES IDX 65 77 67 78 73 79 66 80 68 81 69 82 70 83 71 84 48 85 49 86
REMARK SMILES IDX 57 87 50 88 52 89 58 90 51 91 53 92 54 93 55 94 56 95
REMARK H PARENT 14 6 19 29 78 48 46 59
REMARK Flexibility Score: inf
ROOT
ATOM      1  C   UNL A   1      31.527  30.347  25.587  1.00  0.00     0.023 C 
ENDROOT
BRANCH   1   2
ATOM      2  C   UNL A   1      31.535  29.251  24.528  1.00  0.00     0.116 C 
BRANCH   2   3
ATOM      3  N   UNL A   1      32.695  29.352  23.664  1.00  0.00    -0.355 N 
ATOM      4  C   UNL A   1      33.599  28.410  23.317  1.00  0.00     0.230 C 
ATOM      5  O   UNL A   1      34.406  28.712  22.431  1.00  0.00    -0.274 OA
ATOM      6  H   UNL A   1      32.846  30.242  23.272  1.00  0.00     0.163 HD
BRANCH   4   7
ATOM      7  C   UNL A   1      33.571  27.016  23.899  1.00  0.00     0.178 C 
BRANCH   7   8
ATOM      8  S   UNL A   1      33.811  25.652  22.786  1.00  0.00    -0.078 SA
BRANCH   8   9
ATOM      9  C   UNL A   1      34.029  24.094  23.499  1.00  0.00     0.169 A 
ATOM     10  N   UNL A   1      33.165  23.072  23.843  1.00  0.00    -0.313 N 
ATOM     11  C   UNL A   1      33.957  21.985  24.209  1.00  0.00     0.072 A 
ATOM     12  N   UNL A   1      35.269  23.780  23.821  1.00  0.00    -0.221 NA
ATOM     13  C   UNL A   1      35.251  22.488  24.252  1.00  0.00     0.108 A 
ATOM     14  C   UNL A   1      33.696  20.645  24.513  1.00  0.00     0.049 A 
ATOM     15  C   UNL A   1      36.298  21.663  24.675  1.00  0.00     0.141 A 
ATOM     16  C   UNL A   1      34.793  19.907  24.939  1.00  0.00     0.113 A 
ATOM     17  N   UNL A   1      36.053  20.379  25.045  1.00  0.00    -0.262 NA
BRANCH  10  18
ATOM     18  C   UNL A   1      31.714  22.996  23.746  1.00  0.00     0.173 C 
BRANCH  18  19
ATOM     19  C   UNL A   1      30.944  24.009  24.551  1.00  0.00     0.047 A 
ATOM     20  C   UNL A   1      31.440  23.298  26.996  1.00  0.00     0.068 C 
ATOM     21  C   UNL A   1      30.849  24.155  25.933  1.00  0.00     0.053 A 
ATOM     22  N   UNL A   1      30.137  25.265  26.364  1.00  0.00    -0.250 NA
ATOM     23  C   UNL A   1      29.738  25.968  25.332  1.00  0.00     0.176 A 
ATOM     24  S   UNL A   1      30.164  25.350  23.803  1.00  0.00    -0.125 S 
ENDBRANCH  18  19
ENDBRANCH  10  18
ENDBRANCH   8   9
ENDBRANCH   7   8
ENDBRANCH   4   7
ENDBRANCH   2   3
ENDBRANCH   1   2
BRANCH   1  25
ATOM     25  C   UNL A   1      32.233  29.992  26.905  1.00  0.00     0.023 C 
BRANCH  25  26
ATOM     26  C   UNL A   1      33.655  30.538  27.061  1.00  0.00     0.116 C 
BRANCH  26  27
ATOM     27  N   UNL A   1      33.882  31.283  28.279  1.00  0.00    -0.352 N 
ATOM     28  C   UNL A   1      34.969  31.534  29.066  1.00  0.00     0.251 C 
ATOM     29  H   UNL A   1      33.062  31.708  28.621  1.00  0.00     0.163 HD
ATOM     30  O   UNL A   1      34.785  32.318  29.999  1.00  0.00    -0.269 OA
BRANCH  28  31
ATOM     31  C   UNL A   1      36.296  30.885  28.907  1.00  0.00     0.039 A 
ATOM     32  C   UNL A   1      36.504  29.531  28.637  1.00  0.00     0.014 A 
ATOM     33  C   UNL A   1      37.413  31.716  29.105  1.00  0.00     0.014 A 
ATOM     34  C   UNL A   1      37.778  28.988  28.698  1.00  0.00     0.010 A 
ATOM     35  C   UNL A   1      38.693  31.185  29.133  1.00  0.00     0.010 A 
ATOM     36  C   UNL A   1      38.861  29.809  28.995  1.00  0.00    -0.014 A 
BRANCH  36  37
ATOM     37  C   UNL A   1      40.161  29.175  29.159  1.00  0.00     0.031 A 
ATOM     38  C   UNL A   1      40.654  29.004  30.556  1.00  0.00     0.074 A 
ATOM     39  C   UNL A   1      40.832  28.686  28.100  1.00  0.00     0.049 A 
ATOM     40  N   UNL A   1      41.773  29.411  31.067  1.00  0.00    -0.248 NA
ATOM     41  C   UNL A   1      39.749  28.362  31.520  1.00  0.00     0.031 C 
ATOM     42  C   UNL A   1      40.371  28.567  26.714  1.00  0.00     0.029 A 
ATOM     43  N   UNL A   1      42.031  28.044  28.088  1.00  0.00    -0.354 N 
ATOM     44  C   UNL A   1      41.788  28.939  32.379  1.00  0.00     0.074 A 
ATOM     45  C   UNL A   1      40.481  28.386  32.635  1.00  0.00     0.031 C 
ATOM     46  C   UNL A   1      41.146  27.667  26.072  1.00  0.00     0.029 A 
ATOM     47  C   UNL A   1      42.218  27.256  26.958  1.00  0.00     0.049 A 
ATOM     48  H   UNL A   1      42.699  28.128  28.805  1.00  0.00     0.167 HD
ATOM     49  C   UNL A   1      42.909  28.890  33.150  1.00  0.00     0.034 A 
ATOM     50  C   UNL A   1      43.130  26.265  26.825  1.00  0.00     0.034 A 
ATOM     51  C   UNL A   1      43.993  29.662  32.619  1.00  0.00     0.049 A 
ATOM     52  C   UNL A   1      44.198  26.522  27.821  1.00  0.00     0.074 A 
ATOM     53  C   UNL A   1      44.222  31.005  32.406  1.00  0.00     0.029 A 
ATOM     54  N   UNL A   1      44.947  28.996  31.890  1.00  0.00    -0.354 N 
ATOM     55  N   UNL A   1      44.999  27.550  27.773  1.00  0.00    -0.248 NA
ATOM     56  C   UNL A   1      44.130  25.845  29.106  1.00  0.00     0.031 C 
ATOM     57  C   UNL A   1      44.987  31.064  31.205  1.00  0.00     0.029 A 
ATOM     58  C   UNL A   1      45.194  29.752  30.773  1.00  0.00     0.049 A 
ATOM     59  H   UNL A   1      45.374  28.141  32.124  1.00  0.00     0.167 HD
ATOM     60  C   UNL A   1      45.200  27.904  29.100  1.00  0.00     0.074 A 
ATOM     61  C   UNL A   1      44.749  26.749  29.871  1.00  0.00     0.031 C 
ATOM     62  C   UNL A   1      45.443  29.200  29.458  1.00  0.00     0.034 A 
BRANCH  49  63
ATOM     63  C   UNL A   1      43.094  27.940  34.296  1.00  0.00     0.023 A 
ATOM     64  C   UNL A   1      43.116  28.441  35.612  1.00  0.00     0.012 A 
ATOM     65  C   UNL A   1      43.460  26.589  34.103  1.00  0.00     0.148 A 
ATOM     66  C   UNL A   1      43.467  27.624  36.694  1.00  0.00     0.002 A 
ATOM     67  C   UNL A   1      43.743  25.765  35.185  1.00  0.00     0.091 A 
ATOM     68  F   UNL A   1      43.638  26.132  32.856  1.00  0.00    -0.205 F 
ATOM     69  C   UNL A   1      43.763  26.281  36.483  1.00  0.00     0.022 A 
BRANCH  67  70
ATOM     70  S   UNL A   1      44.081  24.016  34.963  1.00  0.00     0.127 S 
ATOM     71  O   UNL A   1      44.383  23.598  36.328  1.00  0.00    -0.237 OA
ATOM     72  O   UNL A   1      42.808  23.525  34.432  1.00  0.00    -0.237 OA
ATOM     73  O   UNL A   1      45.182  23.958  34.011  1.00  0.00    -0.744 OA
ENDBRANCH  67  70
ENDBRANCH  49  63
BRANCH  50  74
ATOM     74  C   UNL A   1      43.015  24.988  26.081  1.00  0.00     0.023 A 
ATOM     75  C   UNL A   1      43.979  24.673  25.103  1.00  0.00     0.012 A 
ATOM     76  C   UNL A   1      42.128  23.964  26.487  1.00  0.00     0.148 A 
ATOM     77  C   UNL A   1      44.081  23.379  24.577  1.00  0.00     0.002 A 
ATOM     78  C   UNL A   1      42.217  22.686  25.945  1.00  0.00     0.091 A 
ATOM     79  F   UNL A   1      41.261  24.204  27.480  1.00  0.00    -0.205 F 
ATOM     80  C   UNL A   1      43.203  22.384  25.000  1.00  0.00     0.022 A 
BRANCH  78  81
ATOM     81  S   UNL A   1      41.107  21.367  26.456  1.00  0.00     0.127 S 
ATOM     82  O   UNL A   1      39.806  21.861  26.000  1.00  0.00    -0.237 OA
ATOM     83  O   UNL A   1      41.623  20.227  25.706  1.00  0.00    -0.237 OA
ATOM     84  O   UNL A   1      41.236  21.290  27.906  1.00  0.00    -0.744 OA
ENDBRANCH  78  81
ENDBRANCH  50  74
BRANCH  62  85
ATOM     85  C   UNL A   1      45.658  30.203  28.346  1.00  0.00     0.023 A 
ATOM     86  C   UNL A   1      44.561  30.834  27.718  1.00  0.00     0.012 A 
ATOM     87  C   UNL A   1      46.954  30.658  28.059  1.00  0.00     0.148 A 
ATOM     88  C   UNL A   1      44.751  31.874  26.806  1.00  0.00     0.002 A 
ATOM     89  C   UNL A   1      47.138  31.722  27.180  1.00  0.00     0.091 A 
ATOM     90  F   UNL A   1      47.985  30.068  28.682  1.00  0.00    -0.205 F 
ATOM     91  C   UNL A   1      46.040  32.326  26.545  1.00  0.00     0.022 A 
BRANCH  89  92
ATOM     92  S   UNL A   1      48.757  32.441  26.887  1.00  0.00     0.127 S 
ATOM     93  O   UNL A   1      49.096  32.977  28.207  1.00  0.00    -0.237 OA
ATOM     94  O   UNL A   1      49.547  31.274  26.484  1.00  0.00    -0.237 OA
ATOM     95  O   UNL A   1      48.577  33.429  25.839  1.00  0.00    -0.744 OA
ENDBRANCH  89  92
ENDBRANCH  62  85
ENDBRANCH  36  37
ENDBRANCH  28  31
ENDBRANCH  26  27
ENDBRANCH  25  26
ENDBRANCH   1  25
TORSDOF 18
ENDMDL
MODEL 2
REMARK VINA RESULT:     -11.7      1.471      2.613
REMARK SMILES Cc1ncsc1Cn1c(SCC(=O)NCCCCNC(=O)c2ccc(-c3c4nc(c(-c5cccc(S(=O)(=O)[O-])c5F)c5ccc([nH]5)c(-c5cccc(S(=O)(=O)[O-])c5F)c5nc(c(-c6cccc(S(=O)(=O)[O-])c6F)c6ccc3[nH]6)C=C5)C=C4)cc2)nc2cnccc21
REMARK SMILES IDX 16 1 15 2 14 3 12 4 13 5 11 7 10 8 9 9 8 10 91 11 85 12
REMARK SMILES IDX 86 13 90 14 87 15 89 16 88 17 7 18 6 19 1 20 2 21 3 22 4 23
REMARK SMILES IDX 5 24 17 25 18 26 19 27 20 28 21 30 22 31 23 32 84 33 24 34
REMARK SMILES IDX 83 35 25 36 26 37 27 38 77 39 28 40 82 41 76 42 78 43 29 44
REMARK SMILES IDX 81 45 75 46 74 47 30 49 62 50 42 51 61 52 43 53 46 54 60 55
REMARK SMILES IDX 79 56 44 57 45 58 59 60 80 61 47 62 31 63 32 64 40 65 33 66
REMARK SMILES IDX 35 67 41 68 34 69 36 70 37 71 38 72 39 73 63 74 64 75 72 76
REMARK SMILES IDX 65 77 67 78 73 79 66 80 68 81 69 82 70 83 71 84 48 85 49 86
REMARK SMILES IDX 57 87 50 88 52 89 58 90 51 91 53 92 54 93 55 94 56 95
REMARK H PARENT 14 6 19 29 78 48 46 59
REMARK Flexibility Score: inf
ROOT
ATOM      1  C   UNL A   1      32.270  28.179  27.475  1.00  0.00     0.023 C 
ENDROOT
BRANCH   1   2
ATOM      2  C   UNL A   1      32.231  27.059  26.441  1.00  0.00     0.116 C 
BRANCH   2   3
ATOM      3  N   UNL A   1      31.379  25.968  26.869  1.00  0.00    -0.355 N 
ATOM      4  C   UNL A   1      31.415  24.660  26.533  1.00  0.00     0.230 C 
ATOM      5  O   UNL A   1      30.672  23.901  27.166  1.00  0.00    -0.274 OA
ATOM      6  H   UNL A   1      30.666  26.218  27.500  1.00  0.00     0.163 HD
BRANCH   4   7
ATOM      7  C   UNL A   1      32.384  24.119  25.508  1.00  0.00     0.178 C 
BRANCH   7   8
ATOM      8  S   UNL A   1      31.732  23.079  24.224  1.00  0.00    -0.078 SA
BRANCH   8   9
ATOM      9  C   UNL A   1      32.410  21.496  24.084  1.00  0.00     0.169 A 
ATOM     10  N   UNL A   1      33.358  20.797  24.806  1.00  0.00    -0.313 N 
ATOM     11  C   UNL A   1      33.347  19.490  24.321  1.00  0.00     0.072 A 
ATOM     12  N   UNL A   1      31.973  20.774  23.071  1.00  0.00    -0.221 NA
ATOM     13  C   UNL A   1      32.527  19.536  23.199  1.00  0.00     0.108 A 
ATOM     14  C   UNL A   1      33.954  18.295  24.719  1.00  0.00     0.049 A 
ATOM     15  C   UNL A   1      32.366  18.389  22.416  1.00  0.00     0.141 A 
ATOM     16  C   UNL A   1      33.752  17.213  23.871  1.00  0.00     0.113 A 
ATOM     17  N   UNL A   1      33.008  17.238  22.745  1.00  0.00    -0.262 NA
BRANCH  10  18
ATOM     18  C   UNL A   1      34.160  21.208  25.949  1.00  0.00     0.173 C 
BRANCH  18  19
ATOM     19  C   UNL A   1      35.463  21.893  25.631  1.00  0.00     0.047 A 
ATOM     20  C   UNL A   1      36.979  19.925  24.882  1.00  0.00     0.068 C 
ATOM     21  C   UNL A   1      36.654  21.352  25.151  1.00  0.00     0.053 A 
ATOM     22  N   UNL A   1      37.647  22.274  24.856  1.00  0.00    -0.250 NA
ATOM     23  C   UNL A   1      37.205  23.490  25.069  1.00  0.00     0.176 A 
ATOM     24  S   UNL A   1      35.605  23.609  25.641  1.00  0.00    -0.125 S 
ENDBRANCH  18  19
ENDBRANCH  10  18
ENDBRANCH   8   9
ENDBRANCH   7   8
ENDBRANCH   4   7
ENDBRANCH   2   3
ENDBRANCH   1   2
BRANCH   1  25
ATOM     25  C   UNL A   1      32.220  29.604  26.901  1.00  0.00     0.023 C 
BRANCH  25  26
ATOM     26  C   UNL A   1      33.539  30.379  26.943  1.00  0.00     0.116 C 
BRANCH  26  27
ATOM     27  N   UNL A   1      33.743  31.156  28.145  1.00  0.00    -0.352 N 
ATOM     28  C   UNL A   1      34.818  31.448  28.933  1.00  0.00     0.251 C 
ATOM     29  H   UNL A   1      32.912  31.573  28.470  1.00  0.00     0.163 HD
ATOM     30  O   UNL A   1      34.611  32.250  29.847  1.00  0.00    -0.269 OA
BRANCH  28  31
ATOM     31  C   UNL A   1      36.159  30.823  28.799  1.00  0.00     0.039 A 
ATOM     32  C   UNL A   1      36.401  29.455  28.660  1.00  0.00     0.014 A 
ATOM     33  C   UNL A   1      37.255  31.700  28.877  1.00  0.00     0.014 A 
ATOM     34  C   UNL A   1      37.692  28.956  28.735  1.00  0.00     0.010 A 
ATOM     35  C   UNL A   1      38.552  31.210  28.917  1.00  0.00     0.010 A 
ATOM     36  C   UNL A   1      38.757  29.833  28.914  1.00  0.00    -0.014 A 
BRANCH  36  37
ATOM     37  C   UNL A   1      40.080  29.255  29.100  1.00  0.00     0.031 A 
ATOM     38  C   UNL A   1      40.565  29.123  30.503  1.00  0.00     0.074 A 
ATOM     39  C   UNL A   1      40.781  28.778  28.055  1.00  0.00     0.049 A 
ATOM     40  N   UNL A   1      41.662  29.583  31.020  1.00  0.00    -0.248 NA
ATOM     41  C   UNL A   1      39.677  28.459  31.468  1.00  0.00     0.031 C 
ATOM     42  C   UNL A   1      40.340  28.620  26.666  1.00  0.00     0.029 A 
ATOM     43  N   UNL A   1      42.005  28.185  28.063  1.00  0.00    -0.354 N 
ATOM     44  C   UNL A   1      41.682  29.130  32.338  1.00  0.00     0.074 A 
ATOM     45  C   UNL A   1      40.395  28.529  32.590  1.00  0.00     0.031 C 
ATOM     46  C   UNL A   1      41.157  27.744  26.045  1.00  0.00     0.029 A 
ATOM     47  C   UNL A   1      42.236  27.390  26.947  1.00  0.00     0.049 A 
ATOM     48  H   UNL A   1      42.662  28.306  28.786  1.00  0.00     0.167 HD
ATOM     49  C   UNL A   1      42.796  29.138  33.120  1.00  0.00     0.034 A 
ATOM     50  C   UNL A   1      43.189  26.435  26.837  1.00  0.00     0.034 A 
ATOM     51  C   UNL A   1      43.853  29.946  32.589  1.00  0.00     0.049 A 
ATOM     52  C   UNL A   1      44.235  26.749  27.840  1.00  0.00     0.074 A 
ATOM     53  C   UNL A   1      44.029  31.295  32.359  1.00  0.00     0.029 A 
ATOM     54  N   UNL A   1      44.841  29.310  31.879  1.00  0.00    -0.354 N 
ATOM     55  N   UNL A   1      44.994  27.808  27.785  1.00  0.00    -0.248 NA
ATOM     56  C   UNL A   1      44.181  26.088  29.134  1.00  0.00     0.031 C 
ATOM     57  C   UNL A   1      44.804  31.367  31.165  1.00  0.00     0.029 A 
ATOM     58  C   UNL A   1      45.068  30.059  30.754  1.00  0.00     0.049 A 
ATOM     59  H   UNL A   1      45.300  28.476  32.131  1.00  0.00     0.167 HD
ATOM     60  C   UNL A   1      45.167  28.189  29.109  1.00  0.00     0.074 A 
ATOM     61  C   UNL A   1      44.755  27.028  29.891  1.00  0.00     0.031 C 
ATOM     62  C   UNL A   1      45.353  29.499  29.449  1.00  0.00     0.034 A 
BRANCH  49  63
ATOM     63  C   UNL A   1      43.008  28.213  34.282  1.00  0.00     0.023 A 
ATOM     64  C   UNL A   1      43.059  28.742  35.587  1.00  0.00     0.012 A 
ATOM     65  C   UNL A   1      43.369  26.858  34.110  1.00  0.00     0.148 A 
ATOM     66  C   UNL A   1      43.435  27.949  36.677  1.00  0.00     0.002 A 
ATOM     67  C   UNL A   1      43.677  26.058  35.202  1.00  0.00     0.091 A 
ATOM     68  F   UNL A   1      43.518  26.375  32.869  1.00  0.00    -0.205 F 
ATOM     69  C   UNL A   1      43.727  26.601  36.488  1.00  0.00     0.022 A 
BRANCH  67  70
ATOM     70  S   UNL A   1      44.010  24.304  35.011  1.00  0.00     0.127 S 
ATOM     71  O   UNL A   1      45.121  24.315  34.064  1.00  0.00    -0.237 OA
ATOM     72  O   UNL A   1      44.362  23.910  36.376  1.00  0.00    -0.237 OA
ATOM     73  O   UNL A   1      42.759  23.729  34.532  1.00  0.00    -0.744 OA
ENDBRANCH  67  70
ENDBRANCH  49  63
BRANCH  50  74
ATOM     74  C   UNL A   1      43.134  25.144  26.111  1.00  0.00     0.023 A 
ATOM     75  C   UNL A   1      44.030  24.914  25.048  1.00  0.00     0.012 A 
ATOM     76  C   UNL A   1      42.395  24.042  26.601  1.00  0.00     0.148 A 
ATOM     77  C   UNL A   1      44.211  23.630  24.518  1.00  0.00     0.002 A 
ATOM     78  C   UNL A   1      42.561  22.772  26.057  1.00  0.00     0.091 A 
ATOM     79  F   UNL A   1      41.604  24.206  27.670  1.00  0.00    -0.205 F 
ATOM     80  C   UNL A   1      43.480  22.559  25.024  1.00  0.00     0.022 A 
BRANCH  78  81
ATOM     81  S   UNL A   1      41.640  21.356  26.673  1.00  0.00     0.127 S 
ATOM     82  O   UNL A   1      41.982  20.316  25.701  1.00  0.00    -0.237 OA
ATOM     83  O   UNL A   1      42.221  21.168  27.998  1.00  0.00    -0.237 OA
ATOM     84  O   UNL A   1      40.239  21.760  26.640  1.00  0.00    -0.744 OA
ENDBRANCH  78  81
ENDBRANCH  50  74
BRANCH  62  85
ATOM     85  C   UNL A   1      45.539  30.494  28.326  1.00  0.00     0.023 A 
ATOM     86  C   UNL A   1      44.424  31.069  27.676  1.00  0.00     0.012 A 
ATOM     87  C   UNL A   1      46.818  30.999  28.046  1.00  0.00     0.148 A 
ATOM     88  C   UNL A   1      44.581  32.103  26.751  1.00  0.00     0.002 A 
ATOM     89  C   UNL A   1      46.967  32.057  27.153  1.00  0.00     0.091 A 
ATOM     90  F   UNL A   1      47.866  30.462  28.689  1.00  0.00    -0.205 F 
ATOM     91  C   UNL A   1      45.852  32.605  26.498  1.00  0.00     0.022 A 
BRANCH  89  92
ATOM     92  S   UNL A   1      48.558  32.840  26.868  1.00  0.00     0.127 S 
ATOM     93  O   UNL A   1      48.883  33.365  28.196  1.00  0.00    -0.237 OA
ATOM     94  O   UNL A   1      49.389  31.709  26.441  1.00  0.00    -0.237 OA
ATOM     95  O   UNL A   1      48.338  33.839  25.837  1.00  0.00    -0.744 OA
ENDBRANCH  89  92
ENDBRANCH  62  85
ENDBRANCH  36  37
ENDBRANCH  28  31
ENDBRANCH  26  27
ENDBRANCH  25  26
ENDBRANCH   1  25
TORSDOF 18
ENDMDL
MODEL 3
REMARK VINA RESULT:     -11.6      0.803      2.324
REMARK SMILES Cc1ncsc1Cn1c(SCC(=O)NCCCCNC(=O)c2ccc(-c3c4nc(c(-c5cccc(S(=O)(=O)[O-])c5F)c5ccc([nH]5)c(-c5cccc(S(=O)(=O)[O-])c5F)c5nc(c(-c6cccc(S(=O)(=O)[O-])c6F)c6ccc3[nH]6)C=C5)C=C4)cc2)nc2cnccc21
REMARK SMILES IDX 16 1 15 2 14 3 12 4 13 5 11 7 10 8 9 9 8 10 91 11 85 12
REMARK SMILES IDX 86 13 90 14 87 15 89 16 88 17 7 18 6 19 1 20 2 21 3 22 4 23
REMARK SMILES IDX 5 24 17 25 18 26 19 27 20 28 21 30 22 31 23 32 84 33 24 34
REMARK SMILES IDX 83 35 25 36 26 37 27 38 77 39 28 40 82 41 76 42 78 43 29 44
REMARK SMILES IDX 81 45 75 46 74 47 30 49 62 50 42 51 61 52 43 53 46 54 60 55
REMARK SMILES IDX 79 56 44 57 45 58 59 60 80 61 47 62 31 63 32 64 40 65 33 66
REMARK SMILES IDX 35 67 41 68 34 69 36 70 37 71 38 72 39 73 63 74 64 75 72 76
REMARK SMILES IDX 65 77 67 78 73 79 66 80 68 81 69 82 70 83 71 84 48 85 49 86
REMARK SMILES IDX 57 87 50 88 52 89 58 90 51 91 53 92 54 93 55 94 56 95
REMARK H PARENT 14 6 19 29 78 48 46 59
REMARK Flexibility Score: inf
ROOT
ATOM      1  C   UNL A   1      32.713  28.222  26.806  1.00  0.00     0.023 C 
ENDROOT
BRANCH   1   2
ATOM      2  C   UNL A   1      33.401  28.017  25.461  1.00  0.00     0.116 C 
BRANCH   2   3
ATOM      3  N   UNL A   1      32.710  28.715  24.396  1.00  0.00    -0.355 N 
ATOM      4  C   UNL A   1      32.725  28.492  23.063  1.00  0.00     0.230 C 
ATOM      5  O   UNL A   1      31.916  29.132  22.382  1.00  0.00    -0.274 OA
ATOM      6  H   UNL A   1      32.145  29.466  24.687  1.00  0.00     0.163 HD
BRANCH   4   7
ATOM      7  C   UNL A   1      33.609  27.441  22.434  1.00  0.00     0.178 C 
BRANCH   7   8
ATOM      8  S   UNL A   1      32.865  25.886  22.005  1.00  0.00    -0.078 SA
BRANCH   8   9
ATOM      9  C   UNL A   1      32.104  25.007  23.284  1.00  0.00     0.169 A 
ATOM     10  N   UNL A   1      32.160  23.692  23.702  1.00  0.00    -0.313 N 
ATOM     11  C   UNL A   1      31.465  23.627  24.909  1.00  0.00     0.072 A 
ATOM     12  N   UNL A   1      31.265  25.697  24.031  1.00  0.00    -0.221 NA
ATOM     13  C   UNL A   1      30.865  24.873  25.040  1.00  0.00     0.108 A 
ATOM     14  C   UNL A   1      31.286  22.637  25.880  1.00  0.00     0.049 A 
ATOM     15  C   UNL A   1      30.012  25.118  26.121  1.00  0.00     0.141 A 
ATOM     16  C   UNL A   1      30.408  22.963  26.907  1.00  0.00     0.113 A 
ATOM     17  N   UNL A   1      29.766  24.143  27.035  1.00  0.00    -0.262 NA
BRANCH  10  18
ATOM     18  C   UNL A   1      32.883  22.558  23.145  1.00  0.00     0.173 C 
BRANCH  18  19
ATOM     19  C   UNL A   1      34.196  22.224  23.800  1.00  0.00     0.047 A 
ATOM     20  C   UNL A   1      33.695  19.966  24.975  1.00  0.00     0.068 C 
ATOM     21  C   UNL A   1      34.551  21.109  24.556  1.00  0.00     0.053 A 
ATOM     22  N   UNL A   1      35.885  21.047  24.932  1.00  0.00    -0.250 NA
ATOM     23  C   UNL A   1      36.535  22.072  24.437  1.00  0.00     0.176 A 
ATOM     24  S   UNL A   1      35.610  23.167  23.520  1.00  0.00    -0.125 S 
ENDBRANCH  18  19
ENDBRANCH  10  18
ENDBRANCH   8   9
ENDBRANCH   7   8
ENDBRANCH   4   7
ENDBRANCH   2   3
ENDBRANCH   1   2
BRANCH   1  25
ATOM     25  C   UNL A   1      32.456  29.686  27.197  1.00  0.00     0.023 C 
BRANCH  25  26
ATOM     26  C   UNL A   1      33.681  30.603  27.160  1.00  0.00     0.116 C 
BRANCH  26  27
ATOM     27  N   UNL A   1      33.921  31.335  28.384  1.00  0.00    -0.352 N 
ATOM     28  C   UNL A   1      35.012  31.564  29.171  1.00  0.00     0.251 C 
ATOM     29  H   UNL A   1      33.107  31.769  28.730  1.00  0.00     0.163 HD
ATOM     30  O   UNL A   1      34.840  32.343  30.111  1.00  0.00    -0.269 OA
BRANCH  28  31
ATOM     31  C   UNL A   1      36.329  30.898  29.004  1.00  0.00     0.039 A 
ATOM     32  C   UNL A   1      36.520  29.535  28.771  1.00  0.00     0.014 A 
ATOM     33  C   UNL A   1      37.458  31.724  29.154  1.00  0.00     0.014 A 
ATOM     34  C   UNL A   1      37.790  28.982  28.822  1.00  0.00     0.010 A 
ATOM     35  C   UNL A   1      38.734  31.182  29.171  1.00  0.00     0.010 A 
ATOM     36  C   UNL A   1      38.886  29.801  29.072  1.00  0.00    -0.014 A 
BRANCH  36  37
ATOM     37  C   UNL A   1      40.183  29.160  29.228  1.00  0.00     0.031 A 
ATOM     38  C   UNL A   1      40.673  28.962  30.623  1.00  0.00     0.074 A 
ATOM     39  C   UNL A   1      40.855  28.686  28.163  1.00  0.00     0.049 A 
ATOM     40  N   UNL A   1      41.792  29.356  31.144  1.00  0.00    -0.248 NA
ATOM     41  C   UNL A   1      39.763  28.307  31.573  1.00  0.00     0.031 C 
ATOM     42  C   UNL A   1      40.398  28.594  26.773  1.00  0.00     0.029 A 
ATOM     43  N   UNL A   1      42.053  28.041  28.142  1.00  0.00    -0.354 N 
ATOM     44  C   UNL A   1      41.801  28.861  32.448  1.00  0.00     0.074 A 
ATOM     45  C   UNL A   1      40.491  28.308  32.690  1.00  0.00     0.031 C 
ATOM     46  C   UNL A   1      41.171  27.703  26.117  1.00  0.00     0.029 A 
ATOM     47  C   UNL A   1      42.240  27.272  26.999  1.00  0.00     0.049 A 
ATOM     48  H   UNL A   1      42.719  28.110  28.862  1.00  0.00     0.167 HD
ATOM     49  C   UNL A   1      42.920  28.795  33.220  1.00  0.00     0.034 A 
ATOM     50  C   UNL A   1      43.149  26.281  26.851  1.00  0.00     0.034 A 
ATOM     51  C   UNL A   1      44.007  29.572  32.706  1.00  0.00     0.049 A 
ATOM     52  C   UNL A   1      44.215  26.517  27.854  1.00  0.00     0.074 A 
ATOM     53  C   UNL A   1      44.242  30.918  32.517  1.00  0.00     0.029 A 
ATOM     54  N   UNL A   1      44.962  28.916  31.968  1.00  0.00    -0.354 N 
ATOM     55  N   UNL A   1      45.020  27.542  27.826  1.00  0.00    -0.248 NA
ATOM     56  C   UNL A   1      44.142  25.817  29.126  1.00  0.00     0.031 C 
ATOM     57  C   UNL A   1      45.011  30.995  31.320  1.00  0.00     0.029 A 
ATOM     58  C   UNL A   1      45.214  29.691  30.865  1.00  0.00     0.049 A 
ATOM     59  H   UNL A   1      45.385  28.055  32.188  1.00  0.00     0.167 HD
ATOM     60  C   UNL A   1      45.219  27.872  29.160  1.00  0.00     0.074 A 
ATOM     61  C   UNL A   1      44.761  26.706  29.909  1.00  0.00     0.031 C 
ATOM     62  C   UNL A   1      45.464  29.161  29.541  1.00  0.00     0.034 A 
BRANCH  49  63
ATOM     63  C   UNL A   1      43.099  27.824  34.350  1.00  0.00     0.023 A 
ATOM     64  C   UNL A   1      43.058  28.294  35.678  1.00  0.00     0.012 A 
ATOM     65  C   UNL A   1      43.517  26.491  34.139  1.00  0.00     0.148 A 
ATOM     66  C   UNL A   1      43.400  27.463  36.751  1.00  0.00     0.002 A 
ATOM     67  C   UNL A   1      43.792  25.651  35.210  1.00  0.00     0.091 A 
ATOM     68  F   UNL A   1      43.752  26.071  32.889  1.00  0.00    -0.205 F 
ATOM     69  C   UNL A   1      43.750  26.136  36.520  1.00  0.00     0.022 A 
BRANCH  67  70
ATOM     70  S   UNL A   1      44.196  23.920  34.961  1.00  0.00     0.127 S 
ATOM     71  O   UNL A   1      44.534  23.497  36.316  1.00  0.00    -0.237 OA
ATOM     72  O   UNL A   1      42.938  23.386  34.439  1.00  0.00    -0.237 OA
ATOM     73  O   UNL A   1      45.287  23.919  33.994  1.00  0.00    -0.744 OA
ENDBRANCH  67  70
ENDBRANCH  49  63
BRANCH  50  74
ATOM     74  C   UNL A   1      43.032  25.018  26.084  1.00  0.00     0.023 A 
ATOM     75  C   UNL A   1      43.974  24.736  25.074  1.00  0.00     0.012 A 
ATOM     76  C   UNL A   1      42.170  23.973  26.493  1.00  0.00     0.148 A 
ATOM     77  C   UNL A   1      44.079  23.454  24.519  1.00  0.00     0.002 A 
ATOM     78  C   UNL A   1      42.263  22.707  25.922  1.00  0.00     0.091 A 
ATOM     79  F   UNL A   1      41.327  24.180  27.513  1.00  0.00    -0.205 F 
ATOM     80  C   UNL A   1      43.227  22.439  24.945  1.00  0.00     0.022 A 
BRANCH  78  81
ATOM     81  S   UNL A   1      41.185  21.362  26.435  1.00  0.00     0.127 S 
ATOM     82  O   UNL A   1      41.420  21.308  27.879  1.00  0.00    -0.237 OA
ATOM     83  O   UNL A   1      39.870  21.862  26.048  1.00  0.00    -0.237 OA
ATOM     84  O   UNL A   1      41.660  20.188  25.713  1.00  0.00    -0.744 OA
ENDBRANCH  78  81
ENDBRANCH  50  74
BRANCH  62  85
ATOM     85  C   UNL A   1      45.686  30.183  28.448  1.00  0.00     0.023 A 
ATOM     86  C   UNL A   1      44.592  30.794  27.795  1.00  0.00     0.012 A 
ATOM     87  C   UNL A   1      46.978  30.674  28.204  1.00  0.00     0.148 A 
ATOM     88  C   UNL A   1      44.782  31.849  26.901  1.00  0.00     0.002 A 
ATOM     89  C   UNL A   1      47.160  31.753  27.343  1.00  0.00     0.091 A 
ATOM     90  F   UNL A   1      48.005  30.102  28.850  1.00  0.00    -0.205 F 
ATOM     91  C   UNL A   1      46.065  32.337  26.684  1.00  0.00     0.022 A 
BRANCH  89  92
ATOM     92  S   UNL A   1      48.768  32.517  27.106  1.00  0.00     0.127 S 
ATOM     93  O   UNL A   1      49.539  31.426  26.506  1.00  0.00    -0.237 OA
ATOM     94  O   UNL A   1      48.457  33.618  26.189  1.00  0.00    -0.237 OA
ATOM     95  O   UNL A   1      49.210  32.945  28.421  1.00  0.00    -0.744 OA
ENDBRANCH  89  92
ENDBRANCH  62  85
ENDBRANCH  36  37
ENDBRANCH  28  31
ENDBRANCH  26  27
ENDBRANCH  25  26
ENDBRANCH   1  25
TORSDOF 18
ENDMDL
