MODEL 1
REMARK VINA RESULT:     -12.2      0.000      0.000
REMARK SMILES Nc1oc(-c2ccccc2)cc1C(=O)NCCCCNC(=O)c1ccc(-c2c3nc(c(-c4cccc(S(=O)(=O)[O-])c4F)c4ccc([nH]4)c(-c4cccc(S(=O)(=O)[O-])c4F)c4nc(c(-c5cccc(S(=O)(=O)[O-])c5F)c5ccc2[nH]5)C=C4)C=C3)cc1
REMARK SMILES IDX 18 1 17 2 16 3 15 4 13 5 14 6 12 8 2 9 3 10 4 11 11 12 1 13
REMARK SMILES IDX 5 16 6 17 10 18 7 19 9 20 8 21 19 22 20 23 21 24 22 26 23 27
REMARK SMILES IDX 24 28 85 29 25 30 84 31 26 32 27 33 28 34 78 35 29 36 83 37
REMARK SMILES IDX 77 38 79 39 30 40 82 41 76 42 75 43 31 45 63 46 43 47 62 48
REMARK SMILES IDX 44 49 47 50 61 51 80 52 45 53 46 54 60 56 81 57 48 58 32 59
REMARK SMILES IDX 33 60 41 61 34 62 36 63 42 64 35 65 37 66 38 67 39 68 40 69
REMARK SMILES IDX 64 70 65 71 73 72 66 73 68 74 74 75 67 76 69 77 70 78 71 79
REMARK SMILES IDX 72 80 49 81 50 82 58 83 51 84 53 85 59 86 52 87 54 88 55 89
REMARK SMILES IDX 56 90 57 91
REMARK H PARENT 15 7 1 14 1 15 20 25 79 44 47 55
REMARK Flexibility Score: inf
ROOT
ATOM      1  C   UNL A   1      38.132  19.399  25.108  1.00  0.00     0.023 C 
ENDROOT
BRANCH   1   2
ATOM      2  C   UNL A   1      37.094  20.429  24.629  1.00  0.00     0.023 C 
BRANCH   2   3
ATOM      3  C   UNL A   1      36.906  21.641  25.552  1.00  0.00     0.116 C 
BRANCH   3   4
ATOM      4  N   UNL A   1      35.821  21.432  26.490  1.00  0.00    -0.352 N 
ATOM      5  C   UNL A   1      34.593  22.033  26.639  1.00  0.00     0.256 C 
ATOM      6  O   UNL A   1      33.900  21.656  27.586  1.00  0.00    -0.269 OA
ATOM      7  H   UNL A   1      35.997  20.722  27.149  1.00  0.00     0.163 HD
BRANCH   5   8
ATOM      8  C   UNL A   1      34.129  23.066  25.723  1.00  0.00     0.103 A 
ATOM      9  C   UNL A   1      33.562  22.795  24.483  1.00  0.00     0.203 A 
ATOM     10  O   UNL A   1      33.273  23.937  23.803  1.00  0.00    -0.440 OA
ATOM     11  C   UNL A   1      33.652  24.965  24.604  1.00  0.00     0.137 A 
ATOM     12  C   UNL A   1      34.113  24.484  25.808  1.00  0.00     0.067 A 
BRANCH   9  13
ATOM     13  N   UNL A   1      33.288  21.650  23.851  1.00  0.00    -0.369 N 
ATOM     14  H   UNL A   1      32.635  21.639  23.114  1.00  0.00     0.159 HD
ATOM     15  H   UNL A   1      33.737  20.817  24.123  1.00  0.00     0.159 HD
ENDBRANCH   9  13
BRANCH  11  16
ATOM     16  C   UNL A   1      33.545  26.312  24.088  1.00  0.00     0.017 A 
ATOM     17  C   UNL A   1      33.593  27.416  24.942  1.00  0.00     0.012 A 
ATOM     18  C   UNL A   1      33.527  26.515  22.701  1.00  0.00     0.012 A 
ATOM     19  C   UNL A   1      33.667  28.707  24.413  1.00  0.00     0.001 A 
ATOM     20  C   UNL A   1      33.591  27.803  22.173  1.00  0.00     0.001 A 
ATOM     21  C   UNL A   1      33.675  28.899  23.029  1.00  0.00     0.000 A 
ENDBRANCH  11  16
ENDBRANCH   5   8
ENDBRANCH   3   4
ENDBRANCH   2   3
ENDBRANCH   1   2
BRANCH   1  22
ATOM     22  C   UNL A   1      39.378  20.002  25.743  1.00  0.00     0.116 C 
BRANCH  22  23
ATOM     23  N   UNL A   1      40.485  19.042  25.887  1.00  0.00    -0.352 N 
ATOM     24  C   UNL A   1      41.836  19.321  26.021  1.00  0.00     0.251 C 
ATOM     25  H   UNL A   1      40.236  18.090  25.886  1.00  0.00     0.163 HD
ATOM     26  O   UNL A   1      42.696  18.482  25.755  1.00  0.00    -0.269 OA
BRANCH  24  27
ATOM     27  C   UNL A   1      42.213  20.643  26.536  1.00  0.00     0.039 A 
ATOM     28  C   UNL A   1      42.769  21.655  25.747  1.00  0.00     0.014 A 
ATOM     29  C   UNL A   1      41.899  20.863  27.870  1.00  0.00     0.014 A 
ATOM     30  C   UNL A   1      42.939  22.918  26.314  1.00  0.00     0.010 A 
ATOM     31  C   UNL A   1      41.814  22.142  28.322  1.00  0.00     0.010 A 
ATOM     32  C   UNL A   1      42.447  23.147  27.606  1.00  0.00    -0.014 A 
BRANCH  32  33
ATOM     33  C   UNL A   1      42.505  24.442  28.263  1.00  0.00     0.031 A 
ATOM     34  C   UNL A   1      41.308  25.294  28.050  1.00  0.00     0.074 A 
ATOM     35  C   UNL A   1      43.441  24.692  29.208  1.00  0.00     0.049 A 
ATOM     36  N   UNL A   1      41.238  26.398  27.382  1.00  0.00    -0.248 NA
ATOM     37  C   UNL A   1      39.999  24.782  28.489  1.00  0.00     0.031 C 
ATOM     38  C   UNL A   1      44.471  23.777  29.739  1.00  0.00     0.029 A 
ATOM     39  N   UNL A   1      43.568  25.768  30.023  1.00  0.00    -0.354 N 
ATOM     40  C   UNL A   1      39.931  26.850  27.554  1.00  0.00     0.074 A 
ATOM     41  C   UNL A   1      39.174  25.719  28.017  1.00  0.00     0.031 C 
ATOM     42  C   UNL A   1      44.905  24.227  30.935  1.00  0.00     0.029 A 
ATOM     43  C   UNL A   1      44.341  25.542  31.160  1.00  0.00     0.049 A 
ATOM     44  H   UNL A   1      43.149  26.638  29.829  1.00  0.00     0.167 HD
ATOM     45  C   UNL A   1      39.649  28.183  27.587  1.00  0.00     0.034 A 
ATOM     46  C   UNL A   1      44.465  26.361  32.232  1.00  0.00     0.034 A 
ATOM     47  C   UNL A   1      40.768  28.962  27.112  1.00  0.00     0.049 A 
ATOM     48  C   UNL A   1      44.064  27.713  31.782  1.00  0.00     0.074 A 
ATOM     49  C   UNL A   1      41.494  29.021  25.940  1.00  0.00     0.029 A 
ATOM     50  N   UNL A   1      41.555  29.556  28.072  1.00  0.00    -0.354 N 
ATOM     51  N   UNL A   1      44.713  28.380  30.867  1.00  0.00    -0.248 NA
ATOM     52  C   UNL A   1      42.679  28.108  31.984  1.00  0.00     0.031 C 
ATOM     53  C   UNL A   1      42.848  29.190  26.359  1.00  0.00     0.029 A 
ATOM     54  C   UNL A   1      42.863  29.306  27.752  1.00  0.00     0.049 A 
ATOM     55  H   UNL A   1      41.235  30.067  28.850  1.00  0.00     0.167 HD
ATOM     56  C   UNL A   1      43.716  28.927  30.069  1.00  0.00     0.074 A 
ATOM     57  C   UNL A   1      42.493  28.818  30.866  1.00  0.00     0.031 C 
ATOM     58  C   UNL A   1      43.914  29.135  28.733  1.00  0.00     0.034 A 
BRANCH  45  59
ATOM     59  C   UNL A   1      38.552  28.826  28.409  1.00  0.00     0.023 A 
ATOM     60  C   UNL A   1      37.690  29.723  27.736  1.00  0.00     0.012 A 
ATOM     61  C   UNL A   1      38.497  28.830  29.822  1.00  0.00     0.148 A 
ATOM     62  C   UNL A   1      36.873  30.621  28.430  1.00  0.00     0.002 A 
ATOM     63  C   UNL A   1      37.629  29.673  30.507  1.00  0.00     0.091 A 
ATOM     64  F   UNL A   1      39.374  28.119  30.533  1.00  0.00    -0.205 F 
ATOM     65  C   UNL A   1      36.840  30.596  29.818  1.00  0.00     0.022 A 
BRANCH  63  66
ATOM     66  S   UNL A   1      37.520  29.656  32.302  1.00  0.00     0.127 S 
ATOM     67  O   UNL A   1      38.751  30.346  32.673  1.00  0.00    -0.237 OA
ATOM     68  O   UNL A   1      36.288  30.412  32.533  1.00  0.00    -0.237 OA
ATOM     69  O   UNL A   1      37.434  28.249  32.674  1.00  0.00    -0.744 OA
ENDBRANCH  63  66
ENDBRANCH  45  59
BRANCH  46  70
ATOM     70  C   UNL A   1      44.602  25.999  33.662  1.00  0.00     0.023 A 
ATOM     71  C   UNL A   1      45.876  25.907  34.255  1.00  0.00     0.012 A 
ATOM     72  C   UNL A   1      43.471  26.010  34.510  1.00  0.00     0.148 A 
ATOM     73  C   UNL A   1      46.019  25.848  35.649  1.00  0.00     0.002 A 
ATOM     74  C   UNL A   1      43.618  25.943  35.892  1.00  0.00     0.091 A 
ATOM     75  F   UNL A   1      42.259  26.174  33.962  1.00  0.00    -0.205 F 
ATOM     76  C   UNL A   1      44.892  25.873  36.467  1.00  0.00     0.022 A 
BRANCH  74  77
ATOM     77  S   UNL A   1      42.209  25.993  37.009  1.00  0.00     0.127 S 
ATOM     78  O   UNL A   1      41.458  27.136  36.490  1.00  0.00    -0.237 OA
ATOM     79  O   UNL A   1      41.589  24.693  36.771  1.00  0.00    -0.237 OA
ATOM     80  O   UNL A   1      42.767  26.193  38.341  1.00  0.00    -0.744 OA
ENDBRANCH  74  77
ENDBRANCH  46  70
BRANCH  58  81
ATOM     81  C   UNL A   1      45.308  28.931  28.181  1.00  0.00     0.023 A 
ATOM     82  C   UNL A   1      46.349  29.863  28.386  1.00  0.00     0.012 A 
ATOM     83  C   UNL A   1      45.622  27.688  27.610  1.00  0.00     0.148 A 
ATOM     84  C   UNL A   1      47.665  29.572  28.015  1.00  0.00     0.002 A 
ATOM     85  C   UNL A   1      46.939  27.385  27.281  1.00  0.00     0.091 A 
ATOM     86  F   UNL A   1      44.628  26.805  27.436  1.00  0.00    -0.205 F 
ATOM     87  C   UNL A   1      47.963  28.326  27.474  1.00  0.00     0.022 A 
BRANCH  85  88
ATOM     88  S   UNL A   1      47.410  25.757  26.694  1.00  0.00     0.127 S 
ATOM     89  O   UNL A   1      47.034  24.907  27.821  1.00  0.00    -0.237 OA
ATOM     90  O   UNL A   1      46.571  25.601  25.503  1.00  0.00    -0.237 OA
ATOM     91  O   UNL A   1      48.839  25.826  26.412  1.00  0.00    -0.744 OA
ENDBRANCH  85  88
ENDBRANCH  58  81
ENDBRANCH  32  33
ENDBRANCH  24  27
ENDBRANCH  22  23
ENDBRANCH   1  22
TORSDOF 16
ENDMDL
MODEL 2
REMARK VINA RESULT:     -12.1      1.810      2.227
REMARK SMILES Nc1oc(-c2ccccc2)cc1C(=O)NCCCCNC(=O)c1ccc(-c2c3nc(c(-c4cccc(S(=O)(=O)[O-])c4F)c4ccc([nH]4)c(-c4cccc(S(=O)(=O)[O-])c4F)c4nc(c(-c5cccc(S(=O)(=O)[O-])c5F)c5ccc2[nH]5)C=C4)C=C3)cc1
REMARK SMILES IDX 18 1 17 2 16 3 15 4 13 5 14 6 12 8 2 9 3 10 4 11 11 12 1 13
REMARK SMILES IDX 5 16 6 17 10 18 7 19 9 20 8 21 19 22 20 23 21 24 22 26 23 27
REMARK SMILES IDX 24 28 85 29 25 30 84 31 26 32 27 33 28 34 78 35 29 36 83 37
REMARK SMILES IDX 77 38 79 39 30 40 82 41 76 42 75 43 31 45 63 46 43 47 62 48
REMARK SMILES IDX 44 49 47 50 61 51 80 52 45 53 46 54 60 56 81 57 48 58 32 59
REMARK SMILES IDX 33 60 41 61 34 62 36 63 42 64 35 65 37 66 38 67 39 68 40 69
REMARK SMILES IDX 64 70 65 71 73 72 66 73 68 74 74 75 67 76 69 77 70 78 71 79
REMARK SMILES IDX 72 80 49 81 50 82 58 83 51 84 53 85 59 86 52 87 54 88 55 89
REMARK SMILES IDX 56 90 57 91
REMARK H PARENT 15 7 1 14 1 15 20 25 79 44 47 55
REMARK Flexibility Score: inf
ROOT
ATOM      1  C   UNL A   1      37.339  19.922  24.976  1.00  0.00     0.023 C 
ENDROOT
BRANCH   1   2
ATOM      2  C   UNL A   1      36.377  21.079  24.652  1.00  0.00     0.023 C 
BRANCH   2   3
ATOM      3  C   UNL A   1      34.997  20.985  25.319  1.00  0.00     0.116 C 
BRANCH   3   4
ATOM      4  N   UNL A   1      33.930  21.002  24.338  1.00  0.00    -0.352 N 
ATOM      5  C   UNL A   1      32.862  21.845  24.141  1.00  0.00     0.256 C 
ATOM      6  O   UNL A   1      32.087  21.557  23.228  1.00  0.00    -0.269 OA
ATOM      7  H   UNL A   1      33.980  20.266  23.685  1.00  0.00     0.163 HD
BRANCH   5   8
ATOM      8  C   UNL A   1      32.654  23.024  24.971  1.00  0.00     0.103 A 
ATOM      9  C   UNL A   1      31.794  23.052  26.062  1.00  0.00     0.203 A 
ATOM     10  O   UNL A   1      31.737  24.290  26.624  1.00  0.00    -0.440 OA
ATOM     11  C   UNL A   1      32.567  25.079  25.895  1.00  0.00     0.137 A 
ATOM     12  C   UNL A   1      33.198  24.335  24.924  1.00  0.00     0.067 A 
BRANCH   9  13
ATOM     13  N   UNL A   1      31.017  22.119  26.620  1.00  0.00    -0.369 N 
ATOM     14  H   UNL A   1      31.265  21.727  27.488  1.00  0.00     0.159 HD
ATOM     15  H   UNL A   1      30.198  21.822  26.161  1.00  0.00     0.159 HD
ENDBRANCH   9  13
BRANCH  11  16
ATOM     16  C   UNL A   1      32.632  26.488  26.216  1.00  0.00     0.017 A 
ATOM     17  C   UNL A   1      31.535  27.152  26.769  1.00  0.00     0.012 A 
ATOM     18  C   UNL A   1      33.856  27.162  26.094  1.00  0.00     0.012 A 
ATOM     19  C   UNL A   1      31.673  28.461  27.235  1.00  0.00     0.001 A 
ATOM     20  C   UNL A   1      33.990  28.472  26.551  1.00  0.00     0.001 A 
ATOM     21  C   UNL A   1      32.902  29.117  27.135  1.00  0.00     0.000 A 
ENDBRANCH  11  16
ENDBRANCH   5   8
ENDBRANCH   3   4
ENDBRANCH   2   3
ENDBRANCH   1   2
BRANCH   1  22
ATOM     22  C   UNL A   1      38.699  20.358  25.506  1.00  0.00     0.116 C 
BRANCH  22  23
ATOM     23  N   UNL A   1      39.641  19.241  25.688  1.00  0.00    -0.352 N 
ATOM     24  C   UNL A   1      41.006  19.313  25.911  1.00  0.00     0.251 C 
ATOM     25  H   UNL A   1      39.254  18.336  25.644  1.00  0.00     0.163 HD
ATOM     26  O   UNL A   1      41.749  18.360  25.672  1.00  0.00    -0.269 OA
BRANCH  24  27
ATOM     27  C   UNL A   1      41.541  20.553  26.485  1.00  0.00     0.039 A 
ATOM     28  C   UNL A   1      42.277  21.494  25.757  1.00  0.00     0.014 A 
ATOM     29  C   UNL A   1      41.191  20.783  27.809  1.00  0.00     0.014 A 
ATOM     30  C   UNL A   1      42.595  22.704  26.372  1.00  0.00     0.010 A 
ATOM     31  C   UNL A   1      41.266  22.050  28.297  1.00  0.00     0.010 A 
ATOM     32  C   UNL A   1      42.073  22.971  27.646  1.00  0.00    -0.014 A 
BRANCH  32  33
ATOM     33  C   UNL A   1      42.280  24.227  28.345  1.00  0.00     0.031 A 
ATOM     34  C   UNL A   1      41.191  25.219  28.165  1.00  0.00     0.074 A 
ATOM     35  C   UNL A   1      43.239  24.335  29.296  1.00  0.00     0.049 A 
ATOM     36  N   UNL A   1      41.250  26.345  27.535  1.00  0.00    -0.248 NA
ATOM     37  C   UNL A   1      39.831  24.848  28.590  1.00  0.00     0.031 C 
ATOM     38  C   UNL A   1      44.154  23.289  29.793  1.00  0.00     0.029 A 
ATOM     39  N   UNL A   1      43.489  25.360  30.147  1.00  0.00    -0.354 N 
ATOM     40  C   UNL A   1      40.005  26.941  27.726  1.00  0.00     0.074 A 
ATOM     41  C   UNL A   1      39.120  25.890  28.153  1.00  0.00     0.031 C 
ATOM     42  C   UNL A   1      44.637  23.645  31.002  1.00  0.00     0.029 A 
ATOM     43  C   UNL A   1      44.229  25.007  31.273  1.00  0.00     0.049 A 
ATOM     44  H   UNL A   1      43.174  26.279  29.983  1.00  0.00     0.167 HD
ATOM     45  C   UNL A   1      39.879  28.295  27.805  1.00  0.00     0.034 A 
ATOM     46  C   UNL A   1      44.446  25.770  32.371  1.00  0.00     0.034 A 
ATOM     47  C   UNL A   1      41.082  28.955  27.354  1.00  0.00     0.049 A 
ATOM     48  C   UNL A   1      44.205  27.174  31.968  1.00  0.00     0.074 A 
ATOM     49  C   UNL A   1      41.811  28.969  26.181  1.00  0.00     0.029 A 
ATOM     50  N   UNL A   1      41.931  29.420  28.331  1.00  0.00    -0.354 N 
ATOM     51  N   UNL A   1      44.929  27.791  31.075  1.00  0.00    -0.248 NA
ATOM     52  C   UNL A   1      42.876  27.720  32.187  1.00  0.00     0.031 C 
ATOM     53  C   UNL A   1      43.174  28.965  26.602  1.00  0.00     0.029 A 
ATOM     54  C   UNL A   1      43.201  29.031  27.998  1.00  0.00     0.049 A 
ATOM     55  H   UNL A   1      41.672  29.938  29.126  1.00  0.00     0.167 HD
ATOM     56  C   UNL A   1      44.003  28.477  30.298  1.00  0.00     0.074 A 
ATOM     57  C   UNL A   1      42.774  28.484  31.095  1.00  0.00     0.031 C 
ATOM     58  C   UNL A   1      44.225  28.706  28.969  1.00  0.00     0.034 A 
BRANCH  45  59
ATOM     59  C   UNL A   1      38.863  29.033  28.652  1.00  0.00     0.023 A 
ATOM     60  C   UNL A   1      38.158  30.089  28.030  1.00  0.00     0.012 A 
ATOM     61  C   UNL A   1      38.770  28.948  30.060  1.00  0.00     0.148 A 
ATOM     62  C   UNL A   1      37.460  31.047  28.772  1.00  0.00     0.002 A 
ATOM     63  C   UNL A   1      38.014  29.860  30.789  1.00  0.00     0.091 A 
ATOM     64  F   UNL A   1      39.517  28.071  30.733  1.00  0.00    -0.205 F 
ATOM     65  C   UNL A   1      37.385  30.932  30.154  1.00  0.00     0.022 A 
BRANCH  63  66
ATOM     66  S   UNL A   1      37.854  29.736  32.575  1.00  0.00     0.127 S 
ATOM     67  O   UNL A   1      39.209  30.063  33.010  1.00  0.00    -0.237 OA
ATOM     68  O   UNL A   1      36.846  30.759  32.856  1.00  0.00    -0.237 OA
ATOM     69  O   UNL A   1      37.407  28.373  32.833  1.00  0.00    -0.744 OA
ENDBRANCH  63  66
ENDBRANCH  45  59
BRANCH  46  70
ATOM     70  C   UNL A   1      44.539  25.346  33.788  1.00  0.00     0.023 A 
ATOM     71  C   UNL A   1      43.376  25.217  34.572  1.00  0.00     0.012 A 
ATOM     72  C   UNL A   1      45.744  24.804  34.290  1.00  0.00     0.148 A 
ATOM     73  C   UNL A   1      43.410  24.555  35.807  1.00  0.00     0.002 A 
ATOM     74  C   UNL A   1      45.774  24.154  35.520  1.00  0.00     0.091 A 
ATOM     75  F   UNL A   1      46.840  24.853  33.520  1.00  0.00    -0.205 F 
ATOM     76  C   UNL A   1      44.606  24.018  36.278  1.00  0.00     0.022 A 
BRANCH  74  77
ATOM     77  S   UNL A   1      47.277  23.419  36.179  1.00  0.00     0.127 S 
ATOM     78  O   UNL A   1      47.464  22.274  35.288  1.00  0.00    -0.237 OA
ATOM     79  O   UNL A   1      48.245  24.498  36.002  1.00  0.00    -0.237 OA
ATOM     80  O   UNL A   1      46.972  23.063  37.560  1.00  0.00    -0.744 OA
ENDBRANCH  74  77
ENDBRANCH  46  70
BRANCH  58  81
ATOM     81  C   UNL A   1      45.586  28.360  28.407  1.00  0.00     0.023 A 
ATOM     82  C   UNL A   1      46.728  29.157  28.641  1.00  0.00     0.012 A 
ATOM     83  C   UNL A   1      45.754  27.110  27.793  1.00  0.00     0.148 A 
ATOM     84  C   UNL A   1      48.002  28.727  28.257  1.00  0.00     0.002 A 
ATOM     85  C   UNL A   1      47.027  26.667  27.449  1.00  0.00     0.091 A 
ATOM     86  F   UNL A   1      44.664  26.355  27.590  1.00  0.00    -0.205 F 
ATOM     87  C   UNL A   1      48.153  27.475  27.671  1.00  0.00     0.022 A 
BRANCH  85  88
ATOM     88  S   UNL A   1      47.306  25.017  26.805  1.00  0.00     0.127 S 
ATOM     89  O   UNL A   1      46.751  25.119  25.457  1.00  0.00    -0.237 OA
ATOM     90  O   UNL A   1      48.765  24.904  26.859  1.00  0.00    -0.237 OA
ATOM     91  O   UNL A   1      46.604  24.107  27.702  1.00  0.00    -0.744 OA
ENDBRANCH  85  88
ENDBRANCH  58  81
ENDBRANCH  32  33
ENDBRANCH  24  27
ENDBRANCH  22  23
ENDBRANCH   1  22
TORSDOF 16
ENDMDL
MODEL 3
REMARK VINA RESULT:     -12.0      4.302      9.761
REMARK SMILES Nc1oc(-c2ccccc2)cc1C(=O)NCCCCNC(=O)c1ccc(-c2c3nc(c(-c4cccc(S(=O)(=O)[O-])c4F)c4ccc([nH]4)c(-c4cccc(S(=O)(=O)[O-])c4F)c4nc(c(-c5cccc(S(=O)(=O)[O-])c5F)c5ccc2[nH]5)C=C4)C=C3)cc1
REMARK SMILES IDX 18 1 17 2 16 3 15 4 13 5 14 6 12 8 2 9 3 10 4 11 11 12 1 13
REMARK SMILES IDX 5 16 6 17 10 18 7 19 9 20 8 21 19 22 20 23 21 24 22 26 23 27
REMARK SMILES IDX 24 28 85 29 25 30 84 31 26 32 27 33 28 34 78 35 29 36 83 37
REMARK SMILES IDX 77 38 79 39 30 40 82 41 76 42 75 43 31 45 63 46 43 47 62 48
REMARK SMILES IDX 44 49 47 50 61 51 80 52 45 53 46 54 60 56 81 57 48 58 32 59
REMARK SMILES IDX 33 60 41 61 34 62 36 63 42 64 35 65 37 66 38 67 39 68 40 69
REMARK SMILES IDX 64 70 65 71 73 72 66 73 68 74 74 75 67 76 69 77 70 78 71 79
REMARK SMILES IDX 72 80 49 81 50 82 58 83 51 84 53 85 59 86 52 87 54 88 55 89
REMARK SMILES IDX 56 90 57 91
REMARK H PARENT 15 7 1 14 1 15 20 25 79 44 47 55
REMARK Flexibility Score: inf
ROOT
ATOM      1  C   UNL A   1      31.366  32.131  26.554  1.00  0.00     0.023 C 
ENDROOT
BRANCH   1   2
ATOM      2  C   UNL A   1      31.338  30.594  26.494  1.00  0.00     0.023 C 
BRANCH   2   3
ATOM      3  C   UNL A   1      31.968  29.979  25.236  1.00  0.00     0.116 C 
BRANCH   3   4
ATOM      4  N   UNL A   1      30.963  29.655  24.243  1.00  0.00    -0.352 N 
ATOM      5  C   UNL A   1      30.686  28.505  23.543  1.00  0.00     0.256 C 
ATOM      6  O   UNL A   1      29.775  28.563  22.714  1.00  0.00    -0.269 OA
ATOM      7  H   UNL A   1      30.361  30.405  24.027  1.00  0.00     0.163 HD
BRANCH   5   8
ATOM      8  C   UNL A   1      31.430  27.272  23.767  1.00  0.00     0.103 A 
ATOM      9  C   UNL A   1      30.851  26.103  24.244  1.00  0.00     0.203 A 
ATOM     10  O   UNL A   1      31.777  25.121  24.421  1.00  0.00    -0.440 OA
ATOM     11  C   UNL A   1      32.971  25.653  24.055  1.00  0.00     0.137 A 
ATOM     12  C   UNL A   1      32.798  26.934  23.585  1.00  0.00     0.067 A 
BRANCH   9  13
ATOM     13  N   UNL A   1      29.595  25.791  24.577  1.00  0.00    -0.369 N 
ATOM     14  H   UNL A   1      28.875  25.871  23.911  1.00  0.00     0.159 HD
ATOM     15  H   UNL A   1      29.390  25.483  25.490  1.00  0.00     0.159 HD
ENDBRANCH   9  13
BRANCH  11  16
ATOM     16  C   UNL A   1      34.162  24.850  24.232  1.00  0.00     0.017 A 
ATOM     17  C   UNL A   1      34.883  24.883  25.427  1.00  0.00     0.012 A 
ATOM     18  C   UNL A   1      34.518  23.927  23.238  1.00  0.00     0.012 A 
ATOM     19  C   UNL A   1      35.921  23.974  25.644  1.00  0.00     0.001 A 
ATOM     20  C   UNL A   1      35.560  23.025  23.450  1.00  0.00     0.001 A 
ATOM     21  C   UNL A   1      36.252  23.040  24.659  1.00  0.00     0.000 A 
ENDBRANCH  11  16
ENDBRANCH   5   8
ENDBRANCH   3   4
ENDBRANCH   2   3
ENDBRANCH   1   2
BRANCH   1  22
ATOM     22  C   UNL A   1      32.616  32.718  27.197  1.00  0.00     0.116 C 
BRANCH  22  23
ATOM     23  N   UNL A   1      32.448  34.114  27.634  1.00  0.00    -0.352 N 
ATOM     24  C   UNL A   1      33.060  34.745  28.705  1.00  0.00     0.251 C 
ATOM     25  H   UNL A   1      31.827  34.663  27.103  1.00  0.00     0.163 HD
ATOM     26  O   UNL A   1      32.585  35.761  29.211  1.00  0.00    -0.269 OA
BRANCH  24  27
ATOM     27  C   UNL A   1      34.326  34.187  29.195  1.00  0.00     0.039 A 
ATOM     28  C   UNL A   1      34.455  33.499  30.406  1.00  0.00     0.014 A 
ATOM     29  C   UNL A   1      35.398  34.312  28.323  1.00  0.00     0.014 A 
ATOM     30  C   UNL A   1      35.673  32.879  30.689  1.00  0.00     0.010 A 
ATOM     31  C   UNL A   1      36.470  33.490  28.477  1.00  0.00     0.010 A 
ATOM     32  C   UNL A   1      36.672  32.879  29.705  1.00  0.00    -0.014 A 
BRANCH  32  33
ATOM     33  C   UNL A   1      37.947  32.202  29.865  1.00  0.00     0.031 A 
ATOM     34  C   UNL A   1      37.998  30.838  29.282  1.00  0.00     0.074 A 
ATOM     35  C   UNL A   1      39.048  32.891  30.251  1.00  0.00     0.049 A 
ATOM     36  N   UNL A   1      38.096  29.716  29.915  1.00  0.00    -0.248 NA
ATOM     37  C   UNL A   1      37.745  30.685  27.840  1.00  0.00     0.031 C 
ATOM     38  C   UNL A   1      39.172  34.336  30.524  1.00  0.00     0.029 A 
ATOM     39  N   UNL A   1      40.337  32.477  30.317  1.00  0.00    -0.354 N 
ATOM     40  C   UNL A   1      38.193  28.741  28.924  1.00  0.00     0.074 A 
ATOM     41  C   UNL A   1      37.727  29.356  27.711  1.00  0.00     0.031 C 
ATOM     42  C   UNL A   1      40.468  34.703  30.447  1.00  0.00     0.029 A 
ATOM     43  C   UNL A   1      41.274  33.507  30.319  1.00  0.00     0.049 A 
ATOM     44  H   UNL A   1      40.591  31.526  30.361  1.00  0.00     0.167 HD
ATOM     45  C   UNL A   1      38.923  27.608  29.123  1.00  0.00     0.034 A 
ATOM     46  C   UNL A   1      42.615  33.383  30.174  1.00  0.00     0.034 A 
ATOM     47  C   UNL A   1      39.259  27.445  30.518  1.00  0.00     0.049 A 
ATOM     48  C   UNL A   1      42.952  31.982  30.516  1.00  0.00     0.074 A 
ATOM     49  C   UNL A   1      38.542  27.334  31.692  1.00  0.00     0.029 A 
ATOM     50  N   UNL A   1      40.535  27.803  30.889  1.00  0.00    -0.354 N 
ATOM     51  N   UNL A   1      42.770  31.478  31.706  1.00  0.00    -0.248 NA
ATOM     52  C   UNL A   1      43.020  31.020  29.429  1.00  0.00     0.031 C 
ATOM     53  C   UNL A   1      39.279  28.102  32.642  1.00  0.00     0.029 A 
ATOM     54  C   UNL A   1      40.440  28.569  32.020  1.00  0.00     0.049 A 
ATOM     55  H   UNL A   1      41.365  27.554  30.424  1.00  0.00     0.167 HD
ATOM     56  C   UNL A   1      42.231  30.220  31.466  1.00  0.00     0.074 A 
ATOM     57  C   UNL A   1      42.512  29.953  30.053  1.00  0.00     0.031 C 
ATOM     58  C   UNL A   1      41.351  29.648  32.341  1.00  0.00     0.034 A 
BRANCH  45  59
ATOM     59  C   UNL A   1      39.687  26.858  28.051  1.00  0.00     0.023 A 
ATOM     60  C   UNL A   1      39.483  25.461  27.979  1.00  0.00     0.012 A 
ATOM     61  C   UNL A   1      40.780  27.381  27.322  1.00  0.00     0.148 A 
ATOM     62  C   UNL A   1      40.359  24.623  27.281  1.00  0.00     0.002 A 
ATOM     63  C   UNL A   1      41.605  26.553  26.569  1.00  0.00     0.091 A 
ATOM     64  F   UNL A   1      41.125  28.663  27.451  1.00  0.00    -0.205 F 
ATOM     65  C   UNL A   1      41.421  25.169  26.572  1.00  0.00     0.022 A 
BRANCH  63  66
ATOM     66  S   UNL A   1      42.972  27.212  25.604  1.00  0.00     0.127 S 
ATOM     67  O   UNL A   1      42.271  28.089  24.672  1.00  0.00    -0.237 OA
ATOM     68  O   UNL A   1      43.759  27.896  26.632  1.00  0.00    -0.237 OA
ATOM     69  O   UNL A   1      43.634  26.051  25.022  1.00  0.00    -0.744 OA
ENDBRANCH  63  66
ENDBRANCH  45  59
BRANCH  46  70
ATOM     70  C   UNL A   1      43.558  34.287  29.474  1.00  0.00     0.023 A 
ATOM     71  C   UNL A   1      44.293  35.248  30.195  1.00  0.00     0.012 A 
ATOM     72  C   UNL A   1      43.936  34.023  28.138  1.00  0.00     0.148 A 
ATOM     73  C   UNL A   1      45.381  35.909  29.610  1.00  0.00     0.002 A 
ATOM     74  C   UNL A   1      45.012  34.688  27.559  1.00  0.00     0.091 A 
ATOM     75  F   UNL A   1      43.293  33.057  27.467  1.00  0.00    -0.205 F 
ATOM     76  C   UNL A   1      45.745  35.626  28.295  1.00  0.00     0.022 A 
BRANCH  74  77
ATOM     77  S   UNL A   1      45.551  34.356  25.875  1.00  0.00     0.127 S 
ATOM     78  O   UNL A   1      44.320  34.583  25.118  1.00  0.00    -0.237 OA
ATOM     79  O   UNL A   1      46.585  35.369  25.683  1.00  0.00    -0.237 OA
ATOM     80  O   UNL A   1      46.012  32.973  25.873  1.00  0.00    -0.744 OA
ENDBRANCH  74  77
ENDBRANCH  46  70
BRANCH  58  81
ATOM     81  C   UNL A   1      41.122  30.336  33.668  1.00  0.00     0.023 A 
ATOM     82  C   UNL A   1      42.092  30.349  34.694  1.00  0.00     0.012 A 
ATOM     83  C   UNL A   1      39.983  31.146  33.811  1.00  0.00     0.148 A 
ATOM     84  C   UNL A   1      41.925  31.133  35.840  1.00  0.00     0.002 A 
ATOM     85  C   UNL A   1      39.840  31.956  34.931  1.00  0.00     0.091 A 
ATOM     86  F   UNL A   1      39.077  31.137  32.823  1.00  0.00    -0.205 F 
ATOM     87  C   UNL A   1      40.803  31.948  35.952  1.00  0.00     0.022 A 
BRANCH  85  88
ATOM     88  S   UNL A   1      38.483  33.118  35.083  1.00  0.00     0.127 S 
ATOM     89  O   UNL A   1      37.326  32.228  35.156  1.00  0.00    -0.237 OA
ATOM     90  O   UNL A   1      38.802  33.809  36.335  1.00  0.00    -0.237 OA
ATOM     91  O   UNL A   1      38.543  33.969  33.901  1.00  0.00    -0.744 OA
ENDBRANCH  85  88
ENDBRANCH  58  81
ENDBRANCH  32  33
ENDBRANCH  24  27
ENDBRANCH  22  23
ENDBRANCH   1  22
TORSDOF 16
ENDMDL
