MODEL 1
REMARK VINA RESULT:     -12.6      0.000      0.000
REMARK SMILES O=C(CC1(CC(=O)Nc2ccc3ccccc3n2)CCCCC1)NCCCCNC(=O)c1ccc(-c2c3nc(c(-c4cccc(S(=O)(=O)[O-])c4F)c4ccc([nH]4)c(-c4cccc(S(=O)(=O)[O-])c4F)c4nc(c(-c5cccc(S(=O)(=O)[O-])c5F)c5ccc2[nH]5)C=C4)C=C3)cc1
REMARK SMILES IDX 26 1 25 2 24 3 1 4 2 5 3 7 4 8 19 9 23 10 20 11 22 12 21 13
REMARK SMILES IDX 5 14 6 15 7 16 8 17 9 19 10 20 18 21 11 22 17 23 12 24 16 25
REMARK SMILES IDX 13 26 15 27 14 28 27 29 28 30 29 31 30 32 31 34 32 35 33 36
REMARK SMILES IDX 94 37 34 38 93 39 35 40 36 41 37 42 87 43 38 44 92 45 86 46
REMARK SMILES IDX 88 47 39 48 91 49 85 50 84 51 40 53 72 54 52 55 71 56 53 57
REMARK SMILES IDX 56 58 70 59 89 60 54 61 55 62 69 64 90 65 57 66 41 67 42 68
REMARK SMILES IDX 50 69 43 70 45 71 51 72 44 73 46 74 47 75 48 76 49 77 73 78
REMARK SMILES IDX 74 79 82 80 75 81 77 82 83 83 76 84 78 85 79 86 80 87 81 88
REMARK SMILES IDX 58 89 59 90 67 91 60 92 62 93 68 94 61 95 63 96 64 97 65 98
REMARK SMILES IDX 66 99
REMARK H PARENT 24 6 8 18 29 33 88 52 56 63
REMARK Flexibility Score: inf
ROOT
ATOM      1  C   UNL A   1      31.692  30.609  26.013  1.00  0.00     0.023 C 
ENDROOT
BRANCH   1   2
ATOM      2  C   UNL A   1      32.247  29.622  27.040  1.00  0.00     0.116 C 
BRANCH   2   3
ATOM      3  N   UNL A   1      31.933  28.237  26.746  1.00  0.00    -0.356 N 
ATOM      4  O   UNL A   1      33.958  27.749  25.786  1.00  0.00    -0.275 OA
ATOM      5  C   UNL A   1      32.860  27.379  26.201  1.00  0.00     0.220 C 
ATOM      6  H   UNL A   1      31.029  27.899  26.942  1.00  0.00     0.163 HD
BRANCH   5   7
ATOM      7  C   UNL A   1      32.470  25.901  26.190  1.00  0.00     0.107 C 
BRANCH   7   8
ATOM      8  C   UNL A   1      32.072  25.308  24.793  1.00  0.00    -0.012 C 
ATOM      9  C   UNL A   1      31.610  26.483  23.865  1.00  0.00     0.008 C 
ATOM     10  C   UNL A   1      33.285  24.745  24.047  1.00  0.00     0.008 C 
ATOM     11  C   UNL A   1      31.376  26.109  22.388  1.00  0.00     0.001 C 
ATOM     12  C   UNL A   1      32.928  24.141  22.689  1.00  0.00     0.001 C 
ATOM     13  C   UNL A   1      32.472  25.247  21.762  1.00  0.00     0.000 C 
BRANCH   8  14
ATOM     14  C   UNL A   1      30.927  24.255  24.962  1.00  0.00     0.108 C 
BRANCH  14  15
ATOM     15  C   UNL A   1      30.876  23.346  26.206  1.00  0.00     0.226 C 
ATOM     16  O   UNL A   1      30.189  23.677  27.178  1.00  0.00    -0.275 OA
ATOM     17  N   UNL A   1      31.399  22.081  26.166  1.00  0.00    -0.311 N 
ATOM     18  H   UNL A   1      30.770  21.339  26.320  1.00  0.00     0.171 HD
BRANCH  17  19
ATOM     19  C   UNL A   1      32.734  21.729  25.929  1.00  0.00     0.133 A 
ATOM     20  C   UNL A   1      33.015  20.562  25.246  1.00  0.00     0.048 A 
ATOM     21  N   UNL A   1      33.714  22.501  26.416  1.00  0.00    -0.231 NA
ATOM     22  C   UNL A   1      34.334  20.335  24.844  1.00  0.00     0.014 A 
ATOM     23  C   UNL A   1      34.991  22.307  26.023  1.00  0.00     0.073 A 
ATOM     24  C   UNL A   1      35.336  21.268  25.153  1.00  0.00     0.000 A 
ATOM     25  C   UNL A   1      35.976  23.235  26.368  1.00  0.00     0.029 A 
ATOM     26  C   UNL A   1      36.620  21.239  24.572  1.00  0.00     0.010 A 
ATOM     27  C   UNL A   1      37.223  23.254  25.742  1.00  0.00     0.002 A 
ATOM     28  C   UNL A   1      37.538  22.260  24.827  1.00  0.00     0.001 A 
ENDBRANCH  17  19
ENDBRANCH  14  15
ENDBRANCH   8  14
ENDBRANCH   7   8
ENDBRANCH   5   7
ENDBRANCH   2   3
ENDBRANCH   1   2
BRANCH   1  29
ATOM     29  C   UNL A   1      31.463  32.039  26.514  1.00  0.00     0.023 C 
BRANCH  29  30
ATOM     30  C   UNL A   1      32.625  32.672  27.276  1.00  0.00     0.116 C 
BRANCH  30  31
ATOM     31  N   UNL A   1      32.382  34.055  27.663  1.00  0.00    -0.352 N 
ATOM     32  C   UNL A   1      33.027  34.848  28.579  1.00  0.00     0.251 C 
ATOM     33  H   UNL A   1      31.637  34.491  27.191  1.00  0.00     0.163 HD
ATOM     34  O   UNL A   1      32.598  35.984  28.801  1.00  0.00    -0.269 OA
BRANCH  32  35
ATOM     35  C   UNL A   1      34.205  34.359  29.336  1.00  0.00     0.039 A 
ATOM     36  C   UNL A   1      33.986  33.644  30.520  1.00  0.00     0.014 A 
ATOM     37  C   UNL A   1      35.514  34.612  28.918  1.00  0.00     0.014 A 
ATOM     38  C   UNL A   1      35.067  33.122  31.237  1.00  0.00     0.010 A 
ATOM     39  C   UNL A   1      36.589  34.028  29.595  1.00  0.00     0.010 A 
ATOM     40  C   UNL A   1      36.379  33.273  30.760  1.00  0.00    -0.014 A 
BRANCH  40  41
ATOM     41  C   UNL A   1      37.527  32.619  31.452  1.00  0.00     0.031 A 
ATOM     42  C   UNL A   1      38.252  31.459  30.822  1.00  0.00     0.074 A 
ATOM     43  C   UNL A   1      37.879  33.027  32.689  1.00  0.00     0.049 A 
ATOM     44  N   UNL A   1      39.235  30.741  31.302  1.00  0.00    -0.248 NA
ATOM     45  C   UNL A   1      37.798  31.034  29.488  1.00  0.00     0.031 C 
ATOM     46  C   UNL A   1      37.220  34.094  33.446  1.00  0.00     0.029 A 
ATOM     47  N   UNL A   1      38.860  32.577  33.539  1.00  0.00    -0.354 N 
ATOM     48  C   UNL A   1      39.498  29.765  30.349  1.00  0.00     0.074 A 
ATOM     49  C   UNL A   1      38.546  29.960  29.277  1.00  0.00     0.031 C 
ATOM     50  C   UNL A   1      37.815  34.216  34.643  1.00  0.00     0.029 A 
ATOM     51  C   UNL A   1      38.872  33.217  34.757  1.00  0.00     0.049 A 
ATOM     52  H   UNL A   1      39.495  31.864  33.299  1.00  0.00     0.167 HD
ATOM     53  C   UNL A   1      40.461  28.810  30.349  1.00  0.00     0.034 A 
ATOM     54  C   UNL A   1      39.635  33.017  35.850  1.00  0.00     0.034 A 
ATOM     55  C   UNL A   1      41.428  28.633  31.400  1.00  0.00     0.049 A 
ATOM     56  C   UNL A   1      40.707  31.962  35.820  1.00  0.00     0.074 A 
ATOM     57  C   UNL A   1      42.486  27.742  31.452  1.00  0.00     0.029 A 
ATOM     58  N   UNL A   1      41.453  29.348  32.587  1.00  0.00    -0.354 N 
ATOM     59  N   UNL A   1      41.032  31.144  34.849  1.00  0.00    -0.248 NA
ATOM     60  C   UNL A   1      41.541  31.825  37.023  1.00  0.00     0.031 C 
ATOM     61  C   UNL A   1      43.129  27.894  32.686  1.00  0.00     0.029 A 
ATOM     62  C   UNL A   1      42.498  28.910  33.385  1.00  0.00     0.049 A 
ATOM     63  H   UNL A   1      40.821  30.064  32.828  1.00  0.00     0.167 HD
ATOM     64  C   UNL A   1      42.128  30.423  35.308  1.00  0.00     0.074 A 
ATOM     65  C   UNL A   1      42.425  30.915  36.637  1.00  0.00     0.031 C 
ATOM     66  C   UNL A   1      42.818  29.434  34.687  1.00  0.00     0.034 A 
BRANCH  53  67
ATOM     67  C   UNL A   1      40.542  27.899  29.150  1.00  0.00     0.023 A 
ATOM     68  C   UNL A   1      39.663  26.801  29.046  1.00  0.00     0.012 A 
ATOM     69  C   UNL A   1      41.444  28.160  28.100  1.00  0.00     0.148 A 
ATOM     70  C   UNL A   1      39.708  25.955  27.939  1.00  0.00     0.002 A 
ATOM     71  C   UNL A   1      41.450  27.340  26.976  1.00  0.00     0.091 A 
ATOM     72  F   UNL A   1      42.285  29.197  28.222  1.00  0.00    -0.205 F 
ATOM     73  C   UNL A   1      40.593  26.230  26.901  1.00  0.00     0.022 A 
BRANCH  71  74
ATOM     74  S   UNL A   1      42.498  27.654  25.552  1.00  0.00     0.127 S 
ATOM     75  O   UNL A   1      41.962  28.926  25.068  1.00  0.00    -0.237 OA
ATOM     76  O   UNL A   1      43.826  27.744  26.161  1.00  0.00    -0.237 OA
ATOM     77  O   UNL A   1      42.314  26.519  24.659  1.00  0.00    -0.744 OA
ENDBRANCH  71  74
ENDBRANCH  53  67
BRANCH  54  78
ATOM     78  C   UNL A   1      39.438  33.866  37.060  1.00  0.00     0.023 A 
ATOM     79  C   UNL A   1      39.885  35.202  37.056  1.00  0.00     0.012 A 
ATOM     80  C   UNL A   1      38.793  33.363  38.205  1.00  0.00     0.148 A 
ATOM     81  C   UNL A   1      39.723  36.010  38.182  1.00  0.00     0.002 A 
ATOM     82  C   UNL A   1      38.582  34.190  39.302  1.00  0.00     0.091 A 
ATOM     83  F   UNL A   1      38.385  32.086  38.193  1.00  0.00    -0.205 F 
ATOM     84  C   UNL A   1      39.062  35.508  39.300  1.00  0.00     0.022 A 
BRANCH  82  85
ATOM     85  S   UNL A   1      37.629  33.669  40.732  1.00  0.00     0.127 S 
ATOM     86  O   UNL A   1      38.521  32.688  41.345  1.00  0.00    -0.237 OA
ATOM     87  O   UNL A   1      37.491  34.924  41.473  1.00  0.00    -0.237 OA
ATOM     88  O   UNL A   1      36.379  33.142  40.203  1.00  0.00    -0.744 OA
ENDBRANCH  82  85
ENDBRANCH  54  78
BRANCH  66  89
ATOM     89  C   UNL A   1      43.998  28.839  35.414  1.00  0.00     0.023 A 
ATOM     90  C   UNL A   1      45.289  29.368  35.218  1.00  0.00     0.012 A 
ATOM     91  C   UNL A   1      43.813  27.796  36.344  1.00  0.00     0.148 A 
ATOM     92  C   UNL A   1      46.382  28.846  35.910  1.00  0.00     0.002 A 
ATOM     93  C   UNL A   1      44.897  27.317  37.069  1.00  0.00     0.091 A 
ATOM     94  F   UNL A   1      42.580  27.293  36.503  1.00  0.00    -0.205 F 
ATOM     95  C   UNL A   1      46.184  27.830  36.843  1.00  0.00     0.022 A 
BRANCH  93  96
ATOM     96  S   UNL A   1      44.724  26.081  38.360  1.00  0.00     0.127 S 
ATOM     97  O   UNL A   1      44.147  24.957  37.622  1.00  0.00    -0.237 OA
ATOM     98  O   UNL A   1      46.111  25.883  38.786  1.00  0.00    -0.237 OA
ATOM     99  O   UNL A   1      43.859  26.672  39.371  1.00  0.00    -0.744 OA
ENDBRANCH  93  96
ENDBRANCH  66  89
ENDBRANCH  40  41
ENDBRANCH  32  35
ENDBRANCH  30  31
ENDBRANCH  29  30
ENDBRANCH   1  29
TORSDOF 18
ENDMDL
MODEL 2
REMARK VINA RESULT:     -12.6      2.463      8.025
REMARK SMILES O=C(CC1(CC(=O)Nc2ccc3ccccc3n2)CCCCC1)NCCCCNC(=O)c1ccc(-c2c3nc(c(-c4cccc(S(=O)(=O)[O-])c4F)c4ccc([nH]4)c(-c4cccc(S(=O)(=O)[O-])c4F)c4nc(c(-c5cccc(S(=O)(=O)[O-])c5F)c5ccc2[nH]5)C=C4)C=C3)cc1
REMARK SMILES IDX 26 1 25 2 24 3 1 4 2 5 3 7 4 8 19 9 23 10 20 11 22 12 21 13
REMARK SMILES IDX 5 14 6 15 7 16 8 17 9 19 10 20 18 21 11 22 17 23 12 24 16 25
REMARK SMILES IDX 13 26 15 27 14 28 27 29 28 30 29 31 30 32 31 34 32 35 33 36
REMARK SMILES IDX 94 37 34 38 93 39 35 40 36 41 37 42 87 43 38 44 92 45 86 46
REMARK SMILES IDX 88 47 39 48 91 49 85 50 84 51 40 53 72 54 52 55 71 56 53 57
REMARK SMILES IDX 56 58 70 59 89 60 54 61 55 62 69 64 90 65 57 66 41 67 42 68
REMARK SMILES IDX 50 69 43 70 45 71 51 72 44 73 46 74 47 75 48 76 49 77 73 78
REMARK SMILES IDX 74 79 82 80 75 81 77 82 83 83 76 84 78 85 79 86 80 87 81 88
REMARK SMILES IDX 58 89 59 90 67 91 60 92 62 93 68 94 61 95 63 96 64 97 65 98
REMARK SMILES IDX 66 99
REMARK H PARENT 24 6 8 18 29 33 88 52 56 63
REMARK Flexibility Score: inf
ROOT
ATOM      1  C   UNL A   1      31.851  27.870  26.849  1.00  0.00     0.023 C 
ENDROOT
BRANCH   1   2
ATOM      2  C   UNL A   1      33.208  27.255  26.506  1.00  0.00     0.116 C 
BRANCH   2   3
ATOM      3  N   UNL A   1      33.118  25.913  25.963  1.00  0.00    -0.356 N 
ATOM      4  O   UNL A   1      34.013  26.440  23.918  1.00  0.00    -0.275 OA
ATOM      5  C   UNL A   1      33.608  25.597  24.717  1.00  0.00     0.220 C 
ATOM      6  H   UNL A   1      32.694  25.207  26.502  1.00  0.00     0.163 HD
BRANCH   5   7
ATOM      7  C   UNL A   1      33.676  24.104  24.391  1.00  0.00     0.107 C 
BRANCH   7   8
ATOM      8  C   UNL A   1      34.805  23.295  25.122  1.00  0.00    -0.012 C 
ATOM      9  C   UNL A   1      35.328  22.180  24.154  1.00  0.00     0.008 C 
ATOM     10  C   UNL A   1      36.053  24.148  25.362  1.00  0.00     0.008 C 
ATOM     11  C   UNL A   1      36.579  21.419  24.634  1.00  0.00     0.001 C 
ATOM     12  C   UNL A   1      37.166  23.395  26.091  1.00  0.00     0.001 C 
ATOM     13  C   UNL A   1      37.696  22.303  25.187  1.00  0.00     0.000 C 
BRANCH   8  14
ATOM     14  C   UNL A   1      34.245  22.664  26.440  1.00  0.00     0.108 C 
BRANCH  14  15
ATOM     15  C   UNL A   1      32.734  22.405  26.606  1.00  0.00     0.226 C 
ATOM     16  O   UNL A   1      32.155  22.794  27.625  1.00  0.00    -0.275 OA
ATOM     17  N   UNL A   1      31.987  21.949  25.553  1.00  0.00    -0.311 N 
ATOM     18  H   UNL A   1      31.257  22.535  25.245  1.00  0.00     0.171 HD
BRANCH  17  19
ATOM     19  C   UNL A   1      32.148  20.739  24.868  1.00  0.00     0.133 A 
ATOM     20  C   UNL A   1      32.141  20.737  23.487  1.00  0.00     0.048 A 
ATOM     21  N   UNL A   1      32.250  19.598  25.562  1.00  0.00    -0.231 NA
ATOM     22  C   UNL A   1      32.506  19.560  22.827  1.00  0.00     0.014 A 
ATOM     23  C   UNL A   1      32.621  18.456  24.944  1.00  0.00     0.073 A 
ATOM     24  C   UNL A   1      32.846  18.415  23.564  1.00  0.00     0.000 A 
ATOM     25  C   UNL A   1      32.925  17.321  25.698  1.00  0.00     0.029 A 
ATOM     26  C   UNL A   1      33.462  17.285  22.990  1.00  0.00     0.010 A 
ATOM     27  C   UNL A   1      33.600  16.231  25.149  1.00  0.00     0.002 A 
ATOM     28  C   UNL A   1      33.884  16.222  23.790  1.00  0.00     0.001 A 
ENDBRANCH  17  19
ENDBRANCH  14  15
ENDBRANCH   8  14
ENDBRANCH   7   8
ENDBRANCH   5   7
ENDBRANCH   2   3
ENDBRANCH   1   2
BRANCH   1  29
ATOM     29  C   UNL A   1      31.472  29.132  26.068  1.00  0.00     0.023 C 
BRANCH  29  30
ATOM     30  C   UNL A   1      32.620  30.080  25.733  1.00  0.00     0.116 C 
BRANCH  30  31
ATOM     31  N   UNL A   1      32.442  31.423  26.267  1.00  0.00    -0.352 N 
ATOM     32  C   UNL A   1      33.186  32.120  27.186  1.00  0.00     0.251 C 
ATOM     33  H   UNL A   1      31.664  31.908  25.912  1.00  0.00     0.163 HD
ATOM     34  O   UNL A   1      32.802  33.234  27.553  1.00  0.00    -0.269 OA
BRANCH  32  35
ATOM     35  C   UNL A   1      34.421  31.551  27.778  1.00  0.00     0.039 A 
ATOM     36  C   UNL A   1      35.523  32.395  27.958  1.00  0.00     0.014 A 
ATOM     37  C   UNL A   1      34.522  30.204  28.134  1.00  0.00     0.014 A 
ATOM     38  C   UNL A   1      36.689  31.911  28.559  1.00  0.00     0.010 A 
ATOM     39  C   UNL A   1      35.660  29.740  28.801  1.00  0.00     0.010 A 
ATOM     40  C   UNL A   1      36.755  30.588  29.026  1.00  0.00    -0.014 A 
BRANCH  40  41
ATOM     41  C   UNL A   1      37.949  30.097  29.774  1.00  0.00     0.031 A 
ATOM     42  C   UNL A   1      38.228  30.565  31.178  1.00  0.00     0.074 A 
ATOM     43  C   UNL A   1      38.827  29.276  29.162  1.00  0.00     0.049 A 
ATOM     44  N   UNL A   1      39.242  30.282  31.955  1.00  0.00    -0.248 NA
ATOM     45  C   UNL A   1      37.254  31.491  31.779  1.00  0.00     0.031 C 
ATOM     46  C   UNL A   1      38.717  28.798  27.782  1.00  0.00     0.029 A 
ATOM     47  N   UNL A   1      40.000  28.719  29.611  1.00  0.00    -0.354 N 
ATOM     48  C   UNL A   1      39.047  31.013  33.121  1.00  0.00     0.074 A 
ATOM     49  C   UNL A   1      37.835  31.781  32.935  1.00  0.00     0.031 C 
ATOM     50  C   UNL A   1      39.774  28.020  27.500  1.00  0.00     0.029 A 
ATOM     51  C   UNL A   1      40.656  27.971  28.661  1.00  0.00     0.049 A 
ATOM     52  H   UNL A   1      40.339  28.842  30.527  1.00  0.00     0.167 HD
ATOM     53  C   UNL A   1      39.789  31.025  34.256  1.00  0.00     0.034 A 
ATOM     54  C   UNL A   1      41.840  27.328  28.707  1.00  0.00     0.034 A 
ATOM     55  C   UNL A   1      40.979  30.238  34.455  1.00  0.00     0.049 A 
ATOM     56  C   UNL A   1      42.638  27.343  29.983  1.00  0.00     0.074 A 
ATOM     57  C   UNL A   1      41.754  30.128  35.597  1.00  0.00     0.029 A 
ATOM     58  N   UNL A   1      41.573  29.437  33.493  1.00  0.00    -0.354 N 
ATOM     59  N   UNL A   1      42.361  27.927  31.123  1.00  0.00    -0.248 NA
ATOM     60  C   UNL A   1      43.896  26.582  29.990  1.00  0.00     0.031 C 
ATOM     61  C   UNL A   1      42.837  29.288  35.313  1.00  0.00     0.029 A 
ATOM     62  C   UNL A   1      42.712  28.841  34.008  1.00  0.00     0.049 A 
ATOM     63  H   UNL A   1      41.234  29.309  32.577  1.00  0.00     0.167 HD
ATOM     64  C   UNL A   1      43.387  27.575  31.991  1.00  0.00     0.074 A 
ATOM     65  C   UNL A   1      44.282  26.709  31.252  1.00  0.00     0.031 C 
ATOM     66  C   UNL A   1      43.575  27.944  33.283  1.00  0.00     0.034 A 
BRANCH  53  67
ATOM     67  C   UNL A   1      39.315  31.893  35.394  1.00  0.00     0.023 A 
ATOM     68  C   UNL A   1      38.411  31.370  36.341  1.00  0.00     0.012 A 
ATOM     69  C   UNL A   1      39.806  33.202  35.561  1.00  0.00     0.148 A 
ATOM     70  C   UNL A   1      37.971  32.148  37.411  1.00  0.00     0.002 A 
ATOM     71  C   UNL A   1      39.401  33.956  36.658  1.00  0.00     0.091 A 
ATOM     72  F   UNL A   1      40.651  33.691  34.642  1.00  0.00    -0.205 F 
ATOM     73  C   UNL A   1      38.473  33.435  37.574  1.00  0.00     0.022 A 
BRANCH  71  74
ATOM     74  S   UNL A   1      40.048  35.596  37.000  1.00  0.00     0.127 S 
ATOM     75  O   UNL A   1      39.620  36.334  35.811  1.00  0.00    -0.237 OA
ATOM     76  O   UNL A   1      39.339  35.956  38.229  1.00  0.00    -0.237 OA
ATOM     77  O   UNL A   1      41.487  35.437  37.150  1.00  0.00    -0.744 OA
ENDBRANCH  71  74
ENDBRANCH  53  67
BRANCH  54  78
ATOM     78  C   UNL A   1      42.328  26.579  27.514  1.00  0.00     0.023 A 
ATOM     79  C   UNL A   1      43.071  27.250  26.524  1.00  0.00     0.012 A 
ATOM     80  C   UNL A   1      42.075  25.202  27.367  1.00  0.00     0.148 A 
ATOM     81  C   UNL A   1      43.525  26.572  25.392  1.00  0.00     0.002 A 
ATOM     82  C   UNL A   1      42.581  24.519  26.266  1.00  0.00     0.091 A 
ATOM     83  F   UNL A   1      41.357  24.584  28.315  1.00  0.00    -0.205 F 
ATOM     84  C   UNL A   1      43.290  25.205  25.269  1.00  0.00     0.022 A 
BRANCH  82  85
ATOM     85  S   UNL A   1      42.437  22.738  26.089  1.00  0.00     0.127 S 
ATOM     86  O   UNL A   1      43.025  22.520  24.769  1.00  0.00    -0.237 OA
ATOM     87  O   UNL A   1      43.246  22.260  27.211  1.00  0.00    -0.237 OA
ATOM     88  O   UNL A   1      41.016  22.443  26.203  1.00  0.00    -0.744 OA
ENDBRANCH  82  85
ENDBRANCH  54  78
BRANCH  66  89
ATOM     89  C   UNL A   1      44.774  27.383  34.006  1.00  0.00     0.023 A 
ATOM     90  C   UNL A   1      45.982  28.107  34.039  1.00  0.00     0.012 A 
ATOM     91  C   UNL A   1      44.678  26.167  34.713  1.00  0.00     0.148 A 
ATOM     92  C   UNL A   1      47.086  27.612  34.734  1.00  0.00     0.002 A 
ATOM     93  C   UNL A   1      45.764  25.707  35.446  1.00  0.00     0.091 A 
ATOM     94  F   UNL A   1      43.525  25.484  34.655  1.00  0.00    -0.205 F 
ATOM     95  C   UNL A   1      46.974  26.420  35.446  1.00  0.00     0.022 A 
BRANCH  93  96
ATOM     96  S   UNL A   1      45.683  24.236  36.473  1.00  0.00     0.127 S 
ATOM     97  O   UNL A   1      47.079  23.799  36.480  1.00  0.00    -0.237 OA
ATOM     98  O   UNL A   1      45.205  24.774  37.747  1.00  0.00    -0.237 OA
ATOM     99  O   UNL A   1      44.751  23.334  35.810  1.00  0.00    -0.744 OA
ENDBRANCH  93  96
ENDBRANCH  66  89
ENDBRANCH  40  41
ENDBRANCH  32  35
ENDBRANCH  30  31
ENDBRANCH  29  30
ENDBRANCH   1  29
TORSDOF 18
ENDMDL
MODEL 3
REMARK VINA RESULT:     -12.5      5.635     10.478
REMARK SMILES O=C(CC1(CC(=O)Nc2ccc3ccccc3n2)CCCCC1)NCCCCNC(=O)c1ccc(-c2c3nc(c(-c4cccc(S(=O)(=O)[O-])c4F)c4ccc([nH]4)c(-c4cccc(S(=O)(=O)[O-])c4F)c4nc(c(-c5cccc(S(=O)(=O)[O-])c5F)c5ccc2[nH]5)C=C4)C=C3)cc1
REMARK SMILES IDX 26 1 25 2 24 3 1 4 2 5 3 7 4 8 19 9 23 10 20 11 22 12 21 13
REMARK SMILES IDX 5 14 6 15 7 16 8 17 9 19 10 20 18 21 11 22 17 23 12 24 16 25
REMARK SMILES IDX 13 26 15 27 14 28 27 29 28 30 29 31 30 32 31 34 32 35 33 36
REMARK SMILES IDX 94 37 34 38 93 39 35 40 36 41 37 42 87 43 38 44 92 45 86 46
REMARK SMILES IDX 88 47 39 48 91 49 85 50 84 51 40 53 72 54 52 55 71 56 53 57
REMARK SMILES IDX 56 58 70 59 89 60 54 61 55 62 69 64 90 65 57 66 41 67 42 68
REMARK SMILES IDX 50 69 43 70 45 71 51 72 44 73 46 74 47 75 48 76 49 77 73 78
REMARK SMILES IDX 74 79 82 80 75 81 77 82 83 83 76 84 78 85 79 86 80 87 81 88
REMARK SMILES IDX 58 89 59 90 67 91 60 92 62 93 68 94 61 95 63 96 64 97 65 98
REMARK SMILES IDX 66 99
REMARK H PARENT 24 6 8 18 29 33 88 52 56 63
REMARK Flexibility Score: inf
ROOT
ATOM      1  C   UNL A   1      35.979  23.134  23.589  1.00  0.00     0.023 C 
ENDROOT
BRANCH   1   2
ATOM      2  C   UNL A   1      34.735  23.426  22.751  1.00  0.00     0.116 C 
BRANCH   2   3
ATOM      3  N   UNL A   1      33.773  24.286  23.416  1.00  0.00    -0.356 N 
ATOM      4  O   UNL A   1      33.902  25.988  21.884  1.00  0.00    -0.275 OA
ATOM      5  C   UNL A   1      33.373  25.486  22.876  1.00  0.00     0.220 C 
ATOM      6  H   UNL A   1      33.395  24.002  24.279  1.00  0.00     0.163 HD
BRANCH   5   7
ATOM      7  C   UNL A   1      32.174  26.150  23.552  1.00  0.00     0.107 C 
BRANCH   7   8
ATOM      8  C   UNL A   1      32.387  26.592  25.043  1.00  0.00    -0.012 C 
ATOM      9  C   UNL A   1      33.775  27.309  25.158  1.00  0.00     0.008 C 
ATOM     10  C   UNL A   1      31.403  27.689  25.458  1.00  0.00     0.008 C 
ATOM     11  C   UNL A   1      34.059  27.988  26.512  1.00  0.00     0.001 C 
ATOM     12  C   UNL A   1      31.571  28.129  26.912  1.00  0.00     0.001 C 
ATOM     13  C   UNL A   1      32.907  28.824  27.066  1.00  0.00     0.000 C 
BRANCH   8  14
ATOM     14  C   UNL A   1      32.328  25.344  25.986  1.00  0.00     0.108 C 
BRANCH  14  15
ATOM     15  C   UNL A   1      31.059  24.472  26.055  1.00  0.00     0.226 C 
ATOM     16  O   UNL A   1      30.115  24.820  26.771  1.00  0.00    -0.275 OA
ATOM     17  N   UNL A   1      30.876  23.439  25.174  1.00  0.00    -0.311 N 
ATOM     18  H   UNL A   1      30.093  23.501  24.580  1.00  0.00     0.171 HD
BRANCH  17  19
ATOM     19  C   UNL A   1      31.682  22.305  25.027  1.00  0.00     0.133 A 
ATOM     20  C   UNL A   1      32.445  21.874  26.095  1.00  0.00     0.048 A 
ATOM     21  N   UNL A   1      31.743  21.689  23.839  1.00  0.00    -0.231 NA
ATOM     22  C   UNL A   1      33.078  20.632  25.994  1.00  0.00     0.014 A 
ATOM     23  C   UNL A   1      32.334  20.481  23.728  1.00  0.00     0.073 A 
ATOM     24  C   UNL A   1      32.950  19.868  24.824  1.00  0.00     0.000 A 
ATOM     25  C   UNL A   1      32.217  19.752  22.542  1.00  0.00     0.029 A 
ATOM     26  C   UNL A   1      33.339  18.515  24.740  1.00  0.00     0.010 A 
ATOM     27  C   UNL A   1      32.533  18.395  22.476  1.00  0.00     0.002 A 
ATOM     28  C   UNL A   1      33.081  17.771  23.588  1.00  0.00     0.001 A 
ENDBRANCH  17  19
ENDBRANCH  14  15
ENDBRANCH   8  14
ENDBRANCH   7   8
ENDBRANCH   5   7
ENDBRANCH   2   3
ENDBRANCH   1   2
BRANCH   1  29
ATOM     29  C   UNL A   1      36.064  21.729  24.194  1.00  0.00     0.023 C 
BRANCH  29  30
ATOM     30  C   UNL A   1      36.672  21.639  25.592  1.00  0.00     0.116 C 
BRANCH  30  31
ATOM     31  N   UNL A   1      37.761  20.678  25.693  1.00  0.00    -0.352 N 
ATOM     32  C   UNL A   1      39.071  20.854  26.062  1.00  0.00     0.251 C 
ATOM     33  H   UNL A   1      37.518  19.754  25.458  1.00  0.00     0.163 HD
ATOM     34  O   UNL A   1      39.848  19.897  26.003  1.00  0.00    -0.269 OA
BRANCH  32  35
ATOM     35  C   UNL A   1      39.585  22.176  26.496  1.00  0.00     0.039 A 
ATOM     36  C   UNL A   1      40.671  22.211  27.378  1.00  0.00     0.014 A 
ATOM     37  C   UNL A   1      39.004  23.374  26.073  1.00  0.00     0.014 A 
ATOM     38  C   UNL A   1      41.218  23.437  27.772  1.00  0.00     0.010 A 
ATOM     39  C   UNL A   1      39.596  24.595  26.408  1.00  0.00     0.010 A 
ATOM     40  C   UNL A   1      40.713  24.642  27.257  1.00  0.00    -0.014 A 
BRANCH  40  41
ATOM     41  C   UNL A   1      41.364  25.945  27.577  1.00  0.00     0.031 A 
ATOM     42  C   UNL A   1      40.640  26.995  28.377  1.00  0.00     0.074 A 
ATOM     43  C   UNL A   1      42.591  26.215  27.086  1.00  0.00     0.049 A 
ATOM     44  N   UNL A   1      41.032  28.200  28.704  1.00  0.00    -0.248 NA
ATOM     45  C   UNL A   1      39.288  26.658  28.854  1.00  0.00     0.031 C 
ATOM     46  C   UNL A   1      43.379  25.317  26.239  1.00  0.00     0.029 A 
ATOM     47  N   UNL A   1      43.380  27.334  27.204  1.00  0.00    -0.354 N 
ATOM     48  C   UNL A   1      39.972  28.775  29.395  1.00  0.00     0.074 A 
ATOM     49  C   UNL A   1      38.905  27.798  29.410  1.00  0.00     0.031 C 
ATOM     50  C   UNL A   1      44.536  25.917  25.918  1.00  0.00     0.029 A 
ATOM     51  C   UNL A   1      44.561  27.254  26.502  1.00  0.00     0.049 A 
ATOM     52  H   UNL A   1      43.126  28.118  27.741  1.00  0.00     0.167 HD
ATOM     53  C   UNL A   1      39.900  29.992  29.989  1.00  0.00     0.034 A 
ATOM     54  C   UNL A   1      45.549  28.156  26.332  1.00  0.00     0.034 A 
ATOM     55  C   UNL A   1      40.972  30.953  30.002  1.00  0.00     0.049 A 
ATOM     56  C   UNL A   1      45.452  29.493  27.014  1.00  0.00     0.074 A 
ATOM     57  C   UNL A   1      41.016  32.180  30.641  1.00  0.00     0.029 A 
ATOM     58  N   UNL A   1      42.180  30.806  29.339  1.00  0.00    -0.354 N 
ATOM     59  N   UNL A   1      44.499  29.960  27.783  1.00  0.00    -0.248 NA
ATOM     60  C   UNL A   1      46.583  30.415  26.833  1.00  0.00     0.031 C 
ATOM     61  C   UNL A   1      42.238  32.790  30.336  1.00  0.00     0.029 A 
ATOM     62  C   UNL A   1      42.972  31.925  29.541  1.00  0.00     0.049 A 
ATOM     63  H   UNL A   1      42.438  30.021  28.804  1.00  0.00     0.167 HD
ATOM     64  C   UNL A   1      44.931  31.212  28.207  1.00  0.00     0.074 A 
ATOM     65  C   UNL A   1      46.241  31.421  27.626  1.00  0.00     0.031 C 
ATOM     66  C   UNL A   1      44.293  32.110  28.998  1.00  0.00     0.034 A 
BRANCH  53  67
ATOM     67  C   UNL A   1      38.624  30.342  30.713  1.00  0.00     0.023 A 
ATOM     68  C   UNL A   1      38.460  29.961  32.061  1.00  0.00     0.012 A 
ATOM     69  C   UNL A   1      37.616  31.097  30.083  1.00  0.00     0.148 A 
ATOM     70  C   UNL A   1      37.297  30.290  32.756  1.00  0.00     0.002 A 
ATOM     71  C   UNL A   1      36.480  31.462  30.797  1.00  0.00     0.091 A 
ATOM     72  F   UNL A   1      37.780  31.436  28.796  1.00  0.00    -0.205 F 
ATOM     73  C   UNL A   1      36.313  31.047  32.128  1.00  0.00     0.022 A 
BRANCH  71  74
ATOM     74  S   UNL A   1      35.190  32.502  30.103  1.00  0.00     0.127 S 
ATOM     75  O   UNL A   1      34.342  32.737  31.271  1.00  0.00    -0.237 OA
ATOM     76  O   UNL A   1      35.946  33.671  29.653  1.00  0.00    -0.237 OA
ATOM     77  O   UNL A   1      34.578  31.724  29.036  1.00  0.00    -0.744 OA
ENDBRANCH  71  74
ENDBRANCH  53  67
BRANCH  54  78
ATOM     78  C   UNL A   1      46.740  27.807  25.506  1.00  0.00     0.023 A 
ATOM     79  C   UNL A   1      46.708  28.013  24.113  1.00  0.00     0.012 A 
ATOM     80  C   UNL A   1      47.910  27.292  26.097  1.00  0.00     0.148 A 
ATOM     81  C   UNL A   1      47.807  27.681  23.319  1.00  0.00     0.002 A 
ATOM     82  C   UNL A   1      49.021  27.019  25.308  1.00  0.00     0.091 A 
ATOM     83  F   UNL A   1      47.915  27.093  27.422  1.00  0.00    -0.205 F 
ATOM     84  C   UNL A   1      48.967  27.195  23.918  1.00  0.00     0.022 A 
BRANCH  82  85
ATOM     85  S   UNL A   1      50.596  26.512  26.007  1.00  0.00     0.127 S 
ATOM     86  O   UNL A   1      50.240  25.259  26.669  1.00  0.00    -0.237 OA
ATOM     87  O   UNL A   1      51.421  26.363  24.807  1.00  0.00    -0.237 OA
ATOM     88  O   UNL A   1      51.004  27.597  26.887  1.00  0.00    -0.744 OA
ENDBRANCH  82  85
ENDBRANCH  54  78
BRANCH  66  89
ATOM     89  C   UNL A   1      45.015  33.393  29.327  1.00  0.00     0.023 A 
ATOM     90  C   UNL A   1      45.845  33.466  30.463  1.00  0.00     0.012 A 
ATOM     91  C   UNL A   1      44.921  34.507  28.468  1.00  0.00     0.148 A 
ATOM     92  C   UNL A   1      46.543  34.637  30.757  1.00  0.00     0.002 A 
ATOM     93  C   UNL A   1      45.660  35.651  28.738  1.00  0.00     0.091 A 
ATOM     94  F   UNL A   1      44.111  34.424  27.401  1.00  0.00    -0.205 F 
ATOM     95  C   UNL A   1      46.460  35.725  29.889  1.00  0.00     0.022 A 
BRANCH  93  96
ATOM     96  S   UNL A   1      45.693  37.063  27.628  1.00  0.00     0.127 S 
ATOM     97  O   UNL A   1      44.314  37.543  27.714  1.00  0.00    -0.237 OA
ATOM     98  O   UNL A   1      46.683  37.933  28.265  1.00  0.00    -0.237 OA
ATOM     99  O   UNL A   1      46.092  36.543  26.327  1.00  0.00    -0.744 OA
ENDBRANCH  93  96
ENDBRANCH  66  89
ENDBRANCH  40  41
ENDBRANCH  32  35
ENDBRANCH  30  31
ENDBRANCH  29  30
ENDBRANCH   1  29
TORSDOF 18
ENDMDL
