MODEL 1
REMARK VINA RESULT:     -13.1      0.000      0.000
REMARK SMILES O=C(NCCCCNC(=O)c1ccc(-c2c3nc(c(-c4cccc(S(=O)(=O)[O-])c4F)c4ccc([nH]4)c(-c4cccc(S(=O)(=O)[O-])c4F)c4nc(c(-c5cccc(S(=O)(=O)[O-])c5F)c5ccc2[nH]5)C=C4)C=C3)cc1)C1=Cc2cc(Cl)cc(-c3ccc(O)cc3)c2O[C@@H]1C(F)(F)F
REMARK SMILES IDX 6 1 5 2 4 3 3 4 1 5 2 6 74 8 75 9 91 10 76 11 90 12 77 13
REMARK SMILES IDX 89 14 78 15 81 16 79 17 80 18 92 19 93 20 94 21 95 22 82 23
REMARK SMILES IDX 83 24 88 25 84 26 87 27 85 28 86 29 7 31 8 32 9 33 10 35
REMARK SMILES IDX 11 36 12 37 73 38 13 39 72 40 14 41 15 42 16 43 66 44 17 45
REMARK SMILES IDX 71 46 65 47 67 48 18 49 70 50 64 51 63 52 19 54 51 55 31 56
REMARK SMILES IDX 50 57 32 58 35 59 49 60 68 61 33 62 34 63 48 65 69 66 36 67
REMARK SMILES IDX 20 68 21 69 29 70 22 71 24 72 30 73 23 74 25 75 26 76 27 77
REMARK SMILES IDX 28 78 52 79 53 80 61 81 54 82 56 83 62 84 55 85 57 86 58 87
REMARK SMILES IDX 59 88 60 89 37 90 38 91 46 92 39 93 41 94 47 95 40 96 42 97
REMARK SMILES IDX 43 98 44 99 45 100
REMARK H PARENT 3 7 86 30 8 34 67 53 35 64
REMARK Flexibility Score: inf
ROOT
ATOM      1  C   UNL A   1      35.127  21.172  25.852  1.00  0.00     0.023 C 
ENDROOT
BRANCH   1   2
ATOM      2  C   UNL A   1      34.411  20.355  24.772  1.00  0.00     0.023 C 
BRANCH   2   3
ATOM      3  C   UNL A   1      32.907  20.182  24.984  1.00  0.00     0.116 C 
BRANCH   3   4
ATOM      4  N   UNL A   1      32.298  21.142  25.899  1.00  0.00    -0.352 N 
ATOM      5  O   UNL A   1      30.983  22.860  26.511  1.00  0.00    -0.270 OA
ATOM      6  C   UNL A   1      31.731  22.366  25.668  1.00  0.00     0.251 C 
ATOM      7  H   UNL A   1      32.295  20.861  26.842  1.00  0.00     0.163 HD
BRANCH   6   8
ATOM      8  C   UNL A   1      31.931  23.111  24.395  1.00  0.00     0.067 C 
ATOM      9  C   UNL A   1      30.878  23.540  23.681  1.00  0.00     0.025 C 
ATOM     10  C   UNL A   1      33.227  23.877  24.322  1.00  0.00     0.314 C 
ATOM     11  C   UNL A   1      30.784  25.017  23.647  1.00  0.00     0.019 A 
ATOM     12  O   UNL A   1      33.011  25.280  24.615  1.00  0.00    -0.475 OA
ATOM     13  C   UNL A   1      29.536  25.565  23.340  1.00  0.00     0.032 A 
ATOM     14  C   UNL A   1      31.779  25.798  24.276  1.00  0.00     0.135 A 
ATOM     15  C   UNL A   1      29.251  26.865  23.741  1.00  0.00     0.042 A 
ATOM     16  C   UNL A   1      31.476  27.098  24.720  1.00  0.00     0.026 A 
ATOM     17  Cl  UNL A   1      27.663  27.487  23.512  1.00  0.00    -0.084 Cl
ATOM     18  C   UNL A   1      30.197  27.617  24.436  1.00  0.00     0.033 A 
BRANCH  10  19
ATOM     19  C   UNL A   1      33.934  23.668  22.968  1.00  0.00     0.429 C 
ATOM     20  F   UNL A   1      35.278  23.590  23.107  1.00  0.00    -0.167 F 
ATOM     21  F   UNL A   1      33.537  22.516  22.371  1.00  0.00    -0.167 F 
ATOM     22  F   UNL A   1      33.683  24.667  22.087  1.00  0.00    -0.167 F 
ENDBRANCH  10  19
BRANCH  16  23
ATOM     23  C   UNL A   1      32.346  27.849  25.639  1.00  0.00    -0.014 A 
ATOM     24  C   UNL A   1      33.626  28.251  25.217  1.00  0.00     0.012 A 
ATOM     25  C   UNL A   1      31.983  28.083  26.971  1.00  0.00     0.012 A 
ATOM     26  C   UNL A   1      34.537  28.815  26.108  1.00  0.00     0.047 A 
ATOM     27  C   UNL A   1      32.891  28.662  27.867  1.00  0.00     0.047 A 
ATOM     28  C   UNL A   1      34.167  29.002  27.430  1.00  0.00     0.115 A 
BRANCH  28  29
ATOM     29  O   UNL A   1      35.104  29.516  28.274  1.00  0.00    -0.508 OA
ATOM     30  H   UNL A   1      35.289  30.435  28.265  1.00  0.00     0.293 HD
ENDBRANCH  28  29
ENDBRANCH  16  23
ENDBRANCH   6   8
ENDBRANCH   3   4
ENDBRANCH   2   3
ENDBRANCH   1   2
BRANCH   1  31
ATOM     31  C   UNL A   1      36.475  21.803  25.493  1.00  0.00     0.116 C 
BRANCH  31  32
ATOM     32  N   UNL A   1      37.595  20.883  25.378  1.00  0.00    -0.352 N 
ATOM     33  C   UNL A   1      38.882  21.067  25.851  1.00  0.00     0.251 C 
ATOM     34  H   UNL A   1      37.419  20.035  24.910  1.00  0.00     0.163 HD
ATOM     35  O   UNL A   1      39.740  20.205  25.676  1.00  0.00    -0.269 OA
BRANCH  33  36
ATOM     36  C   UNL A   1      39.240  22.344  26.518  1.00  0.00     0.039 A 
ATOM     37  C   UNL A   1      40.265  22.342  27.467  1.00  0.00     0.014 A 
ATOM     38  C   UNL A   1      38.640  23.546  26.138  1.00  0.00     0.014 A 
ATOM     39  C   UNL A   1      40.770  23.558  27.943  1.00  0.00     0.010 A 
ATOM     40  C   UNL A   1      39.185  24.759  26.565  1.00  0.00     0.010 A 
ATOM     41  C   UNL A   1      40.280  24.779  27.446  1.00  0.00    -0.014 A 
BRANCH  41  42
ATOM     42  C   UNL A   1      40.981  26.060  27.747  1.00  0.00     0.031 A 
ATOM     43  C   UNL A   1      42.397  26.306  27.305  1.00  0.00     0.074 A 
ATOM     44  C   UNL A   1      40.360  26.978  28.518  1.00  0.00     0.049 A 
ATOM     45  N   UNL A   1      43.133  27.376  27.472  1.00  0.00    -0.248 NA
ATOM     46  C   UNL A   1      43.085  25.210  26.608  1.00  0.00     0.031 C 
ATOM     47  C   UNL A   1      39.030  26.822  29.113  1.00  0.00     0.029 A 
ATOM     48  N   UNL A   1      40.771  28.215  28.956  1.00  0.00    -0.354 N 
ATOM     49  C   UNL A   1      44.376  27.076  26.928  1.00  0.00     0.074 A 
ATOM     50  C   UNL A   1      44.302  25.711  26.448  1.00  0.00     0.031 C 
ATOM     51  C   UNL A   1      38.733  27.919  29.828  1.00  0.00     0.029 A 
ATOM     52  C   UNL A   1      39.854  28.851  29.761  1.00  0.00     0.049 A 
ATOM     53  H   UNL A   1      41.641  28.608  28.716  1.00  0.00     0.167 HD
ATOM     54  C   UNL A   1      45.467  27.870  26.809  1.00  0.00     0.034 A 
ATOM     55  C   UNL A   1      39.901  30.052  30.373  1.00  0.00     0.034 A 
ATOM     56  C   UNL A   1      45.528  29.240  27.246  1.00  0.00     0.049 A 
ATOM     57  C   UNL A   1      41.100  30.938  30.168  1.00  0.00     0.074 A 
ATOM     58  C   UNL A   1      46.548  30.157  27.058  1.00  0.00     0.029 A 
ATOM     59  N   UNL A   1      44.540  29.888  27.969  1.00  0.00    -0.354 N 
ATOM     60  N   UNL A   1      42.178  30.713  29.458  1.00  0.00    -0.248 NA
ATOM     61  C   UNL A   1      41.070  32.260  30.812  1.00  0.00     0.031 C 
ATOM     62  C   UNL A   1      46.185  31.354  27.684  1.00  0.00     0.029 A 
ATOM     63  C   UNL A   1      44.931  31.187  28.248  1.00  0.00     0.049 A 
ATOM     64  H   UNL A   1      43.686  29.484  28.244  1.00  0.00     0.167 HD
ATOM     65  C   UNL A   1      42.937  31.875  29.540  1.00  0.00     0.074 A 
ATOM     66  C   UNL A   1      42.185  32.811  30.351  1.00  0.00     0.031 C 
ATOM     67  C   UNL A   1      44.155  32.136  29.005  1.00  0.00     0.034 A 
BRANCH  54  68
ATOM     68  C   UNL A   1      46.676  27.303  26.111  1.00  0.00     0.023 A 
ATOM     69  C   UNL A   1      46.809  27.473  24.717  1.00  0.00     0.012 A 
ATOM     70  C   UNL A   1      47.712  26.680  26.833  1.00  0.00     0.148 A 
ATOM     71  C   UNL A   1      47.941  27.008  24.049  1.00  0.00     0.002 A 
ATOM     72  C   UNL A   1      48.856  26.254  26.166  1.00  0.00     0.091 A 
ATOM     73  F   UNL A   1      47.561  26.511  28.155  1.00  0.00    -0.205 F 
ATOM     74  C   UNL A   1      48.967  26.410  24.774  1.00  0.00     0.022 A 
BRANCH  72  75
ATOM     75  S   UNL A   1      50.266  25.538  27.018  1.00  0.00     0.127 S 
ATOM     76  O   UNL A   1      51.206  25.337  25.915  1.00  0.00    -0.237 OA
ATOM     77  O   UNL A   1      50.639  26.602  27.949  1.00  0.00    -0.237 OA
ATOM     78  O   UNL A   1      49.775  24.323  27.653  1.00  0.00    -0.744 OA
ENDBRANCH  72  75
ENDBRANCH  54  68
BRANCH  55  79
ATOM     79  C   UNL A   1      38.734  30.525  31.171  1.00  0.00     0.023 A 
ATOM     80  C   UNL A   1      38.723  30.323  32.565  1.00  0.00     0.012 A 
ATOM     81  C   UNL A   1      37.651  31.193  30.566  1.00  0.00     0.148 A 
ATOM     82  C   UNL A   1      37.643  30.750  33.338  1.00  0.00     0.002 A 
ATOM     83  C   UNL A   1      36.604  31.663  31.350  1.00  0.00     0.091 A 
ATOM     84  F   UNL A   1      37.671  31.361  29.236  1.00  0.00    -0.205 F 
ATOM     85  C   UNL A   1      36.589  31.428  32.733  1.00  0.00     0.022 A 
BRANCH  83  86
ATOM     86  S   UNL A   1      35.277  32.665  30.668  1.00  0.00     0.127 S 
ATOM     87  O   UNL A   1      34.330  32.706  31.779  1.00  0.00    -0.237 OA
ATOM     88  O   UNL A   1      35.959  33.930  30.391  1.00  0.00    -0.237 OA
ATOM     89  O   UNL A   1      34.832  31.957  29.475  1.00  0.00    -0.744 OA
ENDBRANCH  83  86
ENDBRANCH  55  79
BRANCH  67  90
ATOM     90  C   UNL A   1      44.753  33.496  29.251  1.00  0.00     0.023 A 
ATOM     91  C   UNL A   1      45.446  33.748  30.451  1.00  0.00     0.012 A 
ATOM     92  C   UNL A   1      44.695  34.500  28.263  1.00  0.00     0.148 A 
ATOM     93  C   UNL A   1      46.047  34.986  30.678  1.00  0.00     0.002 A 
ATOM     94  C   UNL A   1      45.336  35.716  28.477  1.00  0.00     0.091 A 
ATOM     95  F   UNL A   1      44.013  34.251  27.135  1.00  0.00    -0.205 F 
ATOM     96  C   UNL A   1      46.003  35.964  29.687  1.00  0.00     0.022 A 
BRANCH  94  97
ATOM     97  S   UNL A   1      45.407  36.998  27.219  1.00  0.00     0.127 S 
ATOM     98  O   UNL A   1      43.991  37.277  26.996  1.00  0.00    -0.237 OA
ATOM     99  O   UNL A   1      46.140  38.066  27.902  1.00  0.00    -0.237 OA
ATOM    100  O   UNL A   1      46.117  36.409  26.091  1.00  0.00    -0.744 OA
ENDBRANCH  94  97
ENDBRANCH  67  90
ENDBRANCH  41  42
ENDBRANCH  33  36
ENDBRANCH  31  32
ENDBRANCH   1  31
TORSDOF 17
ENDMDL
MODEL 2
REMARK VINA RESULT:     -12.8      4.730     10.146
REMARK SMILES O=C(NCCCCNC(=O)c1ccc(-c2c3nc(c(-c4cccc(S(=O)(=O)[O-])c4F)c4ccc([nH]4)c(-c4cccc(S(=O)(=O)[O-])c4F)c4nc(c(-c5cccc(S(=O)(=O)[O-])c5F)c5ccc2[nH]5)C=C4)C=C3)cc1)C1=Cc2cc(Cl)cc(-c3ccc(O)cc3)c2O[C@@H]1C(F)(F)F
REMARK SMILES IDX 6 1 5 2 4 3 3 4 1 5 2 6 74 8 75 9 91 10 76 11 90 12 77 13
REMARK SMILES IDX 89 14 78 15 81 16 79 17 80 18 92 19 93 20 94 21 95 22 82 23
REMARK SMILES IDX 83 24 88 25 84 26 87 27 85 28 86 29 7 31 8 32 9 33 10 35
REMARK SMILES IDX 11 36 12 37 73 38 13 39 72 40 14 41 15 42 16 43 66 44 17 45
REMARK SMILES IDX 71 46 65 47 67 48 18 49 70 50 64 51 63 52 19 54 51 55 31 56
REMARK SMILES IDX 50 57 32 58 35 59 49 60 68 61 33 62 34 63 48 65 69 66 36 67
REMARK SMILES IDX 20 68 21 69 29 70 22 71 24 72 30 73 23 74 25 75 26 76 27 77
REMARK SMILES IDX 28 78 52 79 53 80 61 81 54 82 56 83 62 84 55 85 57 86 58 87
REMARK SMILES IDX 59 88 60 89 37 90 38 91 46 92 39 93 41 94 47 95 40 96 42 97
REMARK SMILES IDX 43 98 44 99 45 100
REMARK H PARENT 3 7 86 30 8 34 67 53 35 64
REMARK Flexibility Score: inf
ROOT
ATOM      1  C   UNL A   1      31.694  28.845  26.687  1.00  0.00     0.023 C 
ENDROOT
BRANCH   1   2
ATOM      2  C   UNL A   1      32.131  27.397  26.443  1.00  0.00     0.023 C 
BRANCH   2   3
ATOM      3  C   UNL A   1      30.988  26.397  26.270  1.00  0.00     0.116 C 
BRANCH   3   4
ATOM      4  N   UNL A   1      31.193  25.107  26.921  1.00  0.00    -0.352 N 
ATOM      5  O   UNL A   1      32.299  23.232  27.480  1.00  0.00    -0.270 OA
ATOM      6  C   UNL A   1      32.045  24.078  26.624  1.00  0.00     0.251 C 
ATOM      7  H   UNL A   1      30.621  24.951  27.706  1.00  0.00     0.163 HD
BRANCH   6   8
ATOM      8  C   UNL A   1      32.738  23.969  25.312  1.00  0.00     0.067 C 
ATOM      9  C   UNL A   1      34.039  24.278  25.199  1.00  0.00     0.025 C 
ATOM     10  C   UNL A   1      32.145  22.942  24.381  1.00  0.00     0.314 C 
ATOM     11  C   UNL A   1      34.874  23.097  24.881  1.00  0.00     0.019 A 
ATOM     12  O   UNL A   1      32.916  21.716  24.411  1.00  0.00    -0.475 OA
ATOM     13  C   UNL A   1      36.238  23.188  25.175  1.00  0.00     0.032 A 
ATOM     14  C   UNL A   1      34.263  21.841  24.677  1.00  0.00     0.135 A 
ATOM     15  C   UNL A   1      36.970  22.021  25.354  1.00  0.00     0.042 A 
ATOM     16  C   UNL A   1      34.994  20.660  24.901  1.00  0.00     0.026 A 
ATOM     17  Cl  UNL A   1      38.606  22.126  25.877  1.00  0.00    -0.084 Cl
ATOM     18  C   UNL A   1      36.358  20.773  25.237  1.00  0.00     0.033 A 
BRANCH  10  19
ATOM     19  C   UNL A   1      31.990  23.497  22.951  1.00  0.00     0.429 C 
ATOM     20  F   UNL A   1      32.215  22.547  22.014  1.00  0.00    -0.167 F 
ATOM     21  F   UNL A   1      30.738  23.971  22.732  1.00  0.00    -0.167 F 
ATOM     22  F   UNL A   1      32.842  24.520  22.692  1.00  0.00    -0.167 F 
ENDBRANCH  10  19
BRANCH  16  23
ATOM     23  C   UNL A   1      34.357  19.337  25.007  1.00  0.00    -0.014 A 
ATOM     24  C   UNL A   1      34.947  18.226  24.378  1.00  0.00     0.012 A 
ATOM     25  C   UNL A   1      33.112  19.166  25.625  1.00  0.00     0.012 A 
ATOM     26  C   UNL A   1      34.292  16.997  24.317  1.00  0.00     0.047 A 
ATOM     27  C   UNL A   1      32.456  17.930  25.577  1.00  0.00     0.047 A 
ATOM     28  C   UNL A   1      33.043  16.864  24.904  1.00  0.00     0.115 A 
BRANCH  28  29
ATOM     29  O   UNL A   1      32.422  15.658  24.781  1.00  0.00    -0.508 OA
ATOM     30  H   UNL A   1      31.498  15.622  24.625  1.00  0.00     0.293 HD
ENDBRANCH  28  29
ENDBRANCH  16  23
ENDBRANCH   6   8
ENDBRANCH   3   4
ENDBRANCH   2   3
ENDBRANCH   1   2
BRANCH   1  31
ATOM     31  C   UNL A   1      32.587  29.962  26.142  1.00  0.00     0.116 C 
BRANCH  31  32
ATOM     32  N   UNL A   1      32.345  31.290  26.684  1.00  0.00    -0.352 N 
ATOM     33  C   UNL A   1      33.228  32.076  27.402  1.00  0.00     0.251 C 
ATOM     34  H   UNL A   1      31.452  31.671  26.524  1.00  0.00     0.163 HD
ATOM     35  O   UNL A   1      32.887  33.183  27.812  1.00  0.00    -0.269 OA
BRANCH  33  36
ATOM     36  C   UNL A   1      34.574  31.545  27.733  1.00  0.00     0.039 A 
ATOM     37  C   UNL A   1      35.613  32.449  27.972  1.00  0.00     0.014 A 
ATOM     38  C   UNL A   1      34.785  30.175  27.906  1.00  0.00     0.014 A 
ATOM     39  C   UNL A   1      36.825  31.988  28.499  1.00  0.00     0.010 A 
ATOM     40  C   UNL A   1      35.971  29.725  28.490  1.00  0.00     0.010 A 
ATOM     41  C   UNL A   1      36.991  30.630  28.827  1.00  0.00    -0.014 A 
BRANCH  41  42
ATOM     42  C   UNL A   1      38.168  30.178  29.623  1.00  0.00     0.031 A 
ATOM     43  C   UNL A   1      38.381  30.631  31.041  1.00  0.00     0.074 A 
ATOM     44  C   UNL A   1      39.111  29.422  29.022  1.00  0.00     0.049 A 
ATOM     45  N   UNL A   1      39.343  30.308  31.869  1.00  0.00    -0.248 NA
ATOM     46  C   UNL A   1      37.409  31.584  31.597  1.00  0.00     0.031 C 
ATOM     47  C   UNL A   1      39.091  29.005  27.617  1.00  0.00     0.029 A 
ATOM     48  N   UNL A   1      40.282  28.889  29.505  1.00  0.00    -0.354 N 
ATOM     49  C   UNL A   1      39.110  31.034  33.030  1.00  0.00     0.074 A 
ATOM     50  C   UNL A   1      37.929  31.837  32.790  1.00  0.00     0.031 C 
ATOM     51  C   UNL A   1      40.189  28.278  27.356  1.00  0.00     0.029 A 
ATOM     52  C   UNL A   1      41.003  28.189  28.564  1.00  0.00     0.049 A 
ATOM     53  H   UNL A   1      40.579  28.999  30.437  1.00  0.00     0.167 HD
ATOM     54  C   UNL A   1      39.795  31.013  34.199  1.00  0.00     0.034 A 
ATOM     55  C   UNL A   1      42.182  27.541  28.658  1.00  0.00     0.034 A 
ATOM     56  C   UNL A   1      40.943  30.184  34.454  1.00  0.00     0.049 A 
ATOM     57  C   UNL A   1      42.886  27.481  29.987  1.00  0.00     0.074 A 
ATOM     58  C   UNL A   1      41.628  30.006  35.645  1.00  0.00     0.029 A 
ATOM     59  N   UNL A   1      41.588  29.406  33.506  1.00  0.00    -0.354 N 
ATOM     60  N   UNL A   1      42.524  27.998  31.135  1.00  0.00    -0.248 NA
ATOM     61  C   UNL A   1      44.137  26.710  30.044  1.00  0.00     0.031 C 
ATOM     62  C   UNL A   1      42.698  29.135  35.412  1.00  0.00     0.029 A 
ATOM     63  C   UNL A   1      42.670  28.758  34.080  1.00  0.00     0.049 A 
ATOM     64  H   UNL A   1      41.316  29.326  32.563  1.00  0.00     0.167 HD
ATOM     65  C   UNL A   1      43.482  27.589  32.057  1.00  0.00     0.074 A 
ATOM     66  C   UNL A   1      44.428  26.760  31.337  1.00  0.00     0.031 C 
ATOM     67  C   UNL A   1      43.576  27.887  33.376  1.00  0.00     0.034 A 
BRANCH  54  68
ATOM     68  C   UNL A   1      39.280  31.864  35.331  1.00  0.00     0.023 A 
ATOM     69  C   UNL A   1      38.363  31.309  36.247  1.00  0.00     0.012 A 
ATOM     70  C   UNL A   1      39.759  33.172  35.538  1.00  0.00     0.148 A 
ATOM     71  C   UNL A   1      37.909  32.051  37.337  1.00  0.00     0.002 A 
ATOM     72  C   UNL A   1      39.331  33.893  36.649  1.00  0.00     0.091 A 
ATOM     73  F   UNL A   1      40.617  33.690  34.647  1.00  0.00    -0.205 F 
ATOM     74  C   UNL A   1      38.401  33.337  37.543  1.00  0.00     0.022 A 
BRANCH  72  75
ATOM     75  S   UNL A   1      39.960  35.528  37.044  1.00  0.00     0.127 S 
ATOM     76  O   UNL A   1      41.397  35.274  37.147  1.00  0.00    -0.237 OA
ATOM     77  O   UNL A   1      39.563  36.306  35.871  1.00  0.00    -0.237 OA
ATOM     78  O   UNL A   1      39.303  35.921  38.283  1.00  0.00    -0.744 OA
ENDBRANCH  72  75
ENDBRANCH  54  68
BRANCH  55  79
ATOM     79  C   UNL A   1      42.729  26.819  27.475  1.00  0.00     0.023 A 
ATOM     80  C   UNL A   1      43.473  27.533  26.514  1.00  0.00     0.012 A 
ATOM     81  C   UNL A   1      42.543  25.433  27.307  1.00  0.00     0.148 A 
ATOM     82  C   UNL A   1      43.994  26.887  25.392  1.00  0.00     0.002 A 
ATOM     83  C   UNL A   1      43.111  24.787  26.215  1.00  0.00     0.091 A 
ATOM     84  F   UNL A   1      41.819  24.773  28.222  1.00  0.00    -0.205 F 
ATOM     85  C   UNL A   1      43.822  25.513  25.248  1.00  0.00     0.022 A 
BRANCH  83  86
ATOM     86  S   UNL A   1      43.053  23.000  26.028  1.00  0.00     0.127 S 
ATOM     87  O   UNL A   1      41.738  22.683  26.576  1.00  0.00    -0.237 OA
ATOM     88  O   UNL A   1      43.173  22.840  24.578  1.00  0.00    -0.237 OA
ATOM     89  O   UNL A   1      44.197  22.496  26.777  1.00  0.00    -0.744 OA
ENDBRANCH  83  86
ENDBRANCH  55  79
BRANCH  67  90
ATOM     90  C   UNL A   1      44.727  27.298  34.148  1.00  0.00     0.023 A 
ATOM     91  C   UNL A   1      45.963  27.973  34.182  1.00  0.00     0.012 A 
ATOM     92  C   UNL A   1      44.563  26.117  34.900  1.00  0.00     0.148 A 
ATOM     93  C   UNL A   1      47.027  27.468  34.929  1.00  0.00     0.002 A 
ATOM     94  C   UNL A   1      45.614  25.645  35.679  1.00  0.00     0.091 A 
ATOM     95  F   UNL A   1      43.386  25.476  34.839  1.00  0.00    -0.205 F 
ATOM     96  C   UNL A   1      46.849  26.312  35.687  1.00  0.00     0.022 A 
BRANCH  94  97
ATOM     97  S   UNL A   1      45.443  24.216  36.757  1.00  0.00     0.127 S 
ATOM     98  O   UNL A   1      46.767  24.146  37.372  1.00  0.00    -0.237 OA
ATOM     99  O   UNL A   1      44.372  24.634  37.663  1.00  0.00    -0.237 OA
ATOM    100  O   UNL A   1      45.094  23.101  35.888  1.00  0.00    -0.744 OA
ENDBRANCH  94  97
ENDBRANCH  67  90
ENDBRANCH  41  42
ENDBRANCH  33  36
ENDBRANCH  31  32
ENDBRANCH   1  31
TORSDOF 17
ENDMDL
MODEL 3
REMARK VINA RESULT:     -12.8      4.963     10.021
REMARK SMILES O=C(NCCCCNC(=O)c1ccc(-c2c3nc(c(-c4cccc(S(=O)(=O)[O-])c4F)c4ccc([nH]4)c(-c4cccc(S(=O)(=O)[O-])c4F)c4nc(c(-c5cccc(S(=O)(=O)[O-])c5F)c5ccc2[nH]5)C=C4)C=C3)cc1)C1=Cc2cc(Cl)cc(-c3ccc(O)cc3)c2O[C@@H]1C(F)(F)F
REMARK SMILES IDX 6 1 5 2 4 3 3 4 1 5 2 6 74 8 75 9 91 10 76 11 90 12 77 13
REMARK SMILES IDX 89 14 78 15 81 16 79 17 80 18 92 19 93 20 94 21 95 22 82 23
REMARK SMILES IDX 83 24 88 25 84 26 87 27 85 28 86 29 7 31 8 32 9 33 10 35
REMARK SMILES IDX 11 36 12 37 73 38 13 39 72 40 14 41 15 42 16 43 66 44 17 45
REMARK SMILES IDX 71 46 65 47 67 48 18 49 70 50 64 51 63 52 19 54 51 55 31 56
REMARK SMILES IDX 50 57 32 58 35 59 49 60 68 61 33 62 34 63 48 65 69 66 36 67
REMARK SMILES IDX 20 68 21 69 29 70 22 71 24 72 30 73 23 74 25 75 26 76 27 77
REMARK SMILES IDX 28 78 52 79 53 80 61 81 54 82 56 83 62 84 55 85 57 86 58 87
REMARK SMILES IDX 59 88 60 89 37 90 38 91 46 92 39 93 41 94 47 95 40 96 42 97
REMARK SMILES IDX 43 98 44 99 45 100
REMARK H PARENT 3 7 86 30 8 34 67 53 35 64
REMARK Flexibility Score: inf
ROOT
ATOM      1  C   UNL A   1      31.964  29.628  25.056  1.00  0.00     0.023 C 
ENDROOT
BRANCH   1   2
ATOM      2  C   UNL A   1      32.914  29.134  23.961  1.00  0.00     0.023 C 
BRANCH   2   3
ATOM      3  C   UNL A   1      32.232  28.453  22.774  1.00  0.00     0.116 C 
BRANCH   3   4
ATOM      4  N   UNL A   1      33.020  27.410  22.125  1.00  0.00    -0.352 N 
ATOM      5  O   UNL A   1      33.506  25.334  21.414  1.00  0.00    -0.270 OA
ATOM      6  C   UNL A   1      33.014  26.051  22.284  1.00  0.00     0.251 C 
ATOM      7  H   UNL A   1      33.665  27.742  21.459  1.00  0.00     0.163 HD
BRANCH   6   8
ATOM      8  C   UNL A   1      32.372  25.387  23.450  1.00  0.00     0.067 C 
ATOM      9  C   UNL A   1      31.648  24.269  23.287  1.00  0.00     0.025 C 
ATOM     10  C   UNL A   1      33.080  25.616  24.761  1.00  0.00     0.314 C 
ATOM     11  C   UNL A   1      32.277  23.091  23.927  1.00  0.00     0.019 A 
ATOM     12  O   UNL A   1      33.906  24.477  25.105  1.00  0.00    -0.475 OA
ATOM     13  C   UNL A   1      31.881  21.833  23.464  1.00  0.00     0.032 A 
ATOM     14  C   UNL A   1      33.476  23.246  24.657  1.00  0.00     0.135 A 
ATOM     15  C   UNL A   1      32.727  20.746  23.654  1.00  0.00     0.042 A 
ATOM     16  C   UNL A   1      34.350  22.155  24.812  1.00  0.00     0.026 A 
ATOM     17  Cl  UNL A   1      32.323  19.232  22.944  1.00  0.00    -0.084 Cl
ATOM     18  C   UNL A   1      33.952  20.904  24.302  1.00  0.00     0.033 A 
BRANCH  10  19
ATOM     19  C   UNL A   1      32.088  25.977  25.885  1.00  0.00     0.429 C 
ATOM     20  F   UNL A   1      32.640  26.811  26.797  1.00  0.00    -0.167 F 
ATOM     21  F   UNL A   1      30.989  26.605  25.398  1.00  0.00    -0.167 F 
ATOM     22  F   UNL A   1      31.645  24.888  26.561  1.00  0.00    -0.167 F 
ENDBRANCH  10  19
BRANCH  16  23
ATOM     23  C   UNL A   1      35.736  22.306  25.285  1.00  0.00    -0.014 A 
ATOM     24  C   UNL A   1      36.147  23.519  25.867  1.00  0.00     0.012 A 
ATOM     25  C   UNL A   1      36.699  21.312  25.074  1.00  0.00     0.012 A 
ATOM     26  C   UNL A   1      37.485  23.757  26.174  1.00  0.00     0.047 A 
ATOM     27  C   UNL A   1      38.043  21.542  25.393  1.00  0.00     0.047 A 
ATOM     28  C   UNL A   1      38.425  22.772  25.921  1.00  0.00     0.115 A 
BRANCH  28  29
ATOM     29  O   UNL A   1      39.727  23.064  26.196  1.00  0.00    -0.508 OA
ATOM     30  H   UNL A   1      39.955  23.451  27.018  1.00  0.00     0.293 HD
ENDBRANCH  28  29
ENDBRANCH  16  23
ENDBRANCH   6   8
ENDBRANCH   3   4
ENDBRANCH   2   3
ENDBRANCH   1   2
BRANCH   1  31
ATOM     31  C   UNL A   1      32.565  29.964  26.423  1.00  0.00     0.116 C 
BRANCH  31  32
ATOM     32  N   UNL A   1      32.436  31.348  26.850  1.00  0.00    -0.352 N 
ATOM     33  C   UNL A   1      33.396  32.127  27.471  1.00  0.00     0.251 C 
ATOM     34  H   UNL A   1      31.567  31.779  26.679  1.00  0.00     0.163 HD
ATOM     35  O   UNL A   1      33.148  33.288  27.788  1.00  0.00    -0.269 OA
BRANCH  33  36
ATOM     36  C   UNL A   1      34.711  31.529  27.814  1.00  0.00     0.039 A 
ATOM     37  C   UNL A   1      35.824  32.367  27.913  1.00  0.00     0.014 A 
ATOM     38  C   UNL A   1      34.824  30.174  28.132  1.00  0.00     0.014 A 
ATOM     39  C   UNL A   1      37.019  31.871  28.447  1.00  0.00     0.010 A 
ATOM     40  C   UNL A   1      35.996  29.696  28.723  1.00  0.00     0.010 A 
ATOM     41  C   UNL A   1      37.096  30.548  28.919  1.00  0.00    -0.014 A 
BRANCH  41  42
ATOM     42  C   UNL A   1      38.268  30.093  29.721  1.00  0.00     0.031 A 
ATOM     43  C   UNL A   1      38.501  30.581  31.124  1.00  0.00     0.074 A 
ATOM     44  C   UNL A   1      39.190  29.300  29.136  1.00  0.00     0.049 A 
ATOM     45  N   UNL A   1      39.462  30.260  31.954  1.00  0.00    -0.248 NA
ATOM     46  C   UNL A   1      37.554  31.570  31.658  1.00  0.00     0.031 C 
ATOM     47  C   UNL A   1      39.152  28.844  27.743  1.00  0.00     0.029 A 
ATOM     48  N   UNL A   1      40.353  28.755  29.625  1.00  0.00    -0.354 N 
ATOM     49  C   UNL A   1      39.253  31.024  33.096  1.00  0.00     0.074 A 
ATOM     50  C   UNL A   1      38.088  31.846  32.841  1.00  0.00     0.031 C 
ATOM     51  C   UNL A   1      40.231  28.085  27.495  1.00  0.00     0.029 A 
ATOM     52  C   UNL A   1      41.052  28.013  28.700  1.00  0.00     0.049 A 
ATOM     53  H   UNL A   1      40.659  28.884  30.553  1.00  0.00     0.167 HD
ATOM     54  C   UNL A   1      39.946  31.020  34.261  1.00  0.00     0.034 A 
ATOM     55  C   UNL A   1      42.216  27.342  28.805  1.00  0.00     0.034 A 
ATOM     56  C   UNL A   1      41.077  30.174  34.532  1.00  0.00     0.049 A 
ATOM     57  C   UNL A   1      42.928  27.304  30.131  1.00  0.00     0.074 A 
ATOM     58  C   UNL A   1      41.766  30.014  35.722  1.00  0.00     0.029 A 
ATOM     59  N   UNL A   1      41.698  29.355  33.602  1.00  0.00    -0.354 N 
ATOM     60  N   UNL A   1      42.586  27.861  31.266  1.00  0.00    -0.248 NA
ATOM     61  C   UNL A   1      44.163  26.508  30.201  1.00  0.00     0.031 C 
ATOM     62  C   UNL A   1      42.815  29.114  35.508  1.00  0.00     0.029 A 
ATOM     63  C   UNL A   1      42.769  28.700  34.187  1.00  0.00     0.049 A 
ATOM     64  H   UNL A   1      41.418  29.255  32.664  1.00  0.00     0.167 HD
ATOM     65  C   UNL A   1      43.541  27.457  32.192  1.00  0.00     0.074 A 
ATOM     66  C   UNL A   1      44.464  26.588  31.491  1.00  0.00     0.031 C 
ATOM     67  C   UNL A   1      43.651  27.790  33.502  1.00  0.00     0.034 A 
BRANCH  54  68
ATOM     68  C   UNL A   1      39.457  31.914  35.371  1.00  0.00     0.023 A 
ATOM     69  C   UNL A   1      39.699  33.301  35.295  1.00  0.00     0.012 A 
ATOM     70  C   UNL A   1      38.695  31.403  36.439  1.00  0.00     0.148 A 
ATOM     71  C   UNL A   1      39.213  34.163  36.278  1.00  0.00     0.002 A 
ATOM     72  C   UNL A   1      38.180  32.273  37.395  1.00  0.00     0.091 A 
ATOM     73  F   UNL A   1      38.490  30.080  36.505  1.00  0.00    -0.205 F 
ATOM     74  C   UNL A   1      38.446  33.651  37.320  1.00  0.00     0.022 A 
BRANCH  72  75
ATOM     75  S   UNL A   1      37.119  31.723  38.736  1.00  0.00     0.127 S 
ATOM     76  O   UNL A   1      37.981  31.933  39.899  1.00  0.00    -0.237 OA
ATOM     77  O   UNL A   1      35.992  32.650  38.640  1.00  0.00    -0.237 OA
ATOM     78  O   UNL A   1      36.790  30.336  38.442  1.00  0.00    -0.744 OA
ENDBRANCH  72  75
ENDBRANCH  54  68
BRANCH  55  79
ATOM     79  C   UNL A   1      42.740  26.575  27.639  1.00  0.00     0.023 A 
ATOM     80  C   UNL A   1      43.425  27.259  26.615  1.00  0.00     0.012 A 
ATOM     81  C   UNL A   1      42.588  25.178  27.549  1.00  0.00     0.148 A 
ATOM     82  C   UNL A   1      43.922  26.570  25.508  1.00  0.00     0.002 A 
ATOM     83  C   UNL A   1      43.134  24.491  26.469  1.00  0.00     0.091 A 
ATOM     84  F   UNL A   1      41.919  24.546  28.524  1.00  0.00    -0.205 F 
ATOM     85  C   UNL A   1      43.785  25.187  25.440  1.00  0.00     0.022 A 
BRANCH  83  86
ATOM     86  S   UNL A   1      43.121  22.697  26.375  1.00  0.00     0.127 S 
ATOM     87  O   UNL A   1      44.546  22.384  26.424  1.00  0.00    -0.237 OA
ATOM     88  O   UNL A   1      42.368  22.332  27.576  1.00  0.00    -0.237 OA
ATOM     89  O   UNL A   1      42.439  22.380  25.127  1.00  0.00    -0.744 OA
ENDBRANCH  83  86
ENDBRANCH  55  79
BRANCH  67  90
ATOM     90  C   UNL A   1      44.794  27.198  34.283  1.00  0.00     0.023 A 
ATOM     91  C   UNL A   1      46.017  27.892  34.366  1.00  0.00     0.012 A 
ATOM     92  C   UNL A   1      44.634  25.993  34.997  1.00  0.00     0.148 A 
ATOM     93  C   UNL A   1      47.073  27.383  35.122  1.00  0.00     0.002 A 
ATOM     94  C   UNL A   1      45.675  25.515  35.786  1.00  0.00     0.091 A 
ATOM     95  F   UNL A   1      43.470  25.334  34.890  1.00  0.00    -0.205 F 
ATOM     96  C   UNL A   1      46.898  26.203  35.842  1.00  0.00     0.022 A 
BRANCH  94  97
ATOM     97  S   UNL A   1      45.505  24.053  36.817  1.00  0.00     0.127 S 
ATOM     98  O   UNL A   1      46.881  23.835  37.257  1.00  0.00    -0.237 OA
ATOM     99  O   UNL A   1      44.595  24.515  37.867  1.00  0.00    -0.237 OA
ATOM    100  O   UNL A   1      44.951  23.019  35.953  1.00  0.00    -0.744 OA
ENDBRANCH  94  97
ENDBRANCH  67  90
ENDBRANCH  41  42
ENDBRANCH  33  36
ENDBRANCH  31  32
ENDBRANCH   1  31
TORSDOF 17
ENDMDL
