MODEL 1
REMARK VINA RESULT:     -12.5      0.000      0.000
REMARK SMILES C[C@H]1CCCC[C@@H]1n1c(SCC(=O)NCCCCNC(=O)c2ccc(-c3c4nc(c(-c5cccc(S(=O)(=O)[O-])c5F)c5ccc([nH]5)c(-c5cccc(S(=O)(=O)[O-])c5F)c5nc(c(-c6cccc(S(=O)(=O)[O-])c6F)c6ccc3[nH]6)C=C5)C=C4)cc2)nc2ccccc2c1=O
REMARK SMILES IDX 16 1 15 2 14 3 12 4 13 5 11 7 10 8 9 9 8 10 92 11 85 12
REMARK SMILES IDX 91 13 93 14 86 15 90 16 87 17 89 18 88 19 7 20 1 21 2 22
REMARK SMILES IDX 3 23 4 24 6 25 5 26 17 27 18 28 19 29 20 30 21 32 22 33
REMARK SMILES IDX 23 34 84 35 24 36 83 37 25 38 26 39 27 40 77 41 28 42 82 43
REMARK SMILES IDX 76 44 78 45 29 46 81 47 75 48 74 49 30 51 62 52 42 53 61 54
REMARK SMILES IDX 43 55 46 56 60 57 79 58 44 59 45 60 59 62 80 63 47 64 31 65
REMARK SMILES IDX 32 66 40 67 33 68 35 69 41 70 34 71 36 72 37 73 38 74 39 75
REMARK SMILES IDX 63 76 64 77 72 78 65 79 67 80 73 81 66 82 68 83 69 84 70 85
REMARK SMILES IDX 71 86 48 87 49 88 57 89 50 90 52 91 58 92 51 93 53 94 54 95
REMARK SMILES IDX 55 96 56 97
REMARK H PARENT 14 6 19 31 78 50 46 61
REMARK Flexibility Score: inf
ROOT
ATOM      1  C   UNL A   1      34.263  33.359  28.177  1.00  0.00     0.023 C 
ENDROOT
BRANCH   1   2
ATOM      2  C   UNL A   1      33.693  32.042  27.670  1.00  0.00     0.116 C 
BRANCH   2   3
ATOM      3  N   UNL A   1      34.230  30.895  28.358  1.00  0.00    -0.355 N 
ATOM      4  C   UNL A   1      34.789  29.799  27.800  1.00  0.00     0.230 C 
ATOM      5  O   UNL A   1      35.792  29.353  28.370  1.00  0.00    -0.274 OA
ATOM      6  H   UNL A   1      34.184  30.912  29.341  1.00  0.00     0.163 HD
BRANCH   4   7
ATOM      7  C   UNL A   1      34.305  29.135  26.533  1.00  0.00     0.178 C 
BRANCH   7   8
ATOM      8  S   UNL A   1      33.311  27.670  26.475  1.00  0.00    -0.078 SA
BRANCH   8   9
ATOM      9  C   UNL A   1      33.667  26.352  25.389  1.00  0.00     0.172 A 
ATOM     10  N   UNL A   1      33.117  26.082  24.131  1.00  0.00    -0.284 N 
ATOM     11  C   UNL A   1      33.716  25.062  23.389  1.00  0.00     0.262 A 
ATOM     12  N   UNL A   1      34.423  25.492  26.009  1.00  0.00    -0.224 NA
ATOM     13  C   UNL A   1      34.235  23.935  24.168  1.00  0.00     0.066 A 
ATOM     14  O   UNL A   1      33.796  25.014  22.165  1.00  0.00    -0.269 OA
ATOM     15  C   UNL A   1      34.575  24.209  25.480  1.00  0.00     0.079 A 
ATOM     16  C   UNL A   1      34.261  22.630  23.661  1.00  0.00     0.016 A 
ATOM     17  C   UNL A   1      34.971  23.154  26.306  1.00  0.00     0.029 A 
ATOM     18  C   UNL A   1      34.629  21.578  24.500  1.00  0.00     0.001 A 
ATOM     19  C   UNL A   1      34.990  21.841  25.822  1.00  0.00     0.002 A 
BRANCH  10  20
ATOM     20  C   UNL A   1      32.012  26.828  23.486  1.00  0.00     0.096 C 
ATOM     21  C   UNL A   1      33.418  28.831  22.542  1.00  0.00     0.010 C 
ATOM     22  C   UNL A   1      32.156  28.381  23.276  1.00  0.00     0.009 C 
ATOM     23  C   UNL A   1      30.919  28.967  22.545  1.00  0.00     0.005 C 
ATOM     24  C   UNL A   1      29.572  28.514  23.114  1.00  0.00     0.000 C 
ATOM     25  C   UNL A   1      30.723  26.670  24.278  1.00  0.00     0.026 C 
ATOM     26  C   UNL A   1      29.544  27.018  23.380  1.00  0.00     0.002 C 
ENDBRANCH  10  20
ENDBRANCH   8   9
ENDBRANCH   7   8
ENDBRANCH   4   7
ENDBRANCH   2   3
ENDBRANCH   1   2
BRANCH   1  27
ATOM     27  C   UNL A   1      34.065  33.657  29.667  1.00  0.00     0.023 C 
BRANCH  27  28
ATOM     28  C   UNL A   1      35.310  34.026  30.464  1.00  0.00     0.116 C 
BRANCH  28  29
ATOM     29  N   UNL A   1      35.260  33.618  31.860  1.00  0.00    -0.352 N 
ATOM     30  C   UNL A   1      35.952  32.618  32.505  1.00  0.00     0.251 C 
ATOM     31  H   UNL A   1      34.639  34.133  32.426  1.00  0.00     0.163 HD
ATOM     32  O   UNL A   1      35.714  32.368  33.682  1.00  0.00    -0.269 OA
BRANCH  30  33
ATOM     33  C   UNL A   1      36.941  31.821  31.752  1.00  0.00     0.039 A 
ATOM     34  C   UNL A   1      37.816  30.964  32.423  1.00  0.00     0.014 A 
ATOM     35  C   UNL A   1      37.046  31.998  30.370  1.00  0.00     0.014 A 
ATOM     36  C   UNL A   1      38.916  30.450  31.749  1.00  0.00     0.010 A 
ATOM     37  C   UNL A   1      38.099  31.397  29.677  1.00  0.00     0.010 A 
ATOM     38  C   UNL A   1      39.079  30.671  30.371  1.00  0.00    -0.014 A 
BRANCH  38  39
ATOM     39  C   UNL A   1      40.285  30.142  29.681  1.00  0.00     0.031 A 
ATOM     40  C   UNL A   1      40.269  28.789  29.017  1.00  0.00     0.074 A 
ATOM     41  C   UNL A   1      41.393  30.905  29.623  1.00  0.00     0.049 A 
ATOM     42  N   UNL A   1      41.233  28.181  28.372  1.00  0.00    -0.248 NA
ATOM     43  C   UNL A   1      39.018  28.015  29.082  1.00  0.00     0.031 C 
ATOM     44  C   UNL A   1      41.537  32.228  30.234  1.00  0.00     0.029 A 
ATOM     45  N   UNL A   1      42.603  30.687  29.015  1.00  0.00    -0.354 N 
ATOM     46  C   UNL A   1      40.722  26.945  27.994  1.00  0.00     0.074 A 
ATOM     47  C   UNL A   1      39.363  26.882  28.485  1.00  0.00     0.031 C 
ATOM     48  C   UNL A   1      42.747  32.721  29.938  1.00  0.00     0.029 A 
ATOM     49  C   UNL A   1      43.490  31.725  29.172  1.00  0.00     0.049 A 
ATOM     50  H   UNL A   1      42.817  29.866  28.515  1.00  0.00     0.167 HD
ATOM     51  C   UNL A   1      41.324  25.961  27.285  1.00  0.00     0.034 A 
ATOM     52  C   UNL A   1      44.766  31.862  28.765  1.00  0.00     0.034 A 
ATOM     53  C   UNL A   1      42.657  26.045  26.755  1.00  0.00     0.049 A 
ATOM     54  C   UNL A   1      45.413  30.755  27.989  1.00  0.00     0.074 A 
ATOM     55  C   UNL A   1      43.331  25.114  25.983  1.00  0.00     0.029 A 
ATOM     56  N   UNL A   1      43.519  27.114  26.939  1.00  0.00    -0.354 N 
ATOM     57  N   UNL A   1      44.889  29.623  27.587  1.00  0.00    -0.248 NA
ATOM     58  C   UNL A   1      46.816  30.944  27.599  1.00  0.00     0.031 C 
ATOM     59  C   UNL A   1      44.608  25.613  25.715  1.00  0.00     0.029 A 
ATOM     60  C   UNL A   1      44.722  26.863  26.302  1.00  0.00     0.049 A 
ATOM     61  H   UNL A   1      43.308  27.931  27.446  1.00  0.00     0.167 HD
ATOM     62  C   UNL A   1      45.892  28.969  26.885  1.00  0.00     0.074 A 
ATOM     63  C   UNL A   1      47.051  29.838  26.902  1.00  0.00     0.031 C 
ATOM     64  C   UNL A   1      45.854  27.752  26.291  1.00  0.00     0.034 A 
BRANCH  51  65
ATOM     65  C   UNL A   1      40.538  24.711  26.994  1.00  0.00     0.023 A 
ATOM     66  C   UNL A   1      39.271  24.815  26.386  1.00  0.00     0.012 A 
ATOM     67  C   UNL A   1      41.095  23.437  27.223  1.00  0.00     0.148 A 
ATOM     68  C   UNL A   1      38.566  23.670  26.019  1.00  0.00     0.002 A 
ATOM     69  C   UNL A   1      40.400  22.301  26.827  1.00  0.00     0.091 A 
ATOM     70  F   UNL A   1      42.298  23.364  27.811  1.00  0.00    -0.205 F 
ATOM     71  C   UNL A   1      39.133  22.416  26.228  1.00  0.00     0.022 A 
BRANCH  69  72
ATOM     72  S   UNL A   1      41.061  20.640  27.003  1.00  0.00     0.127 S 
ATOM     73  O   UNL A   1      40.856  20.392  28.429  1.00  0.00    -0.237 OA
ATOM     74  O   UNL A   1      40.189  19.868  26.118  1.00  0.00    -0.237 OA
ATOM     75  O   UNL A   1      42.453  20.713  26.581  1.00  0.00    -0.744 OA
ENDBRANCH  69  72
ENDBRANCH  51  65
BRANCH  52  76
ATOM     76  C   UNL A   1      45.482  33.129  29.065  1.00  0.00     0.023 A 
ATOM     77  C   UNL A   1      46.252  33.223  30.238  1.00  0.00     0.012 A 
ATOM     78  C   UNL A   1      45.490  34.193  28.140  1.00  0.00     0.148 A 
ATOM     79  C   UNL A   1      47.023  34.359  30.487  1.00  0.00     0.002 A 
ATOM     80  C   UNL A   1      46.291  35.302  28.376  1.00  0.00     0.091 A 
ATOM     81  F   UNL A   1      44.751  34.071  27.030  1.00  0.00    -0.205 F 
ATOM     82  C   UNL A   1      47.052  35.391  29.552  1.00  0.00     0.022 A 
BRANCH  80  83
ATOM     83  S   UNL A   1      46.479  36.633  27.183  1.00  0.00     0.127 S 
ATOM     84  O   UNL A   1      47.569  37.408  27.773  1.00  0.00    -0.237 OA
ATOM     85  O   UNL A   1      46.833  35.896  25.970  1.00  0.00    -0.237 OA
ATOM     86  O   UNL A   1      45.190  37.309  27.133  1.00  0.00    -0.744 OA
ENDBRANCH  80  83
ENDBRANCH  52  76
BRANCH  64  87
ATOM     87  C   UNL A   1      47.093  27.269  25.592  1.00  0.00     0.023 A 
ATOM     88  C   UNL A   1      47.961  26.380  26.255  1.00  0.00     0.012 A 
ATOM     89  C   UNL A   1      47.321  27.585  24.238  1.00  0.00     0.148 A 
ATOM     90  C   UNL A   1      49.044  25.818  25.581  1.00  0.00     0.002 A 
ATOM     91  C   UNL A   1      48.382  26.994  23.564  1.00  0.00     0.091 A 
ATOM     92  F   UNL A   1      46.480  28.437  23.633  1.00  0.00    -0.205 F 
ATOM     93  C   UNL A   1      49.246  26.113  24.235  1.00  0.00     0.022 A 
BRANCH  91  94
ATOM     94  S   UNL A   1      48.684  27.257  21.813  1.00  0.00     0.127 S 
ATOM     95  O   UNL A   1      49.959  27.974  21.836  1.00  0.00    -0.237 OA
ATOM     96  O   UNL A   1      48.764  25.887  21.306  1.00  0.00    -0.237 OA
ATOM     97  O   UNL A   1      47.552  28.027  21.316  1.00  0.00    -0.744 OA
ENDBRANCH  91  94
ENDBRANCH  64  87
ENDBRANCH  38  39
ENDBRANCH  30  33
ENDBRANCH  28  29
ENDBRANCH  27  28
ENDBRANCH   1  27
TORSDOF 17
ENDMDL
MODEL 2
REMARK VINA RESULT:     -12.1      2.912      8.897
REMARK SMILES C[C@H]1CCCC[C@@H]1n1c(SCC(=O)NCCCCNC(=O)c2ccc(-c3c4nc(c(-c5cccc(S(=O)(=O)[O-])c5F)c5ccc([nH]5)c(-c5cccc(S(=O)(=O)[O-])c5F)c5nc(c(-c6cccc(S(=O)(=O)[O-])c6F)c6ccc3[nH]6)C=C5)C=C4)cc2)nc2ccccc2c1=O
REMARK SMILES IDX 16 1 15 2 14 3 12 4 13 5 11 7 10 8 9 9 8 10 92 11 85 12
REMARK SMILES IDX 91 13 93 14 86 15 90 16 87 17 89 18 88 19 7 20 1 21 2 22
REMARK SMILES IDX 3 23 4 24 6 25 5 26 17 27 18 28 19 29 20 30 21 32 22 33
REMARK SMILES IDX 23 34 84 35 24 36 83 37 25 38 26 39 27 40 77 41 28 42 82 43
REMARK SMILES IDX 76 44 78 45 29 46 81 47 75 48 74 49 30 51 62 52 42 53 61 54
REMARK SMILES IDX 43 55 46 56 60 57 79 58 44 59 45 60 59 62 80 63 47 64 31 65
REMARK SMILES IDX 32 66 40 67 33 68 35 69 41 70 34 71 36 72 37 73 38 74 39 75
REMARK SMILES IDX 63 76 64 77 72 78 65 79 67 80 73 81 66 82 68 83 69 84 70 85
REMARK SMILES IDX 71 86 48 87 49 88 57 89 50 90 52 91 58 92 51 93 53 94 54 95
REMARK SMILES IDX 55 96 56 97
REMARK H PARENT 14 6 19 31 78 50 46 61
REMARK Flexibility Score: inf
ROOT
ATOM      1  C   UNL A   1      40.715  20.966  26.524  1.00  0.00     0.023 C 
ENDROOT
BRANCH   1   2
ATOM      2  C   UNL A   1      39.339  21.473  26.117  1.00  0.00     0.116 C 
BRANCH   2   3
ATOM      3  N   UNL A   1      39.294  22.904  25.945  1.00  0.00    -0.355 N 
ATOM      4  C   UNL A   1      38.289  23.734  26.296  1.00  0.00     0.230 C 
ATOM      5  O   UNL A   1      38.629  24.814  26.797  1.00  0.00    -0.274 OA
ATOM      6  H   UNL A   1      40.082  23.320  25.526  1.00  0.00     0.163 HD
BRANCH   4   7
ATOM      7  C   UNL A   1      36.820  23.415  26.163  1.00  0.00     0.178 C 
BRANCH   7   8
ATOM      8  S   UNL A   1      35.788  23.940  24.823  1.00  0.00    -0.078 SA
BRANCH   8   9
ATOM      9  C   UNL A   1      34.205  24.623  25.086  1.00  0.00     0.172 A 
ATOM     10  N   UNL A   1      32.980  23.962  25.235  1.00  0.00    -0.284 N 
ATOM     11  C   UNL A   1      31.889  24.741  25.622  1.00  0.00     0.262 A 
ATOM     12  N   UNL A   1      34.275  25.914  24.935  1.00  0.00    -0.224 NA
ATOM     13  C   UNL A   1      31.871  26.109  25.099  1.00  0.00     0.066 A 
ATOM     14  O   UNL A   1      30.942  24.364  26.309  1.00  0.00    -0.269 OA
ATOM     15  C   UNL A   1      33.100  26.649  24.770  1.00  0.00     0.079 A 
ATOM     16  C   UNL A   1      30.675  26.783  24.820  1.00  0.00     0.016 A 
ATOM     17  C   UNL A   1      33.141  27.907  24.163  1.00  0.00     0.029 A 
ATOM     18  C   UNL A   1      30.723  28.026  24.187  1.00  0.00     0.001 A 
ATOM     19  C   UNL A   1      31.957  28.591  23.863  1.00  0.00     0.002 A 
BRANCH  10  20
ATOM     20  C   UNL A   1      32.755  22.504  25.095  1.00  0.00     0.096 C 
ATOM     21  C   UNL A   1      33.601  21.770  27.467  1.00  0.00     0.010 C 
ATOM     22  C   UNL A   1      33.615  21.510  25.961  1.00  0.00     0.009 C 
ATOM     23  C   UNL A   1      33.198  20.037  25.706  1.00  0.00     0.005 C 
ATOM     24  C   UNL A   1      33.070  19.661  24.228  1.00  0.00     0.000 C 
ATOM     25  C   UNL A   1      32.992  22.059  23.660  1.00  0.00     0.026 C 
ATOM     26  C   UNL A   1      32.312  20.716  23.440  1.00  0.00     0.002 C 
ENDBRANCH  10  20
ENDBRANCH   8   9
ENDBRANCH   7   8
ENDBRANCH   4   7
ENDBRANCH   2   3
ENDBRANCH   1   2
BRANCH   1  27
ATOM     27  C   UNL A   1      41.073  19.543  26.086  1.00  0.00     0.023 C 
BRANCH  27  28
ATOM     28  C   UNL A   1      42.474  19.050  26.430  1.00  0.00     0.116 C 
BRANCH  28  29
ATOM     29  N   UNL A   1      43.350  18.911  25.277  1.00  0.00    -0.352 N 
ATOM     30  C   UNL A   1      44.090  19.867  24.619  1.00  0.00     0.251 C 
ATOM     31  H   UNL A   1      43.424  17.999  24.913  1.00  0.00     0.163 HD
ATOM     32  O   UNL A   1      44.714  19.571  23.605  1.00  0.00    -0.269 OA
BRANCH  30  33
ATOM     33  C   UNL A   1      44.083  21.257  25.119  1.00  0.00     0.039 A 
ATOM     34  C   UNL A   1      43.778  22.314  24.259  1.00  0.00     0.014 A 
ATOM     35  C   UNL A   1      44.464  21.507  26.439  1.00  0.00     0.014 A 
ATOM     36  C   UNL A   1      44.054  23.616  24.657  1.00  0.00     0.010 A 
ATOM     37  C   UNL A   1      44.645  22.824  26.866  1.00  0.00     0.010 A 
ATOM     38  C   UNL A   1      44.503  23.887  25.960  1.00  0.00    -0.014 A 
BRANCH  38  39
ATOM     39  C   UNL A   1      44.828  25.285  26.349  1.00  0.00     0.031 A 
ATOM     40  C   UNL A   1      43.772  26.197  26.920  1.00  0.00     0.074 A 
ATOM     41  C   UNL A   1      46.094  25.724  26.219  1.00  0.00     0.049 A 
ATOM     42  N   UNL A   1      43.889  27.441  27.310  1.00  0.00    -0.248 NA
ATOM     43  C   UNL A   1      42.413  25.651  27.073  1.00  0.00     0.031 C 
ATOM     44  C   UNL A   1      47.204  24.940  25.672  1.00  0.00     0.029 A 
ATOM     45  N   UNL A   1      46.666  26.926  26.545  1.00  0.00    -0.354 N 
ATOM     46  C   UNL A   1      42.619  27.837  27.713  1.00  0.00     0.074 A 
ATOM     47  C   UNL A   1      41.740  26.705  27.515  1.00  0.00     0.031 C 
ATOM     48  C   UNL A   1      48.329  25.665  25.735  1.00  0.00     0.029 A 
ATOM     49  C   UNL A   1      48.012  26.985  26.268  1.00  0.00     0.049 A 
ATOM     50  H   UNL A   1      46.163  27.675  26.939  1.00  0.00     0.167 HD
ATOM     51  C   UNL A   1      42.224  29.029  28.220  1.00  0.00     0.034 A 
ATOM     52  C   UNL A   1      48.894  27.993  26.406  1.00  0.00     0.034 A 
ATOM     53  C   UNL A   1      43.107  30.138  28.462  1.00  0.00     0.049 A 
ATOM     54  C   UNL A   1      48.432  29.305  26.960  1.00  0.00     0.074 A 
ATOM     55  C   UNL A   1      42.803  31.368  29.019  1.00  0.00     0.029 A 
ATOM     56  N   UNL A   1      44.461  30.154  28.166  1.00  0.00    -0.354 N 
ATOM     57  N   UNL A   1      47.241  29.635  27.396  1.00  0.00    -0.248 NA
ATOM     58  C   UNL A   1      49.431  30.378  27.059  1.00  0.00     0.031 C 
ATOM     59  C   UNL A   1      43.970  32.136  29.042  1.00  0.00     0.029 A 
ATOM     60  C   UNL A   1      45.005  31.377  28.520  1.00  0.00     0.049 A 
ATOM     61  H   UNL A   1      44.961  29.408  27.764  1.00  0.00     0.167 HD
ATOM     62  C   UNL A   1      47.346  30.950  27.832  1.00  0.00     0.074 A 
ATOM     63  C   UNL A   1      48.723  31.351  27.624  1.00  0.00     0.031 C 
ATOM     64  C   UNL A   1      46.384  31.751  28.346  1.00  0.00     0.034 A 
BRANCH  51  65
ATOM     65  C   UNL A   1      40.777  29.200  28.594  1.00  0.00     0.023 A 
ATOM     66  C   UNL A   1      39.820  29.412  27.581  1.00  0.00     0.012 A 
ATOM     67  C   UNL A   1      40.352  29.044  29.928  1.00  0.00     0.148 A 
ATOM     68  C   UNL A   1      38.462  29.476  27.892  1.00  0.00     0.002 A 
ATOM     69  C   UNL A   1      38.995  29.079  30.226  1.00  0.00     0.091 A 
ATOM     70  F   UNL A   1      41.282  28.852  30.876  1.00  0.00    -0.205 F 
ATOM     71  C   UNL A   1      38.050  29.299  29.210  1.00  0.00     0.022 A 
BRANCH  69  72
ATOM     72  S   UNL A   1      38.351  28.812  31.882  1.00  0.00     0.127 S 
ATOM     73  O   UNL A   1      38.770  27.435  32.142  1.00  0.00    -0.237 OA
ATOM     74  O   UNL A   1      39.069  29.824  32.657  1.00  0.00    -0.237 OA
ATOM     75  O   UNL A   1      36.912  29.015  31.794  1.00  0.00    -0.744 OA
ENDBRANCH  69  72
ENDBRANCH  51  65
BRANCH  52  76
ATOM     76  C   UNL A   1      50.315  27.756  26.038  1.00  0.00     0.023 A 
ATOM     77  C   UNL A   1      51.243  27.437  27.045  1.00  0.00     0.012 A 
ATOM     78  C   UNL A   1      50.720  27.738  24.688  1.00  0.00     0.148 A 
ATOM     79  C   UNL A   1      52.556  27.100  26.714  1.00  0.00     0.002 A 
ATOM     80  C   UNL A   1      52.017  27.363  24.364  1.00  0.00     0.091 A 
ATOM     81  F   UNL A   1      49.811  28.040  23.751  1.00  0.00    -0.205 F 
ATOM     82  C   UNL A   1      52.939  27.052  25.375  1.00  0.00     0.022 A 
BRANCH  80  83
ATOM     83  S   UNL A   1      52.574  27.167  22.668  1.00  0.00     0.127 S 
ATOM     84  O   UNL A   1      53.289  28.422  22.442  1.00  0.00    -0.237 OA
ATOM     85  O   UNL A   1      53.426  25.982  22.770  1.00  0.00    -0.237 OA
ATOM     86  O   UNL A   1      51.370  26.985  21.870  1.00  0.00    -0.744 OA
ENDBRANCH  80  83
ENDBRANCH  52  76
BRANCH  64  87
ATOM     87  C   UNL A   1      46.765  33.150  28.740  1.00  0.00     0.023 A 
ATOM     88  C   UNL A   1      47.293  33.388  30.024  1.00  0.00     0.012 A 
ATOM     89  C   UNL A   1      46.728  34.195  27.796  1.00  0.00     0.148 A 
ATOM     90  C   UNL A   1      47.773  34.651  30.364  1.00  0.00     0.002 A 
ATOM     91  C   UNL A   1      47.240  35.442  28.132  1.00  0.00     0.091 A 
ATOM     92  F   UNL A   1      46.215  33.940  26.583  1.00  0.00    -0.205 F 
ATOM     93  C   UNL A   1      47.760  35.672  29.416  1.00  0.00     0.022 A 
BRANCH  91  94
ATOM     94  S   UNL A   1      47.330  36.800  26.960  1.00  0.00     0.127 S 
ATOM     95  O   UNL A   1      47.995  37.834  27.753  1.00  0.00    -0.237 OA
ATOM     96  O   UNL A   1      48.150  36.230  25.891  1.00  0.00    -0.237 OA
ATOM     97  O   UNL A   1      45.956  37.101  26.581  1.00  0.00    -0.744 OA
ENDBRANCH  91  94
ENDBRANCH  64  87
ENDBRANCH  38  39
ENDBRANCH  30  33
ENDBRANCH  28  29
ENDBRANCH  27  28
ENDBRANCH   1  27
TORSDOF 17
ENDMDL
MODEL 3
REMARK VINA RESULT:     -12.1      3.320      9.313
REMARK SMILES C[C@H]1CCCC[C@@H]1n1c(SCC(=O)NCCCCNC(=O)c2ccc(-c3c4nc(c(-c5cccc(S(=O)(=O)[O-])c5F)c5ccc([nH]5)c(-c5cccc(S(=O)(=O)[O-])c5F)c5nc(c(-c6cccc(S(=O)(=O)[O-])c6F)c6ccc3[nH]6)C=C5)C=C4)cc2)nc2ccccc2c1=O
REMARK SMILES IDX 16 1 15 2 14 3 12 4 13 5 11 7 10 8 9 9 8 10 92 11 85 12
REMARK SMILES IDX 91 13 93 14 86 15 90 16 87 17 89 18 88 19 7 20 1 21 2 22
REMARK SMILES IDX 3 23 4 24 6 25 5 26 17 27 18 28 19 29 20 30 21 32 22 33
REMARK SMILES IDX 23 34 84 35 24 36 83 37 25 38 26 39 27 40 77 41 28 42 82 43
REMARK SMILES IDX 76 44 78 45 29 46 81 47 75 48 74 49 30 51 62 52 42 53 61 54
REMARK SMILES IDX 43 55 46 56 60 57 79 58 44 59 45 60 59 62 80 63 47 64 31 65
REMARK SMILES IDX 32 66 40 67 33 68 35 69 41 70 34 71 36 72 37 73 38 74 39 75
REMARK SMILES IDX 63 76 64 77 72 78 65 79 67 80 73 81 66 82 68 83 69 84 70 85
REMARK SMILES IDX 71 86 48 87 49 88 57 89 50 90 52 91 58 92 51 93 53 94 54 95
REMARK SMILES IDX 55 96 56 97
REMARK H PARENT 14 6 19 31 78 50 46 61
REMARK Flexibility Score: inf
ROOT
ATOM      1  C   UNL A   1      34.708  23.173  25.511  1.00  0.00     0.023 C 
ENDROOT
BRANCH   1   2
ATOM      2  C   UNL A   1      33.473  22.401  25.954  1.00  0.00     0.116 C 
BRANCH   2   3
ATOM      3  N   UNL A   1      32.317  22.672  25.137  1.00  0.00    -0.355 N 
ATOM      4  C   UNL A   1      31.671  23.851  25.007  1.00  0.00     0.230 C 
ATOM      5  O   UNL A   1      31.299  24.142  23.862  1.00  0.00    -0.274 OA
ATOM      6  H   UNL A   1      31.959  21.916  24.617  1.00  0.00     0.163 HD
BRANCH   4   7
ATOM      7  C   UNL A   1      31.425  24.828  26.131  1.00  0.00     0.178 C 
BRANCH   7   8
ATOM      8  S   UNL A   1      30.385  26.258  26.020  1.00  0.00    -0.078 SA
BRANCH   8   9
ATOM      9  C   UNL A   1      30.458  27.353  24.664  1.00  0.00     0.172 A 
ATOM     10  N   UNL A   1      31.442  28.299  24.355  1.00  0.00    -0.284 N 
ATOM     11  C   UNL A   1      31.349  28.917  23.106  1.00  0.00     0.262 A 
ATOM     12  N   UNL A   1      29.322  27.309  24.030  1.00  0.00    -0.224 NA
ATOM     13  C   UNL A   1      29.988  29.157  22.619  1.00  0.00     0.066 A 
ATOM     14  O   UNL A   1      32.293  29.308  22.424  1.00  0.00    -0.269 OA
ATOM     15  C   UNL A   1      29.009  28.318  23.117  1.00  0.00     0.079 A 
ATOM     16  C   UNL A   1      29.673  30.251  21.804  1.00  0.00     0.016 A 
ATOM     17  C   UNL A   1      27.676  28.565  22.777  1.00  0.00     0.029 A 
ATOM     18  C   UNL A   1      28.337  30.509  21.494  1.00  0.00     0.001 A 
ATOM     19  C   UNL A   1      27.338  29.662  21.976  1.00  0.00     0.002 A 
BRANCH  10  20
ATOM     20  C   UNL A   1      32.611  28.646  25.195  1.00  0.00     0.096 C 
ATOM     21  C   UNL A   1      34.164  26.646  24.514  1.00  0.00     0.010 C 
ATOM     22  C   UNL A   1      33.598  27.505  25.643  1.00  0.00     0.009 C 
ATOM     23  C   UNL A   1      34.778  28.075  26.475  1.00  0.00     0.005 C 
ATOM     24  C   UNL A   1      34.361  29.042  27.586  1.00  0.00     0.000 C 
ATOM     25  C   UNL A   1      32.163  29.293  26.498  1.00  0.00     0.026 C 
ATOM     26  C   UNL A   1      33.335  30.053  27.101  1.00  0.00     0.002 C 
ENDBRANCH  10  20
ENDBRANCH   8   9
ENDBRANCH   7   8
ENDBRANCH   4   7
ENDBRANCH   2   3
ENDBRANCH   1   2
BRANCH   1  27
ATOM     27  C   UNL A   1      35.941  22.337  25.155  1.00  0.00     0.023 C 
BRANCH  27  28
ATOM     28  C   UNL A   1      37.286  23.053  25.180  1.00  0.00     0.116 C 
BRANCH  28  29
ATOM     29  N   UNL A   1      38.372  22.248  25.719  1.00  0.00    -0.352 N 
ATOM     30  C   UNL A   1      39.447  22.631  26.490  1.00  0.00     0.251 C 
ATOM     31  H   UNL A   1      38.333  21.289  25.499  1.00  0.00     0.163 HD
ATOM     32  O   UNL A   1      40.313  21.814  26.785  1.00  0.00    -0.269 OA
BRANCH  30  33
ATOM     33  C   UNL A   1      39.568  24.041  26.911  1.00  0.00     0.039 A 
ATOM     34  C   UNL A   1      40.050  25.004  26.023  1.00  0.00     0.014 A 
ATOM     35  C   UNL A   1      39.274  24.383  28.233  1.00  0.00     0.014 A 
ATOM     36  C   UNL A   1      40.430  26.249  26.508  1.00  0.00     0.010 A 
ATOM     37  C   UNL A   1      39.565  25.670  28.693  1.00  0.00     0.010 A 
ATOM     38  C   UNL A   1      40.205  26.593  27.852  1.00  0.00    -0.014 A 
BRANCH  38  39
ATOM     39  C   UNL A   1      40.656  27.917  28.355  1.00  0.00     0.031 A 
ATOM     40  C   UNL A   1      42.111  28.306  28.323  1.00  0.00     0.074 A 
ATOM     41  C   UNL A   1      39.738  28.790  28.813  1.00  0.00     0.049 A 
ATOM     42  N   UNL A   1      42.671  29.421  28.721  1.00  0.00    -0.248 NA
ATOM     43  C   UNL A   1      43.065  27.325  27.778  1.00  0.00     0.031 C 
ATOM     44  C   UNL A   1      38.300  28.529  28.903  1.00  0.00     0.029 A 
ATOM     45  N   UNL A   1      39.872  30.074  29.276  1.00  0.00    -0.354 N 
ATOM     46  C   UNL A   1      44.036  29.261  28.515  1.00  0.00     0.074 A 
ATOM     47  C   UNL A   1      44.227  27.938  27.963  1.00  0.00     0.031 C 
ATOM     48  C   UNL A   1      37.680  29.628  29.354  1.00  0.00     0.029 A 
ATOM     49  C   UNL A   1      38.680  30.650  29.645  1.00  0.00     0.049 A 
ATOM     50  H   UNL A   1      40.738  30.538  29.340  1.00  0.00     0.167 HD
ATOM     51  C   UNL A   1      45.037  30.142  28.748  1.00  0.00     0.034 A 
ATOM     52  C   UNL A   1      38.414  31.858  30.176  1.00  0.00     0.034 A 
ATOM     53  C   UNL A   1      44.841  31.474  29.251  1.00  0.00     0.049 A 
ATOM     54  C   UNL A   1      39.540  32.813  30.432  1.00  0.00     0.074 A 
ATOM     55  C   UNL A   1      45.794  32.454  29.472  1.00  0.00     0.029 A 
ATOM     56  N   UNL A   1      43.618  32.015  29.611  1.00  0.00    -0.354 N 
ATOM     57  N   UNL A   1      40.814  32.664  30.169  1.00  0.00    -0.248 NA
ATOM     58  C   UNL A   1      39.195  34.104  31.043  1.00  0.00     0.031 C 
ATOM     59  C   UNL A   1      45.148  33.582  29.983  1.00  0.00     0.029 A 
ATOM     60  C   UNL A   1      43.791  33.313  30.061  1.00  0.00     0.049 A 
ATOM     61  H   UNL A   1      42.754  31.547  29.556  1.00  0.00     0.167 HD
ATOM     62  C   UNL A   1      41.425  33.845  30.569  1.00  0.00     0.074 A 
ATOM     63  C   UNL A   1      40.378  34.707  31.077  1.00  0.00     0.031 C 
ATOM     64  C   UNL A   1      42.738  34.176  30.527  1.00  0.00     0.034 A 
BRANCH  51  65
ATOM     65  C   UNL A   1      46.445  29.722  28.423  1.00  0.00     0.023 A 
ATOM     66  C   UNL A   1      47.000  30.069  27.175  1.00  0.00     0.012 A 
ATOM     67  C   UNL A   1      47.249  29.082  29.387  1.00  0.00     0.148 A 
ATOM     68  C   UNL A   1      48.333  29.776  26.888  1.00  0.00     0.002 A 
ATOM     69  C   UNL A   1      48.584  28.820  29.104  1.00  0.00     0.091 A 
ATOM     70  F   UNL A   1      46.695  28.753  30.563  1.00  0.00    -0.205 F 
ATOM     71  C   UNL A   1      49.126  29.164  27.854  1.00  0.00     0.022 A 
BRANCH  69  72
ATOM     72  S   UNL A   1      49.708  28.082  30.296  1.00  0.00     0.127 S 
ATOM     73  O   UNL A   1      49.227  26.701  30.337  1.00  0.00    -0.237 OA
ATOM     74  O   UNL A   1      51.005  28.256  29.642  1.00  0.00    -0.237 OA
ATOM     75  O   UNL A   1      49.538  28.833  31.531  1.00  0.00    -0.744 OA
ENDBRANCH  69  72
ENDBRANCH  51  65
BRANCH  52  76
ATOM     76  C   UNL A   1      37.000  32.223  30.456  1.00  0.00     0.023 A 
ATOM     77  C   UNL A   1      36.479  32.019  31.746  1.00  0.00     0.012 A 
ATOM     78  C   UNL A   1      36.212  32.868  29.481  1.00  0.00     0.148 A 
ATOM     79  C   UNL A   1      35.192  32.455  32.065  1.00  0.00     0.002 A 
ATOM     80  C   UNL A   1      34.948  33.335  29.818  1.00  0.00     0.091 A 
ATOM     81  F   UNL A   1      36.738  33.052  28.263  1.00  0.00    -0.205 F 
ATOM     82  C   UNL A   1      34.433  33.123  31.106  1.00  0.00     0.022 A 
BRANCH  80  83
ATOM     83  S   UNL A   1      33.938  34.298  28.687  1.00  0.00     0.127 S 
ATOM     84  O   UNL A   1      32.797  34.647  29.531  1.00  0.00    -0.237 OA
ATOM     85  O   UNL A   1      34.831  35.412  28.367  1.00  0.00    -0.237 OA
ATOM     86  O   UNL A   1      33.638  33.416  27.568  1.00  0.00    -0.744 OA
ENDBRANCH  80  83
ENDBRANCH  52  76
BRANCH  64  87
ATOM     87  C   UNL A   1      43.141  35.532  31.032  1.00  0.00     0.023 A 
ATOM     88  C   UNL A   1      43.439  35.703  32.397  1.00  0.00     0.012 A 
ATOM     89  C   UNL A   1      43.356  36.596  30.133  1.00  0.00     0.148 A 
ATOM     90  C   UNL A   1      43.940  36.917  32.863  1.00  0.00     0.002 A 
ATOM     91  C   UNL A   1      43.888  37.792  30.599  1.00  0.00     0.091 A 
ATOM     92  F   UNL A   1      43.059  36.406  28.839  1.00  0.00    -0.205 F 
ATOM     93  C   UNL A   1      44.177  37.955  31.964  1.00  0.00     0.022 A 
BRANCH  91  94
ATOM     94  S   UNL A   1      44.292  39.162  29.511  1.00  0.00     0.127 S 
ATOM     95  O   UNL A   1      42.971  39.548  29.014  1.00  0.00    -0.237 OA
ATOM     96  O   UNL A   1      44.900  40.119  30.435  1.00  0.00    -0.237 OA
ATOM     97  O   UNL A   1      45.197  38.627  28.503  1.00  0.00    -0.744 OA
ENDBRANCH  91  94
ENDBRANCH  64  87
ENDBRANCH  38  39
ENDBRANCH  30  33
ENDBRANCH  28  29
ENDBRANCH  27  28
ENDBRANCH   1  27
TORSDOF 17
ENDMDL
