MODEL 1
REMARK VINA RESULT:     -11.5      0.000      0.000
REMARK SMILES O=C(NCCCCNC(=O)c1[nH]nc2c1CCC2)c1ccc(-c2c3nc(c(-c4cccc(S(=O)(=O)[O-])c4F)c4ccc([nH]4)c(-c4cccc(S(=O)(=O)[O-])c4F)c4nc(c(-c5cccc(S(=O)(=O)[O-])c5F)c5ccc2[nH]5)C=C4)C=C3)cc1
REMARK SMILES IDX 4 1 3 2 1 3 2 4 19 6 20 7 81 8 21 9 80 10 22 11 23 12 24 13
REMARK SMILES IDX 74 14 25 15 79 16 73 17 75 18 26 19 78 20 72 21 71 22 27 24
REMARK SMILES IDX 59 25 39 26 58 27 40 28 43 29 57 30 76 31 41 32 42 33 56 35
REMARK SMILES IDX 77 36 44 37 28 38 29 39 37 40 30 41 32 42 38 43 31 44 33 45
REMARK SMILES IDX 34 46 35 47 36 48 60 49 61 50 69 51 62 52 64 53 70 54 63 55
REMARK SMILES IDX 65 56 66 57 67 58 68 59 45 60 46 61 54 62 47 63 49 64 55 65
REMARK SMILES IDX 48 66 50 67 51 68 52 69 53 70 5 71 6 72 7 73 8 74 9 75 10 77
REMARK SMILES IDX 11 78 12 79 15 80 13 81 14 83 16 84 18 85 17 86
REMARK H PARENT 3 5 75 23 43 34 8 76 12 82
REMARK Flexibility Score: inf
ROOT
ATOM      1  C   UNL A   1      41.799  20.762  26.178  1.00  0.00     0.116 C 
ENDROOT
BRANCH   1   2
ATOM      2  N   UNL A   1      40.388  21.082  26.163  1.00  0.00    -0.352 N 
ATOM      3  O   UNL A   1      38.474  22.184  26.098  1.00  0.00    -0.269 OA
ATOM      4  C   UNL A   1      39.667  22.222  26.405  1.00  0.00     0.251 C 
ATOM      5  H   UNL A   1      39.822  20.313  25.926  1.00  0.00     0.163 HD
BRANCH   4   6
ATOM      6  C   UNL A   1      40.209  23.434  27.075  1.00  0.00     0.039 A 
ATOM      7  C   UNL A   1      41.286  23.450  27.962  1.00  0.00     0.014 A 
ATOM      8  C   UNL A   1      39.553  24.645  26.788  1.00  0.00     0.014 A 
ATOM      9  C   UNL A   1      41.635  24.619  28.627  1.00  0.00     0.010 A 
ATOM     10  C   UNL A   1      39.913  25.824  27.428  1.00  0.00     0.010 A 
ATOM     11  C   UNL A   1      40.939  25.801  28.369  1.00  0.00    -0.014 A 
BRANCH  11  12
ATOM     12  C   UNL A   1      41.489  27.039  28.913  1.00  0.00     0.031 A 
ATOM     13  C   UNL A   1      42.781  27.431  28.281  1.00  0.00     0.074 A 
ATOM     14  C   UNL A   1      40.832  27.836  29.778  1.00  0.00     0.049 A 
ATOM     15  N   UNL A   1      43.942  27.550  28.841  1.00  0.00    -0.248 NA
ATOM     16  C   UNL A   1      42.814  27.539  26.813  1.00  0.00     0.031 C 
ATOM     17  C   UNL A   1      39.448  27.677  30.229  1.00  0.00     0.029 A 
ATOM     18  N   UNL A   1      41.202  29.039  30.316  1.00  0.00    -0.354 N 
ATOM     19  C   UNL A   1      44.789  28.006  27.830  1.00  0.00     0.074 A 
ATOM     20  C   UNL A   1      44.111  27.750  26.592  1.00  0.00     0.031 C 
ATOM     21  C   UNL A   1      39.018  28.847  30.748  1.00  0.00     0.029 A 
ATOM     22  C   UNL A   1      40.120  29.795  30.765  1.00  0.00     0.049 A 
ATOM     23  H   UNL A   1      42.137  29.340  30.380  1.00  0.00     0.167 HD
ATOM     24  C   UNL A   1      45.825  28.844  28.112  1.00  0.00     0.034 A 
ATOM     25  C   UNL A   1      40.104  31.124  31.034  1.00  0.00     0.034 A 
ATOM     26  C   UNL A   1      46.171  28.786  29.512  1.00  0.00     0.049 A 
ATOM     27  C   UNL A   1      41.500  31.560  31.237  1.00  0.00     0.074 A 
ATOM     28  C   UNL A   1      46.562  27.808  30.404  1.00  0.00     0.029 A 
ATOM     29  N   UNL A   1      45.789  29.863  30.270  1.00  0.00    -0.354 N 
ATOM     30  N   UNL A   1      42.225  31.220  32.265  1.00  0.00    -0.248 NA
ATOM     31  C   UNL A   1      42.231  32.105  30.106  1.00  0.00     0.031 C 
ATOM     32  C   UNL A   1      46.010  28.201  31.660  1.00  0.00     0.029 A 
ATOM     33  C   UNL A   1      45.354  29.421  31.482  1.00  0.00     0.049 A 
ATOM     34  H   UNL A   1      45.824  30.805  29.983  1.00  0.00     0.167 HD
ATOM     35  C   UNL A   1      43.497  31.057  31.739  1.00  0.00     0.074 A 
ATOM     36  C   UNL A   1      43.471  31.762  30.462  1.00  0.00     0.031 C 
ATOM     37  C   UNL A   1      44.337  30.107  32.247  1.00  0.00     0.034 A 
BRANCH  24  38
ATOM     38  C   UNL A   1      46.190  30.070  27.274  1.00  0.00     0.023 A 
ATOM     39  C   UNL A   1      47.568  30.386  27.188  1.00  0.00     0.012 A 
ATOM     40  C   UNL A   1      45.288  31.087  26.878  1.00  0.00     0.148 A 
ATOM     41  C   UNL A   1      48.014  31.675  26.872  1.00  0.00     0.002 A 
ATOM     42  C   UNL A   1      45.739  32.348  26.501  1.00  0.00     0.091 A 
ATOM     43  F   UNL A   1      43.972  30.898  26.953  1.00  0.00    -0.205 F 
ATOM     44  C   UNL A   1      47.098  32.661  26.540  1.00  0.00     0.022 A 
BRANCH  42  45
ATOM     45  S   UNL A   1      44.599  33.656  26.023  1.00  0.00     0.127 S 
ATOM     46  O   UNL A   1      45.524  34.720  25.647  1.00  0.00    -0.237 OA
ATOM     47  O   UNL A   1      43.884  33.029  24.911  1.00  0.00    -0.237 OA
ATOM     48  O   UNL A   1      43.773  33.915  27.195  1.00  0.00    -0.744 OA
ENDBRANCH  42  45
ENDBRANCH  24  38
BRANCH  25  49
ATOM     49  C   UNL A   1      39.003  32.113  30.918  1.00  0.00     0.023 A 
ATOM     50  C   UNL A   1      38.374  32.311  29.670  1.00  0.00     0.012 A 
ATOM     51  C   UNL A   1      38.385  32.658  32.063  1.00  0.00     0.148 A 
ATOM     52  C   UNL A   1      37.154  32.993  29.574  1.00  0.00     0.002 A 
ATOM     53  C   UNL A   1      37.182  33.350  31.961  1.00  0.00     0.091 A 
ATOM     54  F   UNL A   1      38.922  32.416  33.266  1.00  0.00    -0.205 F 
ATOM     55  C   UNL A   1      36.555  33.507  30.719  1.00  0.00     0.022 A 
BRANCH  53  56
ATOM     56  S   UNL A   1      36.351  34.033  33.403  1.00  0.00     0.127 S 
ATOM     57  O   UNL A   1      35.206  34.716  32.799  1.00  0.00    -0.237 OA
ATOM     58  O   UNL A   1      36.018  32.830  34.160  1.00  0.00    -0.237 OA
ATOM     59  O   UNL A   1      37.317  34.930  34.027  1.00  0.00    -0.744 OA
ENDBRANCH  53  56
ENDBRANCH  25  49
BRANCH  37  60
ATOM     60  C   UNL A   1      44.038  29.554  33.615  1.00  0.00     0.023 A 
ATOM     61  C   UNL A   1      44.460  30.181  34.805  1.00  0.00     0.012 A 
ATOM     62  C   UNL A   1      43.193  28.435  33.695  1.00  0.00     0.148 A 
ATOM     63  C   UNL A   1      44.073  29.678  36.049  1.00  0.00     0.002 A 
ATOM     64  C   UNL A   1      42.768  27.970  34.931  1.00  0.00     0.091 A 
ATOM     65  F   UNL A   1      42.803  27.848  32.552  1.00  0.00    -0.205 F 
ATOM     66  C   UNL A   1      43.216  28.580  36.113  1.00  0.00     0.022 A 
BRANCH  64  67
ATOM     67  S   UNL A   1      41.567  26.645  35.061  1.00  0.00     0.127 S 
ATOM     68  O   UNL A   1      41.161  26.735  36.462  1.00  0.00    -0.237 OA
ATOM     69  O   UNL A   1      40.541  27.053  34.099  1.00  0.00    -0.237 OA
ATOM     70  O   UNL A   1      42.277  25.428  34.687  1.00  0.00    -0.744 OA
ENDBRANCH  64  67
ENDBRANCH  37  60
ENDBRANCH  11  12
ENDBRANCH   4   6
ENDBRANCH   1   2
BRANCH   1  71
ATOM     71  C   UNL A   1      42.237  19.785  27.271  1.00  0.00     0.023 C 
BRANCH  71  72
ATOM     72  C   UNL A   1      42.889  18.494  26.772  1.00  0.00     0.023 C 
BRANCH  72  73
ATOM     73  C   UNL A   1      43.600  18.595  25.428  1.00  0.00     0.116 C 
BRANCH  73  74
ATOM     74  N   UNL A   1      45.046  18.632  25.552  1.00  0.00    -0.351 N 
ATOM     75  C   UNL A   1      45.915  19.625  25.170  1.00  0.00     0.269 C 
ATOM     76  H   UNL A   1      45.459  17.841  25.967  1.00  0.00     0.163 HD
ATOM     77  O   UNL A   1      47.116  19.389  25.163  1.00  0.00    -0.268 OA
BRANCH  75  78
ATOM     78  C   UNL A   1      45.377  20.882  24.736  1.00  0.00     0.126 A 
ATOM     79  N   UNL A   1      44.856  21.058  23.468  1.00  0.00    -0.272 N 
ATOM     80  C   UNL A   1      45.252  22.116  25.318  1.00  0.00     0.006 A 
ATOM     81  N   UNL A   1      44.280  22.273  23.262  1.00  0.00    -0.180 NA
ATOM     82  H   UNL A   1      44.898  20.362  22.772  1.00  0.00     0.190 HD
ATOM     83  C   UNL A   1      44.534  22.889  24.405  1.00  0.00     0.066 A 
ATOM     84  C   UNL A   1      45.547  22.871  26.550  1.00  0.00     0.040 C 
ATOM     85  C   UNL A   1      44.182  24.222  24.929  1.00  0.00     0.059 C 
ATOM     86  C   UNL A   1      44.518  24.044  26.450  1.00  0.00     0.011 C 
ENDBRANCH  75  78
ENDBRANCH  73  74
ENDBRANCH  72  73
ENDBRANCH  71  72
ENDBRANCH   1  71
TORSDOF 14
ENDMDL
MODEL 2
REMARK VINA RESULT:     -11.4      3.583     11.652
REMARK SMILES O=C(NCCCCNC(=O)c1[nH]nc2c1CCC2)c1ccc(-c2c3nc(c(-c4cccc(S(=O)(=O)[O-])c4F)c4ccc([nH]4)c(-c4cccc(S(=O)(=O)[O-])c4F)c4nc(c(-c5cccc(S(=O)(=O)[O-])c5F)c5ccc2[nH]5)C=C4)C=C3)cc1
REMARK SMILES IDX 4 1 3 2 1 3 2 4 19 6 20 7 81 8 21 9 80 10 22 11 23 12 24 13
REMARK SMILES IDX 74 14 25 15 79 16 73 17 75 18 26 19 78 20 72 21 71 22 27 24
REMARK SMILES IDX 59 25 39 26 58 27 40 28 43 29 57 30 76 31 41 32 42 33 56 35
REMARK SMILES IDX 77 36 44 37 28 38 29 39 37 40 30 41 32 42 38 43 31 44 33 45
REMARK SMILES IDX 34 46 35 47 36 48 60 49 61 50 69 51 62 52 64 53 70 54 63 55
REMARK SMILES IDX 65 56 66 57 67 58 68 59 45 60 46 61 54 62 47 63 49 64 55 65
REMARK SMILES IDX 48 66 50 67 51 68 52 69 53 70 5 71 6 72 7 73 8 74 9 75 10 77
REMARK SMILES IDX 11 78 12 79 15 80 13 81 14 83 16 84 18 85 17 86
REMARK H PARENT 3 5 75 23 43 34 8 76 12 82
REMARK Flexibility Score: inf
ROOT
ATOM      1  C   UNL A   1      33.903  33.808  29.007  1.00  0.00     0.116 C 
ENDROOT
BRANCH   1   2
ATOM      2  N   UNL A   1      33.576  32.744  28.083  1.00  0.00    -0.352 N 
ATOM      3  O   UNL A   1      33.482  30.782  27.071  1.00  0.00    -0.269 OA
ATOM      4  C   UNL A   1      34.153  31.539  27.775  1.00  0.00     0.251 C 
ATOM      5  H   UNL A   1      32.761  32.923  27.563  1.00  0.00     0.163 HD
BRANCH   4   6
ATOM      6  C   UNL A   1      35.534  31.144  28.161  1.00  0.00     0.039 A 
ATOM      7  C   UNL A   1      36.575  32.029  28.443  1.00  0.00     0.014 A 
ATOM      8  C   UNL A   1      35.787  29.761  28.220  1.00  0.00     0.014 A 
ATOM      9  C   UNL A   1      37.860  31.555  28.675  1.00  0.00     0.010 A 
ATOM     10  C   UNL A   1      37.064  29.278  28.479  1.00  0.00     0.010 A 
ATOM     11  C   UNL A   1      38.105  30.181  28.679  1.00  0.00    -0.014 A 
BRANCH  11  12
ATOM     12  C   UNL A   1      39.411  29.730  29.153  1.00  0.00     0.031 A 
ATOM     13  C   UNL A   1      39.667  30.084  30.579  1.00  0.00     0.074 A 
ATOM     14  C   UNL A   1      40.236  28.940  28.440  1.00  0.00     0.049 A 
ATOM     15  N   UNL A   1      40.593  30.851  31.057  1.00  0.00    -0.248 NA
ATOM     16  C   UNL A   1      38.666  29.666  31.573  1.00  0.00     0.031 C 
ATOM     17  C   UNL A   1      39.942  28.311  27.151  1.00  0.00     0.029 A 
ATOM     18  N   UNL A   1      41.448  28.402  28.783  1.00  0.00    -0.354 N 
ATOM     19  C   UNL A   1      40.437  30.789  32.443  1.00  0.00     0.074 A 
ATOM     20  C   UNL A   1      39.124  30.257  32.675  1.00  0.00     0.031 C 
ATOM     21  C   UNL A   1      40.812  27.298  26.947  1.00  0.00     0.029 A 
ATOM     22  C   UNL A   1      41.781  27.277  28.030  1.00  0.00     0.049 A 
ATOM     23  H   UNL A   1      42.025  28.773  29.489  1.00  0.00     0.167 HD
ATOM     24  C   UNL A   1      41.514  30.874  33.272  1.00  0.00     0.034 A 
ATOM     25  C   UNL A   1      42.717  26.341  28.325  1.00  0.00     0.034 A 
ATOM     26  C   UNL A   1      42.640  31.473  32.597  1.00  0.00     0.049 A 
ATOM     27  C   UNL A   1      43.651  26.931  29.306  1.00  0.00     0.074 A 
ATOM     28  C   UNL A   1      42.896  32.662  31.946  1.00  0.00     0.029 A 
ATOM     29  N   UNL A   1      43.651  30.618  32.241  1.00  0.00    -0.354 N 
ATOM     30  N   UNL A   1      44.493  27.884  29.026  1.00  0.00    -0.248 NA
ATOM     31  C   UNL A   1      43.411  26.701  30.720  1.00  0.00     0.031 C 
ATOM     32  C   UNL A   1      43.822  32.333  30.911  1.00  0.00     0.029 A 
ATOM     33  C   UNL A   1      44.122  30.973  31.014  1.00  0.00     0.049 A 
ATOM     34  H   UNL A   1      43.982  29.866  32.785  1.00  0.00     0.167 HD
ATOM     35  C   UNL A   1      44.509  28.666  30.170  1.00  0.00     0.074 A 
ATOM     36  C   UNL A   1      43.959  27.811  31.217  1.00  0.00     0.031 C 
ATOM     37  C   UNL A   1      44.674  30.019  30.080  1.00  0.00     0.034 A 
BRANCH  24  38
ATOM     38  C   UNL A   1      41.729  29.980  34.495  1.00  0.00     0.023 A 
ATOM     39  C   UNL A   1      42.307  30.598  35.631  1.00  0.00     0.012 A 
ATOM     40  C   UNL A   1      41.729  28.565  34.483  1.00  0.00     0.148 A 
ATOM     41  C   UNL A   1      42.972  29.859  36.617  1.00  0.00     0.002 A 
ATOM     42  C   UNL A   1      42.335  27.832  35.498  1.00  0.00     0.091 A 
ATOM     43  F   UNL A   1      41.237  27.892  33.444  1.00  0.00    -0.205 F 
ATOM     44  C   UNL A   1      42.997  28.475  36.544  1.00  0.00     0.022 A 
BRANCH  42  45
ATOM     45  S   UNL A   1      42.365  26.033  35.477  1.00  0.00     0.127 S 
ATOM     46  O   UNL A   1      43.155  25.772  34.278  1.00  0.00    -0.237 OA
ATOM     47  O   UNL A   1      43.036  25.737  36.743  1.00  0.00    -0.237 OA
ATOM     48  O   UNL A   1      40.971  25.611  35.426  1.00  0.00    -0.744 OA
ENDBRANCH  42  45
ENDBRANCH  24  38
BRANCH  25  49
ATOM     49  C   UNL A   1      42.760  24.893  28.002  1.00  0.00     0.023 A 
ATOM     50  C   UNL A   1      41.718  24.050  28.442  1.00  0.00     0.012 A 
ATOM     51  C   UNL A   1      43.662  24.383  27.043  1.00  0.00     0.148 A 
ATOM     52  C   UNL A   1      41.557  22.762  27.916  1.00  0.00     0.002 A 
ATOM     53  C   UNL A   1      43.508  23.097  26.536  1.00  0.00     0.091 A 
ATOM     54  F   UNL A   1      44.612  25.191  26.553  1.00  0.00    -0.205 F 
ATOM     55  C   UNL A   1      42.447  22.287  26.958  1.00  0.00     0.022 A 
BRANCH  53  56
ATOM     56  S   UNL A   1      44.620  22.425  25.292  1.00  0.00     0.127 S 
ATOM     57  O   UNL A   1      43.957  21.170  24.937  1.00  0.00    -0.237 OA
ATOM     58  O   UNL A   1      44.577  23.455  24.258  1.00  0.00    -0.237 OA
ATOM     59  O   UNL A   1      45.904  22.251  25.961  1.00  0.00    -0.744 OA
ENDBRANCH  53  56
ENDBRANCH  25  49
BRANCH  37  60
ATOM     60  C   UNL A   1      45.249  30.579  28.807  1.00  0.00     0.023 A 
ATOM     61  C   UNL A   1      44.450  31.016  27.731  1.00  0.00     0.012 A 
ATOM     62  C   UNL A   1      46.637  30.789  28.755  1.00  0.00     0.148 A 
ATOM     63  C   UNL A   1      45.031  31.618  26.613  1.00  0.00     0.002 A 
ATOM     64  C   UNL A   1      47.204  31.434  27.667  1.00  0.00     0.091 A 
ATOM     65  F   UNL A   1      47.384  30.364  29.787  1.00  0.00    -0.205 F 
ATOM     66  C   UNL A   1      46.407  31.839  26.585  1.00  0.00     0.022 A 
BRANCH  64  67
ATOM     67  S   UNL A   1      48.947  31.855  27.643  1.00  0.00     0.127 S 
ATOM     68  O   UNL A   1      49.090  32.493  26.335  1.00  0.00    -0.237 OA
ATOM     69  O   UNL A   1      49.068  32.765  28.784  1.00  0.00    -0.237 OA
ATOM     70  O   UNL A   1      49.662  30.597  27.813  1.00  0.00    -0.744 OA
ENDBRANCH  64  67
ENDBRANCH  37  60
ENDBRANCH  11  12
ENDBRANCH   4   6
ENDBRANCH   1   2
BRANCH   1  71
ATOM     71  C   UNL A   1      34.485  35.072  28.370  1.00  0.00     0.023 C 
BRANCH  71  72
ATOM     72  C   UNL A   1      33.842  36.386  28.818  1.00  0.00     0.023 C 
BRANCH  72  73
ATOM     73  C   UNL A   1      32.943  36.292  30.044  1.00  0.00     0.116 C 
BRANCH  73  74
ATOM     74  N   UNL A   1      33.410  37.104  31.154  1.00  0.00    -0.351 N 
ATOM     75  C   UNL A   1      33.865  36.696  32.384  1.00  0.00     0.269 C 
ATOM     76  H   UNL A   1      33.400  38.077  31.005  1.00  0.00     0.163 HD
ATOM     77  O   UNL A   1      34.016  37.532  33.265  1.00  0.00    -0.268 OA
BRANCH  75  78
ATOM     78  C   UNL A   1      34.088  35.297  32.607  1.00  0.00     0.126 A 
ATOM     79  N   UNL A   1      33.072  34.446  33.000  1.00  0.00    -0.272 N 
ATOM     80  C   UNL A   1      35.191  34.486  32.546  1.00  0.00     0.006 A 
ATOM     81  N   UNL A   1      33.427  33.134  33.049  1.00  0.00    -0.180 NA
ATOM     82  H   UNL A   1      32.167  34.763  33.227  1.00  0.00     0.190 HD
ATOM     83  C   UNL A   1      34.718  33.193  32.764  1.00  0.00     0.066 A 
ATOM     84  C   UNL A   1      36.642  34.493  32.282  1.00  0.00     0.040 C 
ATOM     85  C   UNL A   1      35.759  32.161  32.595  1.00  0.00     0.059 C 
ATOM     86  C   UNL A   1      36.898  32.995  31.913  1.00  0.00     0.011 C 
ENDBRANCH  75  78
ENDBRANCH  73  74
ENDBRANCH  72  73
ENDBRANCH  71  72
ENDBRANCH   1  71
TORSDOF 14
ENDMDL
MODEL 3
REMARK VINA RESULT:     -11.2      2.705      7.339
REMARK SMILES O=C(NCCCCNC(=O)c1[nH]nc2c1CCC2)c1ccc(-c2c3nc(c(-c4cccc(S(=O)(=O)[O-])c4F)c4ccc([nH]4)c(-c4cccc(S(=O)(=O)[O-])c4F)c4nc(c(-c5cccc(S(=O)(=O)[O-])c5F)c5ccc2[nH]5)C=C4)C=C3)cc1
REMARK SMILES IDX 4 1 3 2 1 3 2 4 19 6 20 7 81 8 21 9 80 10 22 11 23 12 24 13
REMARK SMILES IDX 74 14 25 15 79 16 73 17 75 18 26 19 78 20 72 21 71 22 27 24
REMARK SMILES IDX 59 25 39 26 58 27 40 28 43 29 57 30 76 31 41 32 42 33 56 35
REMARK SMILES IDX 77 36 44 37 28 38 29 39 37 40 30 41 32 42 38 43 31 44 33 45
REMARK SMILES IDX 34 46 35 47 36 48 60 49 61 50 69 51 62 52 64 53 70 54 63 55
REMARK SMILES IDX 65 56 66 57 67 58 68 59 45 60 46 61 54 62 47 63 49 64 55 65
REMARK SMILES IDX 48 66 50 67 51 68 52 69 53 70 5 71 6 72 7 73 8 74 9 75 10 77
REMARK SMILES IDX 11 78 12 79 15 80 13 81 14 83 16 84 18 85 17 86
REMARK H PARENT 3 5 75 23 43 34 8 76 12 82
REMARK Flexibility Score: inf
ROOT
ATOM      1  C   UNL A   1      44.678  18.844  25.458  1.00  0.00     0.116 C 
ENDROOT
BRANCH   1   2
ATOM      2  N   UNL A   1      43.262  18.557  25.535  1.00  0.00    -0.352 N 
ATOM      3  O   UNL A   1      41.065  18.778  25.636  1.00  0.00    -0.269 OA
ATOM      4  C   UNL A   1      42.159  19.292  25.882  1.00  0.00     0.251 C 
ATOM      5  H   UNL A   1      43.042  17.631  25.282  1.00  0.00     0.163 HD
BRANCH   4   6
ATOM      6  C   UNL A   1      42.207  20.597  26.594  1.00  0.00     0.039 A 
ATOM      7  C   UNL A   1      42.179  20.760  27.979  1.00  0.00     0.014 A 
ATOM      8  C   UNL A   1      42.266  21.743  25.780  1.00  0.00     0.014 A 
ATOM      9  C   UNL A   1      42.106  22.029  28.539  1.00  0.00     0.010 A 
ATOM     10  C   UNL A   1      42.221  23.017  26.333  1.00  0.00     0.010 A 
ATOM     11  C   UNL A   1      42.113  23.155  27.715  1.00  0.00    -0.014 A 
BRANCH  11  12
ATOM     12  C   UNL A   1      42.268  24.459  28.355  1.00  0.00     0.031 A 
ATOM     13  C   UNL A   1      41.128  25.380  28.084  1.00  0.00     0.074 A 
ATOM     14  C   UNL A   1      43.250  24.754  29.227  1.00  0.00     0.049 A 
ATOM     15  N   UNL A   1      41.149  26.517  27.467  1.00  0.00    -0.248 NA
ATOM     16  C   UNL A   1      39.773  24.894  28.393  1.00  0.00     0.031 C 
ATOM     17  C   UNL A   1      44.243  23.823  29.769  1.00  0.00     0.029 A 
ATOM     18  N   UNL A   1      43.477  25.903  29.936  1.00  0.00    -0.354 N 
ATOM     19  C   UNL A   1      39.842  27.001  27.551  1.00  0.00     0.074 A 
ATOM     20  C   UNL A   1      39.020  25.878  27.904  1.00  0.00     0.031 C 
ATOM     21  C   UNL A   1      44.785  24.358  30.885  1.00  0.00     0.029 A 
ATOM     22  C   UNL A   1      44.261  25.701  31.072  1.00  0.00     0.049 A 
ATOM     23  H   UNL A   1      43.123  26.782  29.670  1.00  0.00     0.167 HD
ATOM     24  C   UNL A   1      39.596  28.337  27.640  1.00  0.00     0.034 A 
ATOM     25  C   UNL A   1      44.391  26.532  32.136  1.00  0.00     0.034 A 
ATOM     26  C   UNL A   1      40.729  29.104  27.179  1.00  0.00     0.049 A 
ATOM     27  C   UNL A   1      43.962  27.880  31.711  1.00  0.00     0.074 A 
ATOM     28  C   UNL A   1      41.465  29.195  26.016  1.00  0.00     0.029 A 
ATOM     29  N   UNL A   1      41.476  29.715  28.153  1.00  0.00    -0.354 N 
ATOM     30  N   UNL A   1      44.626  28.623  30.873  1.00  0.00    -0.248 NA
ATOM     31  C   UNL A   1      42.586  28.280  31.951  1.00  0.00     0.031 C 
ATOM     32  C   UNL A   1      42.796  29.495  26.436  1.00  0.00     0.029 A 
ATOM     33  C   UNL A   1      42.794  29.621  27.826  1.00  0.00     0.049 A 
ATOM     34  H   UNL A   1      41.116  30.152  28.959  1.00  0.00     0.167 HD
ATOM     35  C   UNL A   1      43.642  29.264  30.138  1.00  0.00     0.074 A 
ATOM     36  C   UNL A   1      42.430  29.139  30.941  1.00  0.00     0.031 C 
ATOM     37  C   UNL A   1      43.844  29.552  28.818  1.00  0.00     0.034 A 
BRANCH  24  38
ATOM     38  C   UNL A   1      38.574  28.961  28.592  1.00  0.00     0.023 A 
ATOM     39  C   UNL A   1      37.786  30.015  28.068  1.00  0.00     0.012 A 
ATOM     40  C   UNL A   1      38.582  28.826  30.001  1.00  0.00     0.148 A 
ATOM     41  C   UNL A   1      37.169  30.960  28.895  1.00  0.00     0.002 A 
ATOM     42  C   UNL A   1      37.914  29.730  30.820  1.00  0.00     0.091 A 
ATOM     43  F   UNL A   1      39.318  27.885  30.592  1.00  0.00    -0.205 F 
ATOM     44  C   UNL A   1      37.243  30.825  30.273  1.00  0.00     0.022 A 
BRANCH  42  45
ATOM     45  S   UNL A   1      37.941  29.584  32.613  1.00  0.00     0.127 S 
ATOM     46  O   UNL A   1      39.350  29.832  32.900  1.00  0.00    -0.237 OA
ATOM     47  O   UNL A   1      37.026  30.654  33.008  1.00  0.00    -0.237 OA
ATOM     48  O   UNL A   1      37.456  28.242  32.911  1.00  0.00    -0.744 OA
ENDBRANCH  42  45
ENDBRANCH  24  38
BRANCH  25  49
ATOM     49  C   UNL A   1      44.648  26.226  33.565  1.00  0.00     0.023 A 
ATOM     50  C   UNL A   1      45.974  26.222  34.049  1.00  0.00     0.012 A 
ATOM     51  C   UNL A   1      43.600  26.209  34.510  1.00  0.00     0.148 A 
ATOM     52  C   UNL A   1      46.244  26.241  35.423  1.00  0.00     0.002 A 
ATOM     53  C   UNL A   1      43.873  26.210  35.875  1.00  0.00     0.091 A 
ATOM     54  F   UNL A   1      42.335  26.291  34.077  1.00  0.00    -0.205 F 
ATOM     55  C   UNL A   1      45.194  26.242  36.336  1.00  0.00     0.022 A 
BRANCH  53  56
ATOM     56  S   UNL A   1      42.563  26.218  37.107  1.00  0.00     0.127 S 
ATOM     57  O   UNL A   1      43.322  26.234  38.358  1.00  0.00    -0.237 OA
ATOM     58  O   UNL A   1      41.864  27.463  36.799  1.00  0.00    -0.237 OA
ATOM     59  O   UNL A   1      41.805  24.993  36.886  1.00  0.00    -0.744 OA
ENDBRANCH  53  56
ENDBRANCH  25  49
BRANCH  37  60
ATOM     60  C   UNL A   1      45.257  29.556  28.301  1.00  0.00     0.023 A 
ATOM     61  C   UNL A   1      45.937  28.383  27.917  1.00  0.00     0.012 A 
ATOM     62  C   UNL A   1      45.866  30.802  28.077  1.00  0.00     0.148 A 
ATOM     63  C   UNL A   1      47.213  28.453  27.353  1.00  0.00     0.002 A 
ATOM     64  C   UNL A   1      47.110  30.870  27.469  1.00  0.00     0.091 A 
ATOM     65  F   UNL A   1      45.206  31.910  28.451  1.00  0.00    -0.205 F 
ATOM     66  C   UNL A   1      47.795  29.697  27.117  1.00  0.00     0.022 A 
BRANCH  64  67
ATOM     67  S   UNL A   1      47.842  32.447  27.028  1.00  0.00     0.127 S 
ATOM     68  O   UNL A   1      49.123  32.040  26.453  1.00  0.00    -0.237 OA
ATOM     69  O   UNL A   1      46.880  32.983  26.062  1.00  0.00    -0.237 OA
ATOM     70  O   UNL A   1      47.921  33.209  28.267  1.00  0.00    -0.744 OA
ENDBRANCH  64  67
ENDBRANCH  37  60
ENDBRANCH  11  12
ENDBRANCH   4   6
ENDBRANCH   1   2
BRANCH   1  71
ATOM     71  C   UNL A   1      45.115  19.663  24.242  1.00  0.00     0.023 C 
BRANCH  71  72
ATOM     72  C   UNL A   1      46.307  20.593  24.473  1.00  0.00     0.023 C 
BRANCH  72  73
ATOM     73  C   UNL A   1      46.072  21.729  25.461  1.00  0.00     0.116 C 
BRANCH  73  74
ATOM     74  N   UNL A   1      45.409  22.874  24.863  1.00  0.00    -0.351 N 
ATOM     75  C   UNL A   1      45.625  24.210  25.097  1.00  0.00     0.269 C 
ATOM     76  H   UNL A   1      44.713  22.665  24.199  1.00  0.00     0.163 HD
ATOM     77  O   UNL A   1      44.825  25.024  24.655  1.00  0.00    -0.268 OA
BRANCH  75  78
ATOM     78  C   UNL A   1      46.747  24.596  25.903  1.00  0.00     0.126 A 
ATOM     79  N   UNL A   1      46.837  24.261  27.242  1.00  0.00    -0.272 N 
ATOM     80  C   UNL A   1      47.885  25.321  25.668  1.00  0.00     0.006 A 
ATOM     81  N   UNL A   1      48.018  24.599  27.826  1.00  0.00    -0.180 NA
ATOM     82  H   UNL A   1      46.107  23.815  27.731  1.00  0.00     0.190 HD
ATOM     83  C   UNL A   1      48.632  25.237  26.842  1.00  0.00     0.066 A 
ATOM     84  C   UNL A   1      48.599  26.083  24.627  1.00  0.00     0.040 C 
ATOM     85  C   UNL A   1      49.968  25.852  26.722  1.00  0.00     0.059 C 
ATOM     86  C   UNL A   1      50.065  26.054  25.170  1.00  0.00     0.011 C 
ENDBRANCH  75  78
ENDBRANCH  73  74
ENDBRANCH  72  73
ENDBRANCH  71  72
ENDBRANCH   1  71
TORSDOF 14
ENDMDL
