MODEL 1
REMARK VINA RESULT:     -11.8      0.000      0.000
REMARK SMILES COC(=O)Cc1nc(NC(=O)[C@H]2CC[C@@H]2C(=O)NCCCCNC(=O)c2ccc(-c3c4nc(c(-c5cccc(S(=O)(=O)[O-])c5F)c5ccc([nH]5)c(-c5cccc(S(=O)(=O)[O-])c5F)c5nc(c(-c6cccc(S(=O)(=O)[O-])c6F)c6ccc3[nH]6)C=C5)C=C4)cc2)sc1C
REMARK SMILES IDX 19 1 18 2 16 3 17 4 15 6 12 7 13 8 14 9 10 10 9 11 11 13
REMARK SMILES IDX 8 14 6 15 7 16 90 17 89 18 91 19 5 20 3 21 4 22 2 23 1 24
REMARK SMILES IDX 20 25 21 26 22 27 23 28 24 29 25 31 26 32 27 33 88 34 28 35
REMARK SMILES IDX 87 36 29 37 30 38 31 39 81 40 32 41 86 42 80 43 82 44 33 45
REMARK SMILES IDX 85 46 79 47 78 48 34 50 66 51 46 52 65 53 47 54 50 55 64 56
REMARK SMILES IDX 83 57 48 58 49 59 63 61 84 62 51 63 35 64 36 65 44 66 37 67
REMARK SMILES IDX 39 68 45 69 38 70 40 71 41 72 42 73 43 74 67 75 68 76 76 77
REMARK SMILES IDX 69 78 71 79 77 80 70 81 72 82 73 83 74 84 75 85 52 86 53 87
REMARK SMILES IDX 61 88 54 89 56 90 62 91 55 92 57 93 58 94 59 95 60 96
REMARK H PARENT 18 5 9 12 23 30 82 49 50 60
REMARK Flexibility Score: inf
ROOT
ATOM      1  C   UNL A   1      31.363  27.026  26.322  1.00  0.00     0.116 C 
ENDROOT
BRANCH   1   2
ATOM      2  N   UNL A   1      31.032  25.718  26.858  1.00  0.00    -0.356 N 
ATOM      3  C   UNL A   1      31.677  24.515  26.698  1.00  0.00     0.223 C 
ATOM      4  O   UNL A   1      31.209  23.540  27.294  1.00  0.00    -0.275 OA
ATOM      5  H   UNL A   1      30.225  25.688  27.421  1.00  0.00     0.163 HD
BRANCH   3   6
ATOM      6  C   UNL A   1      32.935  24.445  25.792  1.00  0.00     0.091 C 
ATOM      7  C   UNL A   1      32.755  23.843  24.354  1.00  0.00     0.091 C 
ATOM      8  C   UNL A   1      33.447  22.557  24.864  1.00  0.00     0.015 C 
ATOM      9  C   UNL A   1      33.946  23.318  26.094  1.00  0.00     0.015 C 
BRANCH   7  10
ATOM     10  C   UNL A   1      33.429  24.646  23.203  1.00  0.00     0.230 C 
ATOM     11  N   UNL A   1      32.857  25.807  22.726  1.00  0.00    -0.302 N 
ATOM     12  H   UNL A   1      33.441  26.351  22.148  1.00  0.00     0.172 HD
ATOM     13  O   UNL A   1      34.554  24.361  22.761  1.00  0.00    -0.274 OA
BRANCH  11  14
ATOM     14  C   UNL A   1      31.608  26.323  22.930  1.00  0.00     0.189 A 
ATOM     15  C   UNL A   1      30.046  27.864  23.271  1.00  0.00     0.068 A 
ATOM     16  N   UNL A   1      31.364  27.610  22.883  1.00  0.00    -0.224 NA
ATOM     17  C   UNL A   1      29.317  26.718  23.557  1.00  0.00     0.027 A 
ATOM     18  S   UNL A   1      30.244  25.340  23.148  1.00  0.00    -0.102 S 
ATOM     19  C   UNL A   1      27.968  26.527  24.159  1.00  0.00     0.058 C 
BRANCH  15  20
ATOM     20  C   UNL A   1      29.607  29.277  23.489  1.00  0.00     0.180 C 
BRANCH  20  21
ATOM     21  C   UNL A   1      28.629  29.771  22.460  1.00  0.00     0.311 C 
ATOM     22  O   UNL A   1      28.803  29.703  21.249  1.00  0.00    -0.252 OA
BRANCH  21  23
ATOM     23  O   UNL A   1      27.504  30.262  23.060  1.00  0.00    -0.469 OA
ATOM     24  C   UNL A   1      27.662  31.567  23.611  1.00  0.00     0.282 C 
ENDBRANCH  21  23
ENDBRANCH  20  21
ENDBRANCH  15  20
ENDBRANCH  11  14
ENDBRANCH   7  10
ENDBRANCH   3   6
ENDBRANCH   1   2
BRANCH   1  25
ATOM     25  C   UNL A   1      32.002  27.936  27.371  1.00  0.00     0.023 C 
BRANCH  25  26
ATOM     26  C   UNL A   1      31.722  29.426  27.161  1.00  0.00     0.023 C 
BRANCH  26  27
ATOM     27  C   UNL A   1      32.840  30.191  26.467  1.00  0.00     0.116 C 
BRANCH  27  28
ATOM     28  N   UNL A   1      32.846  31.603  26.820  1.00  0.00    -0.352 N 
ATOM     29  C   UNL A   1      33.712  32.303  27.630  1.00  0.00     0.251 C 
ATOM     30  H   UNL A   1      32.123  32.138  26.420  1.00  0.00     0.163 HD
ATOM     31  O   UNL A   1      33.449  33.456  27.946  1.00  0.00    -0.269 OA
BRANCH  29  32
ATOM     32  C   UNL A   1      34.942  31.651  28.142  1.00  0.00     0.039 A 
ATOM     33  C   UNL A   1      36.120  32.399  28.229  1.00  0.00     0.014 A 
ATOM     34  C   UNL A   1      34.935  30.315  28.544  1.00  0.00     0.014 A 
ATOM     35  C   UNL A   1      37.266  31.825  28.787  1.00  0.00     0.010 A 
ATOM     36  C   UNL A   1      36.042  29.780  29.193  1.00  0.00     0.010 A 
ATOM     37  C   UNL A   1      37.225  30.524  29.315  1.00  0.00    -0.014 A 
BRANCH  37  38
ATOM     38  C   UNL A   1      38.400  29.920  29.999  1.00  0.00     0.031 A 
ATOM     39  C   UNL A   1      38.790  30.379  31.381  1.00  0.00     0.074 A 
ATOM     40  C   UNL A   1      39.172  29.032  29.342  1.00  0.00     0.049 A 
ATOM     41  N   UNL A   1      39.824  30.035  32.102  1.00  0.00    -0.248 NA
ATOM     42  C   UNL A   1      37.919  31.379  32.024  1.00  0.00     0.031 C 
ATOM     43  C   UNL A   1      38.949  28.566  27.971  1.00  0.00     0.029 A 
ATOM     44  N   UNL A   1      40.319  28.382  29.728  1.00  0.00    -0.354 N 
ATOM     45  C   UNL A   1      39.754  30.802  33.259  1.00  0.00     0.074 A 
ATOM     46  C   UNL A   1      38.596  31.660  33.127  1.00  0.00     0.031 C 
ATOM     47  C   UNL A   1      39.920  27.702  27.635  1.00  0.00     0.029 A 
ATOM     48  C   UNL A   1      40.856  27.580  28.748  1.00  0.00     0.049 A 
ATOM     49  H   UNL A   1      40.719  28.482  30.622  1.00  0.00     0.167 HD
ATOM     50  C   UNL A   1      40.559  30.775  34.348  1.00  0.00     0.034 A 
ATOM     51  C   UNL A   1      41.982  26.840  28.739  1.00  0.00     0.034 A 
ATOM     52  C   UNL A   1      41.679  29.888  34.496  1.00  0.00     0.049 A 
ATOM     53  C   UNL A   1      42.843  26.805  29.972  1.00  0.00     0.074 A 
ATOM     54  C   UNL A   1      42.499  29.716  35.596  1.00  0.00     0.029 A 
ATOM     55  N   UNL A   1      42.147  29.032  33.511  1.00  0.00    -0.354 N 
ATOM     56  N   UNL A   1      42.669  27.420  31.117  1.00  0.00    -0.248 NA
ATOM     57  C   UNL A   1      44.039  25.950  29.925  1.00  0.00     0.031 C 
ATOM     58  C   UNL A   1      43.482  28.778  35.265  1.00  0.00     0.029 A 
ATOM     59  C   UNL A   1      43.254  28.340  33.971  1.00  0.00     0.049 A 
ATOM     60  H   UNL A   1      41.749  28.931  32.616  1.00  0.00     0.167 HD
ATOM     61  C   UNL A   1      43.713  27.003  31.936  1.00  0.00     0.074 A 
ATOM     62  C   UNL A   1      44.500  26.065  31.164  1.00  0.00     0.031 C 
ATOM     63  C   UNL A   1      44.001  27.374  33.208  1.00  0.00     0.034 A 
BRANCH  50  64
ATOM     64  C   UNL A   1      40.225  31.700  35.490  1.00  0.00     0.023 A 
ATOM     65  C   UNL A   1      40.978  32.878  35.677  1.00  0.00     0.012 A 
ATOM     66  C   UNL A   1      39.136  31.435  36.343  1.00  0.00     0.148 A 
ATOM     67  C   UNL A   1      40.677  33.759  36.715  1.00  0.00     0.002 A 
ATOM     68  C   UNL A   1      38.811  32.341  37.346  1.00  0.00     0.091 A 
ATOM     69  F   UNL A   1      38.444  30.302  36.164  1.00  0.00    -0.205 F 
ATOM     70  C   UNL A   1      39.588  33.496  37.542  1.00  0.00     0.022 A 
BRANCH  68  71
ATOM     71  S   UNL A   1      37.381  32.137  38.413  1.00  0.00     0.127 S 
ATOM     72  O   UNL A   1      36.434  33.079  37.818  1.00  0.00    -0.237 OA
ATOM     73  O   UNL A   1      37.047  30.727  38.212  1.00  0.00    -0.237 OA
ATOM     74  O   UNL A   1      37.831  32.470  39.757  1.00  0.00    -0.744 OA
ENDBRANCH  68  71
ENDBRANCH  50  64
BRANCH  51  75
ATOM     75  C   UNL A   1      42.334  26.029  27.537  1.00  0.00     0.023 A 
ATOM     76  C   UNL A   1      43.053  26.626  26.484  1.00  0.00     0.012 A 
ATOM     77  C   UNL A   1      41.982  24.669  27.444  1.00  0.00     0.148 A 
ATOM     78  C   UNL A   1      43.387  25.892  25.345  1.00  0.00     0.002 A 
ATOM     79  C   UNL A   1      42.367  23.929  26.332  1.00  0.00     0.091 A 
ATOM     80  F   UNL A   1      41.287  24.121  28.452  1.00  0.00    -0.205 F 
ATOM     81  C   UNL A   1      43.054  24.543  25.274  1.00  0.00     0.022 A 
BRANCH  79  82
ATOM     82  S   UNL A   1      42.100  22.156  26.217  1.00  0.00     0.127 S 
ATOM     83  O   UNL A   1      40.649  22.081  26.075  1.00  0.00    -0.237 OA
ATOM     84  O   UNL A   1      42.858  21.816  25.012  1.00  0.00    -0.237 OA
ATOM     85  O   UNL A   1      42.647  21.596  27.445  1.00  0.00    -0.744 OA
ENDBRANCH  79  82
ENDBRANCH  51  75
BRANCH  63  86
ATOM     86  C   UNL A   1      45.199  26.745  33.867  1.00  0.00     0.023 A 
ATOM     87  C   UNL A   1      46.442  27.407  33.843  1.00  0.00     0.012 A 
ATOM     88  C   UNL A   1      45.072  25.537  34.582  1.00  0.00     0.148 A 
ATOM     89  C   UNL A   1      47.548  26.862  34.494  1.00  0.00     0.002 A 
ATOM     90  C   UNL A   1      46.164  25.026  35.272  1.00  0.00     0.091 A 
ATOM     91  F   UNL A   1      43.884  24.916  34.579  1.00  0.00    -0.205 F 
ATOM     92  C   UNL A   1      47.407  25.681  35.218  1.00  0.00     0.022 A 
BRANCH  90  93
ATOM     93  S   UNL A   1      46.053  23.566  36.311  1.00  0.00     0.127 S 
ATOM     94  O   UNL A   1      47.441  23.398  36.739  1.00  0.00    -0.237 OA
ATOM     95  O   UNL A   1      45.140  24.007  37.366  1.00  0.00    -0.237 OA
ATOM     96  O   UNL A   1      45.531  22.504  35.462  1.00  0.00    -0.744 OA
ENDBRANCH  90  93
ENDBRANCH  63  86
ENDBRANCH  37  38
ENDBRANCH  29  32
ENDBRANCH  27  28
ENDBRANCH  26  27
ENDBRANCH  25  26
ENDBRANCH   1  25
TORSDOF 19
ENDMDL
MODEL 2
REMARK VINA RESULT:     -11.8      2.498      3.049
REMARK SMILES COC(=O)Cc1nc(NC(=O)[C@H]2CC[C@@H]2C(=O)NCCCCNC(=O)c2ccc(-c3c4nc(c(-c5cccc(S(=O)(=O)[O-])c5F)c5ccc([nH]5)c(-c5cccc(S(=O)(=O)[O-])c5F)c5nc(c(-c6cccc(S(=O)(=O)[O-])c6F)c6ccc3[nH]6)C=C5)C=C4)cc2)sc1C
REMARK SMILES IDX 19 1 18 2 16 3 17 4 15 6 12 7 13 8 14 9 10 10 9 11 11 13
REMARK SMILES IDX 8 14 6 15 7 16 90 17 89 18 91 19 5 20 3 21 4 22 2 23 1 24
REMARK SMILES IDX 20 25 21 26 22 27 23 28 24 29 25 31 26 32 27 33 88 34 28 35
REMARK SMILES IDX 87 36 29 37 30 38 31 39 81 40 32 41 86 42 80 43 82 44 33 45
REMARK SMILES IDX 85 46 79 47 78 48 34 50 66 51 46 52 65 53 47 54 50 55 64 56
REMARK SMILES IDX 83 57 48 58 49 59 63 61 84 62 51 63 35 64 36 65 44 66 37 67
REMARK SMILES IDX 39 68 45 69 38 70 40 71 41 72 42 73 43 74 67 75 68 76 76 77
REMARK SMILES IDX 69 78 71 79 77 80 70 81 72 82 73 83 74 84 75 85 52 86 53 87
REMARK SMILES IDX 61 88 54 89 56 90 62 91 55 92 57 93 58 94 59 95 60 96
REMARK H PARENT 18 5 9 12 23 30 82 49 50 60
REMARK Flexibility Score: inf
ROOT
ATOM      1  C   UNL A   1      31.926  25.573  26.459  1.00  0.00     0.116 C 
ENDROOT
BRANCH   1   2
ATOM      2  N   UNL A   1      31.147  24.905  25.431  1.00  0.00    -0.356 N 
ATOM      3  C   UNL A   1      31.342  24.862  24.072  1.00  0.00     0.223 C 
ATOM      4  O   UNL A   1      30.547  24.188  23.408  1.00  0.00    -0.275 OA
ATOM      5  H   UNL A   1      30.362  24.408  25.758  1.00  0.00     0.163 HD
BRANCH   3   6
ATOM      6  C   UNL A   1      32.526  25.650  23.450  1.00  0.00     0.091 C 
ATOM      7  C   UNL A   1      32.213  26.562  22.212  1.00  0.00     0.091 C 
ATOM      8  C   UNL A   1      32.881  25.489  21.320  1.00  0.00     0.015 C 
ATOM      9  C   UNL A   1      33.503  24.849  22.563  1.00  0.00     0.015 C 
BRANCH   7  10
ATOM     10  C   UNL A   1      32.837  27.988  22.257  1.00  0.00     0.230 C 
ATOM     11  N   UNL A   1      32.038  29.101  22.414  1.00  0.00    -0.302 N 
ATOM     12  H   UNL A   1      32.521  29.932  22.631  1.00  0.00     0.172 HD
ATOM     13  O   UNL A   1      34.063  28.178  22.288  1.00  0.00    -0.274 OA
BRANCH  11  14
ATOM     14  C   UNL A   1      30.681  29.234  22.317  1.00  0.00     0.189 A 
ATOM     15  C   UNL A   1      28.735  30.061  21.638  1.00  0.00     0.068 A 
ATOM     16  N   UNL A   1      30.113  29.997  21.415  1.00  0.00    -0.224 NA
ATOM     17  C   UNL A   1      28.304  29.281  22.702  1.00  0.00     0.027 A 
ATOM     18  S   UNL A   1      29.610  28.337  23.278  1.00  0.00    -0.102 S 
ATOM     19  C   UNL A   1      26.986  29.183  23.388  1.00  0.00     0.058 C 
BRANCH  15  20
ATOM     20  C   UNL A   1      27.912  31.034  20.856  1.00  0.00     0.180 C 
BRANCH  20  21
ATOM     21  C   UNL A   1      28.144  32.468  21.243  1.00  0.00     0.311 C 
ATOM     22  O   UNL A   1      27.498  33.416  20.811  1.00  0.00    -0.252 OA
BRANCH  21  23
ATOM     23  O   UNL A   1      29.140  32.563  22.173  1.00  0.00    -0.469 OA
ATOM     24  C   UNL A   1      28.900  33.538  23.184  1.00  0.00     0.282 C 
ENDBRANCH  21  23
ENDBRANCH  20  21
ENDBRANCH  15  20
ENDBRANCH  11  14
ENDBRANCH   7  10
ENDBRANCH   3   6
ENDBRANCH   1   2
BRANCH   1  25
ATOM     25  C   UNL A   1      31.806  27.094  26.377  1.00  0.00     0.023 C 
BRANCH  25  26
ATOM     26  C   UNL A   1      32.752  27.848  27.315  1.00  0.00     0.023 C 
BRANCH  26  27
ATOM     27  C   UNL A   1      33.903  28.560  26.618  1.00  0.00     0.116 C 
BRANCH  27  28
ATOM     28  N   UNL A   1      33.802  30.008  26.722  1.00  0.00    -0.352 N 
ATOM     29  C   UNL A   1      34.582  30.895  27.431  1.00  0.00     0.251 C 
ATOM     30  H   UNL A   1      33.066  30.415  26.211  1.00  0.00     0.163 HD
ATOM     31  O   UNL A   1      34.232  32.063  27.534  1.00  0.00    -0.269 OA
BRANCH  29  32
ATOM     32  C   UNL A   1      35.826  30.428  28.090  1.00  0.00     0.039 A 
ATOM     33  C   UNL A   1      35.730  29.689  29.273  1.00  0.00     0.014 A 
ATOM     34  C   UNL A   1      37.079  30.707  27.544  1.00  0.00     0.014 A 
ATOM     35  C   UNL A   1      36.886  29.169  29.862  1.00  0.00     0.010 A 
ATOM     36  C   UNL A   1      38.215  30.103  28.072  1.00  0.00     0.010 A 
ATOM     37  C   UNL A   1      38.136  29.334  29.243  1.00  0.00    -0.014 A 
BRANCH  37  38
ATOM     38  C   UNL A   1      39.370  28.715  29.794  1.00  0.00     0.031 A 
ATOM     39  C   UNL A   1      40.032  29.303  31.014  1.00  0.00     0.074 A 
ATOM     40  C   UNL A   1      39.950  27.686  29.144  1.00  0.00     0.049 A 
ATOM     41  N   UNL A   1      41.154  28.958  31.590  1.00  0.00    -0.248 NA
ATOM     42  C   UNL A   1      39.361  30.449  31.652  1.00  0.00     0.031 C 
ATOM     43  C   UNL A   1      39.453  27.077  27.907  1.00  0.00     0.029 A 
ATOM     44  N   UNL A   1      41.101  26.988  29.416  1.00  0.00    -0.354 N 
ATOM     45  C   UNL A   1      41.345  29.865  32.626  1.00  0.00     0.074 A 
ATOM     46  C   UNL A   1      40.243  30.801  32.575  1.00  0.00     0.031 C 
ATOM     47  C   UNL A   1      40.288  26.093  27.534  1.00  0.00     0.029 A 
ATOM     48  C   UNL A   1      41.398  26.025  28.478  1.00  0.00     0.049 A 
ATOM     49  H   UNL A   1      41.661  27.160  30.207  1.00  0.00     0.167 HD
ATOM     50  C   UNL A   1      42.328  29.900  33.556  1.00  0.00     0.034 A 
ATOM     51  C   UNL A   1      42.452  25.190  28.381  1.00  0.00     0.034 A 
ATOM     52  C   UNL A   1      43.395  28.939  33.632  1.00  0.00     0.049 A 
ATOM     53  C   UNL A   1      43.515  25.230  29.443  1.00  0.00     0.074 A 
ATOM     54  C   UNL A   1      44.385  28.830  34.592  1.00  0.00     0.029 A 
ATOM     55  N   UNL A   1      43.619  27.930  32.710  1.00  0.00    -0.354 N 
ATOM     56  N   UNL A   1      43.592  25.995  30.506  1.00  0.00    -0.248 NA
ATOM     57  C   UNL A   1      44.623  24.271  29.313  1.00  0.00     0.031 C 
ATOM     58  C   UNL A   1      45.227  27.774  34.231  1.00  0.00     0.029 A 
ATOM     59  C   UNL A   1      44.741  27.203  33.067  1.00  0.00     0.049 A 
ATOM     60  H   UNL A   1      43.061  27.755  31.917  1.00  0.00     0.167 HD
ATOM     61  C   UNL A   1      44.735  25.589  31.186  1.00  0.00     0.074 A 
ATOM     62  C   UNL A   1      45.305  24.495  30.428  1.00  0.00     0.031 C 
ATOM     63  C   UNL A   1      45.271  26.086  32.328  1.00  0.00     0.034 A 
BRANCH  50  64
ATOM     64  C   UNL A   1      42.269  30.985  34.601  1.00  0.00     0.023 A 
ATOM     65  C   UNL A   1      41.545  30.769  35.791  1.00  0.00     0.012 A 
ATOM     66  C   UNL A   1      42.972  32.193  34.430  1.00  0.00     0.148 A 
ATOM     67  C   UNL A   1      41.491  31.751  36.780  1.00  0.00     0.002 A 
ATOM     68  C   UNL A   1      42.954  33.148  35.440  1.00  0.00     0.091 A 
ATOM     69  F   UNL A   1      43.639  32.390  33.284  1.00  0.00    -0.205 F 
ATOM     70  C   UNL A   1      42.204  32.935  36.609  1.00  0.00     0.022 A 
BRANCH  68  71
ATOM     71  S   UNL A   1      43.902  34.671  35.354  1.00  0.00     0.127 S 
ATOM     72  O   UNL A   1      43.550  35.308  36.622  1.00  0.00    -0.237 OA
ATOM     73  O   UNL A   1      45.276  34.173  35.282  1.00  0.00    -0.237 OA
ATOM     74  O   UNL A   1      43.443  35.365  34.160  1.00  0.00    -0.744 OA
ENDBRANCH  68  71
ENDBRANCH  50  64
BRANCH  51  75
ATOM     75  C   UNL A   1      42.526  24.209  27.260  1.00  0.00     0.023 A 
ATOM     76  C   UNL A   1      43.181  24.568  26.066  1.00  0.00     0.012 A 
ATOM     77  C   UNL A   1      41.975  22.919  27.380  1.00  0.00     0.148 A 
ATOM     78  C   UNL A   1      43.257  23.672  24.999  1.00  0.00     0.002 A 
ATOM     79  C   UNL A   1      42.104  22.012  26.334  1.00  0.00     0.091 A 
ATOM     80  F   UNL A   1      41.344  22.600  28.519  1.00  0.00    -0.205 F 
ATOM     81  C   UNL A   1      42.728  22.392  25.137  1.00  0.00     0.022 A 
BRANCH  79  82
ATOM     82  S   UNL A   1      41.573  20.301  26.474  1.00  0.00     0.127 S 
ATOM     83  O   UNL A   1      40.120  20.434  26.440  1.00  0.00    -0.237 OA
ATOM     84  O   UNL A   1      42.169  19.703  25.279  1.00  0.00    -0.237 OA
ATOM     85  O   UNL A   1      42.136  19.817  27.728  1.00  0.00    -0.744 OA
ENDBRANCH  79  82
ENDBRANCH  51  75
BRANCH  63  86
ATOM     86  C   UNL A   1      46.523  25.437  32.855  1.00  0.00     0.023 A 
ATOM     87  C   UNL A   1      47.783  25.855  32.384  1.00  0.00     0.012 A 
ATOM     88  C   UNL A   1      46.453  24.470  33.878  1.00  0.00     0.148 A 
ATOM     89  C   UNL A   1      48.953  25.300  32.901  1.00  0.00     0.002 A 
ATOM     90  C   UNL A   1      47.623  23.960  34.425  1.00  0.00     0.091 A 
ATOM     91  F   UNL A   1      45.244  24.075  34.301  1.00  0.00    -0.205 F 
ATOM     92  C   UNL A   1      48.874  24.364  33.929  1.00  0.00     0.022 A 
BRANCH  90  93
ATOM     93  S   UNL A   1      47.624  22.825  35.817  1.00  0.00     0.127 S 
ATOM     94  O   UNL A   1      47.178  23.691  36.908  1.00  0.00    -0.237 OA
ATOM     95  O   UNL A   1      46.647  21.821  35.398  1.00  0.00    -0.237 OA
ATOM     96  O   UNL A   1      48.990  22.331  35.935  1.00  0.00    -0.744 OA
ENDBRANCH  90  93
ENDBRANCH  63  86
ENDBRANCH  37  38
ENDBRANCH  29  32
ENDBRANCH  27  28
ENDBRANCH  26  27
ENDBRANCH  25  26
ENDBRANCH   1  25
TORSDOF 19
ENDMDL
MODEL 3
REMARK VINA RESULT:     -11.7      2.529      4.582
REMARK SMILES COC(=O)Cc1nc(NC(=O)[C@H]2CC[C@@H]2C(=O)NCCCCNC(=O)c2ccc(-c3c4nc(c(-c5cccc(S(=O)(=O)[O-])c5F)c5ccc([nH]5)c(-c5cccc(S(=O)(=O)[O-])c5F)c5nc(c(-c6cccc(S(=O)(=O)[O-])c6F)c6ccc3[nH]6)C=C5)C=C4)cc2)sc1C
REMARK SMILES IDX 19 1 18 2 16 3 17 4 15 6 12 7 13 8 14 9 10 10 9 11 11 13
REMARK SMILES IDX 8 14 6 15 7 16 90 17 89 18 91 19 5 20 3 21 4 22 2 23 1 24
REMARK SMILES IDX 20 25 21 26 22 27 23 28 24 29 25 31 26 32 27 33 88 34 28 35
REMARK SMILES IDX 87 36 29 37 30 38 31 39 81 40 32 41 86 42 80 43 82 44 33 45
REMARK SMILES IDX 85 46 79 47 78 48 34 50 66 51 46 52 65 53 47 54 50 55 64 56
REMARK SMILES IDX 83 57 48 58 49 59 63 61 84 62 51 63 35 64 36 65 44 66 37 67
REMARK SMILES IDX 39 68 45 69 38 70 40 71 41 72 42 73 43 74 67 75 68 76 76 77
REMARK SMILES IDX 69 78 71 79 77 80 70 81 72 82 73 83 74 84 75 85 52 86 53 87
REMARK SMILES IDX 61 88 54 89 56 90 62 91 55 92 57 93 58 94 59 95 60 96
REMARK H PARENT 18 5 9 12 23 30 82 49 50 60
REMARK Flexibility Score: inf
ROOT
ATOM      1  C   UNL A   1      32.948  29.693  26.027  1.00  0.00     0.116 C 
ENDROOT
BRANCH   1   2
ATOM      2  N   UNL A   1      32.819  29.687  24.580  1.00  0.00    -0.356 N 
ATOM      3  C   UNL A   1      31.979  28.952  23.777  1.00  0.00     0.223 C 
ATOM      4  O   UNL A   1      32.040  29.157  22.560  1.00  0.00    -0.275 OA
ATOM      5  H   UNL A   1      33.423  30.301  24.104  1.00  0.00     0.163 HD
BRANCH   3   6
ATOM      6  C   UNL A   1      31.018  27.922  24.427  1.00  0.00     0.091 C 
ATOM      7  C   UNL A   1      31.545  26.454  24.598  1.00  0.00     0.091 C 
ATOM      8  C   UNL A   1      30.649  26.051  23.402  1.00  0.00     0.015 C 
ATOM      9  C   UNL A   1      29.886  27.370  23.535  1.00  0.00     0.015 C 
BRANCH   7  10
ATOM     10  C   UNL A   1      31.274  25.802  25.986  1.00  0.00     0.230 C 
ATOM     11  N   UNL A   1      31.945  24.659  26.369  1.00  0.00    -0.302 N 
ATOM     12  H   UNL A   1      31.864  24.432  27.325  1.00  0.00     0.172 HD
ATOM     13  O   UNL A   1      30.559  26.340  26.846  1.00  0.00    -0.274 OA
BRANCH  11  14
ATOM     14  C   UNL A   1      32.703  23.792  25.634  1.00  0.00     0.189 A 
ATOM     15  C   UNL A   1      33.167  22.052  24.336  1.00  0.00     0.068 A 
ATOM     16  N   UNL A   1      32.173  22.890  24.845  1.00  0.00    -0.224 NA
ATOM     17  C   UNL A   1      34.450  22.399  24.736  1.00  0.00     0.027 A 
ATOM     18  S   UNL A   1      34.396  23.882  25.588  1.00  0.00    -0.102 S 
ATOM     19  C   UNL A   1      35.758  21.704  24.582  1.00  0.00     0.058 C 
BRANCH  15  20
ATOM     20  C   UNL A   1      32.773  20.826  23.576  1.00  0.00     0.180 C 
BRANCH  20  21
ATOM     21  C   UNL A   1      32.706  19.586  24.423  1.00  0.00     0.311 C 
ATOM     22  O   UNL A   1      31.955  19.439  25.380  1.00  0.00    -0.252 OA
BRANCH  21  23
ATOM     23  O   UNL A   1      33.563  18.632  23.951  1.00  0.00    -0.469 OA
ATOM     24  C   UNL A   1      32.955  17.687  23.075  1.00  0.00     0.282 C 
ENDBRANCH  21  23
ENDBRANCH  20  21
ENDBRANCH  15  20
ENDBRANCH  11  14
ENDBRANCH   7  10
ENDBRANCH   3   6
ENDBRANCH   1   2
BRANCH   1  25
ATOM     25  C   UNL A   1      31.740  30.331  26.712  1.00  0.00     0.023 C 
BRANCH  25  26
ATOM     26  C   UNL A   1      31.713  31.860  26.636  1.00  0.00     0.023 C 
BRANCH  26  27
ATOM     27  C   UNL A   1      32.946  32.546  27.206  1.00  0.00     0.116 C 
BRANCH  27  28
ATOM     28  N   UNL A   1      32.668  33.903  27.653  1.00  0.00    -0.352 N 
ATOM     29  C   UNL A   1      33.209  34.611  28.703  1.00  0.00     0.251 C 
ATOM     30  H   UNL A   1      31.991  34.387  27.127  1.00  0.00     0.163 HD
ATOM     31  O   UNL A   1      32.718  35.683  29.028  1.00  0.00    -0.269 OA
BRANCH  29  32
ATOM     32  C   UNL A   1      34.363  34.060  29.454  1.00  0.00     0.039 A 
ATOM     33  C   UNL A   1      34.124  33.242  30.562  1.00  0.00     0.014 A 
ATOM     34  C   UNL A   1      35.674  34.340  29.066  1.00  0.00     0.014 A 
ATOM     35  C   UNL A   1      35.198  32.646  31.230  1.00  0.00     0.010 A 
ATOM     36  C   UNL A   1      36.733  33.665  29.665  1.00  0.00     0.010 A 
ATOM     37  C   UNL A   1      36.510  32.817  30.760  1.00  0.00    -0.014 A 
BRANCH  37  38
ATOM     38  C   UNL A   1      37.663  32.122  31.391  1.00  0.00     0.031 A 
ATOM     39  C   UNL A   1      38.231  32.628  32.693  1.00  0.00     0.074 A 
ATOM     40  C   UNL A   1      38.261  31.099  30.749  1.00  0.00     0.049 A 
ATOM     41  N   UNL A   1      39.280  32.211  33.352  1.00  0.00    -0.248 NA
ATOM     42  C   UNL A   1      37.549  33.773  33.320  1.00  0.00     0.031 C 
ATOM     43  C   UNL A   1      37.858  30.566  29.445  1.00  0.00     0.029 A 
ATOM     44  N   UNL A   1      39.354  30.341  31.091  1.00  0.00    -0.354 N 
ATOM     45  C   UNL A   1      39.409  33.063  34.442  1.00  0.00     0.074 A 
ATOM     46  C   UNL A   1      38.354  34.047  34.336  1.00  0.00     0.031 C 
ATOM     47  C   UNL A   1      38.685  29.565  29.103  1.00  0.00     0.029 A 
ATOM     48  C   UNL A   1      39.699  29.408  30.140  1.00  0.00     0.049 A 
ATOM     49  H   UNL A   1      39.845  30.455  31.937  1.00  0.00     0.167 HD
ATOM     50  C   UNL A   1      40.303  33.016  35.459  1.00  0.00     0.034 A 
ATOM     51  C   UNL A   1      40.725  28.535  30.100  1.00  0.00     0.034 A 
ATOM     52  C   UNL A   1      41.320  32.008  35.586  1.00  0.00     0.049 A 
ATOM     53  C   UNL A   1      41.687  28.483  31.255  1.00  0.00     0.074 A 
ATOM     54  C   UNL A   1      42.212  31.816  36.625  1.00  0.00     0.029 A 
ATOM     55  N   UNL A   1      41.590  31.031  34.641  1.00  0.00    -0.354 N 
ATOM     56  N   UNL A   1      41.694  29.197  32.355  1.00  0.00    -0.248 NA
ATOM     57  C   UNL A   1      42.764  27.484  31.180  1.00  0.00     0.031 C 
ATOM     58  C   UNL A   1      43.043  30.741  36.293  1.00  0.00     0.029 A 
ATOM     59  C   UNL A   1      42.645  30.242  35.064  1.00  0.00     0.049 A 
ATOM     60  H   UNL A   1      41.101  30.915  33.794  1.00  0.00     0.167 HD
ATOM     61  C   UNL A   1      42.752  28.713  33.116  1.00  0.00     0.074 A 
ATOM     62  C   UNL A   1      43.348  27.631  32.362  1.00  0.00     0.031 C 
ATOM     63  C   UNL A   1      43.199  29.137  34.324  1.00  0.00     0.034 A 
BRANCH  50  64
ATOM     64  C   UNL A   1      40.188  34.056  36.543  1.00  0.00     0.023 A 
ATOM     65  C   UNL A   1      40.584  35.384  36.281  1.00  0.00     0.012 A 
ATOM     66  C   UNL A   1      39.640  33.735  37.800  1.00  0.00     0.148 A 
ATOM     67  C   UNL A   1      40.470  36.368  37.263  1.00  0.00     0.002 A 
ATOM     68  C   UNL A   1      39.484  34.731  38.758  1.00  0.00     0.091 A 
ATOM     69  F   UNL A   1      39.288  32.464  38.039  1.00  0.00    -0.205 F 
ATOM     70  C   UNL A   1      39.911  36.043  38.496  1.00  0.00     0.022 A 
BRANCH  68  71
ATOM     71  S   UNL A   1      38.702  34.436  40.348  1.00  0.00     0.127 S 
ATOM     72  O   UNL A   1      37.499  33.705  39.952  1.00  0.00    -0.237 OA
ATOM     73  O   UNL A   1      39.707  33.627  41.039  1.00  0.00    -0.237 OA
ATOM     74  O   UNL A   1      38.470  35.749  40.932  1.00  0.00    -0.744 OA
ENDBRANCH  68  71
ENDBRANCH  50  64
BRANCH  51  75
ATOM     75  C   UNL A   1      40.865  27.601  28.945  1.00  0.00     0.023 A 
ATOM     76  C   UNL A   1      40.046  26.458  28.874  1.00  0.00     0.012 A 
ATOM     77  C   UNL A   1      41.785  27.852  27.909  1.00  0.00     0.148 A 
ATOM     78  C   UNL A   1      40.163  25.563  27.809  1.00  0.00     0.002 A 
ATOM     79  C   UNL A   1      41.857  26.988  26.822  1.00  0.00     0.091 A 
ATOM     80  F   UNL A   1      42.564  28.940  28.000  1.00  0.00    -0.205 F 
ATOM     81  C   UNL A   1      41.060  25.834  26.779  1.00  0.00     0.022 A 
BRANCH  79  82
ATOM     82  S   UNL A   1      42.883  27.329  25.388  1.00  0.00     0.127 S 
ATOM     83  O   UNL A   1      42.793  26.073  24.650  1.00  0.00    -0.237 OA
ATOM     84  O   UNL A   1      42.181  28.458  24.777  1.00  0.00    -0.237 OA
ATOM     85  O   UNL A   1      44.200  27.659  25.918  1.00  0.00    -0.744 OA
ENDBRANCH  79  82
ENDBRANCH  51  75
BRANCH  63  86
ATOM     86  C   UNL A   1      44.371  28.413  34.932  1.00  0.00     0.023 A 
ATOM     87  C   UNL A   1      45.680  28.878  34.701  1.00  0.00     0.012 A 
ATOM     88  C   UNL A   1      44.167  27.321  35.799  1.00  0.00     0.148 A 
ATOM     89  C   UNL A   1      46.772  28.250  35.300  1.00  0.00     0.002 A 
ATOM     90  C   UNL A   1      45.254  26.732  36.433  1.00  0.00     0.091 A 
ATOM     91  F   UNL A   1      42.914  26.884  35.992  1.00  0.00    -0.205 F 
ATOM     92  C   UNL A   1      46.558  27.187  36.174  1.00  0.00     0.022 A 
BRANCH  90  93
ATOM     93  S   UNL A   1      45.070  25.425  37.649  1.00  0.00     0.127 S 
ATOM     94  O   UNL A   1      44.132  26.026  38.595  1.00  0.00    -0.237 OA
ATOM     95  O   UNL A   1      44.514  24.334  36.849  1.00  0.00    -0.237 OA
ATOM     96  O   UNL A   1      46.406  25.171  38.174  1.00  0.00    -0.744 OA
ENDBRANCH  90  93
ENDBRANCH  63  86
ENDBRANCH  37  38
ENDBRANCH  29  32
ENDBRANCH  27  28
ENDBRANCH  26  27
ENDBRANCH  25  26
ENDBRANCH   1  25
TORSDOF 19
ENDMDL
