MODEL 1
REMARK VINA RESULT:     -13.3      0.000      0.000
REMARK SMILES CS(=O)(=O)Nc1ccc(-c2cc(Cl)cc3c2O[C@H](C(F)(F)F)C(C(=O)NCCCCNC(=O)c2ccc(-c4c5nc(c(-c6cccc(S(=O)(=O)[O-])c6F)c6ccc([nH]6)c(-c6cccc(S(=O)(=O)[O-])c6F)c6nc(c(-c7cccc(S(=O)(=O)[O-])c7F)c7ccc4[nH]7)C=C6)C=C5)cc2)=C3)cc1
REMARK SMILES IDX 28 1 27 2 26 3 24 4 25 5 23 7 10 8 11 9 16 10 12 11 15 12
REMARK SMILES IDX 17 13 13 14 14 15 97 16 18 17 9 18 6 19 7 20 99 21 8 22
REMARK SMILES IDX 98 23 5 24 2 26 1 27 3 28 4 29 19 30 20 31 21 32 22 33 29 34
REMARK SMILES IDX 30 35 31 36 32 37 33 39 34 40 35 41 96 42 36 43 95 44 37 45
REMARK SMILES IDX 38 46 39 47 89 48 40 49 94 50 88 51 90 52 41 53 93 54 87 55
REMARK SMILES IDX 86 56 42 58 74 59 54 60 73 61 55 62 58 63 72 64 91 65 56 66
REMARK SMILES IDX 57 67 71 69 92 70 59 71 43 72 44 73 52 74 45 75 47 76 53 77
REMARK SMILES IDX 46 78 48 79 49 80 50 81 51 82 75 83 76 84 84 85 77 86 79 87
REMARK SMILES IDX 85 88 78 89 80 90 81 91 82 92 83 93 60 94 61 95 69 96 62 97
REMARK SMILES IDX 64 98 70 99 63 100 65 101 66 102 67 103 68 104
REMARK H PARENT 26 6 5 25 31 38 90 57 58 68
REMARK Flexibility Score: inf
ROOT
ATOM      1  C   UNL A   1      31.552  30.464  26.176  1.00  0.00     0.023 C 
ENDROOT
BRANCH   1   2
ATOM      2  C   UNL A   1      32.955  29.997  25.765  1.00  0.00     0.116 C 
BRANCH   2   3
ATOM      3  N   UNL A   1      33.214  28.687  26.321  1.00  0.00    -0.352 N 
ATOM      4  C   UNL A   1      32.612  27.508  26.041  1.00  0.00     0.251 C 
ATOM      5  O   UNL A   1      32.487  26.681  26.938  1.00  0.00    -0.270 OA
ATOM      6  H   UNL A   1      33.930  28.646  26.997  1.00  0.00     0.163 HD
BRANCH   4   7
ATOM      7  C   UNL A   1      32.226  27.223  24.624  1.00  0.00     0.067 C 
ATOM      8  C   UNL A   1      32.919  23.207  24.593  1.00  0.00     0.026 A 
ATOM      9  C   UNL A   1      34.179  23.013  25.222  1.00  0.00     0.033 A 
ATOM     10  C   UNL A   1      32.609  24.530  24.230  1.00  0.00     0.135 A 
ATOM     11  C   UNL A   1      35.136  24.019  25.324  1.00  0.00     0.042 A 
ATOM     12  C   UNL A   1      33.638  25.505  24.228  1.00  0.00     0.019 A 
ATOM     13  O   UNL A   1      31.321  24.956  23.932  1.00  0.00    -0.475 OA
ATOM     14  Cl  UNL A   1      36.620  23.703  26.131  1.00  0.00    -0.084 Cl
ATOM     15  C   UNL A   1      34.902  25.252  24.754  1.00  0.00     0.032 A 
ATOM     16  C   UNL A   1      33.280  26.891  23.853  1.00  0.00     0.025 C 
ATOM     17  C   UNL A   1      31.006  26.322  24.464  1.00  0.00     0.314 C 
BRANCH   8  18
ATOM     18  C   UNL A   1      32.222  21.942  24.220  1.00  0.00    -0.014 A 
ATOM     19  C   UNL A   1      32.266  19.218  23.377  1.00  0.00     0.048 A 
ATOM     20  C   UNL A   1      32.196  19.548  24.733  1.00  0.00     0.027 A 
ATOM     21  C   UNL A   1      32.130  20.244  22.445  1.00  0.00     0.027 A 
ATOM     22  C   UNL A   1      32.137  20.887  25.149  1.00  0.00     0.011 A 
ATOM     23  C   UNL A   1      32.101  21.594  22.862  1.00  0.00     0.011 A 
BRANCH  19  24
ATOM     24  N   UNL A   1      32.667  17.885  23.071  1.00  0.00    -0.284 N 
ATOM     25  H   UNL A   1      32.117  17.408  22.409  1.00  0.00     0.180 HD
BRANCH  24  26
ATOM     26  S   UNL A   1      33.952  17.039  23.696  1.00  0.00     0.229 S 
ATOM     27  C   UNL A   1      33.234  16.064  25.010  1.00  0.00     0.183 C 
ATOM     28  O   UNL A   1      34.916  17.957  24.261  1.00  0.00    -0.207 OA
ATOM     29  O   UNL A   1      34.333  16.114  22.650  1.00  0.00    -0.207 OA
ENDBRANCH  24  26
ENDBRANCH  19  24
ENDBRANCH   8  18
BRANCH  17  30
ATOM     30  C   UNL A   1      29.981  27.057  23.570  1.00  0.00     0.429 C 
ATOM     31  F   UNL A   1      29.793  28.344  23.941  1.00  0.00    -0.167 F 
ATOM     32  F   UNL A   1      30.372  27.058  22.272  1.00  0.00    -0.167 F 
ATOM     33  F   UNL A   1      28.754  26.470  23.592  1.00  0.00    -0.167 F 
ENDBRANCH  17  30
ENDBRANCH   4   7
ENDBRANCH   2   3
ENDBRANCH   1   2
BRANCH   1  34
ATOM     34  C   UNL A   1      31.440  31.949  26.553  1.00  0.00     0.023 C 
BRANCH  34  35
ATOM     35  C   UNL A   1      32.641  32.518  27.297  1.00  0.00     0.116 C 
BRANCH  35  36
ATOM     36  N   UNL A   1      32.468  33.927  27.610  1.00  0.00    -0.352 N 
ATOM     37  C   UNL A   1      33.081  34.682  28.579  1.00  0.00     0.251 C 
ATOM     38  H   UNL A   1      31.819  34.408  27.047  1.00  0.00     0.163 HD
ATOM     39  O   UNL A   1      32.662  35.809  28.826  1.00  0.00    -0.269 OA
BRANCH  37  40
ATOM     40  C   UNL A   1      34.229  34.132  29.335  1.00  0.00     0.039 A 
ATOM     41  C   UNL A   1      33.982  33.393  30.495  1.00  0.00     0.014 A 
ATOM     42  C   UNL A   1      35.542  34.351  28.911  1.00  0.00     0.014 A 
ATOM     43  C   UNL A   1      35.051  32.833  31.200  1.00  0.00     0.010 A 
ATOM     44  C   UNL A   1      36.598  33.723  29.568  1.00  0.00     0.010 A 
ATOM     45  C   UNL A   1      36.367  32.969  30.727  1.00  0.00    -0.014 A 
BRANCH  45  46
ATOM     46  C   UNL A   1      37.508  32.331  31.438  1.00  0.00     0.031 A 
ATOM     47  C   UNL A   1      38.263  31.193  30.803  1.00  0.00     0.074 A 
ATOM     48  C   UNL A   1      37.824  32.734  32.685  1.00  0.00     0.049 A 
ATOM     49  N   UNL A   1      39.270  30.506  31.278  1.00  0.00    -0.248 NA
ATOM     50  C   UNL A   1      37.813  30.750  29.473  1.00  0.00     0.031 C 
ATOM     51  C   UNL A   1      37.118  33.768  33.446  1.00  0.00     0.029 A 
ATOM     52  N   UNL A   1      38.809  32.308  33.542  1.00  0.00    -0.354 N 
ATOM     53  C   UNL A   1      39.552  29.534  30.326  1.00  0.00     0.074 A 
ATOM     54  C   UNL A   1      38.583  29.693  29.264  1.00  0.00     0.031 C 
ATOM     55  C   UNL A   1      37.700  33.904  34.649  1.00  0.00     0.029 A 
ATOM     56  C   UNL A   1      38.798  32.949  34.759  1.00  0.00     0.049 A 
ATOM     57  H   UNL A   1      39.460  31.607  33.309  1.00  0.00     0.167 HD
ATOM     58  C   UNL A   1      40.544  28.611  30.317  1.00  0.00     0.034 A 
ATOM     59  C   UNL A   1      39.583  32.788  35.843  1.00  0.00     0.034 A 
ATOM     60  C   UNL A   1      41.529  28.479  31.357  1.00  0.00     0.049 A 
ATOM     61  C   UNL A   1      40.705  31.786  35.790  1.00  0.00     0.074 A 
ATOM     62  C   UNL A   1      42.623  27.632  31.402  1.00  0.00     0.029 A 
ATOM     63  N   UNL A   1      41.537  29.205  32.538  1.00  0.00    -0.354 N 
ATOM     64  N   UNL A   1      41.051  30.984  34.812  1.00  0.00    -0.248 NA
ATOM     65  C   UNL A   1      41.570  31.696  36.974  1.00  0.00     0.031 C 
ATOM     66  C   UNL A   1      43.275  27.826  32.624  1.00  0.00     0.029 A 
ATOM     67  C   UNL A   1      42.610  28.821  33.323  1.00  0.00     0.049 A 
ATOM     68  H   UNL A   1      40.875  29.892  32.782  1.00  0.00     0.167 HD
ATOM     69  C   UNL A   1      42.197  30.326  35.246  1.00  0.00     0.074 A 
ATOM     70  C   UNL A   1      42.497  30.840  36.567  1.00  0.00     0.031 C 
ATOM     71  C   UNL A   1      42.928  29.374  34.614  1.00  0.00     0.034 A 
BRANCH  58  72
ATOM     72  C   UNL A   1      40.643  27.701  29.119  1.00  0.00     0.023 A 
ATOM     73  C   UNL A   1      39.799  26.574  29.026  1.00  0.00     0.012 A 
ATOM     74  C   UNL A   1      41.530  27.987  28.062  1.00  0.00     0.148 A 
ATOM     75  C   UNL A   1      39.865  25.725  27.922  1.00  0.00     0.002 A 
ATOM     76  C   UNL A   1      41.554  27.163  26.942  1.00  0.00     0.091 A 
ATOM     77  F   UNL A   1      42.337  29.050  28.175  1.00  0.00    -0.205 F 
ATOM     78  C   UNL A   1      40.732  26.026  26.877  1.00  0.00     0.022 A 
BRANCH  76  79
ATOM     79  S   UNL A   1      42.575  27.508  25.506  1.00  0.00     0.127 S 
ATOM     80  O   UNL A   1      43.907  27.588  26.103  1.00  0.00    -0.237 OA
ATOM     81  O   UNL A   1      42.349  26.324  24.677  1.00  0.00    -0.237 OA
ATOM     82  O   UNL A   1      42.069  28.752  24.941  1.00  0.00    -0.744 OA
ENDBRANCH  76  79
ENDBRANCH  58  72
BRANCH  59  83
ATOM     83  C   UNL A   1      39.381  33.643  37.047  1.00  0.00     0.023 A 
ATOM     84  C   UNL A   1      39.822  34.981  37.031  1.00  0.00     0.012 A 
ATOM     85  C   UNL A   1      38.743  33.145  38.199  1.00  0.00     0.148 A 
ATOM     86  C   UNL A   1      39.667  35.795  38.153  1.00  0.00     0.002 A 
ATOM     87  C   UNL A   1      38.540  33.979  39.293  1.00  0.00     0.091 A 
ATOM     88  F   UNL A   1      38.338  31.867  38.198  1.00  0.00    -0.205 F 
ATOM     89  C   UNL A   1      39.019  35.297  39.280  1.00  0.00     0.022 A 
BRANCH  87  90
ATOM     90  S   UNL A   1      37.600  33.465  40.735  1.00  0.00     0.127 S 
ATOM     91  O   UNL A   1      37.658  34.660  41.571  1.00  0.00    -0.237 OA
ATOM     92  O   UNL A   1      36.289  33.180  40.152  1.00  0.00    -0.237 OA
ATOM     93  O   UNL A   1      38.292  32.294  41.258  1.00  0.00    -0.744 OA
ENDBRANCH  87  90
ENDBRANCH  59  83
BRANCH  71  94
ATOM     94  C   UNL A   1      44.158  28.858  35.316  1.00  0.00     0.023 A 
ATOM     95  C   UNL A   1      45.417  29.435  35.056  1.00  0.00     0.012 A 
ATOM     96  C   UNL A   1      44.054  27.834  36.279  1.00  0.00     0.148 A 
ATOM     97  C   UNL A   1      46.558  28.972  35.708  1.00  0.00     0.002 A 
ATOM     98  C   UNL A   1      45.187  27.415  36.966  1.00  0.00     0.091 A 
ATOM     99  F   UNL A   1      42.851  27.284  36.501  1.00  0.00    -0.205 F 
ATOM    100  C   UNL A   1      46.441  27.971  36.671  1.00  0.00     0.022 A 
BRANCH  98 101
ATOM    101  S   UNL A   1      45.113  26.205  38.291  1.00  0.00     0.127 S 
ATOM    102  O   UNL A   1      46.514  26.129  38.703  1.00  0.00    -0.237 OA
ATOM    103  O   UNL A   1      44.228  26.856  39.256  1.00  0.00    -0.237 OA
ATOM    104  O   UNL A   1      44.569  24.992  37.696  1.00  0.00    -0.744 OA
ENDBRANCH  98 101
ENDBRANCH  71  94
ENDBRANCH  45  46
ENDBRANCH  37  40
ENDBRANCH  35  36
ENDBRANCH  34  35
ENDBRANCH   1  34
TORSDOF 18
ENDMDL
MODEL 2
REMARK VINA RESULT:     -12.9      1.230      7.336
REMARK SMILES CS(=O)(=O)Nc1ccc(-c2cc(Cl)cc3c2O[C@H](C(F)(F)F)C(C(=O)NCCCCNC(=O)c2ccc(-c4c5nc(c(-c6cccc(S(=O)(=O)[O-])c6F)c6ccc([nH]6)c(-c6cccc(S(=O)(=O)[O-])c6F)c6nc(c(-c7cccc(S(=O)(=O)[O-])c7F)c7ccc4[nH]7)C=C6)C=C5)cc2)=C3)cc1
REMARK SMILES IDX 28 1 27 2 26 3 24 4 25 5 23 7 10 8 11 9 16 10 12 11 15 12
REMARK SMILES IDX 17 13 13 14 14 15 97 16 18 17 9 18 6 19 7 20 99 21 8 22
REMARK SMILES IDX 98 23 5 24 2 26 1 27 3 28 4 29 19 30 20 31 21 32 22 33 29 34
REMARK SMILES IDX 30 35 31 36 32 37 33 39 34 40 35 41 96 42 36 43 95 44 37 45
REMARK SMILES IDX 38 46 39 47 89 48 40 49 94 50 88 51 90 52 41 53 93 54 87 55
REMARK SMILES IDX 86 56 42 58 74 59 54 60 73 61 55 62 58 63 72 64 91 65 56 66
REMARK SMILES IDX 57 67 71 69 92 70 59 71 43 72 44 73 52 74 45 75 47 76 53 77
REMARK SMILES IDX 46 78 48 79 49 80 50 81 51 82 75 83 76 84 84 85 77 86 79 87
REMARK SMILES IDX 85 88 78 89 80 90 81 91 82 92 83 93 60 94 61 95 69 96 62 97
REMARK SMILES IDX 64 98 70 99 63 100 65 101 66 102 67 103 68 104
REMARK H PARENT 26 6 5 25 31 38 90 57 58 68
REMARK Flexibility Score: inf
ROOT
ATOM      1  C   UNL A   1      31.530  30.408  26.202  1.00  0.00     0.023 C 
ENDROOT
BRANCH   1   2
ATOM      2  C   UNL A   1      32.889  29.898  25.702  1.00  0.00     0.116 C 
BRANCH   2   3
ATOM      3  N   UNL A   1      33.159  28.595  26.270  1.00  0.00    -0.352 N 
ATOM      4  C   UNL A   1      32.572  27.407  25.994  1.00  0.00     0.251 C 
ATOM      5  O   UNL A   1      32.450  26.585  26.896  1.00  0.00    -0.270 OA
ATOM      6  H   UNL A   1      33.869  28.568  26.952  1.00  0.00     0.163 HD
BRANCH   4   7
ATOM      7  C   UNL A   1      32.200  27.107  24.577  1.00  0.00     0.067 C 
ATOM      8  C   UNL A   1      32.922  23.097  24.585  1.00  0.00     0.026 A 
ATOM      9  C   UNL A   1      34.178  22.917  25.227  1.00  0.00     0.033 A 
ATOM     10  C   UNL A   1      32.606  24.414  24.208  1.00  0.00     0.135 A 
ATOM     11  C   UNL A   1      35.128  23.930  25.329  1.00  0.00     0.042 A 
ATOM     12  C   UNL A   1      33.629  25.397  24.207  1.00  0.00     0.019 A 
ATOM     13  O   UNL A   1      31.318  24.829  23.896  1.00  0.00    -0.475 OA
ATOM     14  Cl  UNL A   1      36.606  23.632  26.152  1.00  0.00    -0.084 Cl
ATOM     15  C   UNL A   1      34.890  25.158  24.747  1.00  0.00     0.032 A 
ATOM     16  C   UNL A   1      33.264  26.777  23.818  1.00  0.00     0.025 C 
ATOM     17  C   UNL A   1      30.989  26.196  24.413  1.00  0.00     0.314 C 
BRANCH   8  18
ATOM     18  C   UNL A   1      32.238  21.823  24.217  1.00  0.00    -0.014 A 
ATOM     19  C   UNL A   1      32.309  19.090  23.408  1.00  0.00     0.048 A 
ATOM     20  C   UNL A   1      32.216  19.436  24.758  1.00  0.00     0.027 A 
ATOM     21  C   UNL A   1      32.183  20.104  22.461  1.00  0.00     0.027 A 
ATOM     22  C   UNL A   1      32.144  20.780  25.158  1.00  0.00     0.011 A 
ATOM     23  C   UNL A   1      32.140  21.458  22.861  1.00  0.00     0.011 A 
BRANCH  19  24
ATOM     24  N   UNL A   1      32.722  17.756  23.124  1.00  0.00    -0.284 N 
ATOM     25  H   UNL A   1      32.168  17.258  22.480  1.00  0.00     0.180 HD
BRANCH  24  26
ATOM     26  S   UNL A   1      34.024  16.937  23.750  1.00  0.00     0.229 S 
ATOM     27  C   UNL A   1      33.331  15.964  25.078  1.00  0.00     0.183 C 
ATOM     28  O   UNL A   1      34.977  17.878  24.299  1.00  0.00    -0.207 OA
ATOM     29  O   UNL A   1      34.415  16.009  22.710  1.00  0.00    -0.207 OA
ENDBRANCH  24  26
ENDBRANCH  19  24
ENDBRANCH   8  18
BRANCH  17  30
ATOM     30  C   UNL A   1      29.966  26.916  23.504  1.00  0.00     0.429 C 
ATOM     31  F   UNL A   1      28.739  26.351  23.550  1.00  0.00    -0.167 F 
ATOM     32  F   UNL A   1      29.830  28.219  23.853  1.00  0.00    -0.167 F 
ATOM     33  F   UNL A   1      30.339  26.915  22.197  1.00  0.00    -0.167 F 
ENDBRANCH  17  30
ENDBRANCH   4   7
ENDBRANCH   2   3
ENDBRANCH   1   2
BRANCH   1  34
ATOM     34  C   UNL A   1      31.467  31.911  26.512  1.00  0.00     0.023 C 
BRANCH  34  35
ATOM     35  C   UNL A   1      32.764  32.516  27.034  1.00  0.00     0.116 C 
BRANCH  35  36
ATOM     36  N   UNL A   1      32.567  33.863  27.545  1.00  0.00    -0.352 N 
ATOM     37  C   UNL A   1      33.188  34.491  28.597  1.00  0.00     0.251 C 
ATOM     38  H   UNL A   1      31.892  34.401  27.070  1.00  0.00     0.163 HD
ATOM     39  O   UNL A   1      32.749  35.562  29.008  1.00  0.00    -0.269 OA
BRANCH  37  40
ATOM     40  C   UNL A   1      34.367  33.872  29.242  1.00  0.00     0.039 A 
ATOM     41  C   UNL A   1      34.168  32.856  30.179  1.00  0.00     0.014 A 
ATOM     42  C   UNL A   1      35.662  34.296  28.933  1.00  0.00     0.014 A 
ATOM     43  C   UNL A   1      35.271  32.232  30.770  1.00  0.00     0.010 A 
ATOM     44  C   UNL A   1      36.759  33.618  29.460  1.00  0.00     0.010 A 
ATOM     45  C   UNL A   1      36.577  32.588  30.395  1.00  0.00    -0.014 A 
BRANCH  45  46
ATOM     46  C   UNL A   1      37.759  31.895  30.975  1.00  0.00     0.031 A 
ATOM     47  C   UNL A   1      38.189  32.175  32.391  1.00  0.00     0.074 A 
ATOM     48  C   UNL A   1      38.484  31.059  30.205  1.00  0.00     0.049 A 
ATOM     49  N   UNL A   1      39.200  31.680  33.059  1.00  0.00    -0.248 NA
ATOM     50  C   UNL A   1      37.400  33.160  33.149  1.00  0.00     0.031 C 
ATOM     51  C   UNL A   1      38.224  30.766  28.795  1.00  0.00     0.029 A 
ATOM     52  N   UNL A   1      39.603  30.317  30.496  1.00  0.00    -0.354 N 
ATOM     53  C   UNL A   1      39.187  32.313  34.296  1.00  0.00     0.074 A 
ATOM     54  C   UNL A   1      38.094  33.260  34.272  1.00  0.00     0.031 C 
ATOM     55  C   UNL A   1      39.146  29.898  28.347  1.00  0.00     0.029 A 
ATOM     56  C   UNL A   1      40.081  29.596  29.427  1.00  0.00     0.049 A 
ATOM     57  H   UNL A   1      40.023  30.303  31.386  1.00  0.00     0.167 HD
ATOM     58  C   UNL A   1      39.991  32.107  35.367  1.00  0.00     0.034 A 
ATOM     59  C   UNL A   1      41.152  28.783  29.324  1.00  0.00     0.034 A 
ATOM     60  C   UNL A   1      41.054  31.139  35.401  1.00  0.00     0.049 A 
ATOM     61  C   UNL A   1      42.002  28.539  30.542  1.00  0.00     0.074 A 
ATOM     62  C   UNL A   1      41.870  30.795  36.465  1.00  0.00     0.029 A 
ATOM     63  N   UNL A   1      41.456  30.366  34.323  1.00  0.00    -0.354 N 
ATOM     64  N   UNL A   1      41.876  29.031  31.751  1.00  0.00    -0.248 NA
ATOM     65  C   UNL A   1      43.119  27.595  30.392  1.00  0.00     0.031 C 
ATOM     66  C   UNL A   1      42.785  29.836  36.020  1.00  0.00     0.029 A 
ATOM     67  C   UNL A   1      42.514  29.552  34.691  1.00  0.00     0.049 A 
ATOM     68  H   UNL A   1      41.049  30.392  33.426  1.00  0.00     0.167 HD
ATOM     69  C   UNL A   1      42.868  28.425  32.514  1.00  0.00     0.074 A 
ATOM     70  C   UNL A   1      43.572  27.515  31.635  1.00  0.00     0.031 C 
ATOM     71  C   UNL A   1      43.175  28.613  33.822  1.00  0.00     0.034 A 
BRANCH  58  72
ATOM     72  C   UNL A   1      39.718  32.913  36.612  1.00  0.00     0.023 A 
ATOM     73  C   UNL A   1      40.358  34.157  36.793  1.00  0.00     0.012 A 
ATOM     74  C   UNL A   1      38.792  32.468  37.576  1.00  0.00     0.148 A 
ATOM     75  C   UNL A   1      40.111  34.925  37.930  1.00  0.00     0.002 A 
ATOM     76  C   UNL A   1      38.515  33.263  38.683  1.00  0.00     0.091 A 
ATOM     77  F   UNL A   1      38.208  31.275  37.398  1.00  0.00    -0.205 F 
ATOM     78  C   UNL A   1      39.183  34.484  38.867  1.00  0.00     0.022 A 
BRANCH  76  79
ATOM     79  S   UNL A   1      37.276  32.824  39.906  1.00  0.00     0.127 S 
ATOM     80  O   UNL A   1      36.100  32.597  39.067  1.00  0.00    -0.237 OA
ATOM     81  O   UNL A   1      37.844  31.613  40.498  1.00  0.00    -0.237 OA
ATOM     82  O   UNL A   1      37.184  33.961  40.813  1.00  0.00    -0.744 OA
ENDBRANCH  76  79
ENDBRANCH  58  72
BRANCH  59  83
ATOM     83  C   UNL A   1      41.442  28.086  28.039  1.00  0.00     0.023 A 
ATOM     84  C   UNL A   1      41.879  28.833  26.928  1.00  0.00     0.012 A 
ATOM     85  C   UNL A   1      41.302  26.691  27.916  1.00  0.00     0.148 A 
ATOM     86  C   UNL A   1      42.135  28.209  25.707  1.00  0.00     0.002 A 
ATOM     87  C   UNL A   1      41.613  26.068  26.713  1.00  0.00     0.091 A 
ATOM     88  F   UNL A   1      40.876  25.998  28.982  1.00  0.00    -0.205 F 
ATOM     89  C   UNL A   1      42.010  26.826  25.602  1.00  0.00     0.022 A 
BRANCH  87  90
ATOM     90  S   UNL A   1      41.608  24.281  26.523  1.00  0.00     0.127 S 
ATOM     91  O   UNL A   1      40.185  24.002  26.357  1.00  0.00    -0.237 OA
ATOM     92  O   UNL A   1      42.418  24.106  25.317  1.00  0.00    -0.237 OA
ATOM     93  O   UNL A   1      42.218  23.755  27.737  1.00  0.00    -0.744 OA
ENDBRANCH  87  90
ENDBRANCH  59  83
BRANCH  71  94
ATOM     94  C   UNL A   1      44.291  27.784  34.403  1.00  0.00     0.023 A 
ATOM     95  C   UNL A   1      45.622  28.242  34.335  1.00  0.00     0.012 A 
ATOM     96  C   UNL A   1      44.011  26.574  35.067  1.00  0.00     0.148 A 
ATOM     97  C   UNL A   1      46.661  27.488  34.880  1.00  0.00     0.002 A 
ATOM     98  C   UNL A   1      45.044  25.854  35.656  1.00  0.00     0.091 A 
ATOM     99  F   UNL A   1      42.741  26.144  35.106  1.00  0.00    -0.205 F 
ATOM    100  C   UNL A   1      46.370  26.300  35.550  1.00  0.00     0.022 A 
BRANCH  98 101
ATOM    101  S   UNL A   1      44.750  24.369  36.623  1.00  0.00     0.127 S 
ATOM    102  O   UNL A   1      43.854  24.866  37.667  1.00  0.00    -0.237 OA
ATOM    103  O   UNL A   1      44.115  23.484  35.647  1.00  0.00    -0.237 OA
ATOM    104  O   UNL A   1      46.058  23.923  37.080  1.00  0.00    -0.744 OA
ENDBRANCH  98 101
ENDBRANCH  71  94
ENDBRANCH  45  46
ENDBRANCH  37  40
ENDBRANCH  35  36
ENDBRANCH  34  35
ENDBRANCH   1  34
TORSDOF 18
ENDMDL
MODEL 3
REMARK VINA RESULT:     -11.6      1.898      2.509
REMARK SMILES CS(=O)(=O)Nc1ccc(-c2cc(Cl)cc3c2O[C@H](C(F)(F)F)C(C(=O)NCCCCNC(=O)c2ccc(-c4c5nc(c(-c6cccc(S(=O)(=O)[O-])c6F)c6ccc([nH]6)c(-c6cccc(S(=O)(=O)[O-])c6F)c6nc(c(-c7cccc(S(=O)(=O)[O-])c7F)c7ccc4[nH]7)C=C6)C=C5)cc2)=C3)cc1
REMARK SMILES IDX 28 1 27 2 26 3 24 4 25 5 23 7 10 8 11 9 16 10 12 11 15 12
REMARK SMILES IDX 17 13 13 14 14 15 97 16 18 17 9 18 6 19 7 20 99 21 8 22
REMARK SMILES IDX 98 23 5 24 2 26 1 27 3 28 4 29 19 30 20 31 21 32 22 33 29 34
REMARK SMILES IDX 30 35 31 36 32 37 33 39 34 40 35 41 96 42 36 43 95 44 37 45
REMARK SMILES IDX 38 46 39 47 89 48 40 49 94 50 88 51 90 52 41 53 93 54 87 55
REMARK SMILES IDX 86 56 42 58 74 59 54 60 73 61 55 62 58 63 72 64 91 65 56 66
REMARK SMILES IDX 57 67 71 69 92 70 59 71 43 72 44 73 52 74 45 75 47 76 53 77
REMARK SMILES IDX 46 78 48 79 49 80 50 81 51 82 75 83 76 84 84 85 77 86 79 87
REMARK SMILES IDX 85 88 78 89 80 90 81 91 82 92 83 93 60 94 61 95 69 96 62 97
REMARK SMILES IDX 64 98 70 99 63 100 65 101 66 102 67 103 68 104
REMARK H PARENT 26 6 5 25 31 38 90 57 58 68
REMARK Flexibility Score: inf
ROOT
ATOM      1  C   UNL A   1      33.842  30.382  27.091  1.00  0.00     0.023 C 
ENDROOT
BRANCH   1   2
ATOM      2  C   UNL A   1      34.248  29.270  26.115  1.00  0.00     0.116 C 
BRANCH   2   3
ATOM      3  N   UNL A   1      33.691  29.543  24.807  1.00  0.00    -0.352 N 
ATOM      4  C   UNL A   1      32.799  28.819  24.094  1.00  0.00     0.251 C 
ATOM      5  O   UNL A   1      32.885  28.815  22.870  1.00  0.00    -0.270 OA
ATOM      6  H   UNL A   1      34.005  30.372  24.377  1.00  0.00     0.163 HD
BRANCH   4   7
ATOM      7  C   UNL A   1      31.680  28.146  24.822  1.00  0.00     0.067 C 
ATOM      8  C   UNL A   1      32.600  24.278  23.930  1.00  0.00     0.026 A 
ATOM      9  C   UNL A   1      32.895  24.247  22.539  1.00  0.00     0.033 A 
ATOM     10  C   UNL A   1      31.975  25.446  24.401  1.00  0.00     0.135 A 
ATOM     11  C   UNL A   1      32.447  25.219  21.649  1.00  0.00     0.042 A 
ATOM     12  C   UNL A   1      31.420  26.358  23.467  1.00  0.00     0.019 A 
ATOM     13  O   UNL A   1      31.927  25.796  25.744  1.00  0.00    -0.475 OA
ATOM     14  Cl  UNL A   1      32.880  25.118  19.989  1.00  0.00    -0.084 Cl
ATOM     15  C   UNL A   1      31.636  26.241  22.096  1.00  0.00     0.032 A 
ATOM     16  C   UNL A   1      30.780  27.584  23.991  1.00  0.00     0.025 C 
ATOM     17  C   UNL A   1      32.115  27.263  25.986  1.00  0.00     0.314 C 
BRANCH   8  18
ATOM     18  C   UNL A   1      32.802  22.974  24.626  1.00  0.00    -0.014 A 
ATOM     19  C   UNL A   1      33.520  20.214  24.605  1.00  0.00     0.048 A 
ATOM     20  C   UNL A   1      34.462  21.198  24.918  1.00  0.00     0.027 A 
ATOM     21  C   UNL A   1      32.187  20.599  24.483  1.00  0.00     0.027 A 
ATOM     22  C   UNL A   1      34.103  22.554  24.964  1.00  0.00     0.011 A 
ATOM     23  C   UNL A   1      31.829  21.965  24.500  1.00  0.00     0.011 A 
BRANCH  19  24
ATOM     24  N   UNL A   1      34.037  18.936  24.244  1.00  0.00    -0.284 N 
ATOM     25  H   UNL A   1      35.008  18.890  24.086  1.00  0.00     0.180 HD
BRANCH  24  26
ATOM     26  S   UNL A   1      33.201  17.513  24.058  1.00  0.00     0.229 S 
ATOM     27  C   UNL A   1      34.352  16.257  24.593  1.00  0.00     0.183 C 
ATOM     28  O   UNL A   1      32.889  17.307  22.660  1.00  0.00    -0.207 OA
ATOM     29  O   UNL A   1      32.148  17.567  25.051  1.00  0.00    -0.207 OA
ENDBRANCH  24  26
ENDBRANCH  19  24
ENDBRANCH   8  18
BRANCH  17  30
ATOM     30  C   UNL A   1      31.361  27.731  27.252  1.00  0.00     0.429 C 
ATOM     31  F   UNL A   1      30.994  29.031  27.190  1.00  0.00    -0.167 F 
ATOM     32  F   UNL A   1      30.238  26.998  27.454  1.00  0.00    -0.167 F 
ATOM     33  F   UNL A   1      32.104  27.597  28.382  1.00  0.00    -0.167 F 
ENDBRANCH  17  30
ENDBRANCH   4   7
ENDBRANCH   2   3
ENDBRANCH   1   2
BRANCH   1  34
ATOM     34  C   UNL A   1      33.191  31.615  26.447  1.00  0.00     0.023 C 
BRANCH  34  35
ATOM     35  C   UNL A   1      32.037  32.221  27.237  1.00  0.00     0.116 C 
BRANCH  35  36
ATOM     36  N   UNL A   1      32.200  33.654  27.421  1.00  0.00    -0.352 N 
ATOM     37  C   UNL A   1      33.105  34.331  28.201  1.00  0.00     0.251 C 
ATOM     38  H   UNL A   1      31.572  34.219  26.915  1.00  0.00     0.163 HD
ATOM     39  O   UNL A   1      32.963  35.537  28.387  1.00  0.00    -0.269 OA
BRANCH  37  40
ATOM     40  C   UNL A   1      34.234  33.609  28.828  1.00  0.00     0.039 A 
ATOM     41  C   UNL A   1      35.528  33.838  28.355  1.00  0.00     0.014 A 
ATOM     42  C   UNL A   1      34.020  32.703  29.870  1.00  0.00     0.014 A 
ATOM     43  C   UNL A   1      36.612  33.195  28.961  1.00  0.00     0.010 A 
ATOM     44  C   UNL A   1      35.107  32.128  30.525  1.00  0.00     0.010 A 
ATOM     45  C   UNL A   1      36.414  32.356  30.070  1.00  0.00    -0.014 A 
BRANCH  45  46
ATOM     46  C   UNL A   1      37.563  31.709  30.758  1.00  0.00     0.031 A 
ATOM     47  C   UNL A   1      38.383  30.660  30.053  1.00  0.00     0.074 A 
ATOM     48  C   UNL A   1      37.831  32.019  32.042  1.00  0.00     0.049 A 
ATOM     49  N   UNL A   1      39.407  29.978  30.497  1.00  0.00    -0.248 NA
ATOM     50  C   UNL A   1      37.985  30.311  28.679  1.00  0.00     0.031 C 
ATOM     51  C   UNL A   1      37.063  32.956  32.865  1.00  0.00     0.029 A 
ATOM     52  N   UNL A   1      38.813  31.564  32.888  1.00  0.00    -0.354 N 
ATOM     53  C   UNL A   1      39.754  29.101  29.477  1.00  0.00     0.074 A 
ATOM     54  C   UNL A   1      38.805  29.307  28.405  1.00  0.00     0.031 C 
ATOM     55  C   UNL A   1      37.608  33.016  34.091  1.00  0.00     0.029 A 
ATOM     56  C   UNL A   1      38.744  32.102  34.152  1.00  0.00     0.049 A 
ATOM     57  H   UNL A   1      39.499  30.914  32.616  1.00  0.00     0.167 HD
ATOM     58  C   UNL A   1      40.785  28.224  29.420  1.00  0.00     0.034 A 
ATOM     59  C   UNL A   1      39.509  31.884  35.241  1.00  0.00     0.034 A 
ATOM     60  C   UNL A   1      41.750  28.047  30.472  1.00  0.00     0.049 A 
ATOM     61  C   UNL A   1      40.675  30.937  35.137  1.00  0.00     0.074 A 
ATOM     62  C   UNL A   1      42.878  27.246  30.478  1.00  0.00     0.029 A 
ATOM     63  N   UNL A   1      41.697  28.672  31.708  1.00  0.00    -0.354 N 
ATOM     64  N   UNL A   1      41.079  30.234  34.107  1.00  0.00    -0.248 NA
ATOM     65  C   UNL A   1      41.514  30.784  36.334  1.00  0.00     0.031 C 
ATOM     66  C   UNL A   1      43.491  27.364  31.730  1.00  0.00     0.029 A 
ATOM     67  C   UNL A   1      42.767  28.269  32.490  1.00  0.00     0.049 A 
ATOM     68  H   UNL A   1      41.000  29.308  31.990  1.00  0.00     0.167 HD
ATOM     69  C   UNL A   1      42.242  29.590  34.517  1.00  0.00     0.074 A 
ATOM     70  C   UNL A   1      42.487  30.004  35.883  1.00  0.00     0.031 C 
ATOM     71  C   UNL A   1      43.029  28.726  33.830  1.00  0.00     0.034 A 
BRANCH  58  72
ATOM     72  C   UNL A   1      40.953  27.421  28.154  1.00  0.00     0.023 A 
ATOM     73  C   UNL A   1      41.533  28.022  27.018  1.00  0.00     0.012 A 
ATOM     74  C   UNL A   1      40.589  26.061  28.104  1.00  0.00     0.148 A 
ATOM     75  C   UNL A   1      41.710  27.296  25.841  1.00  0.00     0.002 A 
ATOM     76  C   UNL A   1      40.815  25.330  26.943  1.00  0.00     0.091 A 
ATOM     77  F   UNL A   1      40.022  25.510  29.187  1.00  0.00    -0.205 F 
ATOM     78  C   UNL A   1      41.362  25.949  25.808  1.00  0.00     0.022 A 
BRANCH  76  79
ATOM     79  S   UNL A   1      40.478  23.571  26.823  1.00  0.00     0.127 S 
ATOM     80  O   UNL A   1      39.061  23.565  26.464  1.00  0.00    -0.237 OA
ATOM     81  O   UNL A   1      41.380  23.158  25.748  1.00  0.00    -0.237 OA
ATOM     82  O   UNL A   1      40.793  23.010  28.130  1.00  0.00    -0.744 OA
ENDBRANCH  76  79
ENDBRANCH  58  72
BRANCH  59  83
ATOM     83  C   UNL A   1      39.241  32.626  36.505  1.00  0.00     0.023 A 
ATOM     84  C   UNL A   1      39.851  33.878  36.718  1.00  0.00     0.012 A 
ATOM     85  C   UNL A   1      38.376  32.108  37.488  1.00  0.00     0.148 A 
ATOM     86  C   UNL A   1      39.636  34.582  37.902  1.00  0.00     0.002 A 
ATOM     87  C   UNL A   1      38.120  32.842  38.641  1.00  0.00     0.091 A 
ATOM     88  F   UNL A   1      37.811  30.912  37.271  1.00  0.00    -0.205 F 
ATOM     89  C   UNL A   1      38.764  34.069  38.860  1.00  0.00     0.022 A 
BRANCH  87  90
ATOM     90  S   UNL A   1      36.914  32.323  39.866  1.00  0.00     0.127 S 
ATOM     91  O   UNL A   1      37.489  31.066  40.338  1.00  0.00    -0.237 OA
ATOM     92  O   UNL A   1      36.968  33.426  40.826  1.00  0.00    -0.237 OA
ATOM     93  O   UNL A   1      35.650  32.211  39.151  1.00  0.00    -0.744 OA
ENDBRANCH  87  90
ENDBRANCH  59  83
BRANCH  71  94
ATOM     94  C   UNL A   1      44.262  28.204  34.521  1.00  0.00     0.023 A 
ATOM     95  C   UNL A   1      45.459  28.948  34.490  1.00  0.00     0.012 A 
ATOM     96  C   UNL A   1      44.217  26.999  35.250  1.00  0.00     0.148 A 
ATOM     97  C   UNL A   1      46.602  28.479  35.136  1.00  0.00     0.002 A 
ATOM     98  C   UNL A   1      45.344  26.566  35.938  1.00  0.00     0.091 A 
ATOM     99  F   UNL A   1      43.076  26.295  35.254  1.00  0.00    -0.205 F 
ATOM    100  C   UNL A   1      46.542  27.295  35.869  1.00  0.00     0.022 A 
BRANCH  98 101
ATOM    101  S   UNL A   1      45.328  25.108  36.987  1.00  0.00     0.127 S 
ATOM    102  O   UNL A   1      44.076  25.285  37.723  1.00  0.00    -0.237 OA
ATOM    103  O   UNL A   1      45.311  24.021  36.007  1.00  0.00    -0.237 OA
ATOM    104  O   UNL A   1      46.541  25.177  37.789  1.00  0.00    -0.744 OA
ENDBRANCH  98 101
ENDBRANCH  71  94
ENDBRANCH  45  46
ENDBRANCH  37  40
ENDBRANCH  35  36
ENDBRANCH  34  35
ENDBRANCH   1  34
TORSDOF 18
ENDMDL
