MODEL 1
REMARK VINA RESULT:     -11.3      0.000      0.000
REMARK SMILES CCC(=O)Nc1cc(NC(=O)/C=C/C(=O)NCCCCNC(=O)c2ccc(-c3c4nc(c(-c5cccc(S(=O)(=O)[O-])c5F)c5ccc([nH]5)c(-c5cccc(S(=O)(=O)[O-])c5F)c5nc(c(-c6cccc(S(=O)(=O)[O-])c6F)c6ccc3[nH]6)C=C5)C=C4)cc2)ccc1C
REMARK SMILES IDX 18 1 17 2 16 3 14 4 15 5 13 7 12 8 10 9 9 10 11 12 8 13 6 14
REMARK SMILES IDX 7 15 89 16 88 17 90 18 87 19 5 20 3 21 4 22 2 24 1 25 19 26
REMARK SMILES IDX 20 27 21 28 22 29 23 31 24 32 25 33 86 34 26 35 85 36 27 37
REMARK SMILES IDX 28 38 29 39 79 40 30 41 84 42 78 43 80 44 31 45 83 46 77 47
REMARK SMILES IDX 76 48 32 50 64 51 44 52 63 53 45 54 48 55 62 56 81 57 46 58
REMARK SMILES IDX 47 59 61 61 82 62 49 63 33 64 34 65 42 66 35 67 37 68 43 69
REMARK SMILES IDX 36 70 38 71 39 72 40 73 41 74 65 75 66 76 74 77 67 78 69 79
REMARK SMILES IDX 75 80 68 81 70 82 71 83 72 84 73 85 50 86 51 87 59 88 52 89
REMARK SMILES IDX 54 90 60 91 53 92 55 93 56 94 57 95 58 96
REMARK H PARENT 16 6 9 11 5 23 21 30 80 49 48 60
REMARK Flexibility Score: inf
ROOT
ATOM      1  C   UNL A   1      34.541  29.105  27.236  1.00  0.00     0.023 C 
ENDROOT
BRANCH   1   2
ATOM      2  C   UNL A   1      33.291  29.130  26.351  1.00  0.00     0.116 C 
BRANCH   2   3
ATOM      3  N   UNL A   1      33.621  29.339  24.956  1.00  0.00    -0.353 N 
ATOM      4  C   UNL A   1      32.827  29.131  23.875  1.00  0.00     0.244 C 
ATOM      5  O   UNL A   1      33.293  29.062  22.740  1.00  0.00    -0.270 OA
ATOM      6  H   UNL A   1      34.529  29.671  24.770  1.00  0.00     0.163 HD
BRANCH   4   7
ATOM      7  C   UNL A   1      31.367  28.998  24.058  1.00  0.00     0.077 C 
ATOM      8  C   UNL A   1      30.656  28.420  23.078  1.00  0.00     0.077 C 
BRANCH   8   9
ATOM      9  C   UNL A   1      29.293  27.917  23.318  1.00  0.00     0.248 C 
ATOM     10  N   UNL A   1      29.091  26.726  23.964  1.00  0.00    -0.322 N 
ATOM     11  H   UNL A   1      28.149  26.446  24.008  1.00  0.00     0.170 HD
ATOM     12  O   UNL A   1      28.333  28.581  22.930  1.00  0.00    -0.270 OA
BRANCH  10  13
ATOM     13  C   UNL A   1      29.989  25.827  24.576  1.00  0.00     0.043 A 
ATOM     14  C   UNL A   1      31.812  24.227  24.445  1.00  0.00     0.046 A 
ATOM     15  C   UNL A   1      30.673  24.820  23.901  1.00  0.00     0.052 A 
ATOM     16  C   UNL A   1      32.234  24.591  25.731  1.00  0.00    -0.027 A 
ATOM     17  C   UNL A   1      31.410  25.435  26.491  1.00  0.00     0.008 A 
ATOM     18  C   UNL A   1      33.599  24.269  26.274  1.00  0.00     0.046 C 
ATOM     19  C   UNL A   1      30.293  26.050  25.918  1.00  0.00     0.026 A 
BRANCH  14  20
ATOM     20  N   UNL A   1      32.625  23.506  23.564  1.00  0.00    -0.326 N 
ATOM     21  C   UNL A   1      33.307  23.943  22.466  1.00  0.00     0.224 C 
ATOM     22  O   UNL A   1      33.824  23.124  21.703  1.00  0.00    -0.275 OA
ATOM     23  H   UNL A   1      32.719  22.546  23.764  1.00  0.00     0.169 HD
BRANCH  21  24
ATOM     24  C   UNL A   1      33.520  25.429  22.257  1.00  0.00     0.097 C 
ATOM     25  C   UNL A   1      32.721  26.036  21.127  1.00  0.00     0.014 C 
ENDBRANCH  21  24
ENDBRANCH  14  20
ENDBRANCH  10  13
ENDBRANCH   8   9
ENDBRANCH   4   7
ENDBRANCH   2   3
ENDBRANCH   1   2
BRANCH   1  26
ATOM     26  C   UNL A   1      34.709  30.274  28.223  1.00  0.00     0.023 C 
BRANCH  26  27
ATOM     27  C   UNL A   1      35.030  31.613  27.584  1.00  0.00     0.116 C 
BRANCH  27  28
ATOM     28  N   UNL A   1      34.475  32.726  28.351  1.00  0.00    -0.352 N 
ATOM     29  C   UNL A   1      34.732  33.198  29.619  1.00  0.00     0.251 C 
ATOM     30  H   UNL A   1      33.786  33.238  27.869  1.00  0.00     0.163 HD
ATOM     31  O   UNL A   1      33.801  33.760  30.208  1.00  0.00    -0.269 OA
BRANCH  29  32
ATOM     32  C   UNL A   1      36.076  33.126  30.222  1.00  0.00     0.039 A 
ATOM     33  C   UNL A   1      37.197  33.686  29.594  1.00  0.00     0.014 A 
ATOM     34  C   UNL A   1      36.277  32.283  31.303  1.00  0.00     0.014 A 
ATOM     35  C   UNL A   1      38.460  33.198  29.927  1.00  0.00     0.010 A 
ATOM     36  C   UNL A   1      37.497  32.078  31.846  1.00  0.00     0.010 A 
ATOM     37  C   UNL A   1      38.551  32.308  30.989  1.00  0.00    -0.014 A 
BRANCH  37  38
ATOM     38  C   UNL A   1      39.624  31.387  31.271  1.00  0.00     0.031 A 
ATOM     39  C   UNL A   1      39.640  30.122  30.560  1.00  0.00     0.074 A 
ATOM     40  C   UNL A   1      40.716  31.932  31.864  1.00  0.00     0.049 A 
ATOM     41  N   UNL A   1      40.433  29.160  30.858  1.00  0.00    -0.248 NA
ATOM     42  C   UNL A   1      38.723  29.825  29.462  1.00  0.00     0.031 C 
ATOM     43  C   UNL A   1      42.120  31.569  31.730  1.00  0.00     0.029 A 
ATOM     44  N   UNL A   1      40.754  32.998  32.757  1.00  0.00    -0.354 N 
ATOM     45  C   UNL A   1      40.405  28.326  29.771  1.00  0.00     0.074 A 
ATOM     46  C   UNL A   1      39.173  28.624  29.090  1.00  0.00     0.031 C 
ATOM     47  C   UNL A   1      42.835  32.217  32.671  1.00  0.00     0.029 A 
ATOM     48  C   UNL A   1      41.886  32.869  33.561  1.00  0.00     0.049 A 
ATOM     49  H   UNL A   1      40.091  33.724  32.811  1.00  0.00     0.167 HD
ATOM     50  C   UNL A   1      41.552  27.680  29.439  1.00  0.00     0.034 A 
ATOM     51  C   UNL A   1      41.707  32.547  34.882  1.00  0.00     0.034 A 
ATOM     52  C   UNL A   1      42.566  27.843  30.502  1.00  0.00     0.049 A 
ATOM     53  C   UNL A   1      42.151  31.128  35.202  1.00  0.00     0.074 A 
ATOM     54  C   UNL A   1      43.754  28.548  30.582  1.00  0.00     0.029 A 
ATOM     55  N   UNL A   1      42.238  27.494  31.815  1.00  0.00    -0.354 N 
ATOM     56  N   UNL A   1      42.513  30.241  34.314  1.00  0.00    -0.248 NA
ATOM     57  C   UNL A   1      42.241  30.605  36.559  1.00  0.00     0.031 C 
ATOM     58  C   UNL A   1      44.072  28.716  31.965  1.00  0.00     0.029 A 
ATOM     59  C   UNL A   1      43.112  28.068  32.728  1.00  0.00     0.049 A 
ATOM     60  H   UNL A   1      41.482  26.914  32.061  1.00  0.00     0.167 HD
ATOM     61  C   UNL A   1      42.729  29.027  34.908  1.00  0.00     0.074 A 
ATOM     62  C   UNL A   1      42.640  29.342  36.328  1.00  0.00     0.031 C 
ATOM     63  C   UNL A   1      42.908  27.878  34.173  1.00  0.00     0.034 A 
BRANCH  50  64
ATOM     64  C   UNL A   1      41.844  27.091  28.070  1.00  0.00     0.023 A 
ATOM     65  C   UNL A   1      41.800  27.983  26.979  1.00  0.00     0.012 A 
ATOM     66  C   UNL A   1      42.085  25.728  27.747  1.00  0.00     0.148 A 
ATOM     67  C   UNL A   1      41.993  27.559  25.657  1.00  0.00     0.002 A 
ATOM     68  C   UNL A   1      42.364  25.320  26.440  1.00  0.00     0.091 A 
ATOM     69  F   UNL A   1      41.937  24.774  28.669  1.00  0.00    -0.205 F 
ATOM     70  C   UNL A   1      42.301  26.232  25.388  1.00  0.00     0.022 A 
BRANCH  68  71
ATOM     71  S   UNL A   1      42.841  23.625  26.036  1.00  0.00     0.127 S 
ATOM     72  O   UNL A   1      41.566  22.916  26.128  1.00  0.00    -0.237 OA
ATOM     73  O   UNL A   1      43.364  23.764  24.676  1.00  0.00    -0.237 OA
ATOM     74  O   UNL A   1      43.842  23.236  27.023  1.00  0.00    -0.744 OA
ENDBRANCH  68  71
ENDBRANCH  50  64
BRANCH  51  75
ATOM     75  C   UNL A   1      40.489  33.230  35.451  1.00  0.00     0.023 A 
ATOM     76  C   UNL A   1      39.301  32.456  35.515  1.00  0.00     0.012 A 
ATOM     77  C   UNL A   1      40.616  34.336  36.310  1.00  0.00     0.148 A 
ATOM     78  C   UNL A   1      38.380  32.644  36.550  1.00  0.00     0.002 A 
ATOM     79  C   UNL A   1      39.682  34.528  37.329  1.00  0.00     0.091 A 
ATOM     80  F   UNL A   1      41.671  35.148  36.165  1.00  0.00    -0.205 F 
ATOM     81  C   UNL A   1      38.600  33.647  37.489  1.00  0.00     0.022 A 
BRANCH  79  82
ATOM     82  S   UNL A   1      39.895  35.854  38.526  1.00  0.00     0.127 S 
ATOM     83  O   UNL A   1      38.651  35.762  39.286  1.00  0.00    -0.237 OA
ATOM     84  O   UNL A   1      41.088  35.448  39.267  1.00  0.00    -0.237 OA
ATOM     85  O   UNL A   1      40.074  37.055  37.723  1.00  0.00    -0.744 OA
ENDBRANCH  79  82
ENDBRANCH  51  75
BRANCH  63  86
ATOM     86  C   UNL A   1      42.917  26.456  34.739  1.00  0.00     0.023 A 
ATOM     87  C   UNL A   1      41.742  25.765  35.089  1.00  0.00     0.012 A 
ATOM     88  C   UNL A   1      44.124  25.710  34.861  1.00  0.00     0.148 A 
ATOM     89  C   UNL A   1      41.754  24.465  35.612  1.00  0.00     0.002 A 
ATOM     90  C   UNL A   1      44.121  24.375  35.262  1.00  0.00     0.091 A 
ATOM     91  F   UNL A   1      45.306  26.295  34.625  1.00  0.00    -0.205 F 
ATOM     92  C   UNL A   1      42.942  23.762  35.681  1.00  0.00     0.022 A 
BRANCH  90  93
ATOM     93  S   UNL A   1      45.592  23.346  35.145  1.00  0.00     0.127 S 
ATOM     94  O   UNL A   1      45.066  22.030  35.507  1.00  0.00    -0.237 OA
ATOM     95  O   UNL A   1      45.957  23.489  33.734  1.00  0.00    -0.237 OA
ATOM     96  O   UNL A   1      46.555  23.925  36.073  1.00  0.00    -0.744 OA
ENDBRANCH  90  93
ENDBRANCH  63  86
ENDBRANCH  37  38
ENDBRANCH  29  32
ENDBRANCH  27  28
ENDBRANCH  26  27
ENDBRANCH   1  26
TORSDOF 18
ENDMDL
MODEL 2
REMARK VINA RESULT:     -11.1      5.295      8.253
REMARK SMILES CCC(=O)Nc1cc(NC(=O)/C=C/C(=O)NCCCCNC(=O)c2ccc(-c3c4nc(c(-c5cccc(S(=O)(=O)[O-])c5F)c5ccc([nH]5)c(-c5cccc(S(=O)(=O)[O-])c5F)c5nc(c(-c6cccc(S(=O)(=O)[O-])c6F)c6ccc3[nH]6)C=C5)C=C4)cc2)ccc1C
REMARK SMILES IDX 18 1 17 2 16 3 14 4 15 5 13 7 12 8 10 9 9 10 11 12 8 13 6 14
REMARK SMILES IDX 7 15 89 16 88 17 90 18 87 19 5 20 3 21 4 22 2 24 1 25 19 26
REMARK SMILES IDX 20 27 21 28 22 29 23 31 24 32 25 33 86 34 26 35 85 36 27 37
REMARK SMILES IDX 28 38 29 39 79 40 30 41 84 42 78 43 80 44 31 45 83 46 77 47
REMARK SMILES IDX 76 48 32 50 64 51 44 52 63 53 45 54 48 55 62 56 81 57 46 58
REMARK SMILES IDX 47 59 61 61 82 62 49 63 33 64 34 65 42 66 35 67 37 68 43 69
REMARK SMILES IDX 36 70 38 71 39 72 40 73 41 74 65 75 66 76 74 77 67 78 69 79
REMARK SMILES IDX 75 80 68 81 70 82 71 83 72 84 73 85 50 86 51 87 59 88 52 89
REMARK SMILES IDX 54 90 60 91 53 92 55 93 56 94 57 95 58 96
REMARK H PARENT 16 6 9 11 5 23 21 30 80 49 48 60
REMARK Flexibility Score: inf
ROOT
ATOM      1  C   UNL A   1      37.680  22.460  24.980  1.00  0.00     0.023 C 
ENDROOT
BRANCH   1   2
ATOM      2  C   UNL A   1      36.953  21.131  25.206  1.00  0.00     0.116 C 
BRANCH   2   3
ATOM      3  N   UNL A   1      35.943  21.238  26.240  1.00  0.00    -0.353 N 
ATOM      4  C   UNL A   1      34.595  21.238  26.086  1.00  0.00     0.244 C 
ATOM      5  O   UNL A   1      33.847  21.620  26.984  1.00  0.00    -0.270 OA
ATOM      6  H   UNL A   1      36.275  21.319  27.164  1.00  0.00     0.163 HD
BRANCH   4   7
ATOM      7  C   UNL A   1      34.005  20.757  24.820  1.00  0.00     0.077 C 
ATOM      8  C   UNL A   1      32.839  21.289  24.423  1.00  0.00     0.077 C 
BRANCH   8   9
ATOM      9  C   UNL A   1      32.372  21.152  23.033  1.00  0.00     0.248 C 
ATOM     10  N   UNL A   1      32.333  22.239  22.199  1.00  0.00    -0.322 N 
ATOM     11  H   UNL A   1      31.937  22.055  21.317  1.00  0.00     0.170 HD
ATOM     12  O   UNL A   1      32.016  20.047  22.626  1.00  0.00    -0.270 OA
BRANCH  10  13
ATOM     13  C   UNL A   1      32.754  23.573  22.376  1.00  0.00     0.043 A 
ATOM     14  C   UNL A   1      32.272  25.913  22.810  1.00  0.00     0.046 A 
ATOM     15  C   UNL A   1      31.922  24.681  22.257  1.00  0.00     0.052 A 
ATOM     16  C   UNL A   1      33.520  26.065  23.427  1.00  0.00    -0.027 A 
ATOM     17  C   UNL A   1      34.442  25.010  23.339  1.00  0.00     0.008 A 
ATOM     18  C   UNL A   1      33.863  27.222  24.324  1.00  0.00     0.046 C 
ATOM     19  C   UNL A   1      34.063  23.771  22.816  1.00  0.00     0.026 A 
BRANCH  14  20
ATOM     20  N   UNL A   1      31.241  26.848  22.959  1.00  0.00    -0.326 N 
ATOM     21  C   UNL A   1      30.266  26.912  23.911  1.00  0.00     0.224 C 
ATOM     22  O   UNL A   1      29.332  27.705  23.775  1.00  0.00    -0.275 OA
ATOM     23  H   UNL A   1      31.216  27.562  22.280  1.00  0.00     0.169 HD
BRANCH  21  24
ATOM     24  C   UNL A   1      30.401  26.095  25.180  1.00  0.00     0.097 C 
ATOM     25  C   UNL A   1      30.834  26.876  26.399  1.00  0.00     0.014 C 
ENDBRANCH  21  24
ENDBRANCH  14  20
ENDBRANCH  10  13
ENDBRANCH   8   9
ENDBRANCH   4   7
ENDBRANCH   2   3
ENDBRANCH   1   2
BRANCH   1  26
ATOM     26  C   UNL A   1      37.465  23.551  26.044  1.00  0.00     0.023 C 
BRANCH  26  27
ATOM     27  C   UNL A   1      38.683  23.869  26.893  1.00  0.00     0.116 C 
BRANCH  27  28
ATOM     28  N   UNL A   1      39.580  22.720  27.005  1.00  0.00    -0.352 N 
ATOM     29  C   UNL A   1      40.944  22.621  27.168  1.00  0.00     0.251 C 
ATOM     30  H   UNL A   1      39.121  21.850  26.954  1.00  0.00     0.163 HD
ATOM     31  O   UNL A   1      41.493  21.616  26.701  1.00  0.00    -0.269 OA
BRANCH  29  32
ATOM     32  C   UNL A   1      41.712  23.612  27.945  1.00  0.00     0.039 A 
ATOM     33  C   UNL A   1      41.733  24.968  27.594  1.00  0.00     0.014 A 
ATOM     34  C   UNL A   1      42.620  23.159  28.889  1.00  0.00     0.014 A 
ATOM     35  C   UNL A   1      42.803  25.752  28.028  1.00  0.00     0.010 A 
ATOM     36  C   UNL A   1      43.438  23.993  29.567  1.00  0.00     0.010 A 
ATOM     37  C   UNL A   1      43.696  25.186  28.928  1.00  0.00    -0.014 A 
BRANCH  37  38
ATOM     38  C   UNL A   1      45.044  25.613  29.210  1.00  0.00     0.031 A 
ATOM     39  C   UNL A   1      46.085  25.253  28.266  1.00  0.00     0.074 A 
ATOM     40  C   UNL A   1      45.155  26.629  30.103  1.00  0.00     0.049 A 
ATOM     41  N   UNL A   1      47.334  25.418  28.502  1.00  0.00    -0.248 NA
ATOM     42  C   UNL A   1      45.796  24.632  26.975  1.00  0.00     0.031 C 
ATOM     43  C   UNL A   1      46.140  27.701  30.168  1.00  0.00     0.029 A 
ATOM     44  N   UNL A   1      44.330  26.899  31.190  1.00  0.00    -0.354 N 
ATOM     45  C   UNL A   1      47.944  25.314  27.279  1.00  0.00     0.074 A 
ATOM     46  C   UNL A   1      47.023  24.579  26.452  1.00  0.00     0.031 C 
ATOM     47  C   UNL A   1      46.012  28.347  31.343  1.00  0.00     0.029 A 
ATOM     48  C   UNL A   1      45.068  27.591  32.151  1.00  0.00     0.049 A 
ATOM     49  H   UNL A   1      43.383  26.643  31.268  1.00  0.00     0.167 HD
ATOM     50  C   UNL A   1      49.031  26.092  27.045  1.00  0.00     0.034 A 
ATOM     51  C   UNL A   1      45.384  26.939  33.315  1.00  0.00     0.034 A 
ATOM     52  C   UNL A   1      49.481  26.744  28.293  1.00  0.00     0.049 A 
ATOM     53  C   UNL A   1      46.863  26.597  33.409  1.00  0.00     0.074 A 
ATOM     54  C   UNL A   1      49.452  28.051  28.746  1.00  0.00     0.029 A 
ATOM     55  N   UNL A   1      49.748  25.956  29.416  1.00  0.00    -0.354 N 
ATOM     56  N   UNL A   1      47.726  26.748  32.441  1.00  0.00    -0.248 NA
ATOM     57  C   UNL A   1      47.488  26.075  34.618  1.00  0.00     0.031 C 
ATOM     58  C   UNL A   1      49.590  28.026  30.168  1.00  0.00     0.029 A 
ATOM     59  C   UNL A   1      49.758  26.712  30.579  1.00  0.00     0.049 A 
ATOM     60  H   UNL A   1      49.908  24.985  29.385  1.00  0.00     0.167 HD
ATOM     61  C   UNL A   1      48.942  26.229  32.797  1.00  0.00     0.074 A 
ATOM     62  C   UNL A   1      48.758  25.912  34.207  1.00  0.00     0.031 C 
ATOM     63  C   UNL A   1      49.960  26.065  31.886  1.00  0.00     0.034 A 
BRANCH  50  64
ATOM     64  C   UNL A   1      49.557  26.446  25.665  1.00  0.00     0.023 A 
ATOM     65  C   UNL A   1      50.940  26.274  25.454  1.00  0.00     0.012 A 
ATOM     66  C   UNL A   1      48.827  27.002  24.578  1.00  0.00     0.148 A 
ATOM     67  C   UNL A   1      51.560  26.618  24.245  1.00  0.00     0.002 A 
ATOM     68  C   UNL A   1      49.430  27.262  23.344  1.00  0.00     0.091 A 
ATOM     69  F   UNL A   1      47.564  27.403  24.740  1.00  0.00    -0.205 F 
ATOM     70  C   UNL A   1      50.804  27.087  23.180  1.00  0.00     0.022 A 
BRANCH  68  71
ATOM     71  S   UNL A   1      48.489  27.806  21.903  1.00  0.00     0.127 S 
ATOM     72  O   UNL A   1      49.341  28.861  21.357  1.00  0.00    -0.237 OA
ATOM     73  O   UNL A   1      48.432  26.590  21.090  1.00  0.00    -0.237 OA
ATOM     74  O   UNL A   1      47.193  28.249  22.404  1.00  0.00    -0.744 OA
ENDBRANCH  68  71
ENDBRANCH  50  64
BRANCH  51  75
ATOM     75  C   UNL A   1      44.252  26.052  33.770  1.00  0.00     0.023 A 
ATOM     76  C   UNL A   1      44.410  24.660  33.549  1.00  0.00     0.012 A 
ATOM     77  C   UNL A   1      43.362  26.475  34.774  1.00  0.00     0.148 A 
ATOM     78  C   UNL A   1      43.875  23.728  34.443  1.00  0.00     0.002 A 
ATOM     79  C   UNL A   1      42.816  25.537  35.651  1.00  0.00     0.091 A 
ATOM     80  F   UNL A   1      43.106  27.784  34.901  1.00  0.00    -0.205 F 
ATOM     81  C   UNL A   1      43.122  24.171  35.526  1.00  0.00     0.022 A 
BRANCH  79  82
ATOM     82  S   UNL A   1      41.785  26.063  37.027  1.00  0.00     0.127 S 
ATOM     83  O   UNL A   1      41.050  27.176  36.433  1.00  0.00    -0.237 OA
ATOM     84  O   UNL A   1      40.971  24.882  37.308  1.00  0.00    -0.237 OA
ATOM     85  O   UNL A   1      42.724  26.402  38.087  1.00  0.00    -0.744 OA
ENDBRANCH  79  82
ENDBRANCH  51  75
BRANCH  63  86
ATOM     86  C   UNL A   1      51.253  25.285  32.130  1.00  0.00     0.023 A 
ATOM     87  C   UNL A   1      52.528  25.878  32.068  1.00  0.00     0.012 A 
ATOM     88  C   UNL A   1      51.234  23.917  32.526  1.00  0.00     0.148 A 
ATOM     89  C   UNL A   1      53.710  25.159  32.286  1.00  0.00     0.002 A 
ATOM     90  C   UNL A   1      52.403  23.238  32.866  1.00  0.00     0.091 A 
ATOM     91  F   UNL A   1      50.081  23.236  32.547  1.00  0.00    -0.205 F 
ATOM     92  C   UNL A   1      53.648  23.843  32.704  1.00  0.00     0.022 A 
BRANCH  90  93
ATOM     93  S   UNL A   1      52.367  21.613  33.637  1.00  0.00     0.127 S 
ATOM     94  O   UNL A   1      51.663  21.892  34.888  1.00  0.00    -0.237 OA
ATOM     95  O   UNL A   1      51.598  20.829  32.668  1.00  0.00    -0.237 OA
ATOM     96  O   UNL A   1      53.760  21.205  33.765  1.00  0.00    -0.744 OA
ENDBRANCH  90  93
ENDBRANCH  63  86
ENDBRANCH  37  38
ENDBRANCH  29  32
ENDBRANCH  27  28
ENDBRANCH  26  27
ENDBRANCH   1  26
TORSDOF 18
ENDMDL
MODEL 3
REMARK VINA RESULT:     -11.0      3.163      4.636
REMARK SMILES CCC(=O)Nc1cc(NC(=O)/C=C/C(=O)NCCCCNC(=O)c2ccc(-c3c4nc(c(-c5cccc(S(=O)(=O)[O-])c5F)c5ccc([nH]5)c(-c5cccc(S(=O)(=O)[O-])c5F)c5nc(c(-c6cccc(S(=O)(=O)[O-])c6F)c6ccc3[nH]6)C=C5)C=C4)cc2)ccc1C
REMARK SMILES IDX 18 1 17 2 16 3 14 4 15 5 13 7 12 8 10 9 9 10 11 12 8 13 6 14
REMARK SMILES IDX 7 15 89 16 88 17 90 18 87 19 5 20 3 21 4 22 2 24 1 25 19 26
REMARK SMILES IDX 20 27 21 28 22 29 23 31 24 32 25 33 86 34 26 35 85 36 27 37
REMARK SMILES IDX 28 38 29 39 79 40 30 41 84 42 78 43 80 44 31 45 83 46 77 47
REMARK SMILES IDX 76 48 32 50 64 51 44 52 63 53 45 54 48 55 62 56 81 57 46 58
REMARK SMILES IDX 47 59 61 61 82 62 49 63 33 64 34 65 42 66 35 67 37 68 43 69
REMARK SMILES IDX 36 70 38 71 39 72 40 73 41 74 65 75 66 76 74 77 67 78 69 79
REMARK SMILES IDX 75 80 68 81 70 82 71 83 72 84 73 85 50 86 51 87 59 88 52 89
REMARK SMILES IDX 54 90 60 91 53 92 55 93 56 94 57 95 58 96
REMARK H PARENT 16 6 9 11 5 23 21 30 80 49 48 60
REMARK Flexibility Score: inf
ROOT
ATOM      1  C   UNL A   1      32.358  29.019  27.172  1.00  0.00     0.023 C 
ENDROOT
BRANCH   1   2
ATOM      2  C   UNL A   1      31.533  28.668  25.930  1.00  0.00     0.116 C 
BRANCH   2   3
ATOM      3  N   UNL A   1      32.355  28.108  24.876  1.00  0.00    -0.353 N 
ATOM      4  C   UNL A   1      32.585  26.797  24.612  1.00  0.00     0.244 C 
ATOM      5  O   UNL A   1      33.514  26.441  23.891  1.00  0.00    -0.270 OA
ATOM      6  H   UNL A   1      32.799  28.755  24.282  1.00  0.00     0.163 HD
BRANCH   4   7
ATOM      7  C   UNL A   1      31.696  25.769  25.191  1.00  0.00     0.077 C 
ATOM      8  C   UNL A   1      32.240  24.603  25.573  1.00  0.00     0.077 C 
BRANCH   8   9
ATOM      9  C   UNL A   1      31.524  23.688  26.478  1.00  0.00     0.248 C 
ATOM     10  N   UNL A   1      31.736  22.336  26.415  1.00  0.00    -0.322 N 
ATOM     11  H   UNL A   1      31.156  21.809  27.010  1.00  0.00     0.170 HD
ATOM     12  O   UNL A   1      30.730  24.152  27.295  1.00  0.00    -0.270 OA
BRANCH  10  13
ATOM     13  C   UNL A   1      32.633  21.562  25.651  1.00  0.00     0.043 A 
ATOM     14  C   UNL A   1      34.862  20.697  25.225  1.00  0.00     0.046 A 
ATOM     15  C   UNL A   1      34.016  21.710  25.678  1.00  0.00     0.052 A 
ATOM     16  C   UNL A   1      34.314  19.540  24.655  1.00  0.00    -0.027 A 
ATOM     17  C   UNL A   1      32.930  19.501  24.423  1.00  0.00     0.008 A 
ATOM     18  C   UNL A   1      35.097  18.274  24.440  1.00  0.00     0.046 C 
ATOM     19  C   UNL A   1      32.094  20.505  24.917  1.00  0.00     0.026 A 
BRANCH  14  20
ATOM     20  N   UNL A   1      36.203  20.777  25.619  1.00  0.00    -0.326 N 
ATOM     21  C   UNL A   1      37.274  21.277  24.937  1.00  0.00     0.224 C 
ATOM     22  O   UNL A   1      38.413  21.095  25.372  1.00  0.00    -0.275 OA
ATOM     23  H   UNL A   1      36.402  20.421  26.516  1.00  0.00     0.169 HD
BRANCH  21  24
ATOM     24  C   UNL A   1      37.047  22.149  23.719  1.00  0.00     0.097 C 
ATOM     25  C   UNL A   1      36.556  23.547  24.017  1.00  0.00     0.014 C 
ENDBRANCH  21  24
ENDBRANCH  14  20
ENDBRANCH  10  13
ENDBRANCH   8   9
ENDBRANCH   4   7
ENDBRANCH   2   3
ENDBRANCH   1   2
BRANCH   1  26
ATOM     26  C   UNL A   1      33.386  30.154  27.016  1.00  0.00     0.023 C 
BRANCH  26  27
ATOM     27  C   UNL A   1      34.827  29.699  26.877  1.00  0.00     0.116 C 
BRANCH  27  28
ATOM     28  N   UNL A   1      35.765  30.717  27.346  1.00  0.00    -0.352 N 
ATOM     29  C   UNL A   1      36.830  30.666  28.218  1.00  0.00     0.251 C 
ATOM     30  H   UNL A   1      35.605  31.611  26.965  1.00  0.00     0.163 HD
ATOM     31  O   UNL A   1      37.095  31.701  28.841  1.00  0.00    -0.269 OA
BRANCH  29  32
ATOM     32  C   UNL A   1      37.682  29.469  28.341  1.00  0.00     0.039 A 
ATOM     33  C   UNL A   1      37.625  28.634  29.465  1.00  0.00     0.014 A 
ATOM     34  C   UNL A   1      38.727  29.301  27.446  1.00  0.00     0.014 A 
ATOM     35  C   UNL A   1      38.730  27.836  29.759  1.00  0.00     0.010 A 
ATOM     36  C   UNL A   1      39.618  28.291  27.552  1.00  0.00     0.010 A 
ATOM     37  C   UNL A   1      39.755  27.782  28.825  1.00  0.00    -0.014 A 
BRANCH  37  38
ATOM     38  C   UNL A   1      41.121  27.375  29.046  1.00  0.00     0.031 A 
ATOM     39  C   UNL A   1      41.465  25.985  28.810  1.00  0.00     0.074 A 
ATOM     40  C   UNL A   1      42.030  28.382  29.068  1.00  0.00     0.049 A 
ATOM     41  N   UNL A   1      42.592  25.474  29.145  1.00  0.00    -0.248 NA
ATOM     42  C   UNL A   1      40.533  25.036  28.203  1.00  0.00     0.031 C 
ATOM     43  C   UNL A   1      43.422  28.383  28.636  1.00  0.00     0.029 A 
ATOM     44  N   UNL A   1      41.842  29.686  29.514  1.00  0.00    -0.354 N 
ATOM     45  C   UNL A   1      42.670  24.297  28.447  1.00  0.00     0.074 A 
ATOM     46  C   UNL A   1      41.312  23.955  28.118  1.00  0.00     0.031 C 
ATOM     47  C   UNL A   1      44.012  29.521  29.053  1.00  0.00     0.029 A 
ATOM     48  C   UNL A   1      43.070  30.199  29.930  1.00  0.00     0.049 A 
ATOM     49  H   UNL A   1      40.983  30.167  29.533  1.00  0.00     0.167 HD
ATOM     50  C   UNL A   1      43.892  23.902  28.008  1.00  0.00     0.034 A 
ATOM     51  C   UNL A   1      43.263  30.404  31.273  1.00  0.00     0.034 A 
ATOM     52  C   UNL A   1      44.953  24.744  28.597  1.00  0.00     0.049 A 
ATOM     53  C   UNL A   1      44.241  29.410  31.880  1.00  0.00     0.074 A 
ATOM     54  C   UNL A   1      45.799  25.709  28.080  1.00  0.00     0.029 A 
ATOM     55  N   UNL A   1      45.019  24.883  29.987  1.00  0.00    -0.354 N 
ATOM     56  N   UNL A   1      44.731  28.371  31.258  1.00  0.00    -0.248 NA
ATOM     57  C   UNL A   1      44.760  29.526  33.237  1.00  0.00     0.031 C 
ATOM     58  C   UNL A   1      46.281  26.500  29.168  1.00  0.00     0.029 A 
ATOM     59  C   UNL A   1      45.776  25.987  30.354  1.00  0.00     0.049 A 
ATOM     60  H   UNL A   1      44.582  24.274  30.625  1.00  0.00     0.167 HD
ATOM     61  C   UNL A   1      45.476  27.606  32.115  1.00  0.00     0.074 A 
ATOM     62  C   UNL A   1      45.539  28.433  33.314  1.00  0.00     0.031 C 
ATOM     63  C   UNL A   1      45.922  26.351  31.772  1.00  0.00     0.034 A 
BRANCH  50  64
ATOM     64  C   UNL A   1      44.122  22.910  26.880  1.00  0.00     0.023 A 
ATOM     65  C   UNL A   1      44.926  23.351  25.809  1.00  0.00     0.012 A 
ATOM     66  C   UNL A   1      43.561  21.612  26.742  1.00  0.00     0.148 A 
ATOM     67  C   UNL A   1      45.169  22.556  24.680  1.00  0.00     0.002 A 
ATOM     68  C   UNL A   1      43.875  20.786  25.658  1.00  0.00     0.091 A 
ATOM     69  F   UNL A   1      42.621  21.182  27.588  1.00  0.00    -0.205 F 
ATOM     70  C   UNL A   1      44.666  21.264  24.615  1.00  0.00     0.022 A 
BRANCH  68  71
ATOM     71  S   UNL A   1      43.310  19.075  25.550  1.00  0.00     0.127 S 
ATOM     72  O   UNL A   1      41.899  19.236  25.201  1.00  0.00    -0.237 OA
ATOM     73  O   UNL A   1      44.145  18.538  24.475  1.00  0.00    -0.237 OA
ATOM     74  O   UNL A   1      43.563  18.477  26.856  1.00  0.00    -0.744 OA
ENDBRANCH  68  71
ENDBRANCH  50  64
BRANCH  51  75
ATOM     75  C   UNL A   1      42.006  30.908  31.935  1.00  0.00     0.023 A 
ATOM     76  C   UNL A   1      41.037  29.931  32.281  1.00  0.00     0.012 A 
ATOM     77  C   UNL A   1      41.993  32.138  32.619  1.00  0.00     0.148 A 
ATOM     78  C   UNL A   1      40.236  30.089  33.415  1.00  0.00     0.002 A 
ATOM     79  C   UNL A   1      41.175  32.294  33.739  1.00  0.00     0.091 A 
ATOM     80  F   UNL A   1      42.815  33.113  32.210  1.00  0.00    -0.205 F 
ATOM     81  C   UNL A   1      40.344  31.249  34.176  1.00  0.00     0.022 A 
BRANCH  79  82
ATOM     82  S   UNL A   1      41.239  33.805  34.713  1.00  0.00     0.127 S 
ATOM     83  O   UNL A   1      42.677  33.968  34.905  1.00  0.00    -0.237 OA
ATOM     84  O   UNL A   1      40.630  34.799  33.831  1.00  0.00    -0.237 OA
ATOM     85  O   UNL A   1      40.457  33.512  35.905  1.00  0.00    -0.744 OA
ENDBRANCH  79  82
ENDBRANCH  51  75
BRANCH  63  86
ATOM     86  C   UNL A   1      46.547  25.338  32.733  1.00  0.00     0.023 A 
ATOM     87  C   UNL A   1      47.933  25.262  32.969  1.00  0.00     0.012 A 
ATOM     88  C   UNL A   1      45.745  24.463  33.519  1.00  0.00     0.148 A 
ATOM     89  C   UNL A   1      48.503  24.329  33.845  1.00  0.00     0.002 A 
ATOM     90  C   UNL A   1      46.304  23.624  34.481  1.00  0.00     0.091 A 
ATOM     91  F   UNL A   1      44.422  24.401  33.322  1.00  0.00    -0.205 F 
ATOM     92  C   UNL A   1      47.687  23.522  34.617  1.00  0.00     0.022 A 
BRANCH  90  93
ATOM     93  S   UNL A   1      45.289  22.732  35.669  1.00  0.00     0.127 S 
ATOM     94  O   UNL A   1      46.285  21.911  36.357  1.00  0.00    -0.237 OA
ATOM     95  O   UNL A   1      44.734  23.820  36.477  1.00  0.00    -0.237 OA
ATOM     96  O   UNL A   1      44.300  22.009  34.880  1.00  0.00    -0.744 OA
ENDBRANCH  90  93
ENDBRANCH  63  86
ENDBRANCH  37  38
ENDBRANCH  29  32
ENDBRANCH  27  28
ENDBRANCH  26  27
ENDBRANCH   1  26
TORSDOF 18
ENDMDL
