MODEL 1
REMARK VINA RESULT:     -10.7      0.000      0.000
REMARK SMILES CCc1nn(C)c(N[C@@](C)(CC)C(=O)NCCCCNC(=O)c2ccc(-c3c4nc(c(-c5cccc(S(=O)(=O)[O-])c5F)c5ccc([nH]5)c(-c5cccc(S(=O)(=O)[O-])c5F)c5nc(c(-c6cccc(S(=O)(=O)[O-])c6F)c6ccc3[nH]6)C=C5)C=C4)cc2)c1[N+](=O)[O-]
REMARK SMILES IDX 17 1 16 2 15 3 13 4 14 5 9 7 10 8 8 9 7 11 3 12 4 13 86 14
REMARK SMILES IDX 5 15 6 16 2 17 1 18 87 19 88 20 89 21 11 22 12 23 18 24
REMARK SMILES IDX 19 25 20 26 21 27 22 29 23 30 24 31 85 32 25 33 84 34 26 35
REMARK SMILES IDX 27 36 28 37 78 38 29 39 83 40 77 41 79 42 30 43 82 44 76 45
REMARK SMILES IDX 75 46 31 48 63 49 43 50 62 51 44 52 47 53 61 54 80 55 45 56
REMARK SMILES IDX 46 57 60 59 81 60 48 61 32 62 33 63 41 64 34 65 36 66 42 67
REMARK SMILES IDX 35 68 37 69 38 70 39 71 40 72 64 73 65 74 73 75 66 76 68 77
REMARK SMILES IDX 74 78 67 79 69 80 70 81 71 82 72 83 49 84 50 85 58 86 51 87
REMARK SMILES IDX 53 88 59 89 52 90 54 91 55 92 56 93 57 94
REMARK H PARENT 15 6 8 10 20 28 79 47 47 58
REMARK Flexibility Score: inf
ROOT
ATOM      1  C   UNL A   1      36.624  20.120  25.002  1.00  0.00     0.023 C 
ENDROOT
BRANCH   1   2
ATOM      2  C   UNL A   1      36.298  21.607  25.081  1.00  0.00     0.116 C 
BRANCH   2   3
ATOM      3  N   UNL A   1      35.478  21.955  26.219  1.00  0.00    -0.354 N 
ATOM      4  C   UNL A   1      34.222  21.567  26.561  1.00  0.00     0.245 C 
ATOM      5  O   UNL A   1      34.027  21.456  27.780  1.00  0.00    -0.272 OA
ATOM      6  H   UNL A   1      35.900  22.578  26.853  1.00  0.00     0.163 HD
BRANCH   4   7
ATOM      7  C   UNL A   1      33.111  21.174  25.548  1.00  0.00     0.115 C 
ATOM      8  C   UNL A   1      32.895  19.663  25.857  1.00  0.00     0.045 C 
BRANCH   7   9
ATOM      9  N   UNL A   1      31.793  21.825  25.814  1.00  0.00    -0.351 N 
ATOM     10  H   UNL A   1      31.048  21.196  25.949  1.00  0.00     0.163 HD
BRANCH   9  11
ATOM     11  C   UNL A   1      31.440  23.155  25.904  1.00  0.00     0.205 A 
ATOM     12  C   UNL A   1      31.073  25.383  26.087  1.00  0.00     0.142 A 
ATOM     13  N   UNL A   1      30.062  24.810  26.743  1.00  0.00    -0.169 NA
ATOM     14  C   UNL A   1      31.919  24.405  25.497  1.00  0.00     0.334 A 
ATOM     15  N   UNL A   1      30.282  23.490  26.605  1.00  0.00    -0.246 N 
ATOM     16  C   UNL A   1      29.271  22.623  27.168  1.00  0.00     0.176 C 
BRANCH  12  17
ATOM     17  C   UNL A   1      31.153  26.877  26.024  1.00  0.00     0.062 C 
ATOM     18  C   UNL A   1      30.649  27.436  24.701  1.00  0.00     0.011 C 
ENDBRANCH  12  17
BRANCH  14  19
ATOM     19  N   UNL A   1      33.021  24.746  24.654  1.00  0.00     0.068 N 
ATOM     20  O   UNL A   1      34.130  24.863  25.190  1.00  0.00    -0.258 OA
ATOM     21  O   UNL A   1      32.759  25.005  23.473  1.00  0.00    -0.258 OA
ENDBRANCH  14  19
ENDBRANCH   9  11
ENDBRANCH   7   9
BRANCH   7  22
ATOM     22  C   UNL A   1      33.373  21.288  24.024  1.00  0.00     0.035 C 
ATOM     23  C   UNL A   1      32.230  20.913  23.096  1.00  0.00     0.007 C 
ENDBRANCH   7  22
ENDBRANCH   4   7
ENDBRANCH   2   3
ENDBRANCH   1   2
BRANCH   1  24
ATOM     24  C   UNL A   1      38.084  19.786  24.682  1.00  0.00     0.023 C 
BRANCH  24  25
ATOM     25  C   UNL A   1      39.101  20.157  25.756  1.00  0.00     0.116 C 
BRANCH  25  26
ATOM     26  N   UNL A   1      40.144  19.157  25.923  1.00  0.00    -0.352 N 
ATOM     27  C   UNL A   1      41.478  19.331  26.197  1.00  0.00     0.251 C 
ATOM     28  H   UNL A   1      39.853  18.222  25.825  1.00  0.00     0.163 HD
ATOM     29  O   UNL A   1      42.233  18.361  26.185  1.00  0.00    -0.269 OA
BRANCH  27  30
ATOM     30  C   UNL A   1      42.008  20.683  26.474  1.00  0.00     0.039 A 
ATOM     31  C   UNL A   1      42.244  21.544  25.400  1.00  0.00     0.014 A 
ATOM     32  C   UNL A   1      42.266  21.103  27.782  1.00  0.00     0.014 A 
ATOM     33  C   UNL A   1      42.689  22.846  25.642  1.00  0.00     0.010 A 
ATOM     34  C   UNL A   1      42.633  22.425  28.025  1.00  0.00     0.010 A 
ATOM     35  C   UNL A   1      42.859  23.307  26.958  1.00  0.00    -0.014 A 
BRANCH  35  36
ATOM     36  C   UNL A   1      43.273  24.707  27.232  1.00  0.00     0.031 A 
ATOM     37  C   UNL A   1      42.294  25.686  27.825  1.00  0.00     0.074 A 
ATOM     38  C   UNL A   1      44.508  25.118  26.881  1.00  0.00     0.049 A 
ATOM     39  N   UNL A   1      42.463  26.952  28.108  1.00  0.00    -0.248 NA
ATOM     40  C   UNL A   1      40.940  25.186  28.115  1.00  0.00     0.031 C 
ATOM     41  C   UNL A   1      45.521  24.287  26.226  1.00  0.00     0.029 A 
ATOM     42  N   UNL A   1      45.116  26.342  27.008  1.00  0.00    -0.354 N 
ATOM     43  C   UNL A   1      41.234  27.406  28.572  1.00  0.00     0.074 A 
ATOM     44  C   UNL A   1      40.318  26.291  28.498  1.00  0.00     0.031 C 
ATOM     45  C   UNL A   1      46.624  25.022  26.016  1.00  0.00     0.029 A 
ATOM     46  C   UNL A   1      46.390  26.381  26.491  1.00  0.00     0.049 A 
ATOM     47  H   UNL A   1      44.681  27.119  27.427  1.00  0.00     0.167 HD
ATOM     48  C   UNL A   1      40.906  28.631  29.045  1.00  0.00     0.034 A 
ATOM     49  C   UNL A   1      47.269  27.399  26.403  1.00  0.00     0.034 A 
ATOM     50  C   UNL A   1      41.832  29.728  29.150  1.00  0.00     0.049 A 
ATOM     51  C   UNL A   1      46.891  28.741  26.968  1.00  0.00     0.074 A 
ATOM     52  C   UNL A   1      41.621  30.981  29.695  1.00  0.00     0.029 A 
ATOM     53  N   UNL A   1      43.139  29.706  28.690  1.00  0.00    -0.354 N 
ATOM     54  N   UNL A   1      45.774  29.107  27.551  1.00  0.00    -0.248 NA
ATOM     55  C   UNL A   1      47.907  29.802  26.902  1.00  0.00     0.031 C 
ATOM     56  C   UNL A   1      42.791  31.730  29.534  1.00  0.00     0.029 A 
ATOM     57  C   UNL A   1      43.744  30.928  28.927  1.00  0.00     0.049 A 
ATOM     58  H   UNL A   1      43.572  28.935  28.257  1.00  0.00     0.167 HD
ATOM     59  C   UNL A   1      45.967  30.422  27.957  1.00  0.00     0.074 A 
ATOM     60  C   UNL A   1      47.315  30.783  27.569  1.00  0.00     0.031 C 
ATOM     61  C   UNL A   1      45.104  31.257  28.585  1.00  0.00     0.034 A 
BRANCH  48  62
ATOM     62  C   UNL A   1      39.493  28.841  29.530  1.00  0.00     0.023 A 
ATOM     63  C   UNL A   1      39.155  28.511  30.858  1.00  0.00     0.012 A 
ATOM     64  C   UNL A   1      38.519  29.419  28.692  1.00  0.00     0.148 A 
ATOM     65  C   UNL A   1      37.860  28.714  31.334  1.00  0.00     0.002 A 
ATOM     66  C   UNL A   1      37.244  29.665  29.189  1.00  0.00     0.091 A 
ATOM     67  F   UNL A   1      38.852  29.710  27.428  1.00  0.00    -0.205 F 
ATOM     68  C   UNL A   1      36.909  29.300  30.504  1.00  0.00     0.022 A 
BRANCH  66  69
ATOM     69  S   UNL A   1      35.971  30.494  28.231  1.00  0.00     0.127 S 
ATOM     70  O   UNL A   1      34.852  30.504  29.173  1.00  0.00    -0.237 OA
ATOM     71  O   UNL A   1      36.574  31.805  27.989  1.00  0.00    -0.237 OA
ATOM     72  O   UNL A   1      35.775  29.685  27.037  1.00  0.00    -0.744 OA
ENDBRANCH  66  69
ENDBRANCH  48  62
BRANCH  49  73
ATOM     73  C   UNL A   1      48.617  27.172  25.809  1.00  0.00     0.023 A 
ATOM     74  C   UNL A   1      49.658  26.681  26.622  1.00  0.00     0.012 A 
ATOM     75  C   UNL A   1      48.869  27.419  24.446  1.00  0.00     0.148 A 
ATOM     76  C   UNL A   1      50.934  26.474  26.096  1.00  0.00     0.002 A 
ATOM     77  C   UNL A   1      50.127  27.158  23.916  1.00  0.00     0.091 A 
ATOM     78  F   UNL A   1      47.867  27.894  23.693  1.00  0.00    -0.205 F 
ATOM     79  C   UNL A   1      51.166  26.703  24.743  1.00  0.00     0.022 A 
BRANCH  77  80
ATOM     80  S   UNL A   1      50.483  27.300  22.161  1.00  0.00     0.127 S 
ATOM     81  O   UNL A   1      49.459  26.438  21.577  1.00  0.00    -0.237 OA
ATOM     82  O   UNL A   1      50.290  28.732  21.930  1.00  0.00    -0.237 OA
ATOM     83  O   UNL A   1      51.858  26.846  22.001  1.00  0.00    -0.744 OA
ENDBRANCH  77  80
ENDBRANCH  49  73
BRANCH  61  84
ATOM     84  C   UNL A   1      45.598  32.634  28.946  1.00  0.00     0.023 A 
ATOM     85  C   UNL A   1      46.333  32.834  30.132  1.00  0.00     0.012 A 
ATOM     86  C   UNL A   1      45.397  33.716  28.067  1.00  0.00     0.148 A 
ATOM     87  C   UNL A   1      46.828  34.097  30.453  1.00  0.00     0.002 A 
ATOM     88  C   UNL A   1      45.939  34.960  28.367  1.00  0.00     0.091 A 
ATOM     89  F   UNL A   1      44.680  33.510  26.952  1.00  0.00    -0.205 F 
ATOM     90  C   UNL A   1      46.643  35.155  29.566  1.00  0.00     0.022 A 
BRANCH  88  91
ATOM     91  S   UNL A   1      45.839  36.352  27.238  1.00  0.00     0.127 S 
ATOM     92  O   UNL A   1      44.399  36.437  26.997  1.00  0.00    -0.237 OA
ATOM     93  O   UNL A   1      46.387  37.444  28.042  1.00  0.00    -0.237 OA
ATOM     94  O   UNL A   1      46.644  35.991  26.079  1.00  0.00    -0.744 OA
ENDBRANCH  88  91
ENDBRANCH  61  84
ENDBRANCH  35  36
ENDBRANCH  27  30
ENDBRANCH  25  26
ENDBRANCH  24  25
ENDBRANCH   1  24
TORSDOF 19
ENDMDL
MODEL 2
REMARK VINA RESULT:     -10.5      6.548     11.642
REMARK SMILES CCc1nn(C)c(N[C@@](C)(CC)C(=O)NCCCCNC(=O)c2ccc(-c3c4nc(c(-c5cccc(S(=O)(=O)[O-])c5F)c5ccc([nH]5)c(-c5cccc(S(=O)(=O)[O-])c5F)c5nc(c(-c6cccc(S(=O)(=O)[O-])c6F)c6ccc3[nH]6)C=C5)C=C4)cc2)c1[N+](=O)[O-]
REMARK SMILES IDX 17 1 16 2 15 3 13 4 14 5 9 7 10 8 8 9 7 11 3 12 4 13 86 14
REMARK SMILES IDX 5 15 6 16 2 17 1 18 87 19 88 20 89 21 11 22 12 23 18 24
REMARK SMILES IDX 19 25 20 26 21 27 22 29 23 30 24 31 85 32 25 33 84 34 26 35
REMARK SMILES IDX 27 36 28 37 78 38 29 39 83 40 77 41 79 42 30 43 82 44 76 45
REMARK SMILES IDX 75 46 31 48 63 49 43 50 62 51 44 52 47 53 61 54 80 55 45 56
REMARK SMILES IDX 46 57 60 59 81 60 48 61 32 62 33 63 41 64 34 65 36 66 42 67
REMARK SMILES IDX 35 68 37 69 38 70 39 71 40 72 64 73 65 74 73 75 66 76 68 77
REMARK SMILES IDX 74 78 67 79 69 80 70 81 71 82 72 83 49 84 50 85 58 86 51 87
REMARK SMILES IDX 53 88 59 89 52 90 54 91 55 92 56 93 57 94
REMARK H PARENT 15 6 8 10 20 28 79 47 47 58
REMARK Flexibility Score: inf
ROOT
ATOM      1  C   UNL A   1      31.791  30.279  26.668  1.00  0.00     0.023 C 
ENDROOT
BRANCH   1   2
ATOM      2  C   UNL A   1      31.690  29.684  25.267  1.00  0.00     0.116 C 
BRANCH   2   3
ATOM      3  N   UNL A   1      32.645  28.626  25.023  1.00  0.00    -0.354 N 
ATOM      4  C   UNL A   1      32.612  27.582  24.156  1.00  0.00     0.245 C 
ATOM      5  O   UNL A   1      33.715  27.257  23.693  1.00  0.00    -0.272 OA
ATOM      6  H   UNL A   1      33.455  28.670  25.580  1.00  0.00     0.163 HD
BRANCH   4   7
ATOM      7  C   UNL A   1      31.315  26.883  23.662  1.00  0.00     0.115 C 
ATOM      8  C   UNL A   1      31.092  27.539  22.267  1.00  0.00     0.045 C 
BRANCH   7   9
ATOM      9  N   UNL A   1      31.481  25.423  23.392  1.00  0.00    -0.351 N 
ATOM     10  H   UNL A   1      31.167  25.135  22.504  1.00  0.00     0.163 HD
BRANCH   9  11
ATOM     11  C   UNL A   1      31.998  24.409  24.170  1.00  0.00     0.205 A 
ATOM     12  C   UNL A   1      32.884  22.896  25.604  1.00  0.00     0.142 A 
ATOM     13  N   UNL A   1      33.379  22.571  24.409  1.00  0.00    -0.169 NA
ATOM     14  C   UNL A   1      31.977  23.986  25.504  1.00  0.00     0.334 A 
ATOM     15  N   UNL A   1      32.827  23.464  23.567  1.00  0.00    -0.246 N 
ATOM     16  C   UNL A   1      33.142  23.285  22.168  1.00  0.00     0.176 C 
BRANCH  12  17
ATOM     17  C   UNL A   1      33.285  22.097  26.806  1.00  0.00     0.062 C 
ATOM     18  C   UNL A   1      34.090  20.857  26.443  1.00  0.00     0.011 C 
ENDBRANCH  12  17
BRANCH  14  19
ATOM     19  N   UNL A   1      31.227  24.471  26.618  1.00  0.00     0.068 N 
ATOM     20  O   UNL A   1      31.541  25.578  27.074  1.00  0.00    -0.258 OA
ATOM     21  O   UNL A   1      30.395  23.698  27.109  1.00  0.00    -0.258 OA
ENDBRANCH  14  19
ENDBRANCH   9  11
ENDBRANCH   7   9
BRANCH   7  22
ATOM     22  C   UNL A   1      29.992  27.049  24.454  1.00  0.00     0.035 C 
ATOM     23  C   UNL A   1      28.708  26.655  23.745  1.00  0.00     0.007 C 
ENDBRANCH   7  22
ENDBRANCH   4   7
ENDBRANCH   2   3
ENDBRANCH   1   2
BRANCH   1  24
ATOM     24  C   UNL A   1      31.648  31.802  26.743  1.00  0.00     0.023 C 
BRANCH  24  25
ATOM     25  C   UNL A   1      32.874  32.559  27.244  1.00  0.00     0.116 C 
BRANCH  25  26
ATOM     26  N   UNL A   1      32.581  33.935  27.615  1.00  0.00    -0.352 N 
ATOM     27  C   UNL A   1      33.153  34.712  28.591  1.00  0.00     0.251 C 
ATOM     28  H   UNL A   1      31.871  34.372  27.091  1.00  0.00     0.163 HD
ATOM     29  O   UNL A   1      32.688  35.824  28.834  1.00  0.00    -0.269 OA
BRANCH  27  30
ATOM     30  C   UNL A   1      34.304  34.202  29.366  1.00  0.00     0.039 A 
ATOM     31  C   UNL A   1      34.058  33.381  30.469  1.00  0.00     0.014 A 
ATOM     32  C   UNL A   1      35.616  34.523  29.008  1.00  0.00     0.014 A 
ATOM     33  C   UNL A   1      35.130  32.840  31.181  1.00  0.00     0.010 A 
ATOM     34  C   UNL A   1      36.682  33.918  29.669  1.00  0.00     0.010 A 
ATOM     35  C   UNL A   1      36.451  33.080  30.770  1.00  0.00    -0.014 A 
BRANCH  35  36
ATOM     36  C   UNL A   1      37.600  32.461  31.481  1.00  0.00     0.031 A 
ATOM     37  C   UNL A   1      38.351  31.314  30.856  1.00  0.00     0.074 A 
ATOM     38  C   UNL A   1      37.923  32.884  32.719  1.00  0.00     0.049 A 
ATOM     39  N   UNL A   1      39.358  30.630  31.335  1.00  0.00    -0.248 NA
ATOM     40  C   UNL A   1      37.895  30.857  29.533  1.00  0.00     0.031 C 
ATOM     41  C   UNL A   1      37.222  33.932  33.465  1.00  0.00     0.029 A 
ATOM     42  N   UNL A   1      38.911  32.470  33.578  1.00  0.00    -0.354 N 
ATOM     43  C   UNL A   1      39.632  29.646  30.393  1.00  0.00     0.074 A 
ATOM     44  C   UNL A   1      38.662  29.796  29.332  1.00  0.00     0.031 C 
ATOM     45  C   UNL A   1      37.806  34.084  34.664  1.00  0.00     0.029 A 
ATOM     46  C   UNL A   1      38.900  33.128  34.787  1.00  0.00     0.049 A 
ATOM     47  H   UNL A   1      39.564  31.770  33.352  1.00  0.00     0.167 HD
ATOM     48  C   UNL A   1      40.619  28.720  30.396  1.00  0.00     0.034 A 
ATOM     49  C   UNL A   1      39.680  32.972  35.875  1.00  0.00     0.034 A 
ATOM     50  C   UNL A   1      41.605  28.598  31.437  1.00  0.00     0.049 A 
ATOM     51  C   UNL A   1      40.793  31.960  35.838  1.00  0.00     0.074 A 
ATOM     52  C   UNL A   1      42.697  27.751  31.493  1.00  0.00     0.029 A 
ATOM     53  N   UNL A   1      41.611  29.336  32.611  1.00  0.00    -0.354 N 
ATOM     54  N   UNL A   1      41.136  31.145  34.868  1.00  0.00    -0.248 NA
ATOM     55  C   UNL A   1      41.653  31.872  37.027  1.00  0.00     0.031 C 
ATOM     56  C   UNL A   1      43.345  27.952  32.715  1.00  0.00     0.029 A 
ATOM     57  C   UNL A   1      42.681  28.955  33.403  1.00  0.00     0.049 A 
ATOM     58  H   UNL A   1      40.951  30.027  32.846  1.00  0.00     0.167 HD
ATOM     59  C   UNL A   1      42.272  30.480  35.313  1.00  0.00     0.074 A 
ATOM     60  C   UNL A   1      42.570  30.999  36.632  1.00  0.00     0.031 C 
ATOM     61  C   UNL A   1      42.997  29.519  34.690  1.00  0.00     0.034 A 
BRANCH  48  62
ATOM     62  C   UNL A   1      40.713  27.790  29.212  1.00  0.00     0.023 A 
ATOM     63  C   UNL A   1      39.888  26.648  29.154  1.00  0.00     0.012 A 
ATOM     64  C   UNL A   1      41.573  28.076  28.133  1.00  0.00     0.148 A 
ATOM     65  C   UNL A   1      39.944  25.784  28.061  1.00  0.00     0.002 A 
ATOM     66  C   UNL A   1      41.586  27.238  27.024  1.00  0.00     0.091 A 
ATOM     67  F   UNL A   1      42.363  29.155  28.213  1.00  0.00    -0.205 F 
ATOM     68  C   UNL A   1      40.784  26.084  26.993  1.00  0.00     0.022 A 
BRANCH  66  69
ATOM     69  S   UNL A   1      42.568  27.580  25.560  1.00  0.00     0.127 S 
ATOM     70  O   UNL A   1      43.921  27.617  26.114  1.00  0.00    -0.237 OA
ATOM     71  O   UNL A   1      42.285  26.415  24.721  1.00  0.00    -0.237 OA
ATOM     72  O   UNL A   1      42.075  28.844  25.031  1.00  0.00    -0.744 OA
ENDBRANCH  66  69
ENDBRANCH  48  62
BRANCH  49  73
ATOM     73  C   UNL A   1      39.476  33.840  37.070  1.00  0.00     0.023 A 
ATOM     74  C   UNL A   1      39.906  35.182  37.034  1.00  0.00     0.012 A 
ATOM     75  C   UNL A   1      38.843  33.353  38.229  1.00  0.00     0.148 A 
ATOM     76  C   UNL A   1      39.741  36.011  38.143  1.00  0.00     0.002 A 
ATOM     77  C   UNL A   1      38.632  34.200  39.311  1.00  0.00     0.091 A 
ATOM     78  F   UNL A   1      38.451  32.071  38.246  1.00  0.00    -0.205 F 
ATOM     79  C   UNL A   1      39.097  35.524  39.277  1.00  0.00     0.022 A 
BRANCH  77  80
ATOM     80  S   UNL A   1      37.698  33.700  40.761  1.00  0.00     0.127 S 
ATOM     81  O   UNL A   1      38.614  32.755  41.395  1.00  0.00    -0.237 OA
ATOM     82  O   UNL A   1      37.538  34.971  41.468  1.00  0.00    -0.237 OA
ATOM     83  O   UNL A   1      36.456  33.134  40.254  1.00  0.00    -0.744 OA
ENDBRANCH  77  80
ENDBRANCH  49  73
BRANCH  61  84
ATOM     84  C   UNL A   1      44.221  28.995  35.396  1.00  0.00     0.023 A 
ATOM     85  C   UNL A   1      45.482  29.577  35.155  1.00  0.00     0.012 A 
ATOM     86  C   UNL A   1      44.104  27.973  36.359  1.00  0.00     0.148 A 
ATOM     87  C   UNL A   1      46.612  29.124  35.834  1.00  0.00     0.002 A 
ATOM     88  C   UNL A   1      45.225  27.564  37.071  1.00  0.00     0.091 A 
ATOM     89  F   UNL A   1      42.899  27.420  36.562  1.00  0.00    -0.205 F 
ATOM     90  C   UNL A   1      46.482  28.129  36.800  1.00  0.00     0.022 A 
BRANCH  88  91
ATOM     91  S   UNL A   1      45.135  26.362  38.402  1.00  0.00     0.127 S 
ATOM     92  O   UNL A   1      45.290  25.102  37.676  1.00  0.00    -0.237 OA
ATOM     93  O   UNL A   1      46.281  26.732  39.232  1.00  0.00    -0.237 OA
ATOM     94  O   UNL A   1      43.839  26.559  39.037  1.00  0.00    -0.744 OA
ENDBRANCH  88  91
ENDBRANCH  61  84
ENDBRANCH  35  36
ENDBRANCH  27  30
ENDBRANCH  25  26
ENDBRANCH  24  25
ENDBRANCH   1  24
TORSDOF 19
ENDMDL
MODEL 3
REMARK VINA RESULT:     -10.3      1.602      2.420
REMARK SMILES CCc1nn(C)c(N[C@@](C)(CC)C(=O)NCCCCNC(=O)c2ccc(-c3c4nc(c(-c5cccc(S(=O)(=O)[O-])c5F)c5ccc([nH]5)c(-c5cccc(S(=O)(=O)[O-])c5F)c5nc(c(-c6cccc(S(=O)(=O)[O-])c6F)c6ccc3[nH]6)C=C5)C=C4)cc2)c1[N+](=O)[O-]
REMARK SMILES IDX 17 1 16 2 15 3 13 4 14 5 9 7 10 8 8 9 7 11 3 12 4 13 86 14
REMARK SMILES IDX 5 15 6 16 2 17 1 18 87 19 88 20 89 21 11 22 12 23 18 24
REMARK SMILES IDX 19 25 20 26 21 27 22 29 23 30 24 31 85 32 25 33 84 34 26 35
REMARK SMILES IDX 27 36 28 37 78 38 29 39 83 40 77 41 79 42 30 43 82 44 76 45
REMARK SMILES IDX 75 46 31 48 63 49 43 50 62 51 44 52 47 53 61 54 80 55 45 56
REMARK SMILES IDX 46 57 60 59 81 60 48 61 32 62 33 63 41 64 34 65 36 66 42 67
REMARK SMILES IDX 35 68 37 69 38 70 39 71 40 72 64 73 65 74 73 75 66 76 68 77
REMARK SMILES IDX 74 78 67 79 69 80 70 81 71 82 72 83 49 84 50 85 58 86 51 87
REMARK SMILES IDX 53 88 59 89 52 90 54 91 55 92 56 93 57 94
REMARK H PARENT 15 6 8 10 20 28 79 47 47 58
REMARK Flexibility Score: inf
ROOT
ATOM      1  C   UNL A   1      35.585  21.281  25.881  1.00  0.00     0.023 C 
ENDROOT
BRANCH   1   2
ATOM      2  C   UNL A   1      34.233  21.468  25.200  1.00  0.00     0.116 C 
BRANCH   2   3
ATOM      3  N   UNL A   1      34.325  22.114  23.911  1.00  0.00    -0.354 N 
ATOM      4  C   UNL A   1      34.364  23.430  23.576  1.00  0.00     0.245 C 
ATOM      5  O   UNL A   1      35.065  23.693  22.588  1.00  0.00    -0.272 OA
ATOM      6  H   UNL A   1      34.366  21.496  23.146  1.00  0.00     0.163 HD
BRANCH   4   7
ATOM      7  C   UNL A   1      33.695  24.569  24.393  1.00  0.00     0.115 C 
ATOM      8  C   UNL A   1      34.681  24.751  25.585  1.00  0.00     0.045 C 
BRANCH   7   9
ATOM      9  N   UNL A   1      33.678  25.887  23.689  1.00  0.00    -0.351 N 
ATOM     10  H   UNL A   1      34.563  26.204  23.398  1.00  0.00     0.163 HD
BRANCH   9  11
ATOM     11  C   UNL A   1      32.638  26.736  23.377  1.00  0.00     0.205 A 
ATOM     12  C   UNL A   1      30.862  28.109  23.074  1.00  0.00     0.142 A 
ATOM     13  N   UNL A   1      30.908  27.355  21.974  1.00  0.00    -0.169 NA
ATOM     14  C   UNL A   1      31.944  27.810  23.946  1.00  0.00     0.334 A 
ATOM     15  N   UNL A   1      31.980  26.562  22.160  1.00  0.00    -0.246 N 
ATOM     16  C   UNL A   1      32.308  25.684  21.060  1.00  0.00     0.176 C 
BRANCH  12  17
ATOM     17  C   UNL A   1      29.778  29.132  23.216  1.00  0.00     0.062 C 
ATOM     18  C   UNL A   1      29.661  30.036  21.996  1.00  0.00     0.011 C 
ENDBRANCH  12  17
BRANCH  14  19
ATOM     19  N   UNL A   1      32.190  28.540  25.148  1.00  0.00     0.068 N 
ATOM     20  O   UNL A   1      32.613  29.698  25.031  1.00  0.00    -0.258 OA
ATOM     21  O   UNL A   1      32.066  27.922  26.212  1.00  0.00    -0.258 OA
ENDBRANCH  14  19
ENDBRANCH   9  11
ENDBRANCH   7   9
BRANCH   7  22
ATOM     22  C   UNL A   1      32.284  24.364  25.004  1.00  0.00     0.035 C 
ATOM     23  C   UNL A   1      32.187  24.322  26.520  1.00  0.00     0.007 C 
ENDBRANCH   7  22
ENDBRANCH   4   7
ENDBRANCH   2   3
ENDBRANCH   1   2
BRANCH   1  24
ATOM     24  C   UNL A   1      36.702  20.747  24.980  1.00  0.00     0.023 C 
BRANCH  24  25
ATOM     25  C   UNL A   1      38.112  21.222  25.319  1.00  0.00     0.116 C 
BRANCH  25  26
ATOM     26  N   UNL A   1      39.028  20.128  25.602  1.00  0.00    -0.352 N 
ATOM     27  C   UNL A   1      40.319  20.175  26.068  1.00  0.00     0.251 C 
ATOM     28  H   UNL A   1      38.673  19.225  25.437  1.00  0.00     0.163 HD
ATOM     29  O   UNL A   1      40.979  19.140  26.135  1.00  0.00    -0.269 OA
BRANCH  27  30
ATOM     30  C   UNL A   1      40.921  21.468  26.456  1.00  0.00     0.039 A 
ATOM     31  C   UNL A   1      41.724  22.139  25.530  1.00  0.00     0.014 A 
ATOM     32  C   UNL A   1      40.693  22.021  27.720  1.00  0.00     0.014 A 
ATOM     33  C   UNL A   1      42.255  23.390  25.854  1.00  0.00     0.010 A 
ATOM     34  C   UNL A   1      41.157  23.301  28.009  1.00  0.00     0.010 A 
ATOM     35  C   UNL A   1      41.952  23.995  27.085  1.00  0.00    -0.014 A 
BRANCH  35  36
ATOM     36  C   UNL A   1      42.460  25.351  27.418  1.00  0.00     0.031 A 
ATOM     37  C   UNL A   1      41.558  26.357  28.083  1.00  0.00     0.074 A 
ATOM     38  C   UNL A   1      43.711  25.701  27.057  1.00  0.00     0.049 A 
ATOM     39  N   UNL A   1      41.814  27.594  28.424  1.00  0.00    -0.248 NA
ATOM     40  C   UNL A   1      40.182  25.929  28.381  1.00  0.00     0.031 C 
ATOM     41  C   UNL A   1      44.654  24.843  26.337  1.00  0.00     0.029 A 
ATOM     42  N   UNL A   1      44.398  26.877  27.229  1.00  0.00    -0.354 N 
ATOM     43  C   UNL A   1      40.627  28.100  28.940  1.00  0.00     0.074 A 
ATOM     44  C   UNL A   1      39.640  27.049  28.834  1.00  0.00     0.031 C 
ATOM     45  C   UNL A   1      45.797  25.517  26.136  1.00  0.00     0.029 A 
ATOM     46  C   UNL A   1      45.661  26.862  26.683  1.00  0.00     0.049 A 
ATOM     47  H   UNL A   1      44.022  27.657  27.697  1.00  0.00     0.167 HD
ATOM     48  C   UNL A   1      40.387  29.317  29.482  1.00  0.00     0.034 A 
ATOM     49  C   UNL A   1      46.600  27.826  26.624  1.00  0.00     0.034 A 
ATOM     50  C   UNL A   1      41.383  30.347  29.618  1.00  0.00     0.049 A 
ATOM     51  C   UNL A   1      46.320  29.159  27.265  1.00  0.00     0.074 A 
ATOM     52  C   UNL A   1      41.264  31.582  30.229  1.00  0.00     0.029 A 
ATOM     53  N   UNL A   1      42.676  30.267  29.125  1.00  0.00    -0.354 N 
ATOM     54  N   UNL A   1      45.242  29.563  27.893  1.00  0.00    -0.248 NA
ATOM     55  C   UNL A   1      47.400  30.156  27.226  1.00  0.00     0.031 C 
ATOM     56  C   UNL A   1      42.476  32.263  30.077  1.00  0.00     0.029 A 
ATOM     57  C   UNL A   1      43.363  31.435  29.408  1.00  0.00     0.049 A 
ATOM     58  H   UNL A   1      43.050  29.494  28.644  1.00  0.00     0.167 HD
ATOM     59  C   UNL A   1      45.527  30.841  28.358  1.00  0.00     0.074 A 
ATOM     60  C   UNL A   1      46.886  31.138  27.955  1.00  0.00     0.031 C 
ATOM     61  C   UNL A   1      44.733  31.696  29.048  1.00  0.00     0.034 A 
BRANCH  48  62
ATOM     62  C   UNL A   1      39.002  29.590  30.011  1.00  0.00     0.023 A 
ATOM     63  C   UNL A   1      38.658  29.175  31.314  1.00  0.00     0.012 A 
ATOM     64  C   UNL A   1      38.062  30.308  29.245  1.00  0.00     0.148 A 
ATOM     65  C   UNL A   1      37.389  29.432  31.832  1.00  0.00     0.002 A 
ATOM     66  C   UNL A   1      36.817  30.605  29.787  1.00  0.00     0.091 A 
ATOM     67  F   UNL A   1      38.398  30.679  28.003  1.00  0.00    -0.205 F 
ATOM     68  C   UNL A   1      36.474  30.156  31.074  1.00  0.00     0.022 A 
BRANCH  66  69
ATOM     69  S   UNL A   1      35.597  31.604  28.928  1.00  0.00     0.127 S 
ATOM     70  O   UNL A   1      35.015  30.630  28.004  1.00  0.00    -0.237 OA
ATOM     71  O   UNL A   1      34.711  32.013  30.018  1.00  0.00    -0.237 OA
ATOM     72  O   UNL A   1      36.336  32.693  28.303  1.00  0.00    -0.744 OA
ENDBRANCH  66  69
ENDBRANCH  48  62
BRANCH  49  73
ATOM     73  C   UNL A   1      47.918  27.546  25.987  1.00  0.00     0.023 A 
ATOM     74  C   UNL A   1      49.012  27.173  26.793  1.00  0.00     0.012 A 
ATOM     75  C   UNL A   1      48.089  27.627  24.592  1.00  0.00     0.148 A 
ATOM     76  C   UNL A   1      50.261  26.920  26.224  1.00  0.00     0.002 A 
ATOM     77  C   UNL A   1      49.321  27.319  24.026  1.00  0.00     0.091 A 
ATOM     78  F   UNL A   1      47.038  27.992  23.844  1.00  0.00    -0.205 F 
ATOM     79  C   UNL A   1      50.413  26.984  24.842  1.00  0.00     0.022 A 
BRANCH  77  80
ATOM     80  S   UNL A   1      49.577  27.248  22.250  1.00  0.00     0.127 S 
ATOM     81  O   UNL A   1      49.239  28.610  21.845  1.00  0.00    -0.237 OA
ATOM     82  O   UNL A   1      51.000  26.915  22.165  1.00  0.00    -0.237 OA
ATOM     83  O   UNL A   1      48.686  26.204  21.765  1.00  0.00    -0.744 OA
ENDBRANCH  77  80
ENDBRANCH  49  73
BRANCH  61  84
ATOM     84  C   UNL A   1      45.321  33.019  29.465  1.00  0.00     0.023 A 
ATOM     85  C   UNL A   1      45.994  33.138  30.698  1.00  0.00     0.012 A 
ATOM     86  C   UNL A   1      45.272  34.126  28.595  1.00  0.00     0.148 A 
ATOM     87  C   UNL A   1      46.576  34.348  31.073  1.00  0.00     0.002 A 
ATOM     88  C   UNL A   1      45.900  35.313  28.951  1.00  0.00     0.091 A 
ATOM     89  F   UNL A   1      44.612  33.998  27.435  1.00  0.00    -0.205 F 
ATOM     90  C   UNL A   1      46.540  35.430  30.196  1.00  0.00     0.022 A 
BRANCH  88  91
ATOM     91  S   UNL A   1      45.993  36.724  27.844  1.00  0.00     0.127 S 
ATOM     92  O   UNL A   1      44.604  37.179  27.825  1.00  0.00    -0.237 OA
ATOM     93  O   UNL A   1      46.916  37.611  28.551  1.00  0.00    -0.237 OA
ATOM     94  O   UNL A   1      46.497  36.210  26.578  1.00  0.00    -0.744 OA
ENDBRANCH  88  91
ENDBRANCH  61  84
ENDBRANCH  35  36
ENDBRANCH  27  30
ENDBRANCH  25  26
ENDBRANCH  24  25
ENDBRANCH   1  24
TORSDOF 19
ENDMDL
