MODEL 1
REMARK VINA RESULT:     -12.1      0.000      0.000
REMARK SMILES Cc1cc(S(=O)(=O)Nc2ccc(Cl)cc2F)ccc1OCC(=O)NCCCCNC(=O)c1ccc(-c2c3nc(c(-c4cccc(S(=O)(=O)[O-])c4F)c4ccc([nH]4)c(-c4cccc(S(=O)(=O)[O-])c4F)c4nc(c(-c5cccc(S(=O)(=O)[O-])c5F)c5ccc2[nH]5)C=C4)C=C3)cc1
REMARK SMILES IDX 25 1 24 2 22 3 23 4 21 6 20 7 19 8 1 9 2 10 3 11 4 12 18 13
REMARK SMILES IDX 17 14 5 15 6 16 7 17 8 18 9 20 10 21 15 22 11 23 14 24 16 25
REMARK SMILES IDX 12 26 13 27 26 28 27 29 28 30 29 31 30 32 31 34 32 35 33 36
REMARK SMILES IDX 94 37 34 38 93 39 35 40 36 41 37 42 87 43 38 44 92 45 86 46
REMARK SMILES IDX 88 47 39 48 91 49 85 50 84 51 40 53 72 54 52 55 71 56 53 57
REMARK SMILES IDX 56 58 70 59 89 60 54 61 55 62 69 64 90 65 57 66 41 67 42 68
REMARK SMILES IDX 50 69 43 70 45 71 51 72 44 73 46 74 47 75 48 76 49 77 73 78
REMARK SMILES IDX 74 79 82 80 75 81 77 82 83 83 76 84 78 85 79 86 80 87 81 88
REMARK SMILES IDX 58 89 59 90 67 91 60 92 62 93 68 94 61 95 63 96 64 97 65 98
REMARK SMILES IDX 66 99
REMARK H PARENT 24 5 8 19 29 33 88 52 56 63
REMARK Flexibility Score: inf
ROOT
ATOM      1  C   UNL A   1      32.894  29.186  23.565  1.00  0.00     0.116 C 
ENDROOT
BRANCH   1   2
ATOM      2  N   UNL A   1      31.451  29.327  23.493  1.00  0.00    -0.353 N 
ATOM      3  C   UNL A   1      30.503  28.378  23.239  1.00  0.00     0.257 C 
ATOM      4  O   UNL A   1      29.313  28.687  23.325  1.00  0.00    -0.271 OA
ATOM      5  H   UNL A   1      31.106  30.235  23.650  1.00  0.00     0.163 HD
BRANCH   3   6
ATOM      6  C   UNL A   1      30.931  26.947  22.912  1.00  0.00     0.329 C 
BRANCH   6   7
ATOM      7  O   UNL A   1      31.292  26.074  23.960  1.00  0.00    -0.484 OA
BRANCH   7   8
ATOM      8  C   UNL A   1      32.546  25.545  24.044  1.00  0.00     0.123 A 
ATOM      9  C   UNL A   1      32.831  24.451  21.719  1.00  0.00     0.048 C 
ATOM     10  C   UNL A   1      33.251  24.762  23.125  1.00  0.00    -0.008 A 
ATOM     11  C   UNL A   1      34.489  24.208  23.535  1.00  0.00     0.029 A 
ATOM     12  C   UNL A   1      35.041  24.464  24.799  1.00  0.00     0.088 A 
ATOM     13  C   UNL A   1      33.125  25.803  25.297  1.00  0.00     0.048 A 
ATOM     14  C   UNL A   1      34.401  25.357  25.636  1.00  0.00     0.026 A 
BRANCH  12  15
ATOM     15  S   UNL A   1      36.453  23.487  25.260  1.00  0.00     0.262 S 
ATOM     16  O   UNL A   1      37.037  22.974  24.039  1.00  0.00    -0.201 OA
ATOM     17  O   UNL A   1      37.237  24.318  26.153  1.00  0.00    -0.201 OA
BRANCH  15  18
ATOM     18  N   UNL A   1      36.051  22.162  26.217  1.00  0.00    -0.277 N 
ATOM     19  H   UNL A   1      36.414  22.141  27.133  1.00  0.00     0.180 HD
BRANCH  18  20
ATOM     20  C   UNL A   1      35.234  21.070  25.815  1.00  0.00     0.085 A 
ATOM     21  C   UNL A   1      33.875  21.177  26.141  1.00  0.00     0.031 A 
ATOM     22  C   UNL A   1      35.669  19.964  25.075  1.00  0.00     0.148 A 
ATOM     23  C   UNL A   1      32.952  20.259  25.639  1.00  0.00     0.023 A 
ATOM     24  C   UNL A   1      34.749  19.049  24.561  1.00  0.00     0.062 A 
ATOM     25  F   UNL A   1      36.962  19.816  24.762  1.00  0.00    -0.205 F 
ATOM     26  C   UNL A   1      33.392  19.214  24.829  1.00  0.00     0.044 A 
ATOM     27  Cl  UNL A   1      32.240  18.139  24.143  1.00  0.00    -0.084 Cl
ENDBRANCH  18  20
ENDBRANCH  15  18
ENDBRANCH  12  15
ENDBRANCH   7   8
ENDBRANCH   6   7
ENDBRANCH   3   6
ENDBRANCH   1   2
BRANCH   1  28
ATOM     28  C   UNL A   1      33.460  29.387  24.974  1.00  0.00     0.023 C 
BRANCH  28  29
ATOM     29  C   UNL A   1      32.472  29.827  26.052  1.00  0.00     0.023 C 
BRANCH  29  30
ATOM     30  C   UNL A   1      33.070  29.807  27.440  1.00  0.00     0.116 C 
BRANCH  30  31
ATOM     31  N   UNL A   1      33.773  31.024  27.793  1.00  0.00    -0.352 N 
ATOM     32  C   UNL A   1      34.938  31.195  28.514  1.00  0.00     0.251 C 
ATOM     33  H   UNL A   1      33.356  31.855  27.472  1.00  0.00     0.163 HD
ATOM     34  O   UNL A   1      35.193  32.332  28.912  1.00  0.00    -0.269 OA
BRANCH  32  35
ATOM     35  C   UNL A   1      35.932  30.094  28.664  1.00  0.00     0.039 A 
ATOM     36  C   UNL A   1      36.208  29.627  29.958  1.00  0.00     0.014 A 
ATOM     37  C   UNL A   1      36.754  29.695  27.617  1.00  0.00     0.014 A 
ATOM     38  C   UNL A   1      37.428  29.008  30.233  1.00  0.00     0.010 A 
ATOM     39  C   UNL A   1      38.008  29.217  27.896  1.00  0.00     0.010 A 
ATOM     40  C   UNL A   1      38.364  28.927  29.214  1.00  0.00    -0.014 A 
BRANCH  40  41
ATOM     41  C   UNL A   1      39.756  28.553  29.354  1.00  0.00     0.031 A 
ATOM     42  C   UNL A   1      40.164  27.176  29.022  1.00  0.00     0.074 A 
ATOM     43  C   UNL A   1      40.653  29.563  29.416  1.00  0.00     0.049 A 
ATOM     44  N   UNL A   1      41.349  26.712  29.199  1.00  0.00    -0.248 NA
ATOM     45  C   UNL A   1      39.240  26.202  28.449  1.00  0.00     0.031 C 
ATOM     46  C   UNL A   1      42.052  29.535  29.016  1.00  0.00     0.029 A 
ATOM     47  N   UNL A   1      40.507  30.800  30.053  1.00  0.00    -0.354 N 
ATOM     48  C   UNL A   1      41.427  25.506  28.532  1.00  0.00     0.074 A 
ATOM     49  C   UNL A   1      40.073  25.206  28.138  1.00  0.00     0.031 C 
ATOM     50  C   UNL A   1      42.699  30.529  29.644  1.00  0.00     0.029 A 
ATOM     51  C   UNL A   1      41.766  31.088  30.607  1.00  0.00     0.049 A 
ATOM     52  H   UNL A   1      39.692  31.352  30.103  1.00  0.00     0.167 HD
ATOM     53  C   UNL A   1      42.660  24.982  28.278  1.00  0.00     0.034 A 
ATOM     54  C   UNL A   1      41.988  31.184  31.951  1.00  0.00     0.034 A 
ATOM     55  C   UNL A   1      43.702  25.831  28.866  1.00  0.00     0.049 A 
ATOM     56  C   UNL A   1      43.030  30.197  32.450  1.00  0.00     0.074 A 
ATOM     57  C   UNL A   1      44.495  26.845  28.353  1.00  0.00     0.029 A 
ATOM     58  N   UNL A   1      43.825  25.893  30.247  1.00  0.00    -0.354 N 
ATOM     59  N   UNL A   1      43.487  29.199  31.746  1.00  0.00    -0.248 NA
ATOM     60  C   UNL A   1      43.642  30.253  33.774  1.00  0.00     0.031 C 
ATOM     61  C   UNL A   1      45.037  27.572  29.447  1.00  0.00     0.029 A 
ATOM     62  C   UNL A   1      44.599  26.978  30.619  1.00  0.00     0.049 A 
ATOM     63  H   UNL A   1      43.417  25.254  30.874  1.00  0.00     0.167 HD
ATOM     64  C   UNL A   1      44.346  28.438  32.495  1.00  0.00     0.074 A 
ATOM     65  C   UNL A   1      44.457  29.181  33.739  1.00  0.00     0.031 C 
ATOM     66  C   UNL A   1      44.845  27.248  32.032  1.00  0.00     0.034 A 
BRANCH  53  67
ATOM     67  C   UNL A   1      42.978  23.876  27.287  1.00  0.00     0.023 A 
ATOM     68  C   UNL A   1      43.766  24.233  26.167  1.00  0.00     0.012 A 
ATOM     69  C   UNL A   1      42.545  22.531  27.332  1.00  0.00     0.148 A 
ATOM     70  C   UNL A   1      44.033  23.350  25.116  1.00  0.00     0.002 A 
ATOM     71  C   UNL A   1      42.765  21.661  26.257  1.00  0.00     0.091 A 
ATOM     72  F   UNL A   1      41.981  22.052  28.444  1.00  0.00    -0.205 F 
ATOM     73  C   UNL A   1      43.506  22.071  25.146  1.00  0.00     0.022 A 
BRANCH  71  74
ATOM     74  S   UNL A   1      42.070  20.000  26.189  1.00  0.00     0.127 S 
ATOM     75  O   UNL A   1      42.742  19.434  25.018  1.00  0.00    -0.237 OA
ATOM     76  O   UNL A   1      42.492  19.427  27.466  1.00  0.00    -0.237 OA
ATOM     77  O   UNL A   1      40.631  20.167  26.024  1.00  0.00    -0.744 OA
ENDBRANCH  71  74
ENDBRANCH  53  67
BRANCH  54  78
ATOM     78  C   UNL A   1      40.799  31.677  32.713  1.00  0.00     0.023 A 
ATOM     79  C   UNL A   1      39.862  30.693  33.111  1.00  0.00     0.012 A 
ATOM     80  C   UNL A   1      40.817  32.910  33.390  1.00  0.00     0.148 A 
ATOM     81  C   UNL A   1      39.078  30.869  34.253  1.00  0.00     0.002 A 
ATOM     82  C   UNL A   1      40.021  33.081  34.525  1.00  0.00     0.091 A 
ATOM     83  F   UNL A   1      41.671  33.855  32.978  1.00  0.00    -0.205 F 
ATOM     84  C   UNL A   1      39.188  32.045  34.981  1.00  0.00     0.022 A 
BRANCH  82  85
ATOM     85  S   UNL A   1      40.115  34.564  35.541  1.00  0.00     0.127 S 
ATOM     86  O   UNL A   1      41.540  34.615  35.852  1.00  0.00    -0.237 OA
ATOM     87  O   UNL A   1      39.647  35.604  34.623  1.00  0.00    -0.237 OA
ATOM     88  O   UNL A   1      39.217  34.311  36.658  1.00  0.00    -0.744 OA
ENDBRANCH  82  85
ENDBRANCH  54  78
BRANCH  66  89
ATOM     89  C   UNL A   1      45.592  26.197  32.844  1.00  0.00     0.023 A 
ATOM     90  C   UNL A   1      46.992  26.188  32.972  1.00  0.00     0.012 A 
ATOM     91  C   UNL A   1      44.882  25.264  33.652  1.00  0.00     0.148 A 
ATOM     92  C   UNL A   1      47.656  25.292  33.820  1.00  0.00     0.002 A 
ATOM     93  C   UNL A   1      45.538  24.463  34.583  1.00  0.00     0.091 A 
ATOM     94  F   UNL A   1      43.555  25.123  33.512  1.00  0.00    -0.205 F 
ATOM     95  C   UNL A   1      46.929  24.451  34.650  1.00  0.00     0.022 A 
BRANCH  93  96
ATOM     96  S   UNL A   1      44.613  23.563  35.838  1.00  0.00     0.127 S 
ATOM     97  O   UNL A   1      45.675  23.099  36.727  1.00  0.00    -0.237 OA
ATOM     98  O   UNL A   1      43.756  24.606  36.406  1.00  0.00    -0.237 OA
ATOM     99  O   UNL A   1      43.890  22.535  35.101  1.00  0.00    -0.744 OA
ENDBRANCH  93  96
ENDBRANCH  66  89
ENDBRANCH  40  41
ENDBRANCH  32  35
ENDBRANCH  30  31
ENDBRANCH  29  30
ENDBRANCH  28  29
ENDBRANCH   1  28
TORSDOF 19
ENDMDL
MODEL 2
REMARK VINA RESULT:     -11.8      1.951      2.487
REMARK SMILES Cc1cc(S(=O)(=O)Nc2ccc(Cl)cc2F)ccc1OCC(=O)NCCCCNC(=O)c1ccc(-c2c3nc(c(-c4cccc(S(=O)(=O)[O-])c4F)c4ccc([nH]4)c(-c4cccc(S(=O)(=O)[O-])c4F)c4nc(c(-c5cccc(S(=O)(=O)[O-])c5F)c5ccc2[nH]5)C=C4)C=C3)cc1
REMARK SMILES IDX 25 1 24 2 22 3 23 4 21 6 20 7 19 8 1 9 2 10 3 11 4 12 18 13
REMARK SMILES IDX 17 14 5 15 6 16 7 17 8 18 9 20 10 21 15 22 11 23 14 24 16 25
REMARK SMILES IDX 12 26 13 27 26 28 27 29 28 30 29 31 30 32 31 34 32 35 33 36
REMARK SMILES IDX 94 37 34 38 93 39 35 40 36 41 37 42 87 43 38 44 92 45 86 46
REMARK SMILES IDX 88 47 39 48 91 49 85 50 84 51 40 53 72 54 52 55 71 56 53 57
REMARK SMILES IDX 56 58 70 59 89 60 54 61 55 62 69 64 90 65 57 66 41 67 42 68
REMARK SMILES IDX 50 69 43 70 45 71 51 72 44 73 46 74 47 75 48 76 49 77 73 78
REMARK SMILES IDX 74 79 82 80 75 81 77 82 83 83 76 84 78 85 79 86 80 87 81 88
REMARK SMILES IDX 58 89 59 90 67 91 60 92 62 93 68 94 61 95 63 96 64 97 65 98
REMARK SMILES IDX 66 99
REMARK H PARENT 24 5 8 19 29 33 88 52 56 63
REMARK Flexibility Score: inf
ROOT
ATOM      1  C   UNL A   1      33.825  28.678  24.256  1.00  0.00     0.116 C 
ENDROOT
BRANCH   1   2
ATOM      2  N   UNL A   1      32.680  29.248  23.567  1.00  0.00    -0.353 N 
ATOM      3  C   UNL A   1      31.966  28.745  22.519  1.00  0.00     0.257 C 
ATOM      4  O   UNL A   1      30.956  29.344  22.145  1.00  0.00    -0.271 OA
ATOM      5  H   UNL A   1      32.376  30.121  23.905  1.00  0.00     0.163 HD
BRANCH   3   6
ATOM      6  C   UNL A   1      32.396  27.429  21.871  1.00  0.00     0.329 C 
BRANCH   6   7
ATOM      7  O   UNL A   1      31.456  26.386  21.729  1.00  0.00    -0.484 OA
BRANCH   7   8
ATOM      8  C   UNL A   1      31.139  25.568  22.772  1.00  0.00     0.123 A 
ATOM      9  C   UNL A   1      29.099  26.773  23.807  1.00  0.00     0.048 C 
ATOM     10  C   UNL A   1      30.163  25.717  23.763  1.00  0.00    -0.008 A 
ATOM     11  C   UNL A   1      30.154  24.787  24.831  1.00  0.00     0.029 A 
ATOM     12  C   UNL A   1      31.047  23.707  24.892  1.00  0.00     0.088 A 
ATOM     13  C   UNL A   1      32.012  24.471  22.843  1.00  0.00     0.048 A 
ATOM     14  C   UNL A   1      31.905  23.494  23.830  1.00  0.00     0.026 A 
BRANCH  12  15
ATOM     15  S   UNL A   1      31.087  22.796  26.417  1.00  0.00     0.262 S 
ATOM     16  O   UNL A   1      31.446  23.728  27.465  1.00  0.00    -0.201 OA
ATOM     17  O   UNL A   1      29.831  22.072  26.481  1.00  0.00    -0.201 OA
BRANCH  15  18
ATOM     18  N   UNL A   1      32.240  21.571  26.422  1.00  0.00    -0.277 N 
ATOM     19  H   UNL A   1      31.955  20.684  26.744  1.00  0.00     0.180 HD
BRANCH  18  20
ATOM     20  C   UNL A   1      33.592  21.707  26.002  1.00  0.00     0.085 A 
ATOM     21  C   UNL A   1      34.309  22.754  26.598  1.00  0.00     0.031 A 
ATOM     22  C   UNL A   1      34.254  20.848  25.118  1.00  0.00     0.148 A 
ATOM     23  C   UNL A   1      35.686  22.869  26.403  1.00  0.00     0.023 A 
ATOM     24  C   UNL A   1      35.633  20.952  24.927  1.00  0.00     0.062 A 
ATOM     25  F   UNL A   1      33.598  19.849  24.514  1.00  0.00    -0.205 F 
ATOM     26  C   UNL A   1      36.345  21.951  25.588  1.00  0.00     0.044 A 
ATOM     27  Cl  UNL A   1      38.053  22.047  25.423  1.00  0.00    -0.084 Cl
ENDBRANCH  18  20
ENDBRANCH  15  18
ENDBRANCH  12  15
ENDBRANCH   7   8
ENDBRANCH   6   7
ENDBRANCH   3   6
ENDBRANCH   1   2
BRANCH   1  28
ATOM     28  C   UNL A   1      33.747  28.802  25.781  1.00  0.00     0.023 C 
BRANCH  28  29
ATOM     29  C   UNL A   1      32.885  29.935  26.332  1.00  0.00     0.023 C 
BRANCH  29  30
ATOM     30  C   UNL A   1      33.355  30.427  27.683  1.00  0.00     0.116 C 
BRANCH  30  31
ATOM     31  N   UNL A   1      34.263  31.553  27.612  1.00  0.00    -0.352 N 
ATOM     32  C   UNL A   1      35.589  31.646  27.988  1.00  0.00     0.251 C 
ATOM     33  H   UNL A   1      33.877  32.378  27.240  1.00  0.00     0.163 HD
ATOM     34  O   UNL A   1      36.070  32.775  28.082  1.00  0.00    -0.269 OA
BRANCH  32  35
ATOM     35  C   UNL A   1      36.450  30.435  28.115  1.00  0.00     0.039 A 
ATOM     36  C   UNL A   1      36.438  29.742  29.335  1.00  0.00     0.014 A 
ATOM     37  C   UNL A   1      37.425  30.122  27.175  1.00  0.00     0.014 A 
ATOM     38  C   UNL A   1      37.532  28.961  29.708  1.00  0.00     0.010 A 
ATOM     39  C   UNL A   1      38.563  29.475  27.583  1.00  0.00     0.010 A 
ATOM     40  C   UNL A   1      38.637  28.944  28.870  1.00  0.00    -0.014 A 
BRANCH  40  41
ATOM     41  C   UNL A   1      39.945  28.407  29.186  1.00  0.00     0.031 A 
ATOM     42  C   UNL A   1      40.261  27.020  28.799  1.00  0.00     0.074 A 
ATOM     43  C   UNL A   1      40.916  29.302  29.471  1.00  0.00     0.049 A 
ATOM     44  N   UNL A   1      41.351  26.415  29.110  1.00  0.00    -0.248 NA
ATOM     45  C   UNL A   1      39.347  26.200  28.009  1.00  0.00     0.031 C 
ATOM     46  C   UNL A   1      42.352  29.146  29.285  1.00  0.00     0.029 A 
ATOM     47  N   UNL A   1      40.795  30.499  30.186  1.00  0.00    -0.354 N 
ATOM     48  C   UNL A   1      41.413  25.258  28.359  1.00  0.00     0.074 A 
ATOM     49  C   UNL A   1      40.116  25.141  27.740  1.00  0.00     0.031 C 
ATOM     50  C   UNL A   1      42.987  30.013  30.089  1.00  0.00     0.029 A 
ATOM     51  C   UNL A   1      41.972  30.604  30.947  1.00  0.00     0.049 A 
ATOM     52  H   UNL A   1      40.042  31.134  30.161  1.00  0.00     0.167 HD
ATOM     53  C   UNL A   1      42.611  24.619  28.249  1.00  0.00     0.034 A 
ATOM     54  C   UNL A   1      41.985  30.577  32.312  1.00  0.00     0.034 A 
ATOM     55  C   UNL A   1      43.627  25.300  29.060  1.00  0.00     0.049 A 
ATOM     56  C   UNL A   1      42.830  29.446  32.873  1.00  0.00     0.074 A 
ATOM     57  C   UNL A   1      44.588  26.254  28.764  1.00  0.00     0.029 A 
ATOM     58  N   UNL A   1      43.533  25.249  30.443  1.00  0.00    -0.354 N 
ATOM     59  N   UNL A   1      43.292  28.456  32.161  1.00  0.00    -0.248 NA
ATOM     60  C   UNL A   1      43.226  29.337  34.274  1.00  0.00     0.031 C 
ATOM     61  C   UNL A   1      45.018  26.834  29.987  1.00  0.00     0.029 A 
ATOM     62  C   UNL A   1      44.342  26.211  31.023  1.00  0.00     0.049 A 
ATOM     63  H   UNL A   1      42.968  24.616  30.943  1.00  0.00     0.167 HD
ATOM     64  C   UNL A   1      43.941  27.552  32.960  1.00  0.00     0.074 A 
ATOM     65  C   UNL A   1      43.925  28.186  34.268  1.00  0.00     0.031 C 
ATOM     66  C   UNL A   1      44.386  26.349  32.475  1.00  0.00     0.034 A 
BRANCH  53  67
ATOM     67  C   UNL A   1      42.972  23.557  27.223  1.00  0.00     0.023 A 
ATOM     68  C   UNL A   1      43.704  23.989  26.092  1.00  0.00     0.012 A 
ATOM     69  C   UNL A   1      42.626  22.188  27.247  1.00  0.00     0.148 A 
ATOM     70  C   UNL A   1      43.997  23.149  25.013  1.00  0.00     0.002 A 
ATOM     71  C   UNL A   1      42.871  21.358  26.146  1.00  0.00     0.091 A 
ATOM     72  F   UNL A   1      42.124  21.648  28.361  1.00  0.00    -0.205 F 
ATOM     73  C   UNL A   1      43.554  21.839  25.026  1.00  0.00     0.022 A 
BRANCH  71  74
ATOM     74  S   UNL A   1      42.281  19.657  26.056  1.00  0.00     0.127 S 
ATOM     75  O   UNL A   1      40.841  19.842  25.862  1.00  0.00    -0.237 OA
ATOM     76  O   UNL A   1      42.988  19.137  24.888  1.00  0.00    -0.237 OA
ATOM     77  O   UNL A   1      42.632  19.036  27.328  1.00  0.00    -0.744 OA
ENDBRANCH  71  74
ENDBRANCH  53  67
BRANCH  54  78
ATOM     78  C   UNL A   1      40.746  31.145  32.926  1.00  0.00     0.023 A 
ATOM     79  C   UNL A   1      39.777  30.206  33.358  1.00  0.00     0.012 A 
ATOM     80  C   UNL A   1      40.718  32.443  33.466  1.00  0.00     0.148 A 
ATOM     81  C   UNL A   1      38.912  30.500  34.412  1.00  0.00     0.002 A 
ATOM     82  C   UNL A   1      39.841  32.732  34.514  1.00  0.00     0.091 A 
ATOM     83  F   UNL A   1      41.605  33.342  33.020  1.00  0.00    -0.205 F 
ATOM     84  C   UNL A   1      38.973  31.749  35.017  1.00  0.00     0.022 A 
BRANCH  82  85
ATOM     85  S   UNL A   1      39.866  34.316  35.369  1.00  0.00     0.127 S 
ATOM     86  O   UNL A   1      38.869  34.100  36.412  1.00  0.00    -0.237 OA
ATOM     87  O   UNL A   1      41.248  34.395  35.845  1.00  0.00    -0.237 OA
ATOM     88  O   UNL A   1      39.533  35.298  34.348  1.00  0.00    -0.744 OA
ENDBRANCH  82  85
ENDBRANCH  54  78
BRANCH  66  89
ATOM     89  C   UNL A   1      44.885  25.165  33.294  1.00  0.00     0.023 A 
ATOM     90  C   UNL A   1      44.117  24.006  33.499  1.00  0.00     0.012 A 
ATOM     91  C   UNL A   1      46.232  25.116  33.753  1.00  0.00     0.148 A 
ATOM     92  C   UNL A   1      44.634  22.877  34.148  1.00  0.00     0.002 A 
ATOM     93  C   UNL A   1      46.775  23.950  34.284  1.00  0.00     0.091 A 
ATOM     94  F   UNL A   1      47.002  26.213  33.702  1.00  0.00    -0.205 F 
ATOM     95  C   UNL A   1      45.972  22.835  34.512  1.00  0.00     0.022 A 
BRANCH  93  96
ATOM     96  S   UNL A   1      48.553  23.787  34.522  1.00  0.00     0.127 S 
ATOM     97  O   UNL A   1      48.770  24.562  35.741  1.00  0.00    -0.237 OA
ATOM     98  O   UNL A   1      48.718  22.341  34.682  1.00  0.00    -0.237 OA
ATOM     99  O   UNL A   1      49.141  24.322  33.301  1.00  0.00    -0.744 OA
ENDBRANCH  93  96
ENDBRANCH  66  89
ENDBRANCH  40  41
ENDBRANCH  32  35
ENDBRANCH  30  31
ENDBRANCH  29  30
ENDBRANCH  28  29
ENDBRANCH   1  28
TORSDOF 19
ENDMDL
MODEL 3
REMARK VINA RESULT:     -11.7      2.749      3.690
REMARK SMILES Cc1cc(S(=O)(=O)Nc2ccc(Cl)cc2F)ccc1OCC(=O)NCCCCNC(=O)c1ccc(-c2c3nc(c(-c4cccc(S(=O)(=O)[O-])c4F)c4ccc([nH]4)c(-c4cccc(S(=O)(=O)[O-])c4F)c4nc(c(-c5cccc(S(=O)(=O)[O-])c5F)c5ccc2[nH]5)C=C4)C=C3)cc1
REMARK SMILES IDX 25 1 24 2 22 3 23 4 21 6 20 7 19 8 1 9 2 10 3 11 4 12 18 13
REMARK SMILES IDX 17 14 5 15 6 16 7 17 8 18 9 20 10 21 15 22 11 23 14 24 16 25
REMARK SMILES IDX 12 26 13 27 26 28 27 29 28 30 29 31 30 32 31 34 32 35 33 36
REMARK SMILES IDX 94 37 34 38 93 39 35 40 36 41 37 42 87 43 38 44 92 45 86 46
REMARK SMILES IDX 88 47 39 48 91 49 85 50 84 51 40 53 72 54 52 55 71 56 53 57
REMARK SMILES IDX 56 58 70 59 89 60 54 61 55 62 69 64 90 65 57 66 41 67 42 68
REMARK SMILES IDX 50 69 43 70 45 71 51 72 44 73 46 74 47 75 48 76 49 77 73 78
REMARK SMILES IDX 74 79 82 80 75 81 77 82 83 83 76 84 78 85 79 86 80 87 81 88
REMARK SMILES IDX 58 89 59 90 67 91 60 92 62 93 68 94 61 95 63 96 64 97 65 98
REMARK SMILES IDX 66 99
REMARK H PARENT 24 5 8 19 29 33 88 52 56 63
REMARK Flexibility Score: inf
ROOT
ATOM      1  C   UNL A   1      33.584  29.749  26.032  1.00  0.00     0.116 C 
ENDROOT
BRANCH   1   2
ATOM      2  N   UNL A   1      32.775  29.558  24.842  1.00  0.00    -0.353 N 
ATOM      3  C   UNL A   1      31.778  28.655  24.613  1.00  0.00     0.257 C 
ATOM      4  O   UNL A   1      31.140  28.727  23.561  1.00  0.00    -0.271 OA
ATOM      5  H   UNL A   1      32.972  30.167  24.095  1.00  0.00     0.163 HD
BRANCH   3   6
ATOM      6  C   UNL A   1      31.437  27.614  25.680  1.00  0.00     0.329 C 
BRANCH   6   7
ATOM      7  O   UNL A   1      30.966  26.344  25.286  1.00  0.00    -0.484 OA
BRANCH   7   8
ATOM      8  C   UNL A   1      31.808  25.278  25.169  1.00  0.00     0.123 A 
ATOM      9  C   UNL A   1      30.588  23.810  23.426  1.00  0.00     0.048 C 
ATOM     10  C   UNL A   1      31.667  24.102  24.426  1.00  0.00    -0.008 A 
ATOM     11  C   UNL A   1      32.629  23.080  24.611  1.00  0.00     0.029 A 
ATOM     12  C   UNL A   1      33.731  23.234  25.466  1.00  0.00     0.088 A 
ATOM     13  C   UNL A   1      32.927  25.419  26.006  1.00  0.00     0.048 A 
ATOM     14  C   UNL A   1      33.931  24.456  26.077  1.00  0.00     0.026 A 
BRANCH  12  15
ATOM     15  S   UNL A   1      34.690  21.774  25.796  1.00  0.00     0.262 S 
ATOM     16  O   UNL A   1      36.068  22.190  25.945  1.00  0.00    -0.201 OA
ATOM     17  O   UNL A   1      34.011  21.090  26.881  1.00  0.00    -0.201 OA
BRANCH  15  18
ATOM     18  N   UNL A   1      34.638  20.655  24.541  1.00  0.00    -0.277 N 
ATOM     19  H   UNL A   1      35.025  20.927  23.677  1.00  0.00     0.180 HD
BRANCH  18  20
ATOM     20  C   UNL A   1      34.082  19.348  24.621  1.00  0.00     0.085 A 
ATOM     21  C   UNL A   1      34.995  18.292  24.492  1.00  0.00     0.031 A 
ATOM     22  C   UNL A   1      32.739  19.056  24.884  1.00  0.00     0.148 A 
ATOM     23  C   UNL A   1      34.594  16.978  24.737  1.00  0.00     0.023 A 
ATOM     24  C   UNL A   1      32.335  17.745  25.140  1.00  0.00     0.062 A 
ATOM     25  F   UNL A   1      31.834  20.037  24.994  1.00  0.00    -0.205 F 
ATOM     26  C   UNL A   1      33.271  16.714  25.085  1.00  0.00     0.044 A 
ATOM     27  Cl  UNL A   1      32.807  15.104  25.471  1.00  0.00    -0.084 Cl
ENDBRANCH  18  20
ENDBRANCH  15  18
ENDBRANCH  12  15
ENDBRANCH   7   8
ENDBRANCH   6   7
ENDBRANCH   3   6
ENDBRANCH   1   2
BRANCH   1  28
ATOM     28  C   UNL A   1      32.996  30.764  27.018  1.00  0.00     0.023 C 
BRANCH  28  29
ATOM     29  C   UNL A   1      33.941  31.309  28.085  1.00  0.00     0.023 C 
BRANCH  29  30
ATOM     30  C   UNL A   1      34.401  32.720  27.798  1.00  0.00     0.116 C 
BRANCH  30  31
ATOM     31  N   UNL A   1      33.742  33.726  28.606  1.00  0.00    -0.352 N 
ATOM     32  C   UNL A   1      34.001  34.131  29.901  1.00  0.00     0.251 C 
ATOM     33  H   UNL A   1      32.995  34.192  28.165  1.00  0.00     0.163 HD
ATOM     34  O   UNL A   1      33.140  34.808  30.462  1.00  0.00    -0.269 OA
BRANCH  32  35
ATOM     35  C   UNL A   1      35.330  33.904  30.537  1.00  0.00     0.039 A 
ATOM     36  C   UNL A   1      36.475  34.305  29.832  1.00  0.00     0.014 A 
ATOM     37  C   UNL A   1      35.481  33.106  31.665  1.00  0.00     0.014 A 
ATOM     38  C   UNL A   1      37.704  33.696  30.089  1.00  0.00     0.010 A 
ATOM     39  C   UNL A   1      36.645  32.401  31.834  1.00  0.00     0.010 A 
ATOM     40  C   UNL A   1      37.739  32.658  31.007  1.00  0.00    -0.014 A 
BRANCH  40  41
ATOM     41  C   UNL A   1      38.843  31.747  31.231  1.00  0.00     0.031 A 
ATOM     42  C   UNL A   1      38.820  30.423  30.585  1.00  0.00     0.074 A 
ATOM     43  C   UNL A   1      39.990  32.287  31.701  1.00  0.00     0.049 A 
ATOM     44  N   UNL A   1      39.697  29.505  30.789  1.00  0.00    -0.248 NA
ATOM     45  C   UNL A   1      37.782  30.032  29.636  1.00  0.00     0.031 C 
ATOM     46  C   UNL A   1      41.347  31.796  31.511  1.00  0.00     0.029 A 
ATOM     47  N   UNL A   1      40.130  33.320  32.635  1.00  0.00    -0.354 N 
ATOM     48  C   UNL A   1      39.511  28.532  29.827  1.00  0.00     0.074 A 
ATOM     49  C   UNL A   1      38.271  28.877  29.177  1.00  0.00     0.031 C 
ATOM     50  C   UNL A   1      42.127  32.301  32.479  1.00  0.00     0.029 A 
ATOM     51  C   UNL A   1      41.242  32.969  33.420  1.00  0.00     0.049 A 
ATOM     52  H   UNL A   1      39.567  34.124  32.723  1.00  0.00     0.167 HD
ATOM     53  C   UNL A   1      40.512  27.632  29.612  1.00  0.00     0.034 A 
ATOM     54  C   UNL A   1      41.158  32.688  34.753  1.00  0.00     0.034 A 
ATOM     55  C   UNL A   1      41.611  27.861  30.557  1.00  0.00     0.049 A 
ATOM     56  C   UNL A   1      41.648  31.291  35.095  1.00  0.00     0.074 A 
ATOM     57  C   UNL A   1      42.801  28.566  30.468  1.00  0.00     0.029 A 
ATOM     58  N   UNL A   1      41.416  27.581  31.901  1.00  0.00    -0.354 N 
ATOM     59  N   UNL A   1      41.888  30.363  34.209  1.00  0.00    -0.248 NA
ATOM     60  C   UNL A   1      41.909  30.824  36.454  1.00  0.00     0.031 C 
ATOM     61  C   UNL A   1      43.284  28.776  31.787  1.00  0.00     0.029 A 
ATOM     62  C   UNL A   1      42.404  28.172  32.670  1.00  0.00     0.049 A 
ATOM     63  H   UNL A   1      40.678  27.038  32.258  1.00  0.00     0.167 HD
ATOM     64  C   UNL A   1      42.231  29.189  34.827  1.00  0.00     0.074 A 
ATOM     65  C   UNL A   1      42.290  29.551  36.233  1.00  0.00     0.031 C 
ATOM     66  C   UNL A   1      42.385  28.023  34.122  1.00  0.00     0.034 A 
BRANCH  53  67
ATOM     67  C   UNL A   1      40.657  26.723  28.404  1.00  0.00     0.023 A 
ATOM     68  C   UNL A   1      39.645  25.750  28.215  1.00  0.00     0.012 A 
ATOM     69  C   UNL A   1      41.709  26.707  27.461  1.00  0.00     0.148 A 
ATOM     70  C   UNL A   1      39.712  24.770  27.220  1.00  0.00     0.002 A 
ATOM     71  C   UNL A   1      41.806  25.695  26.498  1.00  0.00     0.091 A 
ATOM     72  F   UNL A   1      42.590  27.710  27.433  1.00  0.00    -0.205 F 
ATOM     73  C   UNL A   1      40.810  24.724  26.379  1.00  0.00     0.022 A 
BRANCH  71  74
ATOM     74  S   UNL A   1      43.226  25.527  25.400  1.00  0.00     0.127 S 
ATOM     75  O   UNL A   1      43.062  26.676  24.508  1.00  0.00    -0.237 OA
ATOM     76  O   UNL A   1      44.354  25.631  26.323  1.00  0.00    -0.237 OA
ATOM     77  O   UNL A   1      43.077  24.236  24.738  1.00  0.00    -0.744 OA
ENDBRANCH  71  74
ENDBRANCH  53  67
BRANCH  54  78
ATOM     78  C   UNL A   1      40.066  33.437  35.447  1.00  0.00     0.023 A 
ATOM     79  C   UNL A   1      38.795  32.813  35.466  1.00  0.00     0.012 A 
ATOM     80  C   UNL A   1      40.346  34.432  36.401  1.00  0.00     0.148 A 
ATOM     81  C   UNL A   1      37.891  33.055  36.501  1.00  0.00     0.002 A 
ATOM     82  C   UNL A   1      39.430  34.676  37.428  1.00  0.00     0.091 A 
ATOM     83  F   UNL A   1      41.530  35.054  36.350  1.00  0.00    -0.205 F 
ATOM     84  C   UNL A   1      38.227  33.956  37.503  1.00  0.00     0.022 A 
BRANCH  82  85
ATOM     85  S   UNL A   1      39.792  35.810  38.778  1.00  0.00     0.127 S 
ATOM     86  O   UNL A   1      39.604  37.104  38.130  1.00  0.00    -0.237 OA
ATOM     87  O   UNL A   1      38.768  35.461  39.764  1.00  0.00    -0.237 OA
ATOM     88  O   UNL A   1      41.148  35.483  39.190  1.00  0.00    -0.744 OA
ENDBRANCH  82  85
ENDBRANCH  54  78
BRANCH  66  89
ATOM     89  C   UNL A   1      42.511  26.619  34.701  1.00  0.00     0.023 A 
ATOM     90  C   UNL A   1      41.503  26.025  35.479  1.00  0.00     0.012 A 
ATOM     91  C   UNL A   1      43.599  25.777  34.334  1.00  0.00     0.148 A 
ATOM     92  C   UNL A   1      41.577  24.691  35.901  1.00  0.00     0.002 A 
ATOM     93  C   UNL A   1      43.606  24.421  34.650  1.00  0.00     0.091 A 
ATOM     94  F   UNL A   1      44.659  26.288  33.690  1.00  0.00    -0.205 F 
ATOM     95  C   UNL A   1      42.612  23.879  35.461  1.00  0.00     0.022 A 
BRANCH  93  96
ATOM     96  S   UNL A   1      44.789  23.303  33.881  1.00  0.00     0.127 S 
ATOM     97  O   UNL A   1      44.456  22.026  34.509  1.00  0.00    -0.237 OA
ATOM     98  O   UNL A   1      44.435  23.395  32.463  1.00  0.00    -0.237 OA
ATOM     99  O   UNL A   1      46.095  23.862  34.207  1.00  0.00    -0.744 OA
ENDBRANCH  93  96
ENDBRANCH  66  89
ENDBRANCH  40  41
ENDBRANCH  32  35
ENDBRANCH  30  31
ENDBRANCH  29  30
ENDBRANCH  28  29
ENDBRANCH   1  28
TORSDOF 19
ENDMDL
