MODEL 1
REMARK VINA RESULT:     -11.9      0.000      0.000
REMARK SMILES CN(Cc1ccccc1Br)C(=O)N[C@H]1C=C[C@H](C(=O)NCCCCNC(=O)c2ccc(-c3c4nc(c(-c5cccc(S(=O)(=O)[O-])c5F)c5ccc([nH]5)c(-c5cccc(S(=O)(=O)[O-])c5F)c5nc(c(-c6cccc(S(=O)(=O)[O-])c6F)c6ccc3[nH]6)C=C5)C=C4)cc2)C1
REMARK SMILES IDX 22 1 21 2 20 3 18 4 19 5 17 7 14 8 15 9 91 10 16 11 13 12
REMARK SMILES IDX 11 13 12 14 2 16 1 17 3 18 4 19 5 20 9 21 6 22 8 23 10 24
REMARK SMILES IDX 7 25 23 26 24 27 25 28 26 29 27 31 28 32 29 33 90 34 30 35
REMARK SMILES IDX 89 36 31 37 32 38 33 39 83 40 34 41 88 42 82 43 84 44 35 45
REMARK SMILES IDX 87 46 81 47 80 48 36 50 68 51 48 52 67 53 49 54 52 55 66 56
REMARK SMILES IDX 85 57 50 58 51 59 65 61 86 62 53 63 37 64 38 65 46 66 39 67
REMARK SMILES IDX 41 68 47 69 40 70 42 71 43 72 44 73 45 74 69 75 70 76 78 77
REMARK SMILES IDX 71 78 73 79 79 80 72 81 74 82 75 83 76 84 77 85 54 86 55 87
REMARK SMILES IDX 63 88 56 89 58 90 64 91 57 92 59 93 60 94 61 95 62 96
REMARK H PARENT 20 6 13 15 25 30 84 49 52 60
REMARK Flexibility Score: inf
ROOT
ATOM      1  C   UNL A   1      32.055  28.003  24.429  1.00  0.00     0.023 C 
ENDROOT
BRANCH   1   2
ATOM      2  C   UNL A   1      33.092  28.299  23.350  1.00  0.00     0.116 C 
BRANCH   2   3
ATOM      3  N   UNL A   1      32.903  27.438  22.200  1.00  0.00    -0.356 N 
ATOM      4  C   UNL A   1      33.315  26.175  21.927  1.00  0.00     0.227 C 
ATOM      5  O   UNL A   1      33.123  25.784  20.768  1.00  0.00    -0.274 OA
ATOM      6  H   UNL A   1      32.374  27.849  21.479  1.00  0.00     0.163 HD
BRANCH   4   7
ATOM      7  C   UNL A   1      33.870  25.177  22.963  1.00  0.00     0.103 C 
ATOM      8  C   UNL A   1      31.981  24.348  24.233  1.00  0.00     0.107 C 
ATOM      9  C   UNL A   1      32.970  25.047  25.124  1.00  0.00    -0.006 C 
ATOM     10  C   UNL A   1      32.886  23.997  23.054  1.00  0.00     0.047 C 
ATOM     11  C   UNL A   1      34.000  25.527  24.412  1.00  0.00    -0.016 C 
BRANCH   8  12
ATOM     12  N   UNL A   1      31.405  23.232  24.924  1.00  0.00    -0.332 N 
ATOM     13  C   UNL A   1      31.651  21.918  24.990  1.00  0.00     0.317 C 
ATOM     14  O   UNL A   1      31.000  21.324  25.861  1.00  0.00    -0.249 OA
ATOM     15  H   UNL A   1      30.643  23.498  25.489  1.00  0.00     0.165 HD
BRANCH  13  16
ATOM     16  N   UNL A   1      32.580  21.261  24.238  1.00  0.00    -0.324 N 
ATOM     17  C   UNL A   1      32.164  21.010  22.861  1.00  0.00     0.149 C 
BRANCH  16  18
ATOM     18  C   UNL A   1      33.931  20.780  24.574  1.00  0.00     0.157 C 
BRANCH  18  19
ATOM     19  C   UNL A   1      35.002  21.801  24.886  1.00  0.00    -0.014 A 
ATOM     20  C   UNL A   1      35.821  22.244  23.825  1.00  0.00     0.007 A 
ATOM     21  C   UNL A   1      35.177  22.420  26.132  1.00  0.00     0.022 A 
ATOM     22  C   UNL A   1      36.861  23.151  24.025  1.00  0.00     0.000 A 
ATOM     23  C   UNL A   1      36.207  23.351  26.329  1.00  0.00     0.016 A 
ATOM     24  Br  UNL A   1      34.002  22.149  27.596  1.00  0.00    -0.050 Br
ATOM     25  C   UNL A   1      37.063  23.695  25.286  1.00  0.00     0.001 A 
ENDBRANCH  18  19
ENDBRANCH  16  18
ENDBRANCH  13  16
ENDBRANCH   8  12
ENDBRANCH   4   7
ENDBRANCH   2   3
ENDBRANCH   1   2
BRANCH   1  26
ATOM     26  C   UNL A   1      31.843  29.156  25.417  1.00  0.00     0.023 C 
BRANCH  26  27
ATOM     27  C   UNL A   1      33.110  29.905  25.827  1.00  0.00     0.116 C 
BRANCH  27  28
ATOM     28  N   UNL A   1      32.841  31.226  26.378  1.00  0.00    -0.352 N 
ATOM     29  C   UNL A   1      33.515  31.904  27.366  1.00  0.00     0.251 C 
ATOM     30  H   UNL A   1      32.070  31.699  25.989  1.00  0.00     0.163 HD
ATOM     31  O   UNL A   1      33.074  32.962  27.794  1.00  0.00    -0.269 OA
BRANCH  29  32
ATOM     32  C   UNL A   1      34.756  31.330  27.924  1.00  0.00     0.039 A 
ATOM     33  C   UNL A   1      35.895  32.135  28.002  1.00  0.00     0.014 A 
ATOM     34  C   UNL A   1      34.788  30.011  28.388  1.00  0.00     0.014 A 
ATOM     35  C   UNL A   1      37.050  31.636  28.606  1.00  0.00     0.010 A 
ATOM     36  C   UNL A   1      35.919  29.540  29.047  1.00  0.00     0.010 A 
ATOM     37  C   UNL A   1      37.062  30.346  29.162  1.00  0.00    -0.014 A 
BRANCH  37  38
ATOM     38  C   UNL A   1      38.252  29.835  29.889  1.00  0.00     0.031 A 
ATOM     39  C   UNL A   1      38.590  30.360  31.256  1.00  0.00     0.074 A 
ATOM     40  C   UNL A   1      39.075  28.960  29.278  1.00  0.00     0.049 A 
ATOM     41  N   UNL A   1      39.612  30.069  32.019  1.00  0.00    -0.248 NA
ATOM     42  C   UNL A   1      37.678  31.361  31.832  1.00  0.00     0.031 C 
ATOM     43  C   UNL A   1      38.904  28.448  27.916  1.00  0.00     0.029 A 
ATOM     44  N   UNL A   1      40.236  28.370  29.710  1.00  0.00    -0.354 N 
ATOM     45  C   UNL A   1      39.481  30.867  33.149  1.00  0.00     0.074 A 
ATOM     46  C   UNL A   1      38.304  31.686  32.954  1.00  0.00     0.031 C 
ATOM     47  C   UNL A   1      39.923  27.624  27.624  1.00  0.00     0.029 A 
ATOM     48  C   UNL A   1      40.830  27.564  28.766  1.00  0.00     0.049 A 
ATOM     49  H   UNL A   1      40.607  28.509  30.611  1.00  0.00     0.167 HD
ATOM     50  C   UNL A   1      40.248  30.892  34.265  1.00  0.00     0.034 A 
ATOM     51  C   UNL A   1      41.979  26.863  28.814  1.00  0.00     0.034 A 
ATOM     52  C   UNL A   1      41.396  30.048  34.473  1.00  0.00     0.049 A 
ATOM     53  C   UNL A   1      42.785  26.866  30.083  1.00  0.00     0.074 A 
ATOM     54  C   UNL A   1      42.195  29.945  35.597  1.00  0.00     0.029 A 
ATOM     55  N   UNL A   1      41.907  29.166  33.535  1.00  0.00    -0.354 N 
ATOM     56  N   UNL A   1      42.555  27.508  31.205  1.00  0.00    -0.248 NA
ATOM     57  C   UNL A   1      43.985  26.018  30.113  1.00  0.00     0.031 C 
ATOM     58  C   UNL A   1      43.199  29.006  35.334  1.00  0.00     0.029 A 
ATOM     59  C   UNL A   1      43.012  28.512  34.054  1.00  0.00     0.049 A 
ATOM     60  H   UNL A   1      41.539  29.024  32.633  1.00  0.00     0.167 HD
ATOM     61  C   UNL A   1      43.561  27.117  32.081  1.00  0.00     0.074 A 
ATOM     62  C   UNL A   1      44.386  26.162  31.369  1.00  0.00     0.031 C 
ATOM     63  C   UNL A   1      43.792  27.524  33.353  1.00  0.00     0.034 A 
BRANCH  50  64
ATOM     64  C   UNL A   1      39.828  31.814  35.379  1.00  0.00     0.023 A 
ATOM     65  C   UNL A   1      40.308  33.141  35.392  1.00  0.00     0.012 A 
ATOM     66  C   UNL A   1      38.924  31.398  36.376  1.00  0.00     0.148 A 
ATOM     67  C   UNL A   1      39.923  34.027  36.398  1.00  0.00     0.002 A 
ATOM     68  C   UNL A   1      38.510  32.300  37.350  1.00  0.00     0.091 A 
ATOM     69  F   UNL A   1      38.494  30.127  36.360  1.00  0.00    -0.205 F 
ATOM     70  C   UNL A   1      39.018  33.610  37.369  1.00  0.00     0.022 A 
BRANCH  68  71
ATOM     71  S   UNL A   1      37.291  31.886  38.601  1.00  0.00     0.127 S 
ATOM     72  O   UNL A   1      37.030  30.479  38.304  1.00  0.00    -0.237 OA
ATOM     73  O   UNL A   1      38.031  32.121  39.842  1.00  0.00    -0.237 OA
ATOM     74  O   UNL A   1      36.170  32.790  38.383  1.00  0.00    -0.744 OA
ENDBRANCH  68  71
ENDBRANCH  50  64
BRANCH  51  75
ATOM     75  C   UNL A   1      42.398  26.044  27.640  1.00  0.00     0.023 A 
ATOM     76  C   UNL A   1      43.275  26.595  26.686  1.00  0.00     0.012 A 
ATOM     77  C   UNL A   1      41.956  24.716  27.481  1.00  0.00     0.148 A 
ATOM     78  C   UNL A   1      43.680  25.851  25.577  1.00  0.00     0.002 A 
ATOM     79  C   UNL A   1      42.408  23.961  26.404  1.00  0.00     0.091 A 
ATOM     80  F   UNL A   1      41.111  24.213  28.391  1.00  0.00    -0.205 F 
ATOM     81  C   UNL A   1      43.255  24.532  25.442  1.00  0.00     0.022 A 
BRANCH  79  82
ATOM     82  S   UNL A   1      42.022  22.216  26.230  1.00  0.00     0.127 S 
ATOM     83  O   UNL A   1      42.773  21.862  25.029  1.00  0.00    -0.237 OA
ATOM     84  O   UNL A   1      42.553  21.660  27.476  1.00  0.00    -0.237 OA
ATOM     85  O   UNL A   1      40.571  22.147  26.117  1.00  0.00    -0.744 OA
ENDBRANCH  79  82
ENDBRANCH  51  75
BRANCH  63  86
ATOM     86  C   UNL A   1      44.967  26.921  34.076  1.00  0.00     0.023 A 
ATOM     87  C   UNL A   1      46.214  27.577  34.052  1.00  0.00     0.012 A 
ATOM     88  C   UNL A   1      44.819  25.745  34.836  1.00  0.00     0.148 A 
ATOM     89  C   UNL A   1      47.304  27.053  34.746  1.00  0.00     0.002 A 
ATOM     90  C   UNL A   1      45.896  25.254  35.563  1.00  0.00     0.091 A 
ATOM     91  F   UNL A   1      43.630  25.125  34.830  1.00  0.00    -0.205 F 
ATOM     92  C   UNL A   1      47.142  25.900  35.510  1.00  0.00     0.022 A 
BRANCH  90  93
ATOM     93  S   UNL A   1      45.754  23.828  36.648  1.00  0.00     0.127 S 
ATOM     94  O   UNL A   1      47.150  23.417  36.782  1.00  0.00    -0.237 OA
ATOM     95  O   UNL A   1      45.171  24.413  37.856  1.00  0.00    -0.237 OA
ATOM     96  O   UNL A   1      44.884  22.886  35.957  1.00  0.00    -0.744 OA
ENDBRANCH  90  93
ENDBRANCH  63  86
ENDBRANCH  37  38
ENDBRANCH  29  32
ENDBRANCH  27  28
ENDBRANCH  26  27
ENDBRANCH   1  26
TORSDOF 18
ENDMDL
MODEL 2
REMARK VINA RESULT:     -11.8      5.468     10.423
REMARK SMILES CN(Cc1ccccc1Br)C(=O)N[C@H]1C=C[C@H](C(=O)NCCCCNC(=O)c2ccc(-c3c4nc(c(-c5cccc(S(=O)(=O)[O-])c5F)c5ccc([nH]5)c(-c5cccc(S(=O)(=O)[O-])c5F)c5nc(c(-c6cccc(S(=O)(=O)[O-])c6F)c6ccc3[nH]6)C=C5)C=C4)cc2)C1
REMARK SMILES IDX 22 1 21 2 20 3 18 4 19 5 17 7 14 8 15 9 91 10 16 11 13 12
REMARK SMILES IDX 11 13 12 14 2 16 1 17 3 18 4 19 5 20 9 21 6 22 8 23 10 24
REMARK SMILES IDX 7 25 23 26 24 27 25 28 26 29 27 31 28 32 29 33 90 34 30 35
REMARK SMILES IDX 89 36 31 37 32 38 33 39 83 40 34 41 88 42 82 43 84 44 35 45
REMARK SMILES IDX 87 46 81 47 80 48 36 50 68 51 48 52 67 53 49 54 52 55 66 56
REMARK SMILES IDX 85 57 50 58 51 59 65 61 86 62 53 63 37 64 38 65 46 66 39 67
REMARK SMILES IDX 41 68 47 69 40 70 42 71 43 72 44 73 45 74 69 75 70 76 78 77
REMARK SMILES IDX 71 78 73 79 79 80 72 81 74 82 75 83 76 84 77 85 54 86 55 87
REMARK SMILES IDX 63 88 56 89 58 90 64 91 57 92 59 93 60 94 61 95 62 96
REMARK H PARENT 20 6 13 15 25 30 84 49 52 60
REMARK Flexibility Score: inf
ROOT
ATOM      1  C   UNL A   1      39.021  22.775  26.287  1.00  0.00     0.023 C 
ENDROOT
BRANCH   1   2
ATOM      2  C   UNL A   1      37.803  23.554  25.796  1.00  0.00     0.116 C 
BRANCH   2   3
ATOM      3  N   UNL A   1      36.597  23.100  26.459  1.00  0.00    -0.356 N 
ATOM      4  C   UNL A   1      35.427  22.603  25.986  1.00  0.00     0.227 C 
ATOM      5  O   UNL A   1      34.523  22.466  26.821  1.00  0.00    -0.274 OA
ATOM      6  H   UNL A   1      36.634  23.166  27.440  1.00  0.00     0.163 HD
BRANCH   4   7
ATOM      7  C   UNL A   1      35.194  22.090  24.550  1.00  0.00     0.103 C 
ATOM      8  C   UNL A   1      33.771  23.706  23.440  1.00  0.00     0.107 C 
ATOM      9  C   UNL A   1      33.118  22.352  23.491  1.00  0.00    -0.006 C 
ATOM     10  C   UNL A   1      35.235  23.303  23.605  1.00  0.00     0.047 C 
ATOM     11  C   UNL A   1      33.900  21.468  24.130  1.00  0.00    -0.016 C 
BRANCH   8  12
ATOM     12  N   UNL A   1      33.443  24.360  22.208  1.00  0.00    -0.332 N 
ATOM     13  C   UNL A   1      33.085  25.598  21.849  1.00  0.00     0.317 C 
ATOM     14  O   UNL A   1      33.056  25.782  20.624  1.00  0.00    -0.249 OA
ATOM     15  H   UNL A   1      33.496  23.748  21.437  1.00  0.00     0.165 HD
BRANCH  13  16
ATOM     16  N   UNL A   1      32.838  26.620  22.718  1.00  0.00    -0.324 N 
ATOM     17  C   UNL A   1      31.508  27.206  22.586  1.00  0.00     0.149 C 
BRANCH  16  18
ATOM     18  C   UNL A   1      33.677  27.216  23.772  1.00  0.00     0.157 C 
BRANCH  18  19
ATOM     19  C   UNL A   1      32.995  27.925  24.921  1.00  0.00    -0.014 A 
ATOM     20  C   UNL A   1      32.840  29.325  24.835  1.00  0.00     0.007 A 
ATOM     21  C   UNL A   1      32.410  27.281  26.022  1.00  0.00     0.022 A 
ATOM     22  C   UNL A   1      32.262  30.068  25.865  1.00  0.00     0.000 A 
ATOM     23  C   UNL A   1      31.806  28.025  27.046  1.00  0.00     0.016 A 
ATOM     24  Br  UNL A   1      32.284  25.395  26.171  1.00  0.00    -0.050 Br
ATOM     25  C   UNL A   1      31.756  29.415  26.981  1.00  0.00     0.001 A 
ENDBRANCH  18  19
ENDBRANCH  16  18
ENDBRANCH  13  16
ENDBRANCH   8  12
ENDBRANCH   4   7
ENDBRANCH   2   3
ENDBRANCH   1   2
BRANCH   1  26
ATOM     26  C   UNL A   1      39.103  21.347  25.737  1.00  0.00     0.023 C 
BRANCH  26  27
ATOM     27  C   UNL A   1      39.696  20.312  26.693  1.00  0.00     0.116 C 
BRANCH  27  28
ATOM     28  N   UNL A   1      40.795  19.557  26.109  1.00  0.00    -0.352 N 
ATOM     29  C   UNL A   1      42.072  19.974  25.818  1.00  0.00     0.251 C 
ATOM     30  H   UNL A   1      40.596  18.617  25.894  1.00  0.00     0.163 HD
ATOM     31  O   UNL A   1      42.835  19.235  25.211  1.00  0.00    -0.269 OA
BRANCH  29  32
ATOM     32  C   UNL A   1      42.502  21.330  26.217  1.00  0.00     0.039 A 
ATOM     33  C   UNL A   1      42.666  22.302  25.227  1.00  0.00     0.014 A 
ATOM     34  C   UNL A   1      42.721  21.644  27.561  1.00  0.00     0.014 A 
ATOM     35  C   UNL A   1      42.988  23.610  25.595  1.00  0.00     0.010 A 
ATOM     36  C   UNL A   1      42.976  22.961  27.929  1.00  0.00     0.010 A 
ATOM     37  C   UNL A   1      43.113  23.957  26.951  1.00  0.00    -0.014 A 
BRANCH  37  38
ATOM     38  C   UNL A   1      43.363  25.362  27.362  1.00  0.00     0.031 A 
ATOM     39  C   UNL A   1      44.752  25.936  27.301  1.00  0.00     0.074 A 
ATOM     40  C   UNL A   1      42.353  26.092  27.873  1.00  0.00     0.049 A 
ATOM     41  N   UNL A   1      45.169  27.121  27.663  1.00  0.00    -0.248 NA
ATOM     42  C   UNL A   1      45.817  25.056  26.790  1.00  0.00     0.031 C 
ATOM     43  C   UNL A   1      40.981  25.616  28.071  1.00  0.00     0.029 A 
ATOM     44  N   UNL A   1      42.328  27.380  28.348  1.00  0.00    -0.354 N 
ATOM     45  C   UNL A   1      46.542  27.123  27.451  1.00  0.00     0.074 A 
ATOM     46  C   UNL A   1      46.896  25.804  26.968  1.00  0.00     0.031 C 
ATOM     47  C   UNL A   1      40.251  26.595  28.628  1.00  0.00     0.029 A 
ATOM     48  C   UNL A   1      41.103  27.760  28.847  1.00  0.00     0.049 A 
ATOM     49  H   UNL A   1      43.112  27.974  28.332  1.00  0.00     0.167 HD
ATOM     50  C   UNL A   1      47.425  28.137  27.608  1.00  0.00     0.034 A 
ATOM     51  C   UNL A   1      40.713  28.914  29.422  1.00  0.00     0.034 A 
ATOM     52  C   UNL A   1      47.065  29.458  28.051  1.00  0.00     0.049 A 
ATOM     53  C   UNL A   1      41.700  30.043  29.536  1.00  0.00     0.074 A 
ATOM     54  C   UNL A   1      47.872  30.575  28.172  1.00  0.00     0.029 A 
ATOM     55  N   UNL A   1      45.792  29.838  28.447  1.00  0.00    -0.354 N 
ATOM     56  N   UNL A   1      42.962  30.075  29.179  1.00  0.00    -0.248 NA
ATOM     57  C   UNL A   1      41.203  31.310  30.093  1.00  0.00     0.031 C 
ATOM     58  C   UNL A   1      47.088  31.629  28.654  1.00  0.00     0.029 A 
ATOM     59  C   UNL A   1      45.790  31.173  28.813  1.00  0.00     0.049 A 
ATOM     60  H   UNL A   1      45.006  29.246  28.465  1.00  0.00     0.167 HD
ATOM     61  C   UNL A   1      43.399  31.369  29.437  1.00  0.00     0.074 A 
ATOM     62  C   UNL A   1      42.260  32.098  29.955  1.00  0.00     0.031 C 
ATOM     63  C   UNL A   1      44.636  31.901  29.277  1.00  0.00     0.034 A 
BRANCH  50  64
ATOM     64  C   UNL A   1      48.860  27.877  27.229  1.00  0.00     0.023 A 
ATOM     65  C   UNL A   1      49.771  27.466  28.225  1.00  0.00     0.012 A 
ATOM     66  C   UNL A   1      49.297  27.982  25.894  1.00  0.00     0.148 A 
ATOM     67  C   UNL A   1      51.101  27.197  27.905  1.00  0.00     0.002 A 
ATOM     68  C   UNL A   1      50.615  27.669  25.576  1.00  0.00     0.091 A 
ATOM     69  F   UNL A   1      48.423  28.394  24.965  1.00  0.00    -0.205 F 
ATOM     70  C   UNL A   1      51.520  27.289  26.581  1.00  0.00     0.022 A 
BRANCH  68  71
ATOM     71  S   UNL A   1      51.235  27.683  23.891  1.00  0.00     0.127 S 
ATOM     72  O   UNL A   1      50.200  26.926  23.189  1.00  0.00    -0.237 OA
ATOM     73  O   UNL A   1      51.259  29.114  23.583  1.00  0.00    -0.237 OA
ATOM     74  O   UNL A   1      52.546  27.051  23.941  1.00  0.00    -0.744 OA
ENDBRANCH  68  71
ENDBRANCH  50  64
BRANCH  51  75
ATOM     75  C   UNL A   1      39.301  29.080  29.870  1.00  0.00     0.023 A 
ATOM     76  C   UNL A   1      38.939  28.703  31.179  1.00  0.00     0.012 A 
ATOM     77  C   UNL A   1      38.324  29.635  29.021  1.00  0.00     0.148 A 
ATOM     78  C   UNL A   1      37.624  28.845  31.622  1.00  0.00     0.002 A 
ATOM     79  C   UNL A   1      37.029  29.826  29.487  1.00  0.00     0.091 A 
ATOM     80  F   UNL A   1      38.684  29.975  27.775  1.00  0.00    -0.205 F 
ATOM     81  C   UNL A   1      36.672  29.416  30.781  1.00  0.00     0.022 A 
BRANCH  79  82
ATOM     82  S   UNL A   1      35.779  30.679  28.520  1.00  0.00     0.127 S 
ATOM     83  O   UNL A   1      35.144  29.574  27.809  1.00  0.00    -0.237 OA
ATOM     84  O   UNL A   1      34.956  31.296  29.562  1.00  0.00    -0.237 OA
ATOM     85  O   UNL A   1      36.509  31.632  27.695  1.00  0.00    -0.744 OA
ENDBRANCH  79  82
ENDBRANCH  51  75
BRANCH  63  86
ATOM     86  C   UNL A   1      44.823  33.351  29.637  1.00  0.00     0.023 A 
ATOM     87  C   UNL A   1      45.191  33.702  30.951  1.00  0.00     0.012 A 
ATOM     88  C   UNL A   1      44.704  34.357  28.659  1.00  0.00     0.148 A 
ATOM     89  C   UNL A   1      45.406  35.037  31.293  1.00  0.00     0.002 A 
ATOM     90  C   UNL A   1      44.965  35.680  28.995  1.00  0.00     0.091 A 
ATOM     91  F   UNL A   1      44.334  34.004  27.419  1.00  0.00    -0.205 F 
ATOM     92  C   UNL A   1      45.304  36.023  30.314  1.00  0.00     0.022 A 
BRANCH  90  93
ATOM     93  S   UNL A   1      44.950  37.002  27.779  1.00  0.00     0.127 S 
ATOM     94  O   UNL A   1      45.464  38.127  28.557  1.00  0.00    -0.237 OA
ATOM     95  O   UNL A   1      45.868  36.496  26.758  1.00  0.00    -0.237 OA
ATOM     96  O   UNL A   1      43.567  37.123  27.338  1.00  0.00    -0.744 OA
ENDBRANCH  90  93
ENDBRANCH  63  86
ENDBRANCH  37  38
ENDBRANCH  29  32
ENDBRANCH  27  28
ENDBRANCH  26  27
ENDBRANCH   1  26
TORSDOF 18
ENDMDL
MODEL 3
REMARK VINA RESULT:     -11.7      2.087      2.745
REMARK SMILES CN(Cc1ccccc1Br)C(=O)N[C@H]1C=C[C@H](C(=O)NCCCCNC(=O)c2ccc(-c3c4nc(c(-c5cccc(S(=O)(=O)[O-])c5F)c5ccc([nH]5)c(-c5cccc(S(=O)(=O)[O-])c5F)c5nc(c(-c6cccc(S(=O)(=O)[O-])c6F)c6ccc3[nH]6)C=C5)C=C4)cc2)C1
REMARK SMILES IDX 22 1 21 2 20 3 18 4 19 5 17 7 14 8 15 9 91 10 16 11 13 12
REMARK SMILES IDX 11 13 12 14 2 16 1 17 3 18 4 19 5 20 9 21 6 22 8 23 10 24
REMARK SMILES IDX 7 25 23 26 24 27 25 28 26 29 27 31 28 32 29 33 90 34 30 35
REMARK SMILES IDX 89 36 31 37 32 38 33 39 83 40 34 41 88 42 82 43 84 44 35 45
REMARK SMILES IDX 87 46 81 47 80 48 36 50 68 51 48 52 67 53 49 54 52 55 66 56
REMARK SMILES IDX 85 57 50 58 51 59 65 61 86 62 53 63 37 64 38 65 46 66 39 67
REMARK SMILES IDX 41 68 47 69 40 70 42 71 43 72 44 73 45 74 69 75 70 76 78 77
REMARK SMILES IDX 71 78 73 79 79 80 72 81 74 82 75 83 76 84 77 85 54 86 55 87
REMARK SMILES IDX 63 88 56 89 58 90 64 91 57 92 59 93 60 94 61 95 62 96
REMARK H PARENT 20 6 13 15 25 30 84 49 52 60
REMARK Flexibility Score: inf
ROOT
ATOM      1  C   UNL A   1      33.760  28.625  24.016  1.00  0.00     0.023 C 
ENDROOT
BRANCH   1   2
ATOM      2  C   UNL A   1      32.955  27.700  23.107  1.00  0.00     0.116 C 
BRANCH   2   3
ATOM      3  N   UNL A   1      31.979  28.449  22.341  1.00  0.00    -0.356 N 
ATOM      4  C   UNL A   1      30.636  28.596  22.467  1.00  0.00     0.227 C 
ATOM      5  O   UNL A   1      30.068  29.179  21.535  1.00  0.00    -0.274 OA
ATOM      6  H   UNL A   1      32.364  28.946  21.584  1.00  0.00     0.163 HD
BRANCH   4   7
ATOM      7  C   UNL A   1      29.813  28.215  23.715  1.00  0.00     0.103 C 
ATOM      8  C   UNL A   1      29.954  25.809  23.951  1.00  0.00     0.107 C 
ATOM      9  C   UNL A   1      28.530  26.254  23.768  1.00  0.00    -0.006 C 
ATOM     10  C   UNL A   1      30.576  27.108  24.461  1.00  0.00     0.047 C 
ATOM     11  C   UNL A   1      28.461  27.585  23.611  1.00  0.00    -0.016 C 
BRANCH   8  12
ATOM     12  N   UNL A   1      30.006  24.700  24.858  1.00  0.00    -0.332 N 
ATOM     13  C   UNL A   1      30.905  23.756  25.163  1.00  0.00     0.317 C 
ATOM     14  O   UNL A   1      30.605  23.070  26.150  1.00  0.00    -0.249 OA
ATOM     15  H   UNL A   1      29.179  24.611  25.386  1.00  0.00     0.165 HD
BRANCH  13  16
ATOM     16  N   UNL A   1      32.095  23.577  24.520  1.00  0.00    -0.324 N 
ATOM     17  C   UNL A   1      32.038  22.626  23.415  1.00  0.00     0.149 C 
BRANCH  16  18
ATOM     18  C   UNL A   1      33.415  24.192  24.742  1.00  0.00     0.157 C 
BRANCH  18  19
ATOM     19  C   UNL A   1      34.642  23.310  24.671  1.00  0.00    -0.014 A 
ATOM     20  C   UNL A   1      35.545  23.518  23.606  1.00  0.00     0.007 A 
ATOM     21  C   UNL A   1      35.004  22.366  25.643  1.00  0.00     0.022 A 
ATOM     22  C   UNL A   1      36.680  22.726  23.436  1.00  0.00     0.000 A 
ATOM     23  C   UNL A   1      36.159  21.585  25.485  1.00  0.00     0.016 A 
ATOM     24  Br  UNL A   1      34.056  22.140  27.270  1.00  0.00    -0.050 Br
ATOM     25  C   UNL A   1      36.979  21.746  24.372  1.00  0.00     0.001 A 
ENDBRANCH  18  19
ENDBRANCH  16  18
ENDBRANCH  13  16
ENDBRANCH   8  12
ENDBRANCH   4   7
ENDBRANCH   2   3
ENDBRANCH   1   2
BRANCH   1  26
ATOM     26  C   UNL A   1      33.483  28.418  25.509  1.00  0.00     0.023 C 
BRANCH  26  27
ATOM     27  C   UNL A   1      34.507  29.043  26.456  1.00  0.00     0.116 C 
BRANCH  27  28
ATOM     28  N   UNL A   1      34.085  30.333  26.984  1.00  0.00    -0.352 N 
ATOM     29  C   UNL A   1      34.669  31.097  27.966  1.00  0.00     0.251 C 
ATOM     30  H   UNL A   1      33.269  30.710  26.582  1.00  0.00     0.163 HD
ATOM     31  O   UNL A   1      34.107  32.105  28.374  1.00  0.00    -0.269 OA
BRANCH  29  32
ATOM     32  C   UNL A   1      35.963  30.676  28.543  1.00  0.00     0.039 A 
ATOM     33  C   UNL A   1      35.973  29.656  29.497  1.00  0.00     0.014 A 
ATOM     34  C   UNL A   1      37.158  31.269  28.127  1.00  0.00     0.014 A 
ATOM     35  C   UNL A   1      37.193  29.186  29.989  1.00  0.00     0.010 A 
ATOM     36  C   UNL A   1      38.373  30.754  28.568  1.00  0.00     0.010 A 
ATOM     37  C   UNL A   1      38.403  29.709  29.504  1.00  0.00    -0.014 A 
BRANCH  37  38
ATOM     38  C   UNL A   1      39.709  29.157  29.947  1.00  0.00     0.031 A 
ATOM     39  C   UNL A   1      40.479  29.823  31.053  1.00  0.00     0.074 A 
ATOM     40  C   UNL A   1      40.239  28.105  29.292  1.00  0.00     0.049 A 
ATOM     41  N   UNL A   1      41.653  29.515  31.539  1.00  0.00    -0.248 NA
ATOM     42  C   UNL A   1      39.864  31.006  31.677  1.00  0.00     0.031 C 
ATOM     43  C   UNL A   1      39.631  27.431  28.142  1.00  0.00     0.029 A 
ATOM     44  N   UNL A   1      41.424  27.437  29.479  1.00  0.00    -0.354 N 
ATOM     45  C   UNL A   1      41.930  30.475  32.504  1.00  0.00     0.074 A 
ATOM     46  C   UNL A   1      40.819  31.403  32.506  1.00  0.00     0.031 C 
ATOM     47  C   UNL A   1      40.447  26.449  27.726  1.00  0.00     0.029 A 
ATOM     48  C   UNL A   1      41.643  26.436  28.562  1.00  0.00     0.049 A 
ATOM     49  H   UNL A   1      42.055  27.655  30.202  1.00  0.00     0.167 HD
ATOM     50  C   UNL A   1      42.992  30.560  33.340  1.00  0.00     0.034 A 
ATOM     51  C   UNL A   1      42.693  25.606  28.408  1.00  0.00     0.034 A 
ATOM     52  C   UNL A   1      44.076  29.613  33.362  1.00  0.00     0.049 A 
ATOM     53  C   UNL A   1      43.836  25.686  29.382  1.00  0.00     0.074 A 
ATOM     54  C   UNL A   1      45.161  29.569  34.219  1.00  0.00     0.029 A 
ATOM     55  N   UNL A   1      44.213  28.547  32.487  1.00  0.00    -0.354 N 
ATOM     56  N   UNL A   1      44.002  26.505  30.394  1.00  0.00    -0.248 NA
ATOM     57  C   UNL A   1      44.917  24.702  29.223  1.00  0.00     0.031 C 
ATOM     58  C   UNL A   1      45.961  28.480  33.853  1.00  0.00     0.029 A 
ATOM     59  C   UNL A   1      45.363  27.837  32.782  1.00  0.00     0.049 A 
ATOM     60  H   UNL A   1      43.583  28.327  31.763  1.00  0.00     0.167 HD
ATOM     61  C   UNL A   1      45.187  26.116  31.008  1.00  0.00     0.074 A 
ATOM     62  C   UNL A   1      45.683  24.971  30.272  1.00  0.00     0.031 C 
ATOM     63  C   UNL A   1      45.817  26.667  32.075  1.00  0.00     0.034 A 
BRANCH  50  64
ATOM     64  C   UNL A   1      42.998  31.678  34.349  1.00  0.00     0.023 A 
ATOM     65  C   UNL A   1      43.616  32.901  34.016  1.00  0.00     0.012 A 
ATOM     66  C   UNL A   1      42.352  31.547  35.593  1.00  0.00     0.148 A 
ATOM     67  C   UNL A   1      43.623  33.964  34.919  1.00  0.00     0.002 A 
ATOM     68  C   UNL A   1      42.325  32.626  36.471  1.00  0.00     0.091 A 
ATOM     69  F   UNL A   1      41.788  30.370  35.901  1.00  0.00    -0.205 F 
ATOM     70  C   UNL A   1      42.969  33.830  36.140  1.00  0.00     0.022 A 
BRANCH  68  71
ATOM     71  S   UNL A   1      41.446  32.581  38.036  1.00  0.00     0.127 S 
ATOM     72  O   UNL A   1      42.227  31.599  38.785  1.00  0.00    -0.237 OA
ATOM     73  O   UNL A   1      41.586  33.960  38.507  1.00  0.00    -0.237 OA
ATOM     74  O   UNL A   1      40.081  32.184  37.719  1.00  0.00    -0.744 OA
ENDBRANCH  68  71
ENDBRANCH  50  64
BRANCH  51  75
ATOM     75  C   UNL A   1      42.676  24.581  27.325  1.00  0.00     0.023 A 
ATOM     76  C   UNL A   1      43.323  24.851  26.103  1.00  0.00     0.012 A 
ATOM     77  C   UNL A   1      42.051  23.333  27.510  1.00  0.00     0.148 A 
ATOM     78  C   UNL A   1      43.319  23.911  25.073  1.00  0.00     0.002 A 
ATOM     79  C   UNL A   1      42.100  22.378  26.501  1.00  0.00     0.091 A 
ATOM     80  F   UNL A   1      41.430  23.099  28.675  1.00  0.00    -0.205 F 
ATOM     81  C   UNL A   1      42.717  22.671  25.275  1.00  0.00     0.022 A 
BRANCH  79  82
ATOM     82  S   UNL A   1      41.473  20.710  26.729  1.00  0.00     0.127 S 
ATOM     83  O   UNL A   1      41.902  20.058  25.495  1.00  0.00    -0.237 OA
ATOM     84  O   UNL A   1      42.185  20.279  27.934  1.00  0.00    -0.237 OA
ATOM     85  O   UNL A   1      40.035  20.856  26.907  1.00  0.00    -0.744 OA
ENDBRANCH  79  82
ENDBRANCH  51  75
BRANCH  63  86
ATOM     86  C   UNL A   1      47.099  26.026  32.534  1.00  0.00     0.023 A 
ATOM     87  C   UNL A   1      48.332  26.492  32.034  1.00  0.00     0.012 A 
ATOM     88  C   UNL A   1      47.088  25.013  33.513  1.00  0.00     0.148 A 
ATOM     89  C   UNL A   1      49.532  25.936  32.476  1.00  0.00     0.002 A 
ATOM     90  C   UNL A   1      48.289  24.497  33.984  1.00  0.00     0.091 A 
ATOM     91  F   UNL A   1      45.905  24.570  33.961  1.00  0.00    -0.205 F 
ATOM     92  C   UNL A   1      49.511  24.948  33.458  1.00  0.00     0.022 A 
BRANCH  90  93
ATOM     93  S   UNL A   1      48.361  23.290  35.312  1.00  0.00     0.127 S 
ATOM     94  O   UNL A   1      47.701  22.137  34.703  1.00  0.00    -0.237 OA
ATOM     95  O   UNL A   1      49.802  23.132  35.512  1.00  0.00    -0.237 OA
ATOM     96  O   UNL A   1      47.661  23.893  36.438  1.00  0.00    -0.744 OA
ENDBRANCH  90  93
ENDBRANCH  63  86
ENDBRANCH  37  38
ENDBRANCH  29  32
ENDBRANCH  27  28
ENDBRANCH  26  27
ENDBRANCH   1  26
TORSDOF 18
ENDMDL
