MODEL 1
REMARK VINA RESULT:     -10.6      0.000      0.000
REMARK SMILES CC(C)NC(=O)C[N@@H+]1CCC[C@H]1C(=O)NCCCCNC(=O)c1ccc(-c2c3nc(c(-c4cccc(S(=O)(=O)[O-])c4F)c4ccc([nH]4)c(-c4cccc(S(=O)(=O)[O-])c4F)c4nc(c(-c5cccc(S(=O)(=O)[O-])c5F)c5ccc2[nH]5)C=C4)C=C3)cc1
REMARK SMILES IDX 17 1 16 2 15 3 13 4 14 5 12 7 8 8 9 9 10 11 11 12 7 13 5 14
REMARK SMILES IDX 4 15 6 17 2 18 1 19 3 20 18 21 19 22 20 23 21 24 22 26 23 27
REMARK SMILES IDX 24 28 85 29 25 30 84 31 26 32 27 33 28 34 78 35 29 36 83 37
REMARK SMILES IDX 77 38 79 39 30 40 82 41 76 42 75 43 31 45 63 46 43 47 62 48
REMARK SMILES IDX 44 49 47 50 61 51 80 52 45 53 46 54 60 56 81 57 48 58 32 59
REMARK SMILES IDX 33 60 41 61 34 62 36 63 42 64 35 65 37 66 38 67 39 68 40 69
REMARK SMILES IDX 64 70 65 71 73 72 66 73 68 74 74 75 67 76 69 77 70 78 71 79
REMARK SMILES IDX 72 80 49 81 50 82 58 83 51 84 53 85 59 86 52 87 54 88 55 89
REMARK SMILES IDX 56 90 57 91
REMARK H PARENT 15 6 8 10 4 16 20 25 79 44 47 55
REMARK Flexibility Score: inf
ROOT
ATOM      1  C   UNL A   1      37.693  21.401  24.871  1.00  0.00     0.023 C 
ENDROOT
BRANCH   1   2
ATOM      2  C   UNL A   1      36.181  21.443  24.628  1.00  0.00     0.116 C 
BRANCH   2   3
ATOM      3  N   UNL A   1      35.455  21.160  25.851  1.00  0.00    -0.351 N 
ATOM      4  C   UNL A   1      34.398  21.827  26.419  1.00  0.00     0.278 C 
ATOM      5  O   UNL A   1      34.046  21.453  27.540  1.00  0.00    -0.268 OA
ATOM      6  H   UNL A   1      35.767  20.371  26.349  1.00  0.00     0.163 HD
BRANCH   4   7
ATOM      7  C   UNL A   1      33.650  22.930  25.606  1.00  0.00     0.274 C 
ATOM      8  N   UNL A   1      32.667  22.320  24.668  1.00  0.00    -0.317 N 
ATOM      9  C   UNL A   1      31.398  22.331  25.422  1.00  0.00     0.263 C 
ATOM     10  H   UNL A   1      33.012  21.400  24.391  1.00  0.00     0.349 HD
ATOM     11  C   UNL A   1      31.377  23.701  26.071  1.00  0.00     0.068 C 
ATOM     12  C   UNL A   1      32.824  23.885  26.477  1.00  0.00     0.081 C 
BRANCH   8  13
ATOM     13  C   UNL A   1      32.470  23.019  23.378  1.00  0.00     0.364 C 
BRANCH  13  14
ATOM     14  C   UNL A   1      33.668  23.821  22.872  1.00  0.00     0.275 C 
ATOM     15  N   UNL A   1      33.605  25.192  22.876  1.00  0.00    -0.349 N 
ATOM     16  H   UNL A   1      34.294  25.648  22.342  1.00  0.00     0.163 HD
ATOM     17  O   UNL A   1      34.664  23.290  22.378  1.00  0.00    -0.268 OA
BRANCH  15  18
ATOM     18  C   UNL A   1      32.661  26.069  23.558  1.00  0.00     0.076 C 
ATOM     19  C   UNL A   1      33.431  27.183  24.263  1.00  0.00     0.030 C 
ATOM     20  C   UNL A   1      31.610  26.629  22.611  1.00  0.00     0.030 C 
ENDBRANCH  15  18
ENDBRANCH  13  14
ENDBRANCH   8  13
ENDBRANCH   4   7
ENDBRANCH   2   3
ENDBRANCH   1   2
BRANCH   1  21
ATOM     21  C   UNL A   1      38.321  20.016  24.843  1.00  0.00     0.023 C 
BRANCH  21  22
ATOM     22  C   UNL A   1      38.973  19.584  26.141  1.00  0.00     0.116 C 
BRANCH  22  23
ATOM     23  N   UNL A   1      40.224  18.857  25.956  1.00  0.00    -0.352 N 
ATOM     24  C   UNL A   1      41.509  19.341  26.066  1.00  0.00     0.251 C 
ATOM     25  H   UNL A   1      40.139  17.904  25.723  1.00  0.00     0.163 HD
ATOM     26  O   UNL A   1      42.470  18.633  25.805  1.00  0.00    -0.269 OA
BRANCH  24  27
ATOM     27  C   UNL A   1      41.690  20.753  26.464  1.00  0.00     0.039 A 
ATOM     28  C   UNL A   1      42.243  21.038  27.714  1.00  0.00     0.014 A 
ATOM     29  C   UNL A   1      41.420  21.775  25.551  1.00  0.00     0.014 A 
ATOM     30  C   UNL A   1      42.601  22.353  28.017  1.00  0.00     0.010 A 
ATOM     31  C   UNL A   1      41.864  23.062  25.819  1.00  0.00     0.010 A 
ATOM     32  C   UNL A   1      42.454  23.366  27.056  1.00  0.00    -0.014 A 
BRANCH  32  33
ATOM     33  C   UNL A   1      42.909  24.755  27.315  1.00  0.00     0.031 A 
ATOM     34  C   UNL A   1      41.972  25.736  27.965  1.00  0.00     0.074 A 
ATOM     35  C   UNL A   1      44.113  25.160  26.863  1.00  0.00     0.049 A 
ATOM     36  N   UNL A   1      42.154  27.007  28.210  1.00  0.00    -0.248 NA
ATOM     37  C   UNL A   1      40.643  25.237  28.358  1.00  0.00     0.031 C 
ATOM     38  C   UNL A   1      45.064  24.332  26.118  1.00  0.00     0.029 A 
ATOM     39  N   UNL A   1      44.731  26.384  26.938  1.00  0.00    -0.354 N 
ATOM     40  C   UNL A   1      40.951  27.467  28.733  1.00  0.00     0.074 A 
ATOM     41  C   UNL A   1      40.035  26.349  28.742  1.00  0.00     0.031 C 
ATOM     42  C   UNL A   1      46.141  25.070  25.803  1.00  0.00     0.029 A 
ATOM     43  C   UNL A   1      45.952  26.427  26.307  1.00  0.00     0.049 A 
ATOM     44  H   UNL A   1      44.336  27.158  27.400  1.00  0.00     0.167 HD
ATOM     45  C   UNL A   1      40.648  28.701  29.197  1.00  0.00     0.034 A 
ATOM     46  C   UNL A   1      46.821  27.446  26.153  1.00  0.00     0.034 A 
ATOM     47  C   UNL A   1      41.588  29.784  29.265  1.00  0.00     0.049 A 
ATOM     48  C   UNL A   1      46.497  28.778  26.775  1.00  0.00     0.074 A 
ATOM     49  C   UNL A   1      41.421  31.030  29.840  1.00  0.00     0.029 A 
ATOM     50  N   UNL A   1      42.869  29.750  28.740  1.00  0.00    -0.354 N 
ATOM     51  N   UNL A   1      45.429  29.135  27.447  1.00  0.00    -0.248 NA
ATOM     52  C   UNL A   1      47.513  29.835  26.657  1.00  0.00     0.031 C 
ATOM     53  C   UNL A   1      42.602  31.756  29.655  1.00  0.00     0.029 A 
ATOM     54  C   UNL A   1      43.506  30.955  28.975  1.00  0.00     0.049 A 
ATOM     55  H   UNL A   1      43.268  28.983  28.270  1.00  0.00     0.167 HD
ATOM     56  C   UNL A   1      45.659  30.443  27.861  1.00  0.00     0.074 A 
ATOM     57  C   UNL A   1      46.978  30.805  27.385  1.00  0.00     0.031 C 
ATOM     58  C   UNL A   1      44.844  31.275  28.554  1.00  0.00     0.034 A 
BRANCH  45  59
ATOM     59  C   UNL A   1      39.265  28.927  29.744  1.00  0.00     0.023 A 
ATOM     60  C   UNL A   1      38.943  28.456  31.033  1.00  0.00     0.012 A 
ATOM     61  C   UNL A   1      38.311  29.667  29.019  1.00  0.00     0.148 A 
ATOM     62  C   UNL A   1      37.686  28.696  31.583  1.00  0.00     0.002 A 
ATOM     63  C   UNL A   1      37.074  29.939  29.591  1.00  0.00     0.091 A 
ATOM     64  F   UNL A   1      38.629  30.086  27.786  1.00  0.00    -0.205 F 
ATOM     65  C   UNL A   1      36.757  29.447  30.868  1.00  0.00     0.022 A 
BRANCH  63  66
ATOM     66  S   UNL A   1      35.835  30.960  28.786  1.00  0.00     0.127 S 
ATOM     67  O   UNL A   1      35.043  31.416  29.927  1.00  0.00    -0.237 OA
ATOM     68  O   UNL A   1      36.653  31.998  28.158  1.00  0.00    -0.237 OA
ATOM     69  O   UNL A   1      35.138  30.086  27.852  1.00  0.00    -0.744 OA
ENDBRANCH  63  66
ENDBRANCH  45  59
BRANCH  46  70
ATOM     70  C   UNL A   1      48.116  27.227  25.447  1.00  0.00     0.023 A 
ATOM     71  C   UNL A   1      49.221  26.733  26.168  1.00  0.00     0.012 A 
ATOM     72  C   UNL A   1      48.259  27.490  24.071  1.00  0.00     0.148 A 
ATOM     73  C   UNL A   1      50.453  26.540  25.541  1.00  0.00     0.002 A 
ATOM     74  C   UNL A   1      49.474  27.244  23.442  1.00  0.00     0.091 A 
ATOM     75  F   UNL A   1      47.204  27.976  23.402  1.00  0.00    -0.205 F 
ATOM     76  C   UNL A   1      50.578  26.785  24.177  1.00  0.00     0.022 A 
BRANCH  74  77
ATOM     77  S   UNL A   1      49.672  27.407  21.663  1.00  0.00     0.127 S 
ATOM     78  O   UNL A   1      49.447  28.835  21.465  1.00  0.00    -0.237 OA
ATOM     79  O   UNL A   1      51.054  26.966  21.464  1.00  0.00    -0.237 OA
ATOM     80  O   UNL A   1      48.675  26.513  21.085  1.00  0.00    -0.744 OA
ENDBRANCH  74  77
ENDBRANCH  46  70
BRANCH  58  81
ATOM     81  C   UNL A   1      45.359  32.652  28.875  1.00  0.00     0.023 A 
ATOM     82  C   UNL A   1      46.134  32.853  30.033  1.00  0.00     0.012 A 
ATOM     83  C   UNL A   1      45.151  33.724  27.985  1.00  0.00     0.148 A 
ATOM     84  C   UNL A   1      46.672  34.107  30.315  1.00  0.00     0.002 A 
ATOM     85  C   UNL A   1      45.729  34.959  28.248  1.00  0.00     0.091 A 
ATOM     86  F   UNL A   1      44.393  33.516  26.898  1.00  0.00    -0.205 F 
ATOM     87  C   UNL A   1      46.482  35.156  29.417  1.00  0.00     0.022 A 
BRANCH  85  88
ATOM     88  S   UNL A   1      45.614  36.333  27.096  1.00  0.00     0.127 S 
ATOM     89  O   UNL A   1      46.190  35.754  25.884  1.00  0.00    -0.237 OA
ATOM     90  O   UNL A   1      44.172  36.571  27.034  1.00  0.00    -0.237 OA
ATOM     91  O   UNL A   1      46.376  37.420  27.698  1.00  0.00    -0.744 OA
ENDBRANCH  85  88
ENDBRANCH  58  81
ENDBRANCH  32  33
ENDBRANCH  24  27
ENDBRANCH  22  23
ENDBRANCH  21  22
ENDBRANCH   1  21
TORSDOF 17
ENDMDL
MODEL 2
REMARK VINA RESULT:     -10.4      5.550     10.873
REMARK SMILES CC(C)NC(=O)C[N@@H+]1CCC[C@H]1C(=O)NCCCCNC(=O)c1ccc(-c2c3nc(c(-c4cccc(S(=O)(=O)[O-])c4F)c4ccc([nH]4)c(-c4cccc(S(=O)(=O)[O-])c4F)c4nc(c(-c5cccc(S(=O)(=O)[O-])c5F)c5ccc2[nH]5)C=C4)C=C3)cc1
REMARK SMILES IDX 17 1 16 2 15 3 13 4 14 5 12 7 8 8 9 9 10 11 11 12 7 13 5 14
REMARK SMILES IDX 4 15 6 17 2 18 1 19 3 20 18 21 19 22 20 23 21 24 22 26 23 27
REMARK SMILES IDX 24 28 85 29 25 30 84 31 26 32 27 33 28 34 78 35 29 36 83 37
REMARK SMILES IDX 77 38 79 39 30 40 82 41 76 42 75 43 31 45 63 46 43 47 62 48
REMARK SMILES IDX 44 49 47 50 61 51 80 52 45 53 46 54 60 56 81 57 48 58 32 59
REMARK SMILES IDX 33 60 41 61 34 62 36 63 42 64 35 65 37 66 38 67 39 68 40 69
REMARK SMILES IDX 64 70 65 71 73 72 66 73 68 74 74 75 67 76 69 77 70 78 71 79
REMARK SMILES IDX 72 80 49 81 50 82 58 83 51 84 53 85 59 86 52 87 54 88 55 89
REMARK SMILES IDX 56 90 57 91
REMARK H PARENT 15 6 8 10 4 16 20 25 79 44 47 55
REMARK Flexibility Score: inf
ROOT
ATOM      1  C   UNL A   1      31.699  28.058  27.025  1.00  0.00     0.023 C 
ENDROOT
BRANCH   1   2
ATOM      2  C   UNL A   1      32.146  26.706  26.459  1.00  0.00     0.116 C 
BRANCH   2   3
ATOM      3  N   UNL A   1      31.234  25.653  26.860  1.00  0.00    -0.351 N 
ATOM      4  C   UNL A   1      31.253  24.314  26.563  1.00  0.00     0.278 C 
ATOM      5  O   UNL A   1      30.278  23.652  26.925  1.00  0.00    -0.268 OA
ATOM      6  H   UNL A   1      30.489  25.943  27.434  1.00  0.00     0.163 HD
BRANCH   4   7
ATOM      7  C   UNL A   1      32.513  23.689  25.883  1.00  0.00     0.274 C 
ATOM      8  N   UNL A   1      32.245  22.285  25.464  1.00  0.00    -0.317 N 
ATOM      9  C   UNL A   1      31.821  22.406  24.055  1.00  0.00     0.263 C 
ATOM     10  H   UNL A   1      31.558  21.882  26.102  1.00  0.00     0.349 HD
ATOM     11  C   UNL A   1      32.797  23.409  23.471  1.00  0.00     0.068 C 
ATOM     12  C   UNL A   1      32.941  24.410  24.598  1.00  0.00     0.081 C 
BRANCH   8  13
ATOM     13  C   UNL A   1      33.387  21.347  25.548  1.00  0.00     0.364 C 
BRANCH  13  14
ATOM     14  C   UNL A   1      34.358  21.589  26.702  1.00  0.00     0.275 C 
ATOM     15  N   UNL A   1      35.672  21.870  26.424  1.00  0.00    -0.349 N 
ATOM     16  H   UNL A   1      36.291  21.795  27.186  1.00  0.00     0.163 HD
ATOM     17  O   UNL A   1      34.032  21.461  27.883  1.00  0.00    -0.268 OA
BRANCH  15  18
ATOM     18  C   UNL A   1      36.282  22.262  25.160  1.00  0.00     0.076 C 
ATOM     19  C   UNL A   1      36.804  23.692  25.277  1.00  0.00     0.030 C 
ATOM     20  C   UNL A   1      37.380  21.301  24.729  1.00  0.00     0.030 C 
ENDBRANCH  15  18
ENDBRANCH  13  14
ENDBRANCH   8  13
ENDBRANCH   4   7
ENDBRANCH   2   3
ENDBRANCH   1   2
BRANCH   1  21
ATOM     21  C   UNL A   1      31.532  29.172  26.002  1.00  0.00     0.023 C 
BRANCH  21  22
ATOM     22  C   UNL A   1      32.672  30.169  25.954  1.00  0.00     0.116 C 
BRANCH  22  23
ATOM     23  N   UNL A   1      32.304  31.503  26.415  1.00  0.00    -0.352 N 
ATOM     24  C   UNL A   1      33.011  32.333  27.259  1.00  0.00     0.251 C 
ATOM     25  H   UNL A   1      31.446  31.854  26.084  1.00  0.00     0.163 HD
ATOM     26  O   UNL A   1      32.543  33.400  27.625  1.00  0.00    -0.269 OA
BRANCH  24  27
ATOM     27  C   UNL A   1      34.330  31.873  27.743  1.00  0.00     0.039 A 
ATOM     28  C   UNL A   1      35.339  32.814  27.954  1.00  0.00     0.014 A 
ATOM     29  C   UNL A   1      34.515  30.534  28.094  1.00  0.00     0.014 A 
ATOM     30  C   UNL A   1      36.514  32.421  28.597  1.00  0.00     0.010 A 
ATOM     31  C   UNL A   1      35.643  30.169  28.816  1.00  0.00     0.010 A 
ATOM     32  C   UNL A   1      36.657  31.106  29.070  1.00  0.00    -0.014 A 
BRANCH  32  33
ATOM     33  C   UNL A   1      37.855  30.682  29.836  1.00  0.00     0.031 A 
ATOM     34  C   UNL A   1      38.818  29.700  29.227  1.00  0.00     0.074 A 
ATOM     35  C   UNL A   1      38.012  31.089  31.112  1.00  0.00     0.049 A 
ATOM     36  N   UNL A   1      39.880  29.152  29.759  1.00  0.00    -0.248 NA
ATOM     37  C   UNL A   1      38.534  29.241  27.857  1.00  0.00     0.031 C 
ATOM     38  C   UNL A   1      37.086  31.950  31.850  1.00  0.00     0.029 A 
ATOM     39  N   UNL A   1      38.995  30.803  32.026  1.00  0.00    -0.354 N 
ATOM     40  C   UNL A   1      40.354  28.251  28.814  1.00  0.00     0.074 A 
ATOM     41  C   UNL A   1      39.451  28.300  27.687  1.00  0.00     0.031 C 
ATOM     42  C   UNL A   1      37.543  32.121  33.102  1.00  0.00     0.029 A 
ATOM     43  C   UNL A   1      38.784  31.369  33.262  1.00  0.00     0.049 A 
ATOM     44  H   UNL A   1      39.779  30.245  31.817  1.00  0.00     0.167 HD
ATOM     45  C   UNL A   1      41.464  27.479  28.864  1.00  0.00     0.034 A 
ATOM     46  C   UNL A   1      39.508  31.291  34.396  1.00  0.00     0.034 A 
ATOM     47  C   UNL A   1      42.404  27.498  29.949  1.00  0.00     0.049 A 
ATOM     48  C   UNL A   1      40.794  30.507  34.383  1.00  0.00     0.074 A 
ATOM     49  C   UNL A   1      43.626  26.857  30.037  1.00  0.00     0.029 A 
ATOM     50  N   UNL A   1      42.227  28.195  31.133  1.00  0.00    -0.354 N 
ATOM     51  N   UNL A   1      41.331  29.820  33.404  1.00  0.00    -0.248 NA
ATOM     52  C   UNL A   1      41.596  30.521  35.616  1.00  0.00     0.031 C 
ATOM     53  C   UNL A   1      44.186  27.159  31.282  1.00  0.00     0.029 A 
ATOM     54  C   UNL A   1      43.317  27.998  31.962  1.00  0.00     0.049 A 
ATOM     55  H   UNL A   1      41.444  28.748  31.352  1.00  0.00     0.167 HD
ATOM     56  C   UNL A   1      42.547  29.352  33.889  1.00  0.00     0.074 A 
ATOM     57  C   UNL A   1      42.679  29.853  35.241  1.00  0.00     0.031 C 
ATOM     58  C   UNL A   1      43.462  28.560  33.279  1.00  0.00     0.034 A 
BRANCH  45  59
ATOM     59  C   UNL A   1      41.768  26.606  27.678  1.00  0.00     0.023 A 
ATOM     60  C   UNL A   1      42.440  27.153  26.566  1.00  0.00     0.012 A 
ATOM     61  C   UNL A   1      41.458  25.232  27.692  1.00  0.00     0.148 A 
ATOM     62  C   UNL A   1      42.778  26.354  25.476  1.00  0.00     0.002 A 
ATOM     63  C   UNL A   1      41.835  24.432  26.620  1.00  0.00     0.091 A 
ATOM     64  F   UNL A   1      40.797  24.736  28.748  1.00  0.00    -0.205 F 
ATOM     65  C   UNL A   1      42.487  24.992  25.509  1.00  0.00     0.022 A 
BRANCH  63  66
ATOM     66  S   UNL A   1      41.575  22.655  26.595  1.00  0.00     0.127 S 
ATOM     67  O   UNL A   1      40.118  22.572  26.512  1.00  0.00    -0.237 OA
ATOM     68  O   UNL A   1      42.278  22.260  25.374  1.00  0.00    -0.237 OA
ATOM     69  O   UNL A   1      42.160  22.145  27.826  1.00  0.00    -0.744 OA
ENDBRANCH  63  66
ENDBRANCH  45  59
BRANCH  46  70
ATOM     70  C   UNL A   1      39.080  32.036  35.614  1.00  0.00     0.023 A 
ATOM     71  C   UNL A   1      39.396  33.404  35.734  1.00  0.00     0.012 A 
ATOM     72  C   UNL A   1      38.353  31.409  36.643  1.00  0.00     0.148 A 
ATOM     73  C   UNL A   1      39.030  34.123  36.871  1.00  0.00     0.002 A 
ATOM     74  C   UNL A   1      37.943  32.146  37.750  1.00  0.00     0.091 A 
ATOM     75  F   UNL A   1      38.073  30.104  36.523  1.00  0.00    -0.205 F 
ATOM     76  C   UNL A   1      38.295  33.499  37.875  1.00  0.00     0.022 A 
BRANCH  74  77
ATOM     77  S   UNL A   1      36.879  31.445  39.016  1.00  0.00     0.127 S 
ATOM     78  O   UNL A   1      36.653  30.097  38.506  1.00  0.00    -0.237 OA
ATOM     79  O   UNL A   1      37.726  31.520  40.208  1.00  0.00    -0.237 OA
ATOM     80  O   UNL A   1      35.713  32.319  39.061  1.00  0.00    -0.744 OA
ENDBRANCH  74  77
ENDBRANCH  46  70
BRANCH  58  81
ATOM     81  C   UNL A   1      44.708  28.208  34.046  1.00  0.00     0.023 A 
ATOM     82  C   UNL A   1      45.808  29.087  34.027  1.00  0.00     0.012 A 
ATOM     83  C   UNL A   1      44.754  27.057  34.855  1.00  0.00     0.148 A 
ATOM     84  C   UNL A   1      46.947  28.810  34.781  1.00  0.00     0.002 A 
ATOM     85  C   UNL A   1      45.873  26.811  35.640  1.00  0.00     0.091 A 
ATOM     86  F   UNL A   1      43.703  26.223  34.843  1.00  0.00    -0.205 F 
ATOM     87  C   UNL A   1      46.974  27.681  35.598  1.00  0.00     0.022 A 
BRANCH  85  88
ATOM     88  S   UNL A   1      45.950  25.433  36.791  1.00  0.00     0.127 S 
ATOM     89  O   UNL A   1      44.788  25.691  37.640  1.00  0.00    -0.237 OA
ATOM     90  O   UNL A   1      45.814  24.276  35.906  1.00  0.00    -0.237 OA
ATOM     91  O   UNL A   1      47.246  25.538  37.448  1.00  0.00    -0.744 OA
ENDBRANCH  85  88
ENDBRANCH  58  81
ENDBRANCH  32  33
ENDBRANCH  24  27
ENDBRANCH  22  23
ENDBRANCH  21  22
ENDBRANCH   1  21
TORSDOF 17
ENDMDL
MODEL 3
REMARK VINA RESULT:     -10.4      6.531     11.773
REMARK SMILES CC(C)NC(=O)C[N@@H+]1CCC[C@H]1C(=O)NCCCCNC(=O)c1ccc(-c2c3nc(c(-c4cccc(S(=O)(=O)[O-])c4F)c4ccc([nH]4)c(-c4cccc(S(=O)(=O)[O-])c4F)c4nc(c(-c5cccc(S(=O)(=O)[O-])c5F)c5ccc2[nH]5)C=C4)C=C3)cc1
REMARK SMILES IDX 17 1 16 2 15 3 13 4 14 5 12 7 8 8 9 9 10 11 11 12 7 13 5 14
REMARK SMILES IDX 4 15 6 17 2 18 1 19 3 20 18 21 19 22 20 23 21 24 22 26 23 27
REMARK SMILES IDX 24 28 85 29 25 30 84 31 26 32 27 33 28 34 78 35 29 36 83 37
REMARK SMILES IDX 77 38 79 39 30 40 82 41 76 42 75 43 31 45 63 46 43 47 62 48
REMARK SMILES IDX 44 49 47 50 61 51 80 52 45 53 46 54 60 56 81 57 48 58 32 59
REMARK SMILES IDX 33 60 41 61 34 62 36 63 42 64 35 65 37 66 38 67 39 68 40 69
REMARK SMILES IDX 64 70 65 71 73 72 66 73 68 74 74 75 67 76 69 77 70 78 71 79
REMARK SMILES IDX 72 80 49 81 50 82 58 83 51 84 53 85 59 86 52 87 54 88 55 89
REMARK SMILES IDX 56 90 57 91
REMARK H PARENT 15 6 8 10 4 16 20 25 79 44 47 55
REMARK Flexibility Score: inf
ROOT
ATOM      1  C   UNL A   1      32.482  30.219  25.899  1.00  0.00     0.023 C 
ENDROOT
BRANCH   1   2
ATOM      2  C   UNL A   1      31.709  28.896  25.918  1.00  0.00     0.116 C 
BRANCH   2   3
ATOM      3  N   UNL A   1      31.057  28.663  24.644  1.00  0.00    -0.351 N 
ATOM      4  C   UNL A   1      31.272  27.678  23.714  1.00  0.00     0.278 C 
ATOM      5  O   UNL A   1      30.667  27.783  22.645  1.00  0.00    -0.268 OA
ATOM      6  H   UNL A   1      30.352  29.310  24.412  1.00  0.00     0.163 HD
BRANCH   4   7
ATOM      7  C   UNL A   1      32.173  26.454  24.076  1.00  0.00     0.274 C 
ATOM      8  N   UNL A   1      31.377  25.396  24.757  1.00  0.00    -0.317 N 
ATOM      9  C   UNL A   1      30.973  24.491  23.664  1.00  0.00     0.263 C 
ATOM     10  H   UNL A   1      30.616  25.843  25.269  1.00  0.00     0.349 HD
ATOM     11  C   UNL A   1      32.230  24.353  22.828  1.00  0.00     0.068 C 
ATOM     12  C   UNL A   1      32.789  25.760  22.854  1.00  0.00     0.081 C 
BRANCH   8  13
ATOM     13  C   UNL A   1      32.082  24.614  25.798  1.00  0.00     0.364 C 
BRANCH  13  14
ATOM     14  C   UNL A   1      31.241  23.560  26.516  1.00  0.00     0.275 C 
ATOM     15  N   UNL A   1      31.510  22.231  26.305  1.00  0.00    -0.349 N 
ATOM     16  H   UNL A   1      30.812  21.606  26.605  1.00  0.00     0.163 HD
ATOM     17  O   UNL A   1      30.268  23.849  27.215  1.00  0.00    -0.268 OA
BRANCH  15  18
ATOM     18  C   UNL A   1      32.684  21.615  25.700  1.00  0.00     0.076 C 
ATOM     19  C   UNL A   1      33.541  20.986  26.796  1.00  0.00     0.030 C 
ATOM     20  C   UNL A   1      32.312  20.599  24.630  1.00  0.00     0.030 C 
ENDBRANCH  15  18
ENDBRANCH  13  14
ENDBRANCH   8  13
ENDBRANCH   4   7
ENDBRANCH   2   3
ENDBRANCH   1   2
BRANCH   1  21
ATOM     21  C   UNL A   1      32.301  31.099  27.126  1.00  0.00     0.023 C 
BRANCH  21  22
ATOM     22  C   UNL A   1      33.366  32.162  27.311  1.00  0.00     0.116 C 
BRANCH  22  23
ATOM     23  N   UNL A   1      32.827  33.500  27.531  1.00  0.00    -0.352 N 
ATOM     24  C   UNL A   1      33.217  34.425  28.475  1.00  0.00     0.251 C 
ATOM     25  H   UNL A   1      32.095  33.775  26.934  1.00  0.00     0.163 HD
ATOM     26  O   UNL A   1      32.621  35.484  28.598  1.00  0.00    -0.269 OA
BRANCH  24  27
ATOM     27  C   UNL A   1      34.347  34.080  29.363  1.00  0.00     0.039 A 
ATOM     28  C   UNL A   1      34.102  33.314  30.504  1.00  0.00     0.014 A 
ATOM     29  C   UNL A   1      35.652  34.418  28.995  1.00  0.00     0.014 A 
ATOM     30  C   UNL A   1      35.181  32.816  31.236  1.00  0.00     0.010 A 
ATOM     31  C   UNL A   1      36.720  33.843  29.669  1.00  0.00     0.010 A 
ATOM     32  C   UNL A   1      36.497  33.041  30.800  1.00  0.00    -0.014 A 
BRANCH  32  33
ATOM     33  C   UNL A   1      37.661  32.451  31.505  1.00  0.00     0.031 A 
ATOM     34  C   UNL A   1      38.425  31.323  30.866  1.00  0.00     0.074 A 
ATOM     35  C   UNL A   1      37.957  32.848  32.759  1.00  0.00     0.049 A 
ATOM     36  N   UNL A   1      39.421  30.627  31.348  1.00  0.00    -0.248 NA
ATOM     37  C   UNL A   1      37.990  30.892  29.526  1.00  0.00     0.031 C 
ATOM     38  C   UNL A   1      37.220  33.853  33.528  1.00  0.00     0.029 A 
ATOM     39  N   UNL A   1      38.940  32.429  33.621  1.00  0.00    -0.354 N 
ATOM     40  C   UNL A   1      39.694  29.650  30.399  1.00  0.00     0.074 A 
ATOM     41  C   UNL A   1      38.741  29.819  29.326  1.00  0.00     0.031 C 
ATOM     42  C   UNL A   1      37.774  33.972  34.746  1.00  0.00     0.029 A 
ATOM     43  C   UNL A   1      38.893  33.041  34.852  1.00  0.00     0.049 A 
ATOM     44  H   UNL A   1      39.615  31.755  33.381  1.00  0.00     0.167 HD
ATOM     45  C   UNL A   1      40.675  28.717  30.404  1.00  0.00     0.034 A 
ATOM     46  C   UNL A   1      39.666  32.870  35.944  1.00  0.00     0.034 A 
ATOM     47  C   UNL A   1      41.672  28.609  31.431  1.00  0.00     0.049 A 
ATOM     48  C   UNL A   1      40.814  31.898  35.876  1.00  0.00     0.074 A 
ATOM     49  C   UNL A   1      42.785  27.790  31.464  1.00  0.00     0.029 A 
ATOM     50  N   UNL A   1      41.676  29.343  32.606  1.00  0.00    -0.354 N 
ATOM     51  N   UNL A   1      41.179  31.122  34.884  1.00  0.00    -0.248 NA
ATOM     52  C   UNL A   1      41.683  31.808  37.059  1.00  0.00     0.031 C 
ATOM     53  C   UNL A   1      43.460  28.021  32.667  1.00  0.00     0.029 A 
ATOM     54  C   UNL A   1      42.772  28.994  33.374  1.00  0.00     0.049 A 
ATOM     55  H   UNL A   1      41.001  30.013  32.856  1.00  0.00     0.167 HD
ATOM     56  C   UNL A   1      42.337  30.480  35.309  1.00  0.00     0.074 A 
ATOM     57  C   UNL A   1      42.627  30.977  36.638  1.00  0.00     0.031 C 
ATOM     58  C   UNL A   1      43.082  29.548  34.666  1.00  0.00     0.034 A 
BRANCH  45  59
ATOM     59  C   UNL A   1      40.768  27.789  29.224  1.00  0.00     0.023 A 
ATOM     60  C   UNL A   1      39.916  26.668  29.153  1.00  0.00     0.012 A 
ATOM     61  C   UNL A   1      41.640  28.064  28.153  1.00  0.00     0.148 A 
ATOM     62  C   UNL A   1      39.946  25.821  28.048  1.00  0.00     0.002 A 
ATOM     63  C   UNL A   1      41.636  27.239  27.035  1.00  0.00     0.091 A 
ATOM     64  F   UNL A   1      42.459  29.121  28.250  1.00  0.00    -0.205 F 
ATOM     65  C   UNL A   1      40.797  26.113  26.985  1.00  0.00     0.022 A 
BRANCH  63  66
ATOM     66  S   UNL A   1      42.637  27.568  25.580  1.00  0.00     0.127 S 
ATOM     67  O   UNL A   1      42.351  26.396  24.755  1.00  0.00    -0.237 OA
ATOM     68  O   UNL A   1      42.058  28.817  25.086  1.00  0.00    -0.237 OA
ATOM     69  O   UNL A   1      44.010  27.678  26.053  1.00  0.00    -0.744 OA
ENDBRANCH  63  66
ENDBRANCH  45  59
BRANCH  46  70
ATOM     70  C   UNL A   1      39.432  33.692  37.166  1.00  0.00     0.023 A 
ATOM     71  C   UNL A   1      39.910  35.016  37.210  1.00  0.00     0.012 A 
ATOM     72  C   UNL A   1      38.730  33.180  38.273  1.00  0.00     0.148 A 
ATOM     73  C   UNL A   1      39.727  35.802  38.348  1.00  0.00     0.002 A 
ATOM     74  C   UNL A   1      38.504  33.988  39.383  1.00  0.00     0.091 A 
ATOM     75  F   UNL A   1      38.295  31.913  38.224  1.00  0.00    -0.205 F 
ATOM     76  C   UNL A   1      39.016  35.293  39.430  1.00  0.00     0.022 A 
BRANCH  74  77
ATOM     77  S   UNL A   1      37.480  33.448  40.758  1.00  0.00     0.127 S 
ATOM     78  O   UNL A   1      38.331  32.445  41.390  1.00  0.00    -0.237 OA
ATOM     79  O   UNL A   1      37.311  34.685  41.522  1.00  0.00    -0.237 OA
ATOM     80  O   UNL A   1      36.251  32.956  40.148  1.00  0.00    -0.744 OA
ENDBRANCH  74  77
ENDBRANCH  46  70
BRANCH  58  81
ATOM     81  C   UNL A   1      44.304  29.022  35.368  1.00  0.00     0.023 A 
ATOM     82  C   UNL A   1      45.530  29.702  35.235  1.00  0.00     0.012 A 
ATOM     83  C   UNL A   1      44.217  27.910  36.228  1.00  0.00     0.148 A 
ATOM     84  C   UNL A   1      46.659  29.266  35.927  1.00  0.00     0.002 A 
ATOM     85  C   UNL A   1      45.335  27.509  36.950  1.00  0.00     0.091 A 
ATOM     86  F   UNL A   1      43.046  27.264  36.324  1.00  0.00    -0.205 F 
ATOM     87  C   UNL A   1      46.558  28.180  36.794  1.00  0.00     0.022 A 
BRANCH  85  88
ATOM     88  S   UNL A   1      45.266  26.183  38.160  1.00  0.00     0.127 S 
ATOM     89  O   UNL A   1      46.673  26.045  38.530  1.00  0.00    -0.237 OA
ATOM     90  O   UNL A   1      44.413  26.754  39.204  1.00  0.00    -0.237 OA
ATOM     91  O   UNL A   1      44.683  25.042  37.466  1.00  0.00    -0.744 OA
ENDBRANCH  85  88
ENDBRANCH  58  81
ENDBRANCH  32  33
ENDBRANCH  24  27
ENDBRANCH  22  23
ENDBRANCH  21  22
ENDBRANCH   1  21
TORSDOF 17
ENDMDL
