MODEL 1
REMARK VINA RESULT:     -11.9      0.000      0.000
REMARK SMILES Cc1sc2[nH]c(SCC(=O)NCCCCNC(=O)c3ccc(-c4c5nc(c(-c6cccc(S(=O)(=O)[O-])c6F)c6ccc([nH]6)c(-c6cccc(S(=O)(=O)[O-])c6F)c6nc(c(-c7cccc(S(=O)(=O)[O-])c7F)c7ccc4[nH]7)C=C6)C=C5)cc3)nc(=O)c2c1C
REMARK SMILES IDX 14 1 13 2 12 3 11 4 9 5 10 6 8 8 7 9 6 10 1 11 2 12 3 13
REMARK SMILES IDX 86 14 4 15 85 16 87 17 5 18 83 19 82 21 84 22 15 23 16 24
REMARK SMILES IDX 17 25 18 27 19 28 20 29 81 30 21 31 80 32 22 33 23 34 24 35
REMARK SMILES IDX 74 36 25 37 79 38 73 39 75 40 26 41 78 42 72 43 71 44 27 46
REMARK SMILES IDX 59 47 39 48 58 49 40 50 43 51 57 52 76 53 41 54 42 55 56 57
REMARK SMILES IDX 77 58 44 59 28 60 29 61 37 62 30 63 32 64 38 65 31 66 33 67
REMARK SMILES IDX 34 68 35 69 36 70 60 71 61 72 69 73 62 74 64 75 70 76 63 77
REMARK SMILES IDX 65 78 66 79 67 80 68 81 45 82 46 83 54 84 47 85 49 86 55 87
REMARK SMILES IDX 48 88 50 89 51 90 52 91 53 92
REMARK H PARENT 11 7 5 20 16 26 75 45 43 56
REMARK Flexibility Score: inf
ROOT
ATOM      1  C   UNL A   1      46.348  21.283  36.877  1.00  0.00     0.023 C 
ENDROOT
BRANCH   1   2
ATOM      2  C   UNL A   1      46.688  19.792  36.662  1.00  0.00     0.023 C 
BRANCH   2   3
ATOM      3  C   UNL A   1      45.651  18.810  37.211  1.00  0.00     0.116 C 
BRANCH   3   4
ATOM      4  N   UNL A   1      46.048  18.303  38.512  1.00  0.00    -0.355 N 
ATOM      5  C   UNL A   1      45.534  17.292  39.268  1.00  0.00     0.230 C 
ATOM      6  O   UNL A   1      46.105  17.033  40.331  1.00  0.00    -0.274 OA
ATOM      7  H   UNL A   1      46.816  18.769  38.916  1.00  0.00     0.163 HD
BRANCH   5   8
ATOM      8  C   UNL A   1      44.381  16.438  38.774  1.00  0.00     0.178 C 
BRANCH   8   9
ATOM      9  S   UNL A   1      42.810  16.725  39.624  1.00  0.00    -0.078 SA
BRANCH   9  10
ATOM     10  C   UNL A   1      42.633  15.300  40.618  1.00  0.00     0.170 A 
ATOM     11  C   UNL A   1      43.403  12.198  45.897  1.00  0.00     0.057 C 
ATOM     12  C   UNL A   1      43.186  12.828  44.560  1.00  0.00     0.007 A 
ATOM     13  S   UNL A   1      43.805  14.399  44.263  1.00  0.00    -0.122 S 
ATOM     14  C   UNL A   1      42.525  12.305  43.452  1.00  0.00    -0.022 A 
ATOM     15  C   UNL A   1      43.164  14.413  42.704  1.00  0.00     0.108 A 
ATOM     16  C   UNL A   1      42.490  13.266  42.373  1.00  0.00     0.080 A 
ATOM     17  C   UNL A   1      41.914  10.941  43.376  1.00  0.00     0.046 C 
ATOM     18  N   UNL A   1      43.255  15.422  41.827  1.00  0.00    -0.326 N 
ATOM     19  C   UNL A   1      41.851  13.164  41.046  1.00  0.00     0.282 A 
ATOM     20  H   UNL A   1      43.760  16.237  42.052  1.00  0.00     0.169 HD
ATOM     21  N   UNL A   1      41.954  14.280  40.221  1.00  0.00    -0.185 NA
ATOM     22  O   UNL A   1      41.241  12.161  40.721  1.00  0.00    -0.267 OA
ENDBRANCH   9  10
ENDBRANCH   8   9
ENDBRANCH   5   8
ENDBRANCH   3   4
ENDBRANCH   2   3
ENDBRANCH   1   2
BRANCH   1  23
ATOM     23  C   UNL A   1      45.477  21.937  35.788  1.00  0.00     0.116 C 
BRANCH  23  24
ATOM     24  N   UNL A   1      44.616  22.950  36.371  1.00  0.00    -0.352 N 
ATOM     25  C   UNL A   1      44.459  24.279  36.087  1.00  0.00     0.251 C 
ATOM     26  H   UNL A   1      44.042  22.621  37.100  1.00  0.00     0.163 HD
ATOM     27  O   UNL A   1      44.035  25.003  36.989  1.00  0.00    -0.269 OA
BRANCH  25  28
ATOM     28  C   UNL A   1      44.745  24.872  34.759  1.00  0.00     0.039 A 
ATOM     29  C   UNL A   1      45.788  25.806  34.686  1.00  0.00     0.014 A 
ATOM     30  C   UNL A   1      43.910  24.693  33.654  1.00  0.00     0.014 A 
ATOM     31  C   UNL A   1      46.006  26.548  33.524  1.00  0.00     0.010 A 
ATOM     32  C   UNL A   1      44.128  25.443  32.488  1.00  0.00     0.010 A 
ATOM     33  C   UNL A   1      45.179  26.374  32.409  1.00  0.00    -0.014 A 
BRANCH  33  34
ATOM     34  C   UNL A   1      45.498  27.138  31.175  1.00  0.00     0.031 A 
ATOM     35  C   UNL A   1      45.691  26.312  29.948  1.00  0.00     0.074 A 
ATOM     36  C   UNL A   1      45.097  28.420  30.998  1.00  0.00     0.049 A 
ATOM     37  N   UNL A   1      44.662  25.882  29.289  1.00  0.00    -0.248 NA
ATOM     38  C   UNL A   1      46.943  25.702  29.514  1.00  0.00     0.031 C 
ATOM     39  C   UNL A   1      43.936  29.009  31.687  1.00  0.00     0.029 A 
ATOM     40  N   UNL A   1      45.449  29.375  30.063  1.00  0.00    -0.354 N 
ATOM     41  C   UNL A   1      45.082  24.904  28.407  1.00  0.00     0.074 A 
ATOM     42  C   UNL A   1      46.518  24.844  28.566  1.00  0.00     0.031 C 
ATOM     43  C   UNL A   1      43.579  30.144  31.052  1.00  0.00     0.029 A 
ATOM     44  C   UNL A   1      44.556  30.445  30.012  1.00  0.00     0.049 A 
ATOM     45  H   UNL A   1      46.248  29.308  29.491  1.00  0.00     0.167 HD
ATOM     46  C   UNL A   1      44.187  24.256  27.606  1.00  0.00     0.034 A 
ATOM     47  C   UNL A   1      44.321  31.244  28.936  1.00  0.00     0.034 A 
ATOM     48  C   UNL A   1      42.809  24.709  27.692  1.00  0.00     0.049 A 
ATOM     49  C   UNL A   1      43.472  30.344  28.070  1.00  0.00     0.074 A 
ATOM     50  C   UNL A   1      41.531  24.189  27.682  1.00  0.00     0.029 A 
ATOM     51  N   UNL A   1      42.643  26.055  27.857  1.00  0.00    -0.354 N 
ATOM     52  N   UNL A   1      42.211  30.047  28.268  1.00  0.00    -0.248 NA
ATOM     53  C   UNL A   1      44.148  29.499  27.074  1.00  0.00     0.031 C 
ATOM     54  C   UNL A   1      40.615  25.293  27.802  1.00  0.00     0.029 A 
ATOM     55  C   UNL A   1      41.349  26.469  27.820  1.00  0.00     0.049 A 
ATOM     56  H   UNL A   1      43.397  26.673  27.993  1.00  0.00     0.167 HD
ATOM     57  C   UNL A   1      42.041  28.810  27.658  1.00  0.00     0.074 A 
ATOM     58  C   UNL A   1      43.201  28.607  26.810  1.00  0.00     0.031 C 
ATOM     59  C   UNL A   1      41.115  27.879  28.030  1.00  0.00     0.034 A 
BRANCH  46  60
ATOM     60  C   UNL A   1      44.566  23.363  26.478  1.00  0.00     0.023 A 
ATOM     61  C   UNL A   1      45.155  23.998  25.364  1.00  0.00     0.012 A 
ATOM     62  C   UNL A   1      44.191  22.013  26.377  1.00  0.00     0.148 A 
ATOM     63  C   UNL A   1      45.348  23.319  24.163  1.00  0.00     0.002 A 
ATOM     64  C   UNL A   1      44.385  21.337  25.170  1.00  0.00     0.091 A 
ATOM     65  F   UNL A   1      43.611  21.428  27.435  1.00  0.00    -0.205 F 
ATOM     66  C   UNL A   1      44.957  21.991  24.063  1.00  0.00     0.022 A 
BRANCH  64  67
ATOM     67  S   UNL A   1      43.889  19.629  24.898  1.00  0.00     0.127 S 
ATOM     68  O   UNL A   1      44.778  18.905  25.806  1.00  0.00    -0.237 OA
ATOM     69  O   UNL A   1      42.486  19.652  25.309  1.00  0.00    -0.237 OA
ATOM     70  O   UNL A   1      44.104  19.372  23.481  1.00  0.00    -0.744 OA
ENDBRANCH  64  67
ENDBRANCH  46  60
BRANCH  47  71
ATOM     71  C   UNL A   1      45.477  32.056  28.418  1.00  0.00     0.023 A 
ATOM     72  C   UNL A   1      46.772  31.729  28.893  1.00  0.00     0.012 A 
ATOM     73  C   UNL A   1      45.380  33.146  27.531  1.00  0.00     0.148 A 
ATOM     74  C   UNL A   1      47.921  32.363  28.412  1.00  0.00     0.002 A 
ATOM     75  C   UNL A   1      46.530  33.732  27.000  1.00  0.00     0.091 A 
ATOM     76  F   UNL A   1      44.169  33.621  27.216  1.00  0.00    -0.205 F 
ATOM     77  C   UNL A   1      47.802  33.340  27.435  1.00  0.00     0.022 A 
BRANCH  75  78
ATOM     78  S   UNL A   1      46.475  34.951  25.678  1.00  0.00     0.127 S 
ATOM     79  O   UNL A   1      45.622  34.293  24.691  1.00  0.00    -0.237 OA
ATOM     80  O   UNL A   1      45.860  36.087  26.363  1.00  0.00    -0.237 OA
ATOM     81  O   UNL A   1      47.857  35.153  25.268  1.00  0.00    -0.744 OA
ENDBRANCH  75  78
ENDBRANCH  47  71
BRANCH  59  82
ATOM     82  C   UNL A   1      39.895  28.349  28.733  1.00  0.00     0.023 A 
ATOM     83  C   UNL A   1      38.797  28.703  27.927  1.00  0.00     0.012 A 
ATOM     84  C   UNL A   1      39.754  28.325  30.132  1.00  0.00     0.148 A 
ATOM     85  C   UNL A   1      37.565  29.006  28.494  1.00  0.00     0.002 A 
ATOM     86  C   UNL A   1      38.516  28.622  30.695  1.00  0.00     0.091 A 
ATOM     87  F   UNL A   1      40.812  27.992  30.885  1.00  0.00    -0.205 F 
ATOM     88  C   UNL A   1      37.422  28.956  29.876  1.00  0.00     0.022 A 
BRANCH  86  89
ATOM     89  S   UNL A   1      38.201  28.567  32.462  1.00  0.00     0.127 S 
ATOM     90  O   UNL A   1      36.846  29.113  32.549  1.00  0.00    -0.237 OA
ATOM     91  O   UNL A   1      38.295  27.134  32.740  1.00  0.00    -0.237 OA
ATOM     92  O   UNL A   1      39.227  29.390  33.087  1.00  0.00    -0.744 OA
ENDBRANCH  86  89
ENDBRANCH  59  82
ENDBRANCH  33  34
ENDBRANCH  25  28
ENDBRANCH  23  24
ENDBRANCH   1  23
TORSDOF 16
ENDMDL
MODEL 2
REMARK VINA RESULT:     -11.8      5.569      9.583
REMARK SMILES Cc1sc2[nH]c(SCC(=O)NCCCCNC(=O)c3ccc(-c4c5nc(c(-c6cccc(S(=O)(=O)[O-])c6F)c6ccc([nH]6)c(-c6cccc(S(=O)(=O)[O-])c6F)c6nc(c(-c7cccc(S(=O)(=O)[O-])c7F)c7ccc4[nH]7)C=C6)C=C5)cc3)nc(=O)c2c1C
REMARK SMILES IDX 14 1 13 2 12 3 11 4 9 5 10 6 8 8 7 9 6 10 1 11 2 12 3 13
REMARK SMILES IDX 86 14 4 15 85 16 87 17 5 18 83 19 82 21 84 22 15 23 16 24
REMARK SMILES IDX 17 25 18 27 19 28 20 29 81 30 21 31 80 32 22 33 23 34 24 35
REMARK SMILES IDX 74 36 25 37 79 38 73 39 75 40 26 41 78 42 72 43 71 44 27 46
REMARK SMILES IDX 59 47 39 48 58 49 40 50 43 51 57 52 76 53 41 54 42 55 56 57
REMARK SMILES IDX 77 58 44 59 28 60 29 61 37 62 30 63 32 64 38 65 31 66 33 67
REMARK SMILES IDX 34 68 35 69 36 70 60 71 61 72 69 73 62 74 64 75 70 76 63 77
REMARK SMILES IDX 65 78 66 79 67 80 68 81 45 82 46 83 54 84 47 85 49 86 55 87
REMARK SMILES IDX 48 88 50 89 51 90 52 91 53 92
REMARK H PARENT 11 7 5 20 16 26 75 45 43 56
REMARK Flexibility Score: inf
ROOT
ATOM      1  C   UNL A   1      41.868  26.519  36.749  1.00  0.00     0.023 C 
ENDROOT
BRANCH   1   2
ATOM      2  C   UNL A   1      42.491  27.511  35.744  1.00  0.00     0.023 C 
BRANCH   2   3
ATOM      3  C   UNL A   1      41.607  28.709  35.390  1.00  0.00     0.116 C 
BRANCH   3   4
ATOM      4  N   UNL A   1      41.643  29.713  36.438  1.00  0.00    -0.355 N 
ATOM      5  C   UNL A   1      41.358  31.046  36.405  1.00  0.00     0.230 C 
ATOM      6  O   UNL A   1      41.422  31.666  37.469  1.00  0.00    -0.274 OA
ATOM      7  H   UNL A   1      41.920  29.375  37.320  1.00  0.00     0.163 HD
BRANCH   5   8
ATOM      8  C   UNL A   1      40.868  31.721  35.137  1.00  0.00     0.178 C 
BRANCH   8   9
ATOM      9  S   UNL A   1      39.204  32.421  35.248  1.00  0.00    -0.078 SA
BRANCH   9  10
ATOM     10  C   UNL A   1      38.701  32.511  33.578  1.00  0.00     0.170 A 
ATOM     11  C   UNL A   1      34.374  32.620  29.180  1.00  0.00     0.057 C 
ATOM     12  C   UNL A   1      35.513  32.571  30.144  1.00  0.00     0.007 A 
ATOM     13  S   UNL A   1      35.192  32.333  31.811  1.00  0.00    -0.122 S 
ATOM     14  C   UNL A   1      36.875  32.691  29.884  1.00  0.00    -0.022 A 
ATOM     15  C   UNL A   1      36.829  32.438  32.196  1.00  0.00     0.108 A 
ATOM     16  C   UNL A   1      37.640  32.644  31.109  1.00  0.00     0.080 A 
ATOM     17  C   UNL A   1      37.484  32.860  28.526  1.00  0.00     0.046 C 
ATOM     18  N   UNL A   1      37.354  32.352  33.426  1.00  0.00    -0.326 N 
ATOM     19  C   UNL A   1      39.095  32.787  31.314  1.00  0.00     0.282 A 
ATOM     20  H   UNL A   1      36.778  32.178  34.205  1.00  0.00     0.169 HD
ATOM     21  N   UNL A   1      39.544  32.735  32.630  1.00  0.00    -0.185 NA
ATOM     22  O   UNL A   1      39.844  32.975  30.372  1.00  0.00    -0.267 OA
ENDBRANCH   9  10
ENDBRANCH   8   9
ENDBRANCH   5   8
ENDBRANCH   3   4
ENDBRANCH   2   3
ENDBRANCH   1   2
BRANCH   1  23
ATOM     23  C   UNL A   1      41.944  25.031  36.359  1.00  0.00     0.116 C 
BRANCH  23  24
ATOM     24  N   UNL A   1      43.218  24.467  36.765  1.00  0.00    -0.352 N 
ATOM     25  C   UNL A   1      44.322  24.105  36.042  1.00  0.00     0.251 C 
ATOM     26  H   UNL A   1      43.304  24.319  37.735  1.00  0.00     0.163 HD
ATOM     27  O   UNL A   1      45.062  23.249  36.530  1.00  0.00    -0.269 OA
BRANCH  25  28
ATOM     28  C   UNL A   1      44.675  24.705  34.733  1.00  0.00     0.039 A 
ATOM     29  C   UNL A   1      45.481  25.853  34.752  1.00  0.00     0.014 A 
ATOM     30  C   UNL A   1      44.088  24.303  33.532  1.00  0.00     0.014 A 
ATOM     31  C   UNL A   1      45.709  26.587  33.587  1.00  0.00     0.010 A 
ATOM     32  C   UNL A   1      44.314  25.046  32.363  1.00  0.00     0.010 A 
ATOM     33  C   UNL A   1      45.130  26.191  32.377  1.00  0.00    -0.014 A 
BRANCH  33  34
ATOM     34  C   UNL A   1      45.461  26.968  31.154  1.00  0.00     0.031 A 
ATOM     35  C   UNL A   1      45.622  26.160  29.912  1.00  0.00     0.074 A 
ATOM     36  C   UNL A   1      45.095  28.265  31.004  1.00  0.00     0.049 A 
ATOM     37  N   UNL A   1      44.576  25.771  29.253  1.00  0.00    -0.248 NA
ATOM     38  C   UNL A   1      46.852  25.523  29.457  1.00  0.00     0.031 C 
ATOM     39  C   UNL A   1      43.957  28.873  31.713  1.00  0.00     0.029 A 
ATOM     40  N   UNL A   1      45.468  29.226  30.084  1.00  0.00    -0.354 N 
ATOM     41  C   UNL A   1      44.962  24.799  28.350  1.00  0.00     0.074 A 
ATOM     42  C   UNL A   1      46.397  24.695  28.497  1.00  0.00     0.031 C 
ATOM     43  C   UNL A   1      43.628  30.029  31.101  1.00  0.00     0.029 A 
ATOM     44  C   UNL A   1      44.605  30.322  30.059  1.00  0.00     0.049 A 
ATOM     45  H   UNL A   1      46.260  29.147  29.505  1.00  0.00     0.167 HD
ATOM     46  C   UNL A   1      44.043  24.192  27.544  1.00  0.00     0.034 A 
ATOM     47  C   UNL A   1      44.385  31.147  29.000  1.00  0.00     0.034 A 
ATOM     48  C   UNL A   1      42.679  24.682  27.649  1.00  0.00     0.049 A 
ATOM     49  C   UNL A   1      43.505  30.287  28.125  1.00  0.00     0.074 A 
ATOM     50  C   UNL A   1      41.387  24.198  27.639  1.00  0.00     0.029 A 
ATOM     51  N   UNL A   1      42.553  26.028  27.840  1.00  0.00    -0.354 N 
ATOM     52  N   UNL A   1      42.237  30.022  28.326  1.00  0.00    -0.248 NA
ATOM     53  C   UNL A   1      44.150  29.442  27.108  1.00  0.00     0.031 C 
ATOM     54  C   UNL A   1      40.504  25.325  27.787  1.00  0.00     0.029 A 
ATOM     55  C   UNL A   1      41.271  26.480  27.820  1.00  0.00     0.049 A 
ATOM     56  H   UNL A   1      43.325  26.622  27.981  1.00  0.00     0.167 HD
ATOM     57  C   UNL A   1      42.028  28.802  27.695  1.00  0.00     0.074 A 
ATOM     58  C   UNL A   1      43.175  28.583  26.835  1.00  0.00     0.031 C 
ATOM     59  C   UNL A   1      41.078  27.891  28.058  1.00  0.00     0.034 A 
BRANCH  46  60
ATOM     60  C   UNL A   1      44.389  23.309  26.397  1.00  0.00     0.023 A 
ATOM     61  C   UNL A   1      44.840  23.965  25.232  1.00  0.00     0.012 A 
ATOM     62  C   UNL A   1      44.099  21.935  26.341  1.00  0.00     0.148 A 
ATOM     63  C   UNL A   1      44.980  23.283  24.026  1.00  0.00     0.002 A 
ATOM     64  C   UNL A   1      44.239  21.256  25.128  1.00  0.00     0.091 A 
ATOM     65  F   UNL A   1      43.649  21.329  27.448  1.00  0.00    -0.205 F 
ATOM     66  C   UNL A   1      44.673  21.930  23.972  1.00  0.00     0.022 A 
BRANCH  64  67
ATOM     67  S   UNL A   1      43.841  19.514  24.914  1.00  0.00     0.127 S 
ATOM     68  O   UNL A   1      42.409  19.489  25.214  1.00  0.00    -0.237 OA
ATOM     69  O   UNL A   1      44.173  19.298  23.507  1.00  0.00    -0.237 OA
ATOM     70  O   UNL A   1      44.687  18.794  25.857  1.00  0.00    -0.744 OA
ENDBRANCH  64  67
ENDBRANCH  46  60
BRANCH  47  71
ATOM     71  C   UNL A   1      45.561  31.935  28.488  1.00  0.00     0.023 A 
ATOM     72  C   UNL A   1      46.840  31.618  29.010  1.00  0.00     0.012 A 
ATOM     73  C   UNL A   1      45.495  32.995  27.563  1.00  0.00     0.148 A 
ATOM     74  C   UNL A   1      48.006  32.230  28.541  1.00  0.00     0.002 A 
ATOM     75  C   UNL A   1      46.663  33.557  27.046  1.00  0.00     0.091 A 
ATOM     76  F   UNL A   1      44.296  33.465  27.198  1.00  0.00    -0.205 F 
ATOM     77  C   UNL A   1      47.920  33.173  27.528  1.00  0.00     0.022 A 
BRANCH  75  78
ATOM     78  S   UNL A   1      46.651  34.732  25.683  1.00  0.00     0.127 S 
ATOM     79  O   UNL A   1      45.568  34.219  24.846  1.00  0.00    -0.237 OA
ATOM     80  O   UNL A   1      46.352  35.980  26.383  1.00  0.00    -0.237 OA
ATOM     81  O   UNL A   1      47.979  34.662  25.089  1.00  0.00    -0.744 OA
ENDBRANCH  75  78
ENDBRANCH  47  71
BRANCH  59  82
ATOM     82  C   UNL A   1      39.878  28.383  28.779  1.00  0.00     0.023 A 
ATOM     83  C   UNL A   1      38.793  28.806  27.987  1.00  0.00     0.012 A 
ATOM     84  C   UNL A   1      39.736  28.316  30.176  1.00  0.00     0.148 A 
ATOM     85  C   UNL A   1      37.574  29.136  28.566  1.00  0.00     0.002 A 
ATOM     86  C   UNL A   1      38.511  28.639  30.750  1.00  0.00     0.091 A 
ATOM     87  F   UNL A   1      40.781  27.916  30.915  1.00  0.00    -0.205 F 
ATOM     88  C   UNL A   1      37.430  29.043  29.946  1.00  0.00     0.022 A 
BRANCH  86  89
ATOM     89  S   UNL A   1      38.194  28.535  32.515  1.00  0.00     0.127 S 
ATOM     90  O   UNL A   1      38.279  27.094  32.758  1.00  0.00    -0.237 OA
ATOM     91  O   UNL A   1      39.307  29.309  33.066  1.00  0.00    -0.237 OA
ATOM     92  O   UNL A   1      36.873  29.109  32.729  1.00  0.00    -0.744 OA
ENDBRANCH  86  89
ENDBRANCH  59  82
ENDBRANCH  33  34
ENDBRANCH  25  28
ENDBRANCH  23  24
ENDBRANCH   1  23
TORSDOF 16
ENDMDL
MODEL 3
REMARK VINA RESULT:     -11.7      7.430     12.622
REMARK SMILES Cc1sc2[nH]c(SCC(=O)NCCCCNC(=O)c3ccc(-c4c5nc(c(-c6cccc(S(=O)(=O)[O-])c6F)c6ccc([nH]6)c(-c6cccc(S(=O)(=O)[O-])c6F)c6nc(c(-c7cccc(S(=O)(=O)[O-])c7F)c7ccc4[nH]7)C=C6)C=C5)cc3)nc(=O)c2c1C
REMARK SMILES IDX 14 1 13 2 12 3 11 4 9 5 10 6 8 8 7 9 6 10 1 11 2 12 3 13
REMARK SMILES IDX 86 14 4 15 85 16 87 17 5 18 83 19 82 21 84 22 15 23 16 24
REMARK SMILES IDX 17 25 18 27 19 28 20 29 81 30 21 31 80 32 22 33 23 34 24 35
REMARK SMILES IDX 74 36 25 37 79 38 73 39 75 40 26 41 78 42 72 43 71 44 27 46
REMARK SMILES IDX 59 47 39 48 58 49 40 50 43 51 57 52 76 53 41 54 42 55 56 57
REMARK SMILES IDX 77 58 44 59 28 60 29 61 37 62 30 63 32 64 38 65 31 66 33 67
REMARK SMILES IDX 34 68 35 69 36 70 60 71 61 72 69 73 62 74 64 75 70 76 63 77
REMARK SMILES IDX 65 78 66 79 67 80 68 81 45 82 46 83 54 84 47 85 49 86 55 87
REMARK SMILES IDX 48 88 50 89 51 90 52 91 53 92
REMARK H PARENT 11 7 5 20 16 26 75 45 43 56
REMARK Flexibility Score: inf
ROOT
ATOM      1  C   UNL A   1      35.255  31.091  27.560  1.00  0.00     0.023 C 
ENDROOT
BRANCH   1   2
ATOM      2  C   UNL A   1      35.381  29.557  27.676  1.00  0.00     0.023 C 
BRANCH   2   3
ATOM      3  C   UNL A   1      34.405  28.763  26.804  1.00  0.00     0.116 C 
BRANCH   3   4
ATOM      4  N   UNL A   1      33.183  28.462  27.527  1.00  0.00    -0.355 N 
ATOM      5  C   UNL A   1      31.910  28.265  27.081  1.00  0.00     0.230 C 
ATOM      6  O   UNL A   1      31.056  27.967  27.920  1.00  0.00    -0.274 OA
ATOM      7  H   UNL A   1      33.292  28.388  28.503  1.00  0.00     0.163 HD
BRANCH   5   8
ATOM      8  C   UNL A   1      31.574  28.293  25.602  1.00  0.00     0.178 C 
BRANCH   8   9
ATOM      9  S   UNL A   1      30.598  26.886  25.021  1.00  0.00    -0.078 SA
BRANCH   9  10
ATOM     10  C   UNL A   1      31.558  25.511  25.504  1.00  0.00     0.170 A 
ATOM     11  C   UNL A   1      36.465  21.811  24.941  1.00  0.00     0.057 C 
ATOM     12  C   UNL A   1      35.222  22.610  25.158  1.00  0.00     0.007 A 
ATOM     13  S   UNL A   1      34.859  23.903  24.094  1.00  0.00    -0.122 S 
ATOM     14  C   UNL A   1      34.253  22.454  26.146  1.00  0.00    -0.022 A 
ATOM     15  C   UNL A   1      33.463  24.290  24.955  1.00  0.00     0.108 A 
ATOM     16  C   UNL A   1      33.237  23.476  26.034  1.00  0.00     0.080 A 
ATOM     17  C   UNL A   1      34.255  21.390  27.198  1.00  0.00     0.046 C 
ATOM     18  N   UNL A   1      32.620  25.294  24.675  1.00  0.00    -0.326 N 
ATOM     19  C   UNL A   1      32.063  23.729  26.894  1.00  0.00     0.282 A 
ATOM     20  H   UNL A   1      32.766  25.864  23.886  1.00  0.00     0.169 HD
ATOM     21  N   UNL A   1      31.272  24.823  26.556  1.00  0.00    -0.185 NA
ATOM     22  O   UNL A   1      31.833  23.028  27.862  1.00  0.00    -0.267 OA
ENDBRANCH   9  10
ENDBRANCH   8   9
ENDBRANCH   5   8
ENDBRANCH   3   4
ENDBRANCH   2   3
ENDBRANCH   1   2
BRANCH   1  23
ATOM     23  C   UNL A   1      34.037  31.720  28.263  1.00  0.00     0.116 C 
BRANCH  23  24
ATOM     24  N   UNL A   1      34.353  33.061  28.718  1.00  0.00    -0.352 N 
ATOM     25  C   UNL A   1      35.044  33.509  29.810  1.00  0.00     0.251 C 
ATOM     26  H   UNL A   1      34.010  33.777  28.135  1.00  0.00     0.163 HD
ATOM     27  O   UNL A   1      34.785  34.643  30.217  1.00  0.00    -0.269 OA
BRANCH  25  28
ATOM     28  C   UNL A   1      36.091  32.716  30.498  1.00  0.00     0.039 A 
ATOM     29  C   UNL A   1      37.341  32.626  29.869  1.00  0.00     0.014 A 
ATOM     30  C   UNL A   1      35.826  31.915  31.610  1.00  0.00     0.014 A 
ATOM     31  C   UNL A   1      38.322  31.755  30.347  1.00  0.00     0.010 A 
ATOM     32  C   UNL A   1      36.812  31.037  32.086  1.00  0.00     0.010 A 
ATOM     33  C   UNL A   1      38.070  30.951  31.464  1.00  0.00    -0.014 A 
BRANCH  33  34
ATOM     34  C   UNL A   1      39.172  30.094  31.972  1.00  0.00     0.031 A 
ATOM     35  C   UNL A   1      39.335  28.787  31.273  1.00  0.00     0.074 A 
ATOM     36  C   UNL A   1      40.272  30.613  32.572  1.00  0.00     0.049 A 
ATOM     37  N   UNL A   1      39.958  28.733  30.139  1.00  0.00    -0.248 NA
ATOM     38  C   UNL A   1      38.642  27.547  31.603  1.00  0.00     0.031 C 
ATOM     39  C   UNL A   1      40.748  31.987  32.339  1.00  0.00     0.029 A 
ATOM     40  N   UNL A   1      41.290  30.025  33.298  1.00  0.00    -0.354 N 
ATOM     41  C   UNL A   1      39.704  27.506  29.555  1.00  0.00     0.074 A 
ATOM     42  C   UNL A   1      38.897  26.790  30.519  1.00  0.00     0.031 C 
ATOM     43  C   UNL A   1      42.022  32.087  32.772  1.00  0.00     0.029 A 
ATOM     44  C   UNL A   1      42.406  30.848  33.438  1.00  0.00     0.049 A 
ATOM     45  H   UNL A   1      41.233  29.118  33.677  1.00  0.00     0.167 HD
ATOM     46  C   UNL A   1      40.218  27.197  28.329  1.00  0.00     0.034 A 
ATOM     47  C   UNL A   1      43.689  30.436  33.628  1.00  0.00     0.034 A 
ATOM     48  C   UNL A   1      41.089  28.195  27.733  1.00  0.00     0.049 A 
ATOM     49  C   UNL A   1      44.064  29.968  32.242  1.00  0.00     0.074 A 
ATOM     50  C   UNL A   1      41.365  28.740  26.496  1.00  0.00     0.029 A 
ATOM     51  N   UNL A   1      41.904  28.859  28.605  1.00  0.00    -0.354 N 
ATOM     52  N   UNL A   1      44.343  30.736  31.216  1.00  0.00    -0.248 NA
ATOM     53  C   UNL A   1      43.845  28.554  31.903  1.00  0.00     0.031 C 
ATOM     54  C   UNL A   1      42.407  29.717  26.680  1.00  0.00     0.029 A 
ATOM     55  C   UNL A   1      42.789  29.703  28.013  1.00  0.00     0.049 A 
ATOM     56  H   UNL A   1      41.854  28.737  29.581  1.00  0.00     0.167 HD
ATOM     57  C   UNL A   1      44.031  29.963  30.104  1.00  0.00     0.074 A 
ATOM     58  C   UNL A   1      43.895  28.598  30.577  1.00  0.00     0.031 C 
ATOM     59  C   UNL A   1      43.648  30.462  28.892  1.00  0.00     0.034 A 
BRANCH  46  60
ATOM     60  C   UNL A   1      40.189  25.835  27.729  1.00  0.00     0.023 A 
ATOM     61  C   UNL A   1      38.954  25.435  27.175  1.00  0.00     0.012 A 
ATOM     62  C   UNL A   1      41.216  24.887  27.869  1.00  0.00     0.148 A 
ATOM     63  C   UNL A   1      38.729  24.116  26.788  1.00  0.00     0.002 A 
ATOM     64  C   UNL A   1      40.984  23.565  27.481  1.00  0.00     0.091 A 
ATOM     65  F   UNL A   1      42.376  25.275  28.418  1.00  0.00    -0.205 F 
ATOM     66  C   UNL A   1      39.741  23.180  26.947  1.00  0.00     0.022 A 
BRANCH  64  67
ATOM     67  S   UNL A   1      42.198  22.249  27.667  1.00  0.00     0.127 S 
ATOM     68  O   UNL A   1      42.716  22.500  29.011  1.00  0.00    -0.237 OA
ATOM     69  O   UNL A   1      41.366  21.052  27.547  1.00  0.00    -0.237 OA
ATOM     70  O   UNL A   1      43.156  22.435  26.586  1.00  0.00    -0.744 OA
ENDBRANCH  64  67
ENDBRANCH  46  60
BRANCH  47  71
ATOM     71  C   UNL A   1      43.982  29.657  34.882  1.00  0.00     0.023 A 
ATOM     72  C   UNL A   1      44.997  30.153  35.738  1.00  0.00     0.012 A 
ATOM     73  C   UNL A   1      43.363  28.450  35.259  1.00  0.00     0.148 A 
ATOM     74  C   UNL A   1      45.290  29.554  36.967  1.00  0.00     0.002 A 
ATOM     75  C   UNL A   1      43.606  27.892  36.515  1.00  0.00     0.091 A 
ATOM     76  F   UNL A   1      42.549  27.838  34.390  1.00  0.00    -0.205 F 
ATOM     77  C   UNL A   1      44.565  28.444  37.374  1.00  0.00     0.022 A 
BRANCH  75  78
ATOM     78  S   UNL A   1      42.663  26.500  37.155  1.00  0.00     0.127 S 
ATOM     79  O   UNL A   1      43.080  25.415  36.269  1.00  0.00    -0.237 OA
ATOM     80  O   UNL A   1      43.176  26.411  38.521  1.00  0.00    -0.237 OA
ATOM     81  O   UNL A   1      41.264  26.886  37.046  1.00  0.00    -0.744 OA
ENDBRANCH  75  78
ENDBRANCH  47  71
BRANCH  59  82
ATOM     82  C   UNL A   1      44.070  31.840  28.539  1.00  0.00     0.023 A 
ATOM     83  C   UNL A   1      45.229  31.964  27.749  1.00  0.00     0.012 A 
ATOM     84  C   UNL A   1      43.305  32.981  28.839  1.00  0.00     0.148 A 
ATOM     85  C   UNL A   1      45.615  33.198  27.240  1.00  0.00     0.002 A 
ATOM     86  C   UNL A   1      43.691  34.213  28.319  1.00  0.00     0.091 A 
ATOM     87  F   UNL A   1      42.207  32.846  29.597  1.00  0.00    -0.205 F 
ATOM     88  C   UNL A   1      44.841  34.320  27.517  1.00  0.00     0.022 A 
BRANCH  86  89
ATOM     89  S   UNL A   1      42.763  35.727  28.585  1.00  0.00     0.127 S 
ATOM     90  O   UNL A   1      43.168  36.101  29.941  1.00  0.00    -0.237 OA
ATOM     91  O   UNL A   1      43.294  36.594  27.533  1.00  0.00    -0.237 OA
ATOM     92  O   UNL A   1      41.356  35.374  28.449  1.00  0.00    -0.744 OA
ENDBRANCH  86  89
ENDBRANCH  59  82
ENDBRANCH  33  34
ENDBRANCH  25  28
ENDBRANCH  23  24
ENDBRANCH   1  23
TORSDOF 16
ENDMDL
