MODEL 1
REMARK VINA RESULT:     -12.6      0.000      0.000
REMARK SMILES O=C(NCCCCNC(=O)c1cccc(Br)c1O[C@@H]1CCOC2(CCC2)C1)c1ccc(-c2c3nc(c(-c4cccc(S(=O)(=O)[O-])c4F)c4ccc([nH]4)c(-c4cccc(S(=O)(=O)[O-])c4F)c4nc(c(-c5cccc(S(=O)(=O)[O-])c5F)c5ccc2[nH]5)C=C4)C=C3)cc1
REMARK SMILES IDX 5 1 4 2 3 3 1 4 2 5 28 7 29 8 90 9 30 10 89 11 31 12 32 13
REMARK SMILES IDX 33 14 83 15 34 16 88 17 82 18 84 19 35 20 87 21 81 22 80 23
REMARK SMILES IDX 36 25 68 26 48 27 67 28 49 29 52 30 66 31 85 32 50 33 51 34
REMARK SMILES IDX 65 36 86 37 53 38 37 39 38 40 46 41 39 42 41 43 47 44 40 45
REMARK SMILES IDX 42 46 43 47 44 48 45 49 69 50 70 51 78 52 71 53 73 54 79 55
REMARK SMILES IDX 72 56 74 57 75 58 76 59 77 60 54 61 55 62 63 63 56 64 58 65
REMARK SMILES IDX 64 66 57 67 59 68 60 69 61 70 62 71 6 72 7 73 8 74 9 75
REMARK SMILES IDX 10 77 11 78 12 79 17 80 13 81 15 82 14 83 16 84 18 85 19 86
REMARK SMILES IDX 20 87 27 88 21 89 23 90 22 91 24 92 26 93 25 94
REMARK H PARENT 3 6 84 24 52 35 8 76
REMARK Flexibility Score: inf
ROOT
ATOM      1  C   UNL A   1      38.092  19.731  24.996  1.00  0.00     0.023 C 
ENDROOT
BRANCH   1   2
ATOM      2  C   UNL A   1      39.168  20.128  25.997  1.00  0.00     0.116 C 
BRANCH   2   3
ATOM      3  N   UNL A   1      40.294  19.206  26.007  1.00  0.00    -0.352 N 
ATOM      4  O   UNL A   1      42.459  18.586  25.934  1.00  0.00    -0.269 OA
ATOM      5  C   UNL A   1      41.640  19.480  26.116  1.00  0.00     0.251 C 
ATOM      6  H   UNL A   1      40.061  18.254  25.923  1.00  0.00     0.163 HD
BRANCH   5   7
ATOM      7  C   UNL A   1      42.084  20.858  26.424  1.00  0.00     0.039 A 
ATOM      8  C   UNL A   1      42.336  21.244  27.743  1.00  0.00     0.014 A 
ATOM      9  C   UNL A   1      42.238  21.776  25.384  1.00  0.00     0.014 A 
ATOM     10  C   UNL A   1      42.585  22.580  28.037  1.00  0.00     0.010 A 
ATOM     11  C   UNL A   1      42.585  23.099  25.674  1.00  0.00     0.010 A 
ATOM     12  C   UNL A   1      42.728  23.520  27.005  1.00  0.00    -0.014 A 
BRANCH  12  13
ATOM     13  C   UNL A   1      43.110  24.917  27.336  1.00  0.00     0.031 A 
ATOM     14  C   UNL A   1      42.141  25.861  27.991  1.00  0.00     0.074 A 
ATOM     15  C   UNL A   1      44.346  25.341  27.006  1.00  0.00     0.049 A 
ATOM     16  N   UNL A   1      42.312  27.117  28.317  1.00  0.00    -0.248 NA
ATOM     17  C   UNL A   1      40.806  25.336  28.312  1.00  0.00     0.031 C 
ATOM     18  C   UNL A   1      45.355  24.529  26.322  1.00  0.00     0.029 A 
ATOM     19  N   UNL A   1      44.956  26.556  27.177  1.00  0.00    -0.354 N 
ATOM     20  C   UNL A   1      41.098  27.547  28.839  1.00  0.00     0.074 A 
ATOM     21  C   UNL A   1      40.196  26.417  28.781  1.00  0.00     0.031 C 
ATOM     22  C   UNL A   1      46.457  25.266  26.130  1.00  0.00     0.029 A 
ATOM     23  C   UNL A   1      46.212  26.618  26.620  1.00  0.00     0.049 A 
ATOM     24  H   UNL A   1      44.537  27.311  27.652  1.00  0.00     0.167 HD
ATOM     25  C   UNL A   1      40.770  28.768  29.328  1.00  0.00     0.034 A 
ATOM     26  C   UNL A   1      47.060  27.653  26.476  1.00  0.00     0.034 A 
ATOM     27  C   UNL A   1      41.683  29.880  29.399  1.00  0.00     0.049 A 
ATOM     28  C   UNL A   1      46.679  28.991  27.035  1.00  0.00     0.074 A 
ATOM     29  C   UNL A   1      41.473  31.130  29.954  1.00  0.00     0.029 A 
ATOM     30  N   UNL A   1      42.969  29.888  28.879  1.00  0.00    -0.354 N 
ATOM     31  N   UNL A   1      45.579  29.339  27.656  1.00  0.00    -0.248 NA
ATOM     32  C   UNL A   1      47.665  30.072  26.903  1.00  0.00     0.031 C 
ATOM     33  C   UNL A   1      42.615  31.907  29.732  1.00  0.00     0.029 A 
ATOM     34  C   UNL A   1      43.555  31.127  29.077  1.00  0.00     0.049 A 
ATOM     35  H   UNL A   1      43.401  29.124  28.433  1.00  0.00     0.167 HD
ATOM     36  C   UNL A   1      45.747  30.671  28.012  1.00  0.00     0.074 A 
ATOM     37  C   UNL A   1      47.066  31.060  27.554  1.00  0.00     0.031 C 
ATOM     38  C   UNL A   1      44.882  31.496  28.651  1.00  0.00     0.034 A 
BRANCH  25  39
ATOM     39  C   UNL A   1      39.364  28.966  29.838  1.00  0.00     0.023 A 
ATOM     40  C   UNL A   1      39.024  28.555  31.143  1.00  0.00     0.012 A 
ATOM     41  C   UNL A   1      38.392  29.606  29.043  1.00  0.00     0.148 A 
ATOM     42  C   UNL A   1      37.730  28.736  31.632  1.00  0.00     0.002 A 
ATOM     43  C   UNL A   1      37.117  29.824  29.553  1.00  0.00     0.091 A 
ATOM     44  F   UNL A   1      38.724  29.975  27.798  1.00  0.00    -0.205 F 
ATOM     45  C   UNL A   1      36.780  29.378  30.841  1.00  0.00     0.022 A 
BRANCH  43  46
ATOM     46  S   UNL A   1      35.851  30.715  28.641  1.00  0.00     0.127 S 
ATOM     47  O   UNL A   1      35.182  29.627  27.929  1.00  0.00    -0.237 OA
ATOM     48  O   UNL A   1      35.061  31.316  29.716  1.00  0.00    -0.237 OA
ATOM     49  O   UNL A   1      36.560  31.671  27.804  1.00  0.00    -0.744 OA
ENDBRANCH  43  46
ENDBRANCH  25  39
BRANCH  26  50
ATOM     50  C   UNL A   1      48.357  27.435  25.778  1.00  0.00     0.023 A 
ATOM     51  C   UNL A   1      49.474  26.978  26.501  1.00  0.00     0.012 A 
ATOM     52  C   UNL A   1      48.458  27.601  24.382  1.00  0.00     0.148 A 
ATOM     53  C   UNL A   1      50.676  26.708  25.849  1.00  0.00     0.002 A 
ATOM     54  C   UNL A   1      49.639  27.272  23.730  1.00  0.00     0.091 A 
ATOM     55  F   UNL A   1      47.382  28.044  23.716  1.00  0.00    -0.205 F 
ATOM     56  C   UNL A   1      50.755  26.842  24.464  1.00  0.00     0.022 A 
BRANCH  54  57
ATOM     57  S   UNL A   1      49.784  27.270  21.940  1.00  0.00     0.127 S 
ATOM     58  O   UNL A   1      48.731  26.334  21.557  1.00  0.00    -0.237 OA
ATOM     59  O   UNL A   1      49.511  28.671  21.616  1.00  0.00    -0.237 OA
ATOM     60  O   UNL A   1      51.146  26.840  21.654  1.00  0.00    -0.744 OA
ENDBRANCH  54  57
ENDBRANCH  26  50
BRANCH  38  61
ATOM     61  C   UNL A   1      45.338  32.904  28.931  1.00  0.00     0.023 A 
ATOM     62  C   UNL A   1      46.078  33.186  30.097  1.00  0.00     0.012 A 
ATOM     63  C   UNL A   1      45.103  33.930  27.995  1.00  0.00     0.148 A 
ATOM     64  C   UNL A   1      46.555  34.474  30.338  1.00  0.00     0.002 A 
ATOM     65  C   UNL A   1      45.625  35.198  28.217  1.00  0.00     0.091 A 
ATOM     66  F   UNL A   1      44.379  33.644  26.902  1.00  0.00    -0.205 F 
ATOM     67  C   UNL A   1      46.339  35.476  29.393  1.00  0.00     0.022 A 
BRANCH  65  68
ATOM     68  S   UNL A   1      45.483  36.523  27.013  1.00  0.00     0.127 S 
ATOM     69  O   UNL A   1      46.231  35.978  25.880  1.00  0.00    -0.237 OA
ATOM     70  O   UNL A   1      44.037  36.600  26.808  1.00  0.00    -0.237 OA
ATOM     71  O   UNL A   1      46.071  37.701  27.636  1.00  0.00    -0.744 OA
ENDBRANCH  65  68
ENDBRANCH  38  61
ENDBRANCH  12  13
ENDBRANCH   5   7
ENDBRANCH   2   3
ENDBRANCH   1   2
BRANCH   1  72
ATOM     72  C   UNL A   1      37.185  20.869  24.540  1.00  0.00     0.023 C 
BRANCH  72  73
ATOM     73  C   UNL A   1      37.003  22.001  25.546  1.00  0.00     0.116 C 
BRANCH  73  74
ATOM     74  N   UNL A   1      36.013  21.711  26.577  1.00  0.00    -0.352 N 
ATOM     75  C   UNL A   1      34.802  22.322  26.827  1.00  0.00     0.255 C 
ATOM     76  H   UNL A   1      36.244  20.972  27.185  1.00  0.00     0.163 HD
ATOM     77  O   UNL A   1      34.080  21.928  27.734  1.00  0.00    -0.269 OA
BRANCH  75  78
ATOM     78  C   UNL A   1      34.377  23.427  25.943  1.00  0.00     0.083 A 
ATOM     79  C   UNL A   1      35.188  24.557  25.904  1.00  0.00     0.018 A 
ATOM     80  C   UNL A   1      33.169  23.363  25.211  1.00  0.00     0.146 A 
ATOM     81  C   UNL A   1      34.746  25.676  25.239  1.00  0.00     0.002 A 
ATOM     82  C   UNL A   1      32.556  24.509  24.524  1.00  0.00     0.060 A 
ATOM     83  C   UNL A   1      33.488  25.673  24.611  1.00  0.00     0.019 A 
ATOM     84  Br  UNL A   1      30.282  24.329  23.306  1.00  0.00    -0.047 Br
BRANCH  80  85
ATOM     85  O   UNL A   1      32.582  22.138  25.119  1.00  0.00    -0.488 OA
BRANCH  85  86
ATOM     86  C   UNL A   1      33.416  21.705  24.096  1.00  0.00     0.178 C 
ATOM     87  C   UNL A   1      32.346  21.882  22.479  1.00  0.00     0.074 C 
ATOM     88  C   UNL A   1      33.916  19.964  24.774  1.00  0.00     0.080 C 
ATOM     89  C   UNL A   1      31.795  20.265  21.590  1.00  0.00     0.165 C 
ATOM     90  C   UNL A   1      33.197  18.446  23.883  1.00  0.00     0.072 C 
ATOM     91  O   UNL A   1      32.322  18.653  22.304  1.00  0.00    -0.375 OA
ATOM     92  C   UNL A   1      34.239  17.260  23.754  1.00  0.00     0.036 C 
ATOM     93  C   UNL A   1      32.532  17.526  24.983  1.00  0.00     0.036 C 
ATOM     94  C   UNL A   1      33.134  16.320  24.267  1.00  0.00     0.006 C 
ENDBRANCH  85  86
ENDBRANCH  80  85
ENDBRANCH  75  78
ENDBRANCH  73  74
ENDBRANCH  72  73
ENDBRANCH   1  72
TORSDOF 16
ENDMDL
MODEL 2
REMARK VINA RESULT:     -12.1      1.243      3.160
REMARK SMILES O=C(NCCCCNC(=O)c1cccc(Br)c1O[C@@H]1CCOC2(CCC2)C1)c1ccc(-c2c3nc(c(-c4cccc(S(=O)(=O)[O-])c4F)c4ccc([nH]4)c(-c4cccc(S(=O)(=O)[O-])c4F)c4nc(c(-c5cccc(S(=O)(=O)[O-])c5F)c5ccc2[nH]5)C=C4)C=C3)cc1
REMARK SMILES IDX 5 1 4 2 3 3 1 4 2 5 28 7 29 8 90 9 30 10 89 11 31 12 32 13
REMARK SMILES IDX 33 14 83 15 34 16 88 17 82 18 84 19 35 20 87 21 81 22 80 23
REMARK SMILES IDX 36 25 68 26 48 27 67 28 49 29 52 30 66 31 85 32 50 33 51 34
REMARK SMILES IDX 65 36 86 37 53 38 37 39 38 40 46 41 39 42 41 43 47 44 40 45
REMARK SMILES IDX 42 46 43 47 44 48 45 49 69 50 70 51 78 52 71 53 73 54 79 55
REMARK SMILES IDX 72 56 74 57 75 58 76 59 77 60 54 61 55 62 63 63 56 64 58 65
REMARK SMILES IDX 64 66 57 67 59 68 60 69 61 70 62 71 6 72 7 73 8 74 9 75
REMARK SMILES IDX 10 77 11 78 12 79 17 80 13 81 15 82 14 83 16 84 18 85 19 86
REMARK SMILES IDX 20 87 27 88 21 89 23 90 22 91 24 92 26 93 25 94
REMARK H PARENT 3 6 84 24 52 35 8 76
REMARK Flexibility Score: inf
ROOT
ATOM      1  C   UNL A   1      37.798  19.727  24.767  1.00  0.00     0.023 C 
ENDROOT
BRANCH   1   2
ATOM      2  C   UNL A   1      38.783  20.132  25.856  1.00  0.00     0.116 C 
BRANCH   2   3
ATOM      3  N   UNL A   1      39.943  19.255  25.919  1.00  0.00    -0.352 N 
ATOM      4  O   UNL A   1      42.131  18.722  25.959  1.00  0.00    -0.269 OA
ATOM      5  C   UNL A   1      41.268  19.581  26.104  1.00  0.00     0.251 C 
ATOM      6  H   UNL A   1      39.753  18.295  25.817  1.00  0.00     0.163 HD
BRANCH   5   7
ATOM      7  C   UNL A   1      41.640  20.972  26.445  1.00  0.00     0.039 A 
ATOM      8  C   UNL A   1      41.717  21.950  25.450  1.00  0.00     0.014 A 
ATOM      9  C   UNL A   1      41.928  21.298  27.772  1.00  0.00     0.014 A 
ATOM     10  C   UNL A   1      42.232  23.206  25.752  1.00  0.00     0.010 A 
ATOM     11  C   UNL A   1      42.352  22.592  28.089  1.00  0.00     0.010 A 
ATOM     12  C   UNL A   1      42.541  23.547  27.078  1.00  0.00    -0.014 A 
BRANCH  12  13
ATOM     13  C   UNL A   1      42.977  24.931  27.395  1.00  0.00     0.031 A 
ATOM     14  C   UNL A   1      42.053  25.912  28.060  1.00  0.00     0.074 A 
ATOM     15  C   UNL A   1      44.222  25.309  27.044  1.00  0.00     0.049 A 
ATOM     16  N   UNL A   1      42.273  27.162  28.377  1.00  0.00    -0.248 NA
ATOM     17  C   UNL A   1      40.705  25.436  28.405  1.00  0.00     0.031 C 
ATOM     18  C   UNL A   1      45.191  24.458  26.348  1.00  0.00     0.029 A 
ATOM     19  N   UNL A   1      44.877  26.502  27.198  1.00  0.00    -0.354 N 
ATOM     20  C   UNL A   1      41.083  27.638  28.915  1.00  0.00     0.074 A 
ATOM     21  C   UNL A   1      40.141  26.540  28.877  1.00  0.00     0.031 C 
ATOM     22  C   UNL A   1      46.314  25.155  26.135  1.00  0.00     0.029 A 
ATOM     23  C   UNL A   1      46.125  26.517  26.621  1.00  0.00     0.049 A 
ATOM     24  H   UNL A   1      44.493  27.274  27.675  1.00  0.00     0.167 HD
ATOM     25  C   UNL A   1      40.806  28.872  29.402  1.00  0.00     0.034 A 
ATOM     26  C   UNL A   1      47.007  27.521  26.458  1.00  0.00     0.034 A 
ATOM     27  C   UNL A   1      41.759  29.952  29.453  1.00  0.00     0.049 A 
ATOM     28  C   UNL A   1      46.683  28.874  27.016  1.00  0.00     0.074 A 
ATOM     29  C   UNL A   1      41.602  31.211  30.005  1.00  0.00     0.029 A 
ATOM     30  N   UNL A   1      43.036  29.911  28.913  1.00  0.00    -0.354 N 
ATOM     31  N   UNL A   1      45.605  29.264  27.652  1.00  0.00    -0.248 NA
ATOM     32  C   UNL A   1      47.704  29.918  26.862  1.00  0.00     0.031 C 
ATOM     33  C   UNL A   1      42.768  31.945  29.760  1.00  0.00     0.029 A 
ATOM     34  C   UNL A   1      43.668  31.129  29.095  1.00  0.00     0.049 A 
ATOM     35  H   UNL A   1      43.434  29.130  28.465  1.00  0.00     0.167 HD
ATOM     36  C   UNL A   1      45.826  30.591  27.998  1.00  0.00     0.074 A 
ATOM     37  C   UNL A   1      47.151  30.930  27.518  1.00  0.00     0.031 C 
ATOM     38  C   UNL A   1      45.001  31.449  28.646  1.00  0.00     0.034 A 
BRANCH  25  39
ATOM     39  C   UNL A   1      39.417  29.122  29.933  1.00  0.00     0.023 A 
ATOM     40  C   UNL A   1      39.050  28.634  31.204  1.00  0.00     0.012 A 
ATOM     41  C   UNL A   1      38.490  29.885  29.195  1.00  0.00     0.148 A 
ATOM     42  C   UNL A   1      37.770  28.862  31.712  1.00  0.00     0.002 A 
ATOM     43  C   UNL A   1      37.232  30.146  29.727  1.00  0.00     0.091 A 
ATOM     44  F   UNL A   1      38.846  30.327  27.981  1.00  0.00    -0.205 F 
ATOM     45  C   UNL A   1      36.866  29.625  30.978  1.00  0.00     0.022 A 
BRANCH  43  46
ATOM     46  S   UNL A   1      36.028  31.188  28.893  1.00  0.00     0.127 S 
ATOM     47  O   UNL A   1      36.876  32.261  28.376  1.00  0.00    -0.237 OA
ATOM     48  O   UNL A   1      35.494  30.287  27.872  1.00  0.00    -0.237 OA
ATOM     49  O   UNL A   1      35.067  31.583  29.913  1.00  0.00    -0.744 OA
ENDBRANCH  43  46
ENDBRANCH  25  39
BRANCH  26  50
ATOM     50  C   UNL A   1      48.284  27.253  25.741  1.00  0.00     0.023 A 
ATOM     51  C   UNL A   1      49.373  26.693  26.434  1.00  0.00     0.012 A 
ATOM     52  C   UNL A   1      48.390  27.478  24.353  1.00  0.00     0.148 A 
ATOM     53  C   UNL A   1      50.553  26.377  25.761  1.00  0.00     0.002 A 
ATOM     54  C   UNL A   1      49.544  27.105  23.679  1.00  0.00     0.091 A 
ATOM     55  F   UNL A   1      47.341  28.018  23.717  1.00  0.00    -0.205 F 
ATOM     56  C   UNL A   1      50.634  26.571  24.383  1.00  0.00     0.022 A 
BRANCH  54  57
ATOM     57  S   UNL A   1      49.681  27.178  21.890  1.00  0.00     0.127 S 
ATOM     58  O   UNL A   1      51.055  26.733  21.677  1.00  0.00    -0.237 OA
ATOM     59  O   UNL A   1      48.653  26.223  21.472  1.00  0.00    -0.237 OA
ATOM     60  O   UNL A   1      49.401  28.560  21.527  1.00  0.00    -0.744 OA
ENDBRANCH  54  57
ENDBRANCH  26  50
BRANCH  38  61
ATOM     61  C   UNL A   1      45.511  32.841  28.911  1.00  0.00     0.023 A 
ATOM     62  C   UNL A   1      46.298  33.098  30.052  1.00  0.00     0.012 A 
ATOM     63  C   UNL A   1      45.277  33.876  27.984  1.00  0.00     0.148 A 
ATOM     64  C   UNL A   1      46.824  34.370  30.277  1.00  0.00     0.002 A 
ATOM     65  C   UNL A   1      45.847  35.126  28.189  1.00  0.00     0.091 A 
ATOM     66  F   UNL A   1      44.509  33.614  26.916  1.00  0.00    -0.205 F 
ATOM     67  C   UNL A   1      46.609  35.379  29.340  1.00  0.00     0.022 A 
BRANCH  65  68
ATOM     68  S   UNL A   1      45.707  36.457  26.991  1.00  0.00     0.127 S 
ATOM     69  O   UNL A   1      46.507  37.509  27.619  1.00  0.00    -0.237 OA
ATOM     70  O   UNL A   1      46.311  35.863  25.798  1.00  0.00    -0.237 OA
ATOM     71  O   UNL A   1      44.285  36.747  26.871  1.00  0.00    -0.744 OA
ENDBRANCH  65  68
ENDBRANCH  38  61
ENDBRANCH  12  13
ENDBRANCH   5   7
ENDBRANCH   2   3
ENDBRANCH   1   2
BRANCH   1  72
ATOM     72  C   UNL A   1      36.359  20.174  25.001  1.00  0.00     0.023 C 
BRANCH  72  73
ATOM     73  C   UNL A   1      36.193  21.614  25.477  1.00  0.00     0.116 C 
BRANCH  73  74
ATOM     74  N   UNL A   1      35.192  21.769  26.526  1.00  0.00    -0.352 N 
ATOM     75  C   UNL A   1      33.816  21.783  26.430  1.00  0.00     0.255 C 
ATOM     76  H   UNL A   1      35.551  21.883  27.436  1.00  0.00     0.163 HD
ATOM     77  O   UNL A   1      33.122  21.904  27.431  1.00  0.00    -0.269 OA
BRANCH  75  78
ATOM     78  C   UNL A   1      33.203  21.599  25.098  1.00  0.00     0.083 A 
ATOM     79  C   UNL A   1      32.707  20.335  24.795  1.00  0.00     0.018 A 
ATOM     80  C   UNL A   1      33.172  22.648  24.150  1.00  0.00     0.146 A 
ATOM     81  C   UNL A   1      32.291  20.067  23.513  1.00  0.00     0.002 A 
ATOM     82  C   UNL A   1      32.821  22.471  22.733  1.00  0.00     0.060 A 
ATOM     83  C   UNL A   1      32.372  21.063  22.523  1.00  0.00     0.019 A 
ATOM     84  Br  UNL A   1      32.904  24.426  21.042  1.00  0.00    -0.047 Br
BRANCH  80  85
ATOM     85  O   UNL A   1      33.448  23.896  24.619  1.00  0.00    -0.488 OA
BRANCH  85  86
ATOM     86  C   UNL A   1      32.200  24.059  25.207  1.00  0.00     0.178 C 
ATOM     87  C   UNL A   1      31.007  24.474  23.726  1.00  0.00     0.074 C 
ATOM     88  C   UNL A   1      32.623  25.387  26.548  1.00  0.00     0.080 C 
ATOM     89  C   UNL A   1      30.277  26.253  23.638  1.00  0.00     0.165 C 
ATOM     90  C   UNL A   1      31.947  27.143  26.274  1.00  0.00     0.072 C 
ATOM     91  O   UNL A   1      30.730  27.451  24.961  1.00  0.00    -0.375 OA
ATOM     92  C   UNL A   1      31.455  27.827  27.616  1.00  0.00     0.036 C 
ATOM     93  C   UNL A   1      33.166  28.142  26.404  1.00  0.00     0.036 C 
ATOM     94  C   UNL A   1      32.254  29.073  27.197  1.00  0.00     0.006 C 
ENDBRANCH  85  86
ENDBRANCH  80  85
ENDBRANCH  75  78
ENDBRANCH  73  74
ENDBRANCH  72  73
ENDBRANCH   1  72
TORSDOF 16
ENDMDL
MODEL 3
REMARK VINA RESULT:     -12.1      6.511     11.560
REMARK SMILES O=C(NCCCCNC(=O)c1cccc(Br)c1O[C@@H]1CCOC2(CCC2)C1)c1ccc(-c2c3nc(c(-c4cccc(S(=O)(=O)[O-])c4F)c4ccc([nH]4)c(-c4cccc(S(=O)(=O)[O-])c4F)c4nc(c(-c5cccc(S(=O)(=O)[O-])c5F)c5ccc2[nH]5)C=C4)C=C3)cc1
REMARK SMILES IDX 5 1 4 2 3 3 1 4 2 5 28 7 29 8 90 9 30 10 89 11 31 12 32 13
REMARK SMILES IDX 33 14 83 15 34 16 88 17 82 18 84 19 35 20 87 21 81 22 80 23
REMARK SMILES IDX 36 25 68 26 48 27 67 28 49 29 52 30 66 31 85 32 50 33 51 34
REMARK SMILES IDX 65 36 86 37 53 38 37 39 38 40 46 41 39 42 41 43 47 44 40 45
REMARK SMILES IDX 42 46 43 47 44 48 45 49 69 50 70 51 78 52 71 53 73 54 79 55
REMARK SMILES IDX 72 56 74 57 75 58 76 59 77 60 54 61 55 62 63 63 56 64 58 65
REMARK SMILES IDX 64 66 57 67 59 68 60 69 61 70 62 71 6 72 7 73 8 74 9 75
REMARK SMILES IDX 10 77 11 78 12 79 17 80 13 81 15 82 14 83 16 84 18 85 19 86
REMARK SMILES IDX 20 87 27 88 21 89 23 90 22 91 24 92 26 93 25 94
REMARK H PARENT 3 6 84 24 52 35 8 76
REMARK Flexibility Score: inf
ROOT
ATOM      1  C   UNL A   1      33.354  31.975  28.035  1.00  0.00     0.023 C 
ENDROOT
BRANCH   1   2
ATOM      2  C   UNL A   1      33.336  33.232  27.175  1.00  0.00     0.116 C 
BRANCH   2   3
ATOM      3  N   UNL A   1      32.841  34.397  27.893  1.00  0.00    -0.352 N 
ATOM      4  O   UNL A   1      32.576  35.786  29.647  1.00  0.00    -0.269 OA
ATOM      5  C   UNL A   1      33.225  34.888  29.121  1.00  0.00     0.251 C 
ATOM      6  H   UNL A   1      32.133  34.905  27.437  1.00  0.00     0.163 HD
BRANCH   5   7
ATOM      7  C   UNL A   1      34.400  34.306  29.808  1.00  0.00     0.039 A 
ATOM      8  C   UNL A   1      35.690  34.533  29.322  1.00  0.00     0.014 A 
ATOM      9  C   UNL A   1      34.208  33.515  30.943  1.00  0.00     0.014 A 
ATOM     10  C   UNL A   1      36.767  33.844  29.870  1.00  0.00     0.010 A 
ATOM     11  C   UNL A   1      35.306  32.901  31.552  1.00  0.00     0.010 A 
ATOM     12  C   UNL A   1      36.590  33.033  31.001  1.00  0.00    -0.014 A 
BRANCH  12  13
ATOM     13  C   UNL A   1      37.773  32.401  31.641  1.00  0.00     0.031 A 
ATOM     14  C   UNL A   1      38.522  31.283  30.972  1.00  0.00     0.074 A 
ATOM     15  C   UNL A   1      38.150  32.831  32.861  1.00  0.00     0.049 A 
ATOM     16  N   UNL A   1      39.554  30.609  31.411  1.00  0.00    -0.248 NA
ATOM     17  C   UNL A   1      38.048  30.855  29.647  1.00  0.00     0.031 C 
ATOM     18  C   UNL A   1      37.468  33.876  33.629  1.00  0.00     0.029 A 
ATOM     19  N   UNL A   1      39.176  32.432  33.678  1.00  0.00    -0.354 N 
ATOM     20  C   UNL A   1      39.827  29.650  30.443  1.00  0.00     0.074 A 
ATOM     21  C   UNL A   1      38.847  29.827  29.393  1.00  0.00     0.031 C 
ATOM     22  C   UNL A   1      38.091  34.035  34.804  1.00  0.00     0.029 A 
ATOM     23  C   UNL A   1      39.176  33.065  34.899  1.00  0.00     0.049 A 
ATOM     24  H   UNL A   1      39.846  31.759  33.417  1.00  0.00     0.167 HD
ATOM     25  C   UNL A   1      40.809  28.716  30.428  1.00  0.00     0.034 A 
ATOM     26  C   UNL A   1      39.933  32.863  35.994  1.00  0.00     0.034 A 
ATOM     27  C   UNL A   1      41.792  28.562  31.469  1.00  0.00     0.049 A 
ATOM     28  C   UNL A   1      41.020  31.831  35.949  1.00  0.00     0.074 A 
ATOM     29  C   UNL A   1      42.877  27.704  31.507  1.00  0.00     0.029 A 
ATOM     30  N   UNL A   1      41.799  29.263  32.667  1.00  0.00    -0.354 N 
ATOM     31  N   UNL A   1      41.354  31.032  34.964  1.00  0.00    -0.248 NA
ATOM     32  C   UNL A   1      41.854  31.691  37.149  1.00  0.00     0.031 C 
ATOM     33  C   UNL A   1      43.513  27.854  32.745  1.00  0.00     0.029 A 
ATOM     34  C   UNL A   1      42.851  28.839  33.460  1.00  0.00     0.049 A 
ATOM     35  H   UNL A   1      41.148  29.959  32.916  1.00  0.00     0.167 HD
ATOM     36  C   UNL A   1      42.453  30.312  35.415  1.00  0.00     0.074 A 
ATOM     37  C   UNL A   1      42.739  30.785  36.755  1.00  0.00     0.031 C 
ATOM     38  C   UNL A   1      43.152  29.341  34.778  1.00  0.00     0.034 A 
BRANCH  25  39
ATOM     39  C   UNL A   1      40.880  27.790  29.239  1.00  0.00     0.023 A 
ATOM     40  C   UNL A   1      40.079  26.630  29.201  1.00  0.00     0.012 A 
ATOM     41  C   UNL A   1      41.703  28.094  28.136  1.00  0.00     0.148 A 
ATOM     42  C   UNL A   1      40.129  25.766  28.107  1.00  0.00     0.002 A 
ATOM     43  C   UNL A   1      41.713  27.253  27.029  1.00  0.00     0.091 A 
ATOM     44  F   UNL A   1      42.473  29.190  28.193  1.00  0.00    -0.205 F 
ATOM     45  C   UNL A   1      40.938  26.082  27.018  1.00  0.00     0.022 A 
BRANCH  43  46
ATOM     46  S   UNL A   1      42.660  27.618  25.546  1.00  0.00     0.127 S 
ATOM     47  O   UNL A   1      42.412  26.425  24.738  1.00  0.00    -0.237 OA
ATOM     48  O   UNL A   1      42.009  28.833  25.055  1.00  0.00    -0.237 OA
ATOM     49  O   UNL A   1      44.035  27.805  25.986  1.00  0.00    -0.744 OA
ENDBRANCH  43  46
ENDBRANCH  25  39
BRANCH  26  50
ATOM     50  C   UNL A   1      39.676  33.679  37.212  1.00  0.00     0.023 A 
ATOM     51  C   UNL A   1      40.127  35.010  37.271  1.00  0.00     0.012 A 
ATOM     52  C   UNL A   1      38.913  33.160  38.277  1.00  0.00     0.148 A 
ATOM     53  C   UNL A   1      39.838  35.806  38.379  1.00  0.00     0.002 A 
ATOM     54  C   UNL A   1      38.577  33.976  39.349  1.00  0.00     0.091 A 
ATOM     55  F   UNL A   1      38.500  31.886  38.199  1.00  0.00    -0.205 F 
ATOM     56  C   UNL A   1      39.053  35.294  39.410  1.00  0.00     0.022 A 
BRANCH  54  57
ATOM     57  S   UNL A   1      37.449  33.450  40.644  1.00  0.00     0.127 S 
ATOM     58  O   UNL A   1      36.310  32.966  39.869  1.00  0.00    -0.237 OA
ATOM     59  O   UNL A   1      38.228  32.407  41.313  1.00  0.00    -0.237 OA
ATOM     60  O   UNL A   1      37.202  34.632  41.458  1.00  0.00    -0.744 OA
ENDBRANCH  54  57
ENDBRANCH  26  50
BRANCH  38  61
ATOM     61  C   UNL A   1      44.326  28.737  35.504  1.00  0.00     0.023 A 
ATOM     62  C   UNL A   1      45.614  29.283  35.338  1.00  0.00     0.012 A 
ATOM     63  C   UNL A   1      44.134  27.678  36.413  1.00  0.00     0.148 A 
ATOM     64  C   UNL A   1      46.698  28.768  36.048  1.00  0.00     0.002 A 
ATOM     65  C   UNL A   1      45.209  27.204  37.155  1.00  0.00     0.091 A 
ATOM     66  F   UNL A   1      42.903  27.160  36.540  1.00  0.00    -0.205 F 
ATOM     67  C   UNL A   1      46.493  27.738  36.965  1.00  0.00     0.022 A 
BRANCH  65  68
ATOM     68  S   UNL A   1      45.024  25.951  38.428  1.00  0.00     0.127 S 
ATOM     69  O   UNL A   1      46.398  25.810  38.910  1.00  0.00    -0.237 OA
ATOM     70  O   UNL A   1      44.112  26.599  39.369  1.00  0.00    -0.237 OA
ATOM     71  O   UNL A   1      44.477  24.776  37.764  1.00  0.00    -0.744 OA
ENDBRANCH  65  68
ENDBRANCH  38  61
ENDBRANCH  12  13
ENDBRANCH   5   7
ENDBRANCH   2   3
ENDBRANCH   1   2
BRANCH   1  72
ATOM     72  C   UNL A   1      34.576  31.082  27.845  1.00  0.00     0.023 C 
BRANCH  72  73
ATOM     73  C   UNL A   1      34.306  29.748  27.155  1.00  0.00     0.116 C 
BRANCH  73  74
ATOM     74  N   UNL A   1      33.257  28.963  27.793  1.00  0.00    -0.352 N 
ATOM     75  C   UNL A   1      32.146  28.365  27.235  1.00  0.00     0.255 C 
ATOM     76  H   UNL A   1      33.355  28.842  28.765  1.00  0.00     0.163 HD
ATOM     77  O   UNL A   1      31.372  27.718  27.928  1.00  0.00    -0.269 OA
BRANCH  75  78
ATOM     78  C   UNL A   1      31.942  28.486  25.777  1.00  0.00     0.083 A 
ATOM     79  C   UNL A   1      31.118  29.516  25.332  1.00  0.00     0.018 A 
ATOM     80  C   UNL A   1      32.514  27.561  24.874  1.00  0.00     0.146 A 
ATOM     81  C   UNL A   1      30.756  29.561  24.007  1.00  0.00     0.002 A 
ATOM     82  C   UNL A   1      32.151  27.460  23.452  1.00  0.00     0.060 A 
ATOM     83  C   UNL A   1      31.215  28.573  23.117  1.00  0.00     0.019 A 
ATOM     84  Br  UNL A   1      33.164  25.658  21.898  1.00  0.00    -0.047 Br
BRANCH  80  85
ATOM     85  O   UNL A   1      33.491  26.754  25.371  1.00  0.00    -0.488 OA
BRANCH  85  86
ATOM     86  C   UNL A   1      32.946  25.595  24.832  1.00  0.00     0.178 C 
ATOM     87  C   UNL A   1      31.757  24.921  26.217  1.00  0.00     0.074 C 
ATOM     88  C   UNL A   1      34.562  24.645  24.357  1.00  0.00     0.080 C 
ATOM     89  C   UNL A   1      32.253  23.284  27.103  1.00  0.00     0.165 C 
ATOM     90  C   UNL A   1      35.008  23.116  25.396  1.00  0.00     0.072 C 
ATOM     91  O   UNL A   1      33.805  22.444  26.581  1.00  0.00    -0.375 OA
ATOM     92  C   UNL A   1      35.602  21.933  24.525  1.00  0.00     0.036 C 
ATOM     93  C   UNL A   1      36.503  23.294  25.879  1.00  0.00     0.036 C 
ATOM     94  C   UNL A   1      36.727  21.817  25.569  1.00  0.00     0.006 C 
ENDBRANCH  85  86
ENDBRANCH  80  85
ENDBRANCH  75  78
ENDBRANCH  73  74
ENDBRANCH  72  73
ENDBRANCH   1  72
TORSDOF 16
ENDMDL
