MODEL 1
REMARK VINA RESULT:     -12.2      0.000      0.000
REMARK SMILES CC[C@H](CNC(=O)[C@H]1CSc2ccccc21)C(=O)NCCCCNC(=O)c1ccc(-c2c3nc(c(-c4cccc(S(=O)(=O)[O-])c4F)c4ccc([nH]4)c(-c4cccc(S(=O)(=O)[O-])c4F)c4nc(c(-c5cccc(S(=O)(=O)[O-])c5F)c5ccc2[nH]5)C=C4)C=C3)cc1
REMARK SMILES IDX 21 1 20 2 19 3 17 4 18 5 3 7 2 8 1 9 4 10 5 11 6 12 7 14
REMARK SMILES IDX 8 15 9 16 16 17 10 18 11 19 15 20 12 21 14 22 13 23 22 24
REMARK SMILES IDX 23 25 24 26 25 27 26 29 27 30 28 31 89 32 29 33 88 34 30 35
REMARK SMILES IDX 31 36 32 37 82 38 33 39 87 40 81 41 83 42 34 43 86 44 80 45
REMARK SMILES IDX 79 46 35 48 67 49 47 50 66 51 48 52 51 53 65 54 84 55 49 56
REMARK SMILES IDX 50 57 64 59 85 60 52 61 36 62 37 63 45 64 38 65 40 66 46 67
REMARK SMILES IDX 39 68 41 69 42 70 43 71 44 72 68 73 69 74 77 75 70 76 72 77
REMARK SMILES IDX 78 78 71 79 73 80 74 81 75 82 76 83 53 84 54 85 62 86 55 87
REMARK SMILES IDX 57 88 63 89 56 90 58 91 59 92 60 93 61 94
REMARK H PARENT 19 6 5 13 24 28 83 47 51 58
REMARK Flexibility Score: inf
ROOT
ATOM      1  C   UNL A   1      34.565  20.404  25.360  1.00  0.00     0.023 C 
ENDROOT
BRANCH   1   2
ATOM      2  C   UNL A   1      33.224  20.244  24.643  1.00  0.00     0.116 C 
BRANCH   2   3
ATOM      3  N   UNL A   1      32.117  20.845  25.376  1.00  0.00    -0.356 N 
ATOM      4  C   UNL A   1      31.694  22.141  25.458  1.00  0.00     0.224 C 
ATOM      5  O   UNL A   1      30.677  22.381  26.113  1.00  0.00    -0.275 OA
ATOM      6  H   UNL A   1      31.582  20.207  25.903  1.00  0.00     0.163 HD
BRANCH   4   7
ATOM      7  C   UNL A   1      32.430  23.269  24.733  1.00  0.00     0.097 C 
BRANCH   7   8
ATOM      8  C   UNL A   1      33.007  24.241  25.788  1.00  0.00     0.012 C 
ATOM      9  C   UNL A   1      34.237  25.027  25.366  1.00  0.00     0.005 C 
ENDBRANCH   7   8
BRANCH   7  10
ATOM     10  C   UNL A   1      31.529  23.866  23.645  1.00  0.00     0.129 C 
BRANCH  10  11
ATOM     11  N   UNL A   1      30.267  24.411  24.126  1.00  0.00    -0.355 N 
ATOM     12  C   UNL A   1      29.896  25.735  24.207  1.00  0.00     0.228 C 
ATOM     13  H   UNL A   1      29.599  23.755  24.430  1.00  0.00     0.163 HD
ATOM     14  O   UNL A   1      28.713  25.983  24.439  1.00  0.00    -0.274 OA
BRANCH  12  15
ATOM     15  C   UNL A   1      30.967  26.806  24.008  1.00  0.00     0.120 C 
ATOM     16  C   UNL A   1      30.584  27.723  22.833  1.00  0.00     0.093 C 
ATOM     17  C   UNL A   1      31.249  27.742  25.167  1.00  0.00    -0.021 A 
ATOM     18  S   UNL A   1      31.569  29.235  23.007  1.00  0.00    -0.125 SA
ATOM     19  C   UNL A   1      31.663  29.018  24.759  1.00  0.00     0.011 A 
ATOM     20  C   UNL A   1      31.271  27.416  26.520  1.00  0.00     0.006 A 
ATOM     21  C   UNL A   1      32.099  29.970  25.667  1.00  0.00     0.015 A 
ATOM     22  C   UNL A   1      31.688  28.377  27.447  1.00  0.00     0.000 A 
ATOM     23  C   UNL A   1      32.108  29.645  27.023  1.00  0.00     0.001 A 
ENDBRANCH  12  15
ENDBRANCH  10  11
ENDBRANCH   7  10
ENDBRANCH   4   7
ENDBRANCH   2   3
ENDBRANCH   1   2
BRANCH   1  24
ATOM     24  C   UNL A   1      35.584  21.272  24.635  1.00  0.00     0.023 C 
BRANCH  24  25
ATOM     25  C   UNL A   1      36.770  21.701  25.483  1.00  0.00     0.116 C 
BRANCH  25  26
ATOM     26  N   UNL A   1      37.855  20.727  25.494  1.00  0.00    -0.352 N 
ATOM     27  C   UNL A   1      39.148  20.868  25.953  1.00  0.00     0.251 C 
ATOM     28  H   UNL A   1      37.634  19.844  25.120  1.00  0.00     0.163 HD
ATOM     29  O   UNL A   1      39.965  19.971  25.778  1.00  0.00    -0.269 OA
BRANCH  27  30
ATOM     30  C   UNL A   1      39.541  22.132  26.614  1.00  0.00     0.039 A 
ATOM     31  C   UNL A   1      39.015  23.343  26.168  1.00  0.00     0.014 A 
ATOM     32  C   UNL A   1      40.516  22.111  27.614  1.00  0.00     0.014 A 
ATOM     33  C   UNL A   1      39.630  24.529  26.543  1.00  0.00     0.010 A 
ATOM     34  C   UNL A   1      41.050  23.317  28.078  1.00  0.00     0.010 A 
ATOM     35  C   UNL A   1      40.665  24.534  27.494  1.00  0.00    -0.014 A 
BRANCH  35  36
ATOM     36  C   UNL A   1      41.327  25.822  27.838  1.00  0.00     0.031 A 
ATOM     37  C   UNL A   1      42.703  26.157  27.318  1.00  0.00     0.074 A 
ATOM     38  C   UNL A   1      40.651  26.730  28.570  1.00  0.00     0.049 A 
ATOM     39  N   UNL A   1      43.405  27.247  27.506  1.00  0.00    -0.248 NA
ATOM     40  C   UNL A   1      43.387  25.147  26.491  1.00  0.00     0.031 C 
ATOM     41  C   UNL A   1      39.318  26.522  29.144  1.00  0.00     0.029 A 
ATOM     42  N   UNL A   1      40.970  28.013  28.932  1.00  0.00    -0.354 N 
ATOM     43  C   UNL A   1      44.625  27.031  26.875  1.00  0.00     0.074 A 
ATOM     44  C   UNL A   1      44.572  25.711  26.290  1.00  0.00     0.031 C 
ATOM     45  C   UNL A   1      38.907  27.657  29.723  1.00  0.00     0.029 A 
ATOM     46  C   UNL A   1      39.969  28.652  29.625  1.00  0.00     0.049 A 
ATOM     47  H   UNL A   1      41.832  28.436  28.717  1.00  0.00     0.167 HD
ATOM     48  C   UNL A   1      45.688  27.866  26.777  1.00  0.00     0.034 A 
ATOM     49  C   UNL A   1      39.906  29.897  30.135  1.00  0.00     0.034 A 
ATOM     50  C   UNL A   1      45.714  29.210  27.286  1.00  0.00     0.049 A 
ATOM     51  C   UNL A   1      41.081  30.814  29.977  1.00  0.00     0.074 A 
ATOM     52  C   UNL A   1      46.730  30.144  27.184  1.00  0.00     0.029 A 
ATOM     53  N   UNL A   1      44.677  29.817  27.974  1.00  0.00    -0.354 N 
ATOM     54  N   UNL A   1      42.201  30.606  29.328  1.00  0.00    -0.248 NA
ATOM     55  C   UNL A   1      40.987  32.134  30.614  1.00  0.00     0.031 C 
ATOM     56  C   UNL A   1      46.305  31.321  27.810  1.00  0.00     0.029 A 
ATOM     57  C   UNL A   1      45.027  31.115  28.302  1.00  0.00     0.049 A 
ATOM     58  H   UNL A   1      43.818  29.390  28.197  1.00  0.00     0.167 HD
ATOM     59  C   UNL A   1      42.946  31.767  29.479  1.00  0.00     0.074 A 
ATOM     60  C   UNL A   1      42.139  32.688  30.255  1.00  0.00     0.031 C 
ATOM     61  C   UNL A   1      44.197  32.034  29.036  1.00  0.00     0.034 A 
BRANCH  48  62
ATOM     62  C   UNL A   1      46.908  27.381  26.043  1.00  0.00     0.023 A 
ATOM     63  C   UNL A   1      47.775  26.470  26.676  1.00  0.00     0.012 A 
ATOM     64  C   UNL A   1      47.131  27.737  24.698  1.00  0.00     0.148 A 
ATOM     65  C   UNL A   1      48.855  25.924  25.982  1.00  0.00     0.002 A 
ATOM     66  C   UNL A   1      48.194  27.168  24.005  1.00  0.00     0.091 A 
ATOM     67  F   UNL A   1      46.298  28.616  24.123  1.00  0.00    -0.205 F 
ATOM     68  C   UNL A   1      49.058  26.264  24.647  1.00  0.00     0.022 A 
BRANCH  66  69
ATOM     69  S   UNL A   1      48.512  27.495  22.268  1.00  0.00     0.127 S 
ATOM     70  O   UNL A   1      47.286  28.186  21.869  1.00  0.00    -0.237 OA
ATOM     71  O   UNL A   1      49.700  28.346  22.327  1.00  0.00    -0.237 OA
ATOM     72  O   UNL A   1      48.721  26.196  21.644  1.00  0.00    -0.744 OA
ENDBRANCH  66  69
ENDBRANCH  48  62
BRANCH  49  73
ATOM     73  C   UNL A   1      38.655  30.342  30.805  1.00  0.00     0.023 A 
ATOM     74  C   UNL A   1      38.539  30.213  32.201  1.00  0.00     0.012 A 
ATOM     75  C   UNL A   1      37.630  30.982  30.082  1.00  0.00     0.148 A 
ATOM     76  C   UNL A   1      37.423  30.717  32.868  1.00  0.00     0.002 A 
ATOM     77  C   UNL A   1      36.547  31.528  30.757  1.00  0.00     0.091 A 
ATOM     78  F   UNL A   1      37.761  31.081  28.751  1.00  0.00    -0.205 F 
ATOM     79  C   UNL A   1      36.436  31.387  32.150  1.00  0.00     0.022 A 
BRANCH  77  80
ATOM     80  S   UNL A   1      35.302  32.527  29.933  1.00  0.00     0.127 S 
ATOM     81  O   UNL A   1      36.099  33.644  29.434  1.00  0.00    -0.237 OA
ATOM     82  O   UNL A   1      34.814  31.608  28.903  1.00  0.00    -0.237 OA
ATOM     83  O   UNL A   1      34.321  32.858  30.957  1.00  0.00    -0.744 OA
ENDBRANCH  77  80
ENDBRANCH  49  73
BRANCH  61  84
ATOM     84  C   UNL A   1      44.792  33.369  29.379  1.00  0.00     0.023 A 
ATOM     85  C   UNL A   1      45.515  33.506  30.580  1.00  0.00     0.012 A 
ATOM     86  C   UNL A   1      44.735  34.443  28.470  1.00  0.00     0.148 A 
ATOM     87  C   UNL A   1      46.170  34.700  30.876  1.00  0.00     0.002 A 
ATOM     88  C   UNL A   1      45.416  35.619  28.759  1.00  0.00     0.091 A 
ATOM     89  F   UNL A   1      44.030  34.287  27.341  1.00  0.00    -0.205 F 
ATOM     90  C   UNL A   1      46.130  35.750  29.962  1.00  0.00     0.022 A 
BRANCH  88  91
ATOM     91  S   UNL A   1      45.482  37.003  27.616  1.00  0.00     0.127 S 
ATOM     92  O   UNL A   1      46.350  37.938  28.330  1.00  0.00    -0.237 OA
ATOM     93  O   UNL A   1      46.084  36.395  26.430  1.00  0.00    -0.237 OA
ATOM     94  O   UNL A   1      44.105  37.446  27.438  1.00  0.00    -0.744 OA
ENDBRANCH  88  91
ENDBRANCH  61  84
ENDBRANCH  35  36
ENDBRANCH  27  30
ENDBRANCH  25  26
ENDBRANCH  24  25
ENDBRANCH   1  24
TORSDOF 18
ENDMDL
MODEL 2
REMARK VINA RESULT:     -12.0      5.154     10.179
REMARK SMILES CC[C@H](CNC(=O)[C@H]1CSc2ccccc21)C(=O)NCCCCNC(=O)c1ccc(-c2c3nc(c(-c4cccc(S(=O)(=O)[O-])c4F)c4ccc([nH]4)c(-c4cccc(S(=O)(=O)[O-])c4F)c4nc(c(-c5cccc(S(=O)(=O)[O-])c5F)c5ccc2[nH]5)C=C4)C=C3)cc1
REMARK SMILES IDX 21 1 20 2 19 3 17 4 18 5 3 7 2 8 1 9 4 10 5 11 6 12 7 14
REMARK SMILES IDX 8 15 9 16 16 17 10 18 11 19 15 20 12 21 14 22 13 23 22 24
REMARK SMILES IDX 23 25 24 26 25 27 26 29 27 30 28 31 89 32 29 33 88 34 30 35
REMARK SMILES IDX 31 36 32 37 82 38 33 39 87 40 81 41 83 42 34 43 86 44 80 45
REMARK SMILES IDX 79 46 35 48 67 49 47 50 66 51 48 52 51 53 65 54 84 55 49 56
REMARK SMILES IDX 50 57 64 59 85 60 52 61 36 62 37 63 45 64 38 65 40 66 46 67
REMARK SMILES IDX 39 68 41 69 42 70 43 71 44 72 68 73 69 74 77 75 70 76 72 77
REMARK SMILES IDX 78 78 71 79 73 80 74 81 75 82 76 83 53 84 54 85 62 86 55 87
REMARK SMILES IDX 57 88 63 89 56 90 58 91 59 92 60 93 61 94
REMARK H PARENT 19 6 5 13 24 28 83 47 51 58
REMARK Flexibility Score: inf
ROOT
ATOM      1  C   UNL A   1      31.915  28.281  27.317  1.00  0.00     0.023 C 
ENDROOT
BRANCH   1   2
ATOM      2  C   UNL A   1      32.379  27.017  26.593  1.00  0.00     0.116 C 
BRANCH   2   3
ATOM      3  N   UNL A   1      31.506  25.875  26.835  1.00  0.00    -0.356 N 
ATOM      4  C   UNL A   1      30.722  25.150  25.984  1.00  0.00     0.224 C 
ATOM      5  O   UNL A   1      30.114  24.178  26.439  1.00  0.00    -0.275 OA
ATOM      6  H   UNL A   1      31.475  25.576  27.773  1.00  0.00     0.163 HD
BRANCH   4   7
ATOM      7  C   UNL A   1      30.621  25.499  24.498  1.00  0.00     0.097 C 
BRANCH   7   8
ATOM      8  C   UNL A   1      29.423  26.455  24.296  1.00  0.00     0.012 C 
ATOM      9  C   UNL A   1      29.628  27.574  23.289  1.00  0.00     0.005 C 
ENDBRANCH   7   8
BRANCH   7  10
ATOM     10  C   UNL A   1      30.647  24.217  23.657  1.00  0.00     0.129 C 
BRANCH  10  11
ATOM     11  N   UNL A   1      31.667  24.185  22.618  1.00  0.00    -0.355 N 
ATOM     12  C   UNL A   1      32.772  23.365  22.544  1.00  0.00     0.228 C 
ATOM     13  H   UNL A   1      31.554  24.828  21.880  1.00  0.00     0.163 HD
ATOM     14  O   UNL A   1      33.397  23.345  21.484  1.00  0.00    -0.274 OA
BRANCH  12  15
ATOM     15  C   UNL A   1      33.152  22.541  23.772  1.00  0.00     0.120 C 
ATOM     16  C   UNL A   1      32.660  21.092  23.608  1.00  0.00     0.093 C 
ATOM     17  C   UNL A   1      34.624  22.424  24.113  1.00  0.00    -0.021 A 
ATOM     18  S   UNL A   1      33.592  20.085  24.792  1.00  0.00    -0.125 SA
ATOM     19  C   UNL A   1      34.953  21.212  24.738  1.00  0.00     0.011 A 
ATOM     20  C   UNL A   1      35.592  23.418  23.998  1.00  0.00     0.006 A 
ATOM     21  C   UNL A   1      36.219  20.973  25.249  1.00  0.00     0.015 A 
ATOM     22  C   UNL A   1      36.879  23.179  24.490  1.00  0.00     0.000 A 
ATOM     23  C   UNL A   1      37.189  21.966  25.120  1.00  0.00     0.001 A 
ENDBRANCH  12  15
ENDBRANCH  10  11
ENDBRANCH   7  10
ENDBRANCH   4   7
ENDBRANCH   2   3
ENDBRANCH   1   2
BRANCH   1  24
ATOM     24  C   UNL A   1      31.442  29.407  26.408  1.00  0.00     0.023 C 
BRANCH  24  25
ATOM     25  C   UNL A   1      32.513  30.426  26.050  1.00  0.00     0.116 C 
BRANCH  25  26
ATOM     26  N   UNL A   1      32.270  31.744  26.623  1.00  0.00    -0.352 N 
ATOM     27  C   UNL A   1      33.076  32.495  27.455  1.00  0.00     0.251 C 
ATOM     28  H   UNL A   1      31.410  32.156  26.384  1.00  0.00     0.163 HD
ATOM     29  O   UNL A   1      32.659  33.542  27.934  1.00  0.00    -0.269 OA
BRANCH  27  30
ATOM     30  C   UNL A   1      34.425  31.991  27.792  1.00  0.00     0.039 A 
ATOM     31  C   UNL A   1      34.615  30.638  28.064  1.00  0.00     0.014 A 
ATOM     32  C   UNL A   1      35.481  32.895  27.934  1.00  0.00     0.014 A 
ATOM     33  C   UNL A   1      35.777  30.232  28.706  1.00  0.00     0.010 A 
ATOM     34  C   UNL A   1      36.695  32.455  28.471  1.00  0.00     0.010 A 
ATOM     35  C   UNL A   1      36.829  31.136  28.930  1.00  0.00    -0.014 A 
BRANCH  35  36
ATOM     36  C   UNL A   1      38.041  30.670  29.659  1.00  0.00     0.031 A 
ATOM     37  C   UNL A   1      38.286  31.058  31.096  1.00  0.00     0.074 A 
ATOM     38  C   UNL A   1      38.895  29.832  29.038  1.00  0.00     0.049 A 
ATOM     39  N   UNL A   1      39.279  30.713  31.878  1.00  0.00    -0.248 NA
ATOM     40  C   UNL A   1      37.304  31.946  31.742  1.00  0.00     0.031 C 
ATOM     41  C   UNL A   1      38.779  29.393  27.645  1.00  0.00     0.029 A 
ATOM     42  N   UNL A   1      40.008  29.176  29.499  1.00  0.00    -0.354 N 
ATOM     43  C   UNL A   1      39.074  31.385  33.078  1.00  0.00     0.074 A 
ATOM     44  C   UNL A   1      37.859  32.152  32.931  1.00  0.00     0.031 C 
ATOM     45  C   UNL A   1      39.733  28.491  27.386  1.00  0.00     0.029 A 
ATOM     46  C   UNL A   1      40.574  28.337  28.569  1.00  0.00     0.049 A 
ATOM     47  H   UNL A   1      40.367  29.295  30.408  1.00  0.00     0.167 HD
ATOM     48  C   UNL A   1      39.822  31.351  34.206  1.00  0.00     0.034 A 
ATOM     49  C   UNL A   1      41.652  27.534  28.647  1.00  0.00     0.034 A 
ATOM     50  C   UNL A   1      40.985  30.525  34.385  1.00  0.00     0.049 A 
ATOM     51  C   UNL A   1      42.439  27.484  29.922  1.00  0.00     0.074 A 
ATOM     52  C   UNL A   1      41.773  30.388  35.515  1.00  0.00     0.029 A 
ATOM     53  N   UNL A   1      41.518  29.687  33.420  1.00  0.00    -0.354 N 
ATOM     54  N   UNL A   1      42.192  28.086  31.060  1.00  0.00    -0.248 NA
ATOM     55  C   UNL A   1      43.646  26.648  29.929  1.00  0.00     0.031 C 
ATOM     56  C   UNL A   1      42.783  29.463  35.234  1.00  0.00     0.029 A 
ATOM     57  C   UNL A   1      42.623  29.027  33.929  1.00  0.00     0.049 A 
ATOM     58  H   UNL A   1      41.164  29.576  32.508  1.00  0.00     0.167 HD
ATOM     59  C   UNL A   1      43.212  27.702  31.919  1.00  0.00     0.074 A 
ATOM     60  C   UNL A   1      44.065  26.792  31.180  1.00  0.00     0.031 C 
ATOM     61  C   UNL A   1      43.435  28.092  33.197  1.00  0.00     0.034 A 
BRANCH  48  62
ATOM     62  C   UNL A   1      39.384  32.190  35.375  1.00  0.00     0.023 A 
ATOM     63  C   UNL A   1      38.601  31.605  36.388  1.00  0.00     0.012 A 
ATOM     64  C   UNL A   1      39.840  33.515  35.524  1.00  0.00     0.148 A 
ATOM     65  C   UNL A   1      38.269  32.329  37.533  1.00  0.00     0.002 A 
ATOM     66  C   UNL A   1      39.529  34.222  36.681  1.00  0.00     0.091 A 
ATOM     67  F   UNL A   1      40.573  34.053  34.540  1.00  0.00    -0.205 F 
ATOM     68  C   UNL A   1      38.741  33.631  37.684  1.00  0.00     0.022 A 
BRANCH  66  69
ATOM     69  S   UNL A   1      40.130  35.884  36.999  1.00  0.00     0.127 S 
ATOM     70  O   UNL A   1      39.464  36.202  38.262  1.00  0.00    -0.237 OA
ATOM     71  O   UNL A   1      41.574  35.673  37.109  1.00  0.00    -0.237 OA
ATOM     72  O   UNL A   1      39.714  36.689  35.860  1.00  0.00    -0.744 OA
ENDBRANCH  66  69
ENDBRANCH  48  62
BRANCH  49  73
ATOM     73  C   UNL A   1      42.009  26.686  27.478  1.00  0.00     0.023 A 
ATOM     74  C   UNL A   1      42.797  27.231  26.448  1.00  0.00     0.012 A 
ATOM     75  C   UNL A   1      41.660  25.322  27.435  1.00  0.00     0.148 A 
ATOM     76  C   UNL A   1      43.234  26.430  25.393  1.00  0.00     0.002 A 
ATOM     77  C   UNL A   1      42.141  24.519  26.410  1.00  0.00     0.091 A 
ATOM     78  F   UNL A   1      40.898  24.832  28.424  1.00  0.00    -0.205 F 
ATOM     79  C   UNL A   1      42.920  25.073  25.382  1.00  0.00     0.022 A 
BRANCH  77  80
ATOM     80  S   UNL A   1      41.905  22.739  26.390  1.00  0.00     0.127 S 
ATOM     81  O   UNL A   1      40.448  22.632  26.388  1.00  0.00    -0.237 OA
ATOM     82  O   UNL A   1      42.552  22.364  25.131  1.00  0.00    -0.237 OA
ATOM     83  O   UNL A   1      42.574  22.239  27.582  1.00  0.00    -0.744 OA
ENDBRANCH  77  80
ENDBRANCH  49  73
BRANCH  61  84
ATOM     84  C   UNL A   1      44.652  27.552  33.891  1.00  0.00     0.023 A 
ATOM     85  C   UNL A   1      45.839  28.309  33.876  1.00  0.00     0.012 A 
ATOM     86  C   UNL A   1      44.589  26.366  34.647  1.00  0.00     0.148 A 
ATOM     87  C   UNL A   1      46.953  27.890  34.600  1.00  0.00     0.002 A 
ATOM     88  C   UNL A   1      45.694  25.970  35.390  1.00  0.00     0.091 A 
ATOM     89  F   UNL A   1      43.450  25.660  34.633  1.00  0.00    -0.205 F 
ATOM     90  C   UNL A   1      46.876  26.728  35.365  1.00  0.00     0.022 A 
BRANCH  88  91
ATOM     91  S   UNL A   1      45.671  24.528  36.461  1.00  0.00     0.127 S 
ATOM     92  O   UNL A   1      45.750  23.436  35.491  1.00  0.00    -0.237 OA
ATOM     93  O   UNL A   1      46.879  24.720  37.263  1.00  0.00    -0.237 OA
ATOM     94  O   UNL A   1      44.426  24.602  37.213  1.00  0.00    -0.744 OA
ENDBRANCH  88  91
ENDBRANCH  61  84
ENDBRANCH  35  36
ENDBRANCH  27  30
ENDBRANCH  25  26
ENDBRANCH  24  25
ENDBRANCH   1  24
TORSDOF 18
ENDMDL
MODEL 3
REMARK VINA RESULT:     -11.7      5.189      7.921
REMARK SMILES CC[C@H](CNC(=O)[C@H]1CSc2ccccc21)C(=O)NCCCCNC(=O)c1ccc(-c2c3nc(c(-c4cccc(S(=O)(=O)[O-])c4F)c4ccc([nH]4)c(-c4cccc(S(=O)(=O)[O-])c4F)c4nc(c(-c5cccc(S(=O)(=O)[O-])c5F)c5ccc2[nH]5)C=C4)C=C3)cc1
REMARK SMILES IDX 21 1 20 2 19 3 17 4 18 5 3 7 2 8 1 9 4 10 5 11 6 12 7 14
REMARK SMILES IDX 8 15 9 16 16 17 10 18 11 19 15 20 12 21 14 22 13 23 22 24
REMARK SMILES IDX 23 25 24 26 25 27 26 29 27 30 28 31 89 32 29 33 88 34 30 35
REMARK SMILES IDX 31 36 32 37 82 38 33 39 87 40 81 41 83 42 34 43 86 44 80 45
REMARK SMILES IDX 79 46 35 48 67 49 47 50 66 51 48 52 51 53 65 54 84 55 49 56
REMARK SMILES IDX 50 57 64 59 85 60 52 61 36 62 37 63 45 64 38 65 40 66 46 67
REMARK SMILES IDX 39 68 41 69 42 70 43 71 44 72 68 73 69 74 77 75 70 76 72 77
REMARK SMILES IDX 78 78 71 79 73 80 74 81 75 82 76 83 53 84 54 85 62 86 55 87
REMARK SMILES IDX 57 88 63 89 56 90 58 91 59 92 60 93 61 94
REMARK H PARENT 19 6 5 13 24 28 83 47 51 58
REMARK Flexibility Score: inf
ROOT
ATOM      1  C   UNL A   1      31.664  27.956  27.107  1.00  0.00     0.023 C 
ENDROOT
BRANCH   1   2
ATOM      2  C   UNL A   1      32.477  26.769  26.590  1.00  0.00     0.116 C 
BRANCH   2   3
ATOM      3  N   UNL A   1      31.772  25.500  26.727  1.00  0.00    -0.356 N 
ATOM      4  C   UNL A   1      30.997  24.805  25.842  1.00  0.00     0.224 C 
ATOM      5  O   UNL A   1      30.556  23.708  26.193  1.00  0.00    -0.275 OA
ATOM      6  H   UNL A   1      31.872  25.071  27.607  1.00  0.00     0.163 HD
BRANCH   4   7
ATOM      7  C   UNL A   1      30.706  25.344  24.441  1.00  0.00     0.097 C 
BRANCH   7   8
ATOM      8  C   UNL A   1      29.475  26.276  24.515  1.00  0.00     0.012 C 
ATOM      9  C   UNL A   1      29.407  27.373  23.466  1.00  0.00     0.005 C 
ENDBRANCH   7   8
BRANCH   7  10
ATOM     10  C   UNL A   1      30.651  24.185  23.437  1.00  0.00     0.129 C 
BRANCH  10  11
ATOM     11  N   UNL A   1      31.723  24.176  22.451  1.00  0.00    -0.355 N 
ATOM     12  C   UNL A   1      32.850  23.385  22.437  1.00  0.00     0.228 C 
ATOM     13  H   UNL A   1      31.630  24.813  21.706  1.00  0.00     0.163 HD
ATOM     14  O   UNL A   1      33.528  23.377  21.410  1.00  0.00    -0.274 OA
BRANCH  12  15
ATOM     15  C   UNL A   1      33.189  22.575  23.687  1.00  0.00     0.120 C 
ATOM     16  C   UNL A   1      32.539  21.183  23.605  1.00  0.00     0.093 C 
ATOM     17  C   UNL A   1      34.653  22.314  23.981  1.00  0.00    -0.021 A 
ATOM     18  S   UNL A   1      33.404  20.130  24.800  1.00  0.00    -0.125 SA
ATOM     19  C   UNL A   1      34.875  21.099  24.647  1.00  0.00     0.011 A 
ATOM     20  C   UNL A   1      35.715  23.191  23.786  1.00  0.00     0.006 A 
ATOM     21  C   UNL A   1      36.128  20.746  25.123  1.00  0.00     0.015 A 
ATOM     22  C   UNL A   1      36.988  22.834  24.243  1.00  0.00     0.000 A 
ATOM     23  C   UNL A   1      37.192  21.621  24.915  1.00  0.00     0.001 A 
ENDBRANCH  12  15
ENDBRANCH  10  11
ENDBRANCH   7  10
ENDBRANCH   4   7
ENDBRANCH   2   3
ENDBRANCH   1   2
BRANCH   1  24
ATOM     24  C   UNL A   1      31.430  29.067  26.092  1.00  0.00     0.023 C 
BRANCH  24  25
ATOM     25  C   UNL A   1      32.604  30.016  25.908  1.00  0.00     0.116 C 
BRANCH  25  26
ATOM     26  N   UNL A   1      32.359  31.349  26.444  1.00  0.00    -0.352 N 
ATOM     27  C   UNL A   1      33.134  32.099  27.305  1.00  0.00     0.251 C 
ATOM     28  H   UNL A   1      31.522  31.774  26.151  1.00  0.00     0.163 HD
ATOM     29  O   UNL A   1      32.714  33.163  27.742  1.00  0.00    -0.269 OA
BRANCH  27  30
ATOM     30  C   UNL A   1      34.452  31.575  27.723  1.00  0.00     0.039 A 
ATOM     31  C   UNL A   1      34.610  30.215  27.985  1.00  0.00     0.014 A 
ATOM     32  C   UNL A   1      35.505  32.464  27.953  1.00  0.00     0.014 A 
ATOM     33  C   UNL A   1      35.721  29.786  28.696  1.00  0.00     0.010 A 
ATOM     34  C   UNL A   1      36.676  32.002  28.562  1.00  0.00     0.010 A 
ATOM     35  C   UNL A   1      36.765  30.674  29.007  1.00  0.00    -0.014 A 
BRANCH  35  36
ATOM     36  C   UNL A   1      37.920  30.182  29.807  1.00  0.00     0.031 A 
ATOM     37  C   UNL A   1      38.970  29.287  29.197  1.00  0.00     0.074 A 
ATOM     38  C   UNL A   1      38.061  30.605  31.080  1.00  0.00     0.049 A 
ATOM     39  N   UNL A   1      40.049  28.795  29.754  1.00  0.00    -0.248 NA
ATOM     40  C   UNL A   1      38.791  28.882  27.792  1.00  0.00     0.031 C 
ATOM     41  C   UNL A   1      37.107  31.461  31.791  1.00  0.00     0.029 A 
ATOM     42  N   UNL A   1      39.066  30.402  31.991  1.00  0.00    -0.354 N 
ATOM     43  C   UNL A   1      40.640  27.983  28.793  1.00  0.00     0.074 A 
ATOM     44  C   UNL A   1      39.810  28.050  27.612  1.00  0.00     0.031 C 
ATOM     45  C   UNL A   1      37.604  31.766  32.996  1.00  0.00     0.029 A 
ATOM     46  C   UNL A   1      38.876  31.074  33.175  1.00  0.00     0.049 A 
ATOM     47  H   UNL A   1      39.847  29.831  31.814  1.00  0.00     0.167 HD
ATOM     48  C   UNL A   1      41.783  27.261  28.880  1.00  0.00     0.034 A 
ATOM     49  C   UNL A   1      39.631  31.128  34.288  1.00  0.00     0.034 A 
ATOM     50  C   UNL A   1      42.655  27.257  30.023  1.00  0.00     0.049 A 
ATOM     51  C   UNL A   1      40.912  30.352  34.343  1.00  0.00     0.074 A 
ATOM     52  C   UNL A   1      43.861  26.595  30.178  1.00  0.00     0.029 A 
ATOM     53  N   UNL A   1      42.428  27.957  31.196  1.00  0.00    -0.354 N 
ATOM     54  N   UNL A   1      41.477  29.636  33.402  1.00  0.00    -0.248 NA
ATOM     55  C   UNL A   1      41.661  30.389  35.607  1.00  0.00     0.031 C 
ATOM     56  C   UNL A   1      44.365  26.898  31.446  1.00  0.00     0.029 A 
ATOM     57  C   UNL A   1      43.472  27.745  32.080  1.00  0.00     0.049 A 
ATOM     58  H   UNL A   1      41.641  28.521  31.376  1.00  0.00     0.167 HD
ATOM     59  C   UNL A   1      42.647  29.137  33.957  1.00  0.00     0.074 A 
ATOM     60  C   UNL A   1      42.727  29.655  35.308  1.00  0.00     0.031 C 
ATOM     61  C   UNL A   1      43.558  28.302  33.404  1.00  0.00     0.034 A 
BRANCH  48  62
ATOM     62  C   UNL A   1      42.203  26.446  27.688  1.00  0.00     0.023 A 
ATOM     63  C   UNL A   1      43.056  27.020  26.727  1.00  0.00     0.012 A 
ATOM     64  C   UNL A   1      41.846  25.087  27.580  1.00  0.00     0.148 A 
ATOM     65  C   UNL A   1      43.545  26.256  25.668  1.00  0.00     0.002 A 
ATOM     66  C   UNL A   1      42.359  24.324  26.537  1.00  0.00     0.091 A 
ATOM     67  F   UNL A   1      41.022  24.568  28.501  1.00  0.00    -0.205 F 
ATOM     68  C   UNL A   1      43.205  24.907  25.579  1.00  0.00     0.022 A 
BRANCH  66  69
ATOM     69  S   UNL A   1      42.029  22.567  26.360  1.00  0.00     0.127 S 
ATOM     70  O   UNL A   1      42.739  22.257  25.119  1.00  0.00    -0.237 OA
ATOM     71  O   UNL A   1      42.644  22.015  27.568  1.00  0.00    -0.237 OA
ATOM     72  O   UNL A   1      40.581  22.432  26.295  1.00  0.00    -0.744 OA
ENDBRANCH  66  69
ENDBRANCH  48  62
BRANCH  49  73
ATOM     73  C   UNL A   1      39.195  31.992  35.417  1.00  0.00     0.023 A 
ATOM     74  C   UNL A   1      38.415  31.436  36.447  1.00  0.00     0.012 A 
ATOM     75  C   UNL A   1      39.634  33.326  35.525  1.00  0.00     0.148 A 
ATOM     76  C   UNL A   1      38.080  32.193  37.569  1.00  0.00     0.002 A 
ATOM     77  C   UNL A   1      39.341  34.058  36.668  1.00  0.00     0.091 A 
ATOM     78  F   UNL A   1      40.366  33.835  34.523  1.00  0.00    -0.205 F 
ATOM     79  C   UNL A   1      38.555  33.497  37.687  1.00  0.00     0.022 A 
BRANCH  77  80
ATOM     80  S   UNL A   1      40.027  35.691  36.967  1.00  0.00     0.127 S 
ATOM     81  O   UNL A   1      39.703  36.383  35.723  1.00  0.00    -0.237 OA
ATOM     82  O   UNL A   1      39.260  36.130  38.135  1.00  0.00    -0.237 OA
ATOM     83  O   UNL A   1      41.445  35.482  37.223  1.00  0.00    -0.744 OA
ENDBRANCH  77  80
ENDBRANCH  49  73
BRANCH  61  84
ATOM     84  C   UNL A   1      44.724  27.879  34.250  1.00  0.00     0.023 A 
ATOM     85  C   UNL A   1      45.849  28.722  34.334  1.00  0.00     0.012 A 
ATOM     86  C   UNL A   1      44.660  26.717  35.044  1.00  0.00     0.148 A 
ATOM     87  C   UNL A   1      46.900  28.412  35.195  1.00  0.00     0.002 A 
ATOM     88  C   UNL A   1      45.699  26.431  35.920  1.00  0.00     0.091 A 
ATOM     89  F   UNL A   1      43.583  25.928  34.933  1.00  0.00    -0.205 F 
ATOM     90  C   UNL A   1      46.820  27.275  35.994  1.00  0.00     0.022 A 
BRANCH  88  91
ATOM     91  S   UNL A   1      45.658  25.028  37.041  1.00  0.00     0.127 S 
ATOM     92  O   UNL A   1      46.539  25.480  38.116  1.00  0.00    -0.237 OA
ATOM     93  O   UNL A   1      44.241  24.961  37.400  1.00  0.00    -0.237 OA
ATOM     94  O   UNL A   1      46.144  23.886  36.277  1.00  0.00    -0.744 OA
ENDBRANCH  88  91
ENDBRANCH  61  84
ENDBRANCH  35  36
ENDBRANCH  27  30
ENDBRANCH  25  26
ENDBRANCH  24  25
ENDBRANCH   1  24
TORSDOF 18
ENDMDL
