MODEL 1
REMARK VINA RESULT:     -13.7      0.000      0.000
REMARK SMILES Cc1[nH]c2ccccc2c1[C@H](C(=O)NCCCCNC(=O)c1ccc(-c2c3nc(c(-c4cccc(S(=O)(=O)[O-])c4F)c4ccc([nH]4)c(-c4cccc(S(=O)(=O)[O-])c4F)c4nc(c(-c5cccc(S(=O)(=O)[O-])c5F)c5ccc2[nH]5)C=C4)C=C3)cc1)[NH+]1CCN(C(=O)c2ccco2)CC1
REMARK SMILES IDX 17 1 16 2 15 3 14 4 12 5 13 6 11 8 10 9 1 10 2 11 3 12 4 13
REMARK SMILES IDX 9 15 5 16 8 17 6 18 7 19 85 20 86 21 97 22 87 24 96 25 88 26
REMARK SMILES IDX 89 27 90 28 91 29 92 30 95 31 93 32 94 33 18 34 19 35 20 36
REMARK SMILES IDX 21 38 22 39 23 40 84 41 24 42 83 43 25 44 26 45 27 46 77 47
REMARK SMILES IDX 28 48 82 49 76 50 78 51 29 52 81 53 75 54 74 55 30 57 62 58
REMARK SMILES IDX 42 59 61 60 43 61 46 62 60 63 79 64 44 65 45 66 59 68 80 69
REMARK SMILES IDX 47 70 31 71 32 72 40 73 33 74 35 75 41 76 34 77 36 78 37 79
REMARK SMILES IDX 38 80 39 81 63 82 64 83 72 84 65 85 67 86 73 87 66 88 68 89
REMARK SMILES IDX 69 90 70 91 71 92 48 93 49 94 57 95 50 96 52 97 58 98 51 99
REMARK SMILES IDX 53 100 54 101 55 102 56 103
REMARK H PARENT 14 7 3 14 85 23 19 37 78 56 46 67
REMARK Flexibility Score: inf
ROOT
ATOM      1  C   UNL A   1      31.513  29.785  26.349  1.00  0.00     0.023 C 
ENDROOT
BRANCH   1   2
ATOM      2  C   UNL A   1      31.658  28.662  27.360  1.00  0.00     0.023 C 
BRANCH   2   3
ATOM      3  C   UNL A   1      32.296  27.406  26.783  1.00  0.00     0.116 C 
BRANCH   3   4
ATOM      4  N   UNL A   1      31.377  26.288  26.728  1.00  0.00    -0.351 N 
ATOM      5  C   UNL A   1      31.058  25.471  25.674  1.00  0.00     0.283 C 
ATOM      6  O   UNL A   1      30.257  24.555  25.894  1.00  0.00    -0.268 OA
ATOM      7  H   UNL A   1      30.911  26.085  27.572  1.00  0.00     0.163 HD
BRANCH   5   8
ATOM      8  C   UNL A   1      31.680  25.647  24.260  1.00  0.00     0.308 C 
BRANCH   8   9
ATOM      9  C   UNL A   1      31.472  27.060  23.708  1.00  0.00     0.047 A 
ATOM     10  C   UNL A   1      33.996  27.778  23.470  1.00  0.00     0.065 C 
ATOM     11  C   UNL A   1      32.516  27.916  23.340  1.00  0.00     0.022 A 
ATOM     12  N   UNL A   1      31.974  28.978  22.664  1.00  0.00    -0.358 N 
ATOM     13  C   UNL A   1      30.606  28.904  22.666  1.00  0.00     0.046 A 
ATOM     14  H   UNL A   1      32.496  29.695  22.237  1.00  0.00     0.166 HD
ATOM     15  C   UNL A   1      30.253  27.769  23.399  1.00  0.00     0.009 A 
ATOM     16  C   UNL A   1      29.670  29.753  22.063  1.00  0.00     0.027 A 
ATOM     17  C   UNL A   1      28.877  27.530  23.602  1.00  0.00     0.011 A 
ATOM     18  C   UNL A   1      28.317  29.470  22.258  1.00  0.00     0.002 A 
ATOM     19  C   UNL A   1      27.924  28.387  23.037  1.00  0.00     0.001 A 
ENDBRANCH   8   9
BRANCH   8  20
ATOM     20  N   UNL A   1      33.067  25.112  24.119  1.00  0.00    -0.318 N 
ATOM     21  C   UNL A   1      33.870  24.893  25.335  1.00  0.00     0.285 C 
ATOM     22  C   UNL A   1      33.131  23.883  23.304  1.00  0.00     0.285 C 
ATOM     23  H   UNL A   1      33.501  25.906  23.649  1.00  0.00     0.349 HD
ATOM     24  C   UNL A   1      33.594  23.605  26.139  1.00  0.00     0.181 C 
ATOM     25  C   UNL A   1      32.777  22.570  24.027  1.00  0.00     0.181 C 
ATOM     26  N   UNL A   1      33.455  22.405  25.317  1.00  0.00    -0.325 N 
ATOM     27  C   UNL A   1      33.472  21.180  26.010  1.00  0.00     0.289 C 
ATOM     28  O   UNL A   1      33.582  21.159  27.237  1.00  0.00    -0.265 OA
BRANCH  27  29
ATOM     29  C   UNL A   1      33.404  19.957  25.235  1.00  0.00     0.191 A 
ATOM     30  C   UNL A   1      34.379  19.186  24.625  1.00  0.00     0.056 A 
ATOM     31  O   UNL A   1      32.190  19.338  25.092  1.00  0.00    -0.459 OA
ATOM     32  C   UNL A   1      33.724  18.063  24.064  1.00  0.00     0.043 A 
ATOM     33  C   UNL A   1      32.393  18.204  24.375  1.00  0.00     0.196 A 
ENDBRANCH  27  29
ENDBRANCH   8  20
ENDBRANCH   5   8
ENDBRANCH   3   4
ENDBRANCH   2   3
ENDBRANCH   1   2
BRANCH   1  34
ATOM     34  C   UNL A   1      32.745  30.668  26.224  1.00  0.00     0.116 C 
BRANCH  34  35
ATOM     35  N   UNL A   1      32.573  31.995  26.820  1.00  0.00    -0.352 N 
ATOM     36  C   UNL A   1      33.457  32.655  27.644  1.00  0.00     0.251 C 
ATOM     37  H   UNL A   1      31.734  32.465  26.610  1.00  0.00     0.163 HD
ATOM     38  O   UNL A   1      33.188  33.723  28.171  1.00  0.00    -0.269 OA
BRANCH  36  39
ATOM     39  C   UNL A   1      34.746  31.983  27.880  1.00  0.00     0.039 A 
ATOM     40  C   UNL A   1      35.893  32.760  28.044  1.00  0.00     0.014 A 
ATOM     41  C   UNL A   1      34.723  30.627  28.210  1.00  0.00     0.014 A 
ATOM     42  C   UNL A   1      37.018  32.182  28.632  1.00  0.00     0.010 A 
ATOM     43  C   UNL A   1      35.807  30.090  28.884  1.00  0.00     0.010 A 
ATOM     44  C   UNL A   1      36.962  30.859  29.105  1.00  0.00    -0.014 A 
BRANCH  44  45
ATOM     45  C   UNL A   1      38.090  30.243  29.844  1.00  0.00     0.031 A 
ATOM     46  C   UNL A   1      38.343  30.662  31.267  1.00  0.00     0.074 A 
ATOM     47  C   UNL A   1      38.955  29.427  29.207  1.00  0.00     0.049 A 
ATOM     48  N   UNL A   1      39.349  30.370  32.046  1.00  0.00    -0.248 NA
ATOM     49  C   UNL A   1      37.359  31.577  31.873  1.00  0.00     0.031 C 
ATOM     50  C   UNL A   1      38.875  29.033  27.799  1.00  0.00     0.029 A 
ATOM     51  N   UNL A   1      40.096  28.809  29.656  1.00  0.00    -0.354 N 
ATOM     52  C   UNL A   1      39.155  31.116  33.201  1.00  0.00     0.074 A 
ATOM     53  C   UNL A   1      37.960  31.904  33.006  1.00  0.00     0.031 C 
ATOM     54  C   UNL A   1      39.916  28.237  27.502  1.00  0.00     0.029 A 
ATOM     55  C   UNL A   1      40.752  28.084  28.688  1.00  0.00     0.049 A 
ATOM     56  H   UNL A   1      40.416  28.879  30.585  1.00  0.00     0.167 HD
ATOM     57  C   UNL A   1      39.881  31.114  34.342  1.00  0.00     0.034 A 
ATOM     58  C   UNL A   1      41.900  27.380  28.752  1.00  0.00     0.034 A 
ATOM     59  C   UNL A   1      41.005  30.249  34.564  1.00  0.00     0.049 A 
ATOM     60  C   UNL A   1      42.636  27.313  30.065  1.00  0.00     0.074 A 
ATOM     61  C   UNL A   1      41.722  30.054  35.729  1.00  0.00     0.029 A 
ATOM     62  N   UNL A   1      41.568  29.429  33.599  1.00  0.00    -0.354 N 
ATOM     63  N   UNL A   1      42.331  27.879  31.209  1.00  0.00    -0.248 NA
ATOM     64  C   UNL A   1      43.852  26.488  30.109  1.00  0.00     0.031 C 
ATOM     65  C   UNL A   1      42.725  29.115  35.467  1.00  0.00     0.029 A 
ATOM     66  C   UNL A   1      42.628  28.726  34.140  1.00  0.00     0.049 A 
ATOM     67  H   UNL A   1      41.260  29.358  32.667  1.00  0.00     0.167 HD
ATOM     68  C   UNL A   1      43.302  27.461  32.112  1.00  0.00     0.074 A 
ATOM     69  C   UNL A   1      44.189  26.572  31.390  1.00  0.00     0.031 C 
ATOM     70  C   UNL A   1      43.460  27.800  33.415  1.00  0.00     0.034 A 
BRANCH  57  71
ATOM     71  C   UNL A   1      39.424  32.008  35.461  1.00  0.00     0.023 A 
ATOM     72  C   UNL A   1      38.517  31.509  36.418  1.00  0.00     0.012 A 
ATOM     73  C   UNL A   1      39.909  33.324  35.587  1.00  0.00     0.148 A 
ATOM     74  C   UNL A   1      38.068  32.318  37.461  1.00  0.00     0.002 A 
ATOM     75  C   UNL A   1      39.491  34.109  36.656  1.00  0.00     0.091 A 
ATOM     76  F   UNL A   1      40.751  33.789  34.653  1.00  0.00    -0.205 F 
ATOM     77  C   UNL A   1      38.561  33.612  37.584  1.00  0.00     0.022 A 
BRANCH  75  78
ATOM     78  S   UNL A   1      40.126  35.763  36.949  1.00  0.00     0.127 S 
ATOM     79  O   UNL A   1      39.454  36.121  38.196  1.00  0.00    -0.237 OA
ATOM     80  O   UNL A   1      41.564  35.522  37.079  1.00  0.00    -0.237 OA
ATOM     81  O   UNL A   1      39.747  36.549  35.783  1.00  0.00    -0.744 OA
ENDBRANCH  75  78
ENDBRANCH  57  71
BRANCH  58  82
ATOM     82  C   UNL A   1      42.377  26.614  27.566  1.00  0.00     0.023 A 
ATOM     83  C   UNL A   1      43.172  27.269  26.603  1.00  0.00     0.012 A 
ATOM     84  C   UNL A   1      42.085  25.247  27.394  1.00  0.00     0.148 A 
ATOM     85  C   UNL A   1      43.641  26.586  25.480  1.00  0.00     0.002 A 
ATOM     86  C   UNL A   1      42.599  24.559  26.299  1.00  0.00     0.091 A 
ATOM     87  F   UNL A   1      41.315  24.642  28.310  1.00  0.00    -0.205 F 
ATOM     88  C   UNL A   1      43.364  25.230  25.333  1.00  0.00     0.022 A 
BRANCH  86  89
ATOM     89  S   UNL A   1      42.402  22.784  26.105  1.00  0.00     0.127 S 
ATOM     90  O   UNL A   1      40.951  22.636  26.143  1.00  0.00    -0.237 OA
ATOM     91  O   UNL A   1      43.012  22.549  24.794  1.00  0.00    -0.237 OA
ATOM     92  O   UNL A   1      43.136  22.190  27.215  1.00  0.00    -0.744 OA
ENDBRANCH  86  89
ENDBRANCH  58  82
BRANCH  70  93
ATOM     93  C   UNL A   1      44.625  27.202  34.157  1.00  0.00     0.023 A 
ATOM     94  C   UNL A   1      45.875  27.850  34.113  1.00  0.00     0.012 A 
ATOM     95  C   UNL A   1      44.454  26.073  34.981  1.00  0.00     0.148 A 
ATOM     96  C   UNL A   1      46.944  27.370  34.865  1.00  0.00     0.002 A 
ATOM     97  C   UNL A   1      45.513  25.626  35.762  1.00  0.00     0.091 A 
ATOM     98  F   UNL A   1      43.259  25.464  34.992  1.00  0.00    -0.205 F 
ATOM     99  C   UNL A   1      46.760  26.268  35.699  1.00  0.00     0.022 A 
BRANCH  97 100
ATOM    100  S   UNL A   1      45.341  24.277  36.933  1.00  0.00     0.127 S 
ATOM    101  O   UNL A   1      45.003  23.159  36.054  1.00  0.00    -0.237 OA
ATOM    102  O   UNL A   1      46.679  24.204  37.524  1.00  0.00    -0.237 OA
ATOM    103  O   UNL A   1      44.294  24.682  37.862  1.00  0.00    -0.744 OA
ENDBRANCH  97 100
ENDBRANCH  70  93
ENDBRANCH  44  45
ENDBRANCH  36  39
ENDBRANCH  34  35
ENDBRANCH   1  34
TORSDOF 17
ENDMDL
MODEL 2
REMARK VINA RESULT:     -13.6      1.233      1.455
REMARK SMILES Cc1[nH]c2ccccc2c1[C@H](C(=O)NCCCCNC(=O)c1ccc(-c2c3nc(c(-c4cccc(S(=O)(=O)[O-])c4F)c4ccc([nH]4)c(-c4cccc(S(=O)(=O)[O-])c4F)c4nc(c(-c5cccc(S(=O)(=O)[O-])c5F)c5ccc2[nH]5)C=C4)C=C3)cc1)[NH+]1CCN(C(=O)c2ccco2)CC1
REMARK SMILES IDX 17 1 16 2 15 3 14 4 12 5 13 6 11 8 10 9 1 10 2 11 3 12 4 13
REMARK SMILES IDX 9 15 5 16 8 17 6 18 7 19 85 20 86 21 97 22 87 24 96 25 88 26
REMARK SMILES IDX 89 27 90 28 91 29 92 30 95 31 93 32 94 33 18 34 19 35 20 36
REMARK SMILES IDX 21 38 22 39 23 40 84 41 24 42 83 43 25 44 26 45 27 46 77 47
REMARK SMILES IDX 28 48 82 49 76 50 78 51 29 52 81 53 75 54 74 55 30 57 62 58
REMARK SMILES IDX 42 59 61 60 43 61 46 62 60 63 79 64 44 65 45 66 59 68 80 69
REMARK SMILES IDX 47 70 31 71 32 72 40 73 33 74 35 75 41 76 34 77 36 78 37 79
REMARK SMILES IDX 38 80 39 81 63 82 64 83 72 84 65 85 67 86 73 87 66 88 68 89
REMARK SMILES IDX 69 90 70 91 71 92 48 93 49 94 57 95 50 96 52 97 58 98 51 99
REMARK SMILES IDX 53 100 54 101 55 102 56 103
REMARK H PARENT 14 7 3 14 85 23 19 37 78 56 46 67
REMARK Flexibility Score: inf
ROOT
ATOM      1  C   UNL A   1      31.543  29.977  26.219  1.00  0.00     0.023 C 
ENDROOT
BRANCH   1   2
ATOM      2  C   UNL A   1      31.506  28.854  27.241  1.00  0.00     0.023 C 
BRANCH   2   3
ATOM      3  C   UNL A   1      32.222  27.592  26.780  1.00  0.00     0.116 C 
BRANCH   3   4
ATOM      4  N   UNL A   1      31.351  26.434  26.757  1.00  0.00    -0.351 N 
ATOM      5  C   UNL A   1      31.077  25.568  25.730  1.00  0.00     0.283 C 
ATOM      6  O   UNL A   1      30.314  24.627  25.976  1.00  0.00    -0.268 OA
ATOM      7  H   UNL A   1      30.886  26.241  27.603  1.00  0.00     0.163 HD
BRANCH   5   8
ATOM      8  C   UNL A   1      31.704  25.721  24.316  1.00  0.00     0.308 C 
BRANCH   8   9
ATOM      9  C   UNL A   1      31.489  27.121  23.735  1.00  0.00     0.047 A 
ATOM     10  C   UNL A   1      34.009  27.833  23.444  1.00  0.00     0.065 C 
ATOM     11  C   UNL A   1      32.527  27.969  23.333  1.00  0.00     0.022 A 
ATOM     12  N   UNL A   1      31.975  29.015  22.641  1.00  0.00    -0.358 N 
ATOM     13  C   UNL A   1      30.608  28.942  22.664  1.00  0.00     0.046 A 
ATOM     14  H   UNL A   1      32.491  29.722  22.190  1.00  0.00     0.166 HD
ATOM     15  C   UNL A   1      30.265  27.823  23.428  1.00  0.00     0.009 A 
ATOM     16  C   UNL A   1      29.662  29.777  22.056  1.00  0.00     0.027 A 
ATOM     17  C   UNL A   1      28.892  27.589  23.656  1.00  0.00     0.011 A 
ATOM     18  C   UNL A   1      28.313  29.498  22.277  1.00  0.00     0.002 A 
ATOM     19  C   UNL A   1      27.931  28.434  23.085  1.00  0.00     0.001 A 
ENDBRANCH   8   9
BRANCH   8  20
ATOM     20  N   UNL A   1      33.096  25.194  24.191  1.00  0.00    -0.318 N 
ATOM     21  C   UNL A   1      33.887  24.984  25.417  1.00  0.00     0.285 C 
ATOM     22  C   UNL A   1      33.176  23.963  23.381  1.00  0.00     0.285 C 
ATOM     23  H   UNL A   1      33.530  25.990  23.723  1.00  0.00     0.349 HD
ATOM     24  C   UNL A   1      33.610  23.697  26.221  1.00  0.00     0.181 C 
ATOM     25  C   UNL A   1      32.822  22.650  24.104  1.00  0.00     0.181 C 
ATOM     26  N   UNL A   1      33.487  22.493  25.401  1.00  0.00    -0.325 N 
ATOM     27  C   UNL A   1      33.504  21.270  26.099  1.00  0.00     0.289 C 
ATOM     28  O   UNL A   1      33.601  21.253  27.327  1.00  0.00    -0.265 OA
BRANCH  27  29
ATOM     29  C   UNL A   1      33.452  20.044  25.327  1.00  0.00     0.191 A 
ATOM     30  C   UNL A   1      34.425  19.324  24.655  1.00  0.00     0.056 A 
ATOM     31  O   UNL A   1      32.265  19.363  25.258  1.00  0.00    -0.459 OA
ATOM     32  C   UNL A   1      33.797  18.168  24.134  1.00  0.00     0.043 A 
ATOM     33  C   UNL A   1      32.482  18.241  24.527  1.00  0.00     0.196 A 
ENDBRANCH  27  29
ENDBRANCH   8  20
ENDBRANCH   5   8
ENDBRANCH   3   4
ENDBRANCH   2   3
ENDBRANCH   1   2
BRANCH   1  34
ATOM     34  C   UNL A   1      32.824  30.796  26.246  1.00  0.00     0.116 C 
BRANCH  34  35
ATOM     35  N   UNL A   1      32.661  32.111  26.871  1.00  0.00    -0.352 N 
ATOM     36  C   UNL A   1      33.549  32.748  27.708  1.00  0.00     0.251 C 
ATOM     37  H   UNL A   1      31.825  32.591  26.670  1.00  0.00     0.163 HD
ATOM     38  O   UNL A   1      33.287  33.806  28.257  1.00  0.00    -0.269 OA
BRANCH  36  39
ATOM     39  C   UNL A   1      34.833  32.062  27.929  1.00  0.00     0.039 A 
ATOM     40  C   UNL A   1      35.987  32.828  28.107  1.00  0.00     0.014 A 
ATOM     41  C   UNL A   1      34.801  30.701  28.234  1.00  0.00     0.014 A 
ATOM     42  C   UNL A   1      37.108  32.232  28.682  1.00  0.00     0.010 A 
ATOM     43  C   UNL A   1      35.883  30.144  28.896  1.00  0.00     0.010 A 
ATOM     44  C   UNL A   1      37.043  30.901  29.129  1.00  0.00    -0.014 A 
BRANCH  44  45
ATOM     45  C   UNL A   1      38.168  30.263  29.856  1.00  0.00     0.031 A 
ATOM     46  C   UNL A   1      38.434  30.662  31.282  1.00  0.00     0.074 A 
ATOM     47  C   UNL A   1      39.021  29.446  29.204  1.00  0.00     0.049 A 
ATOM     48  N   UNL A   1      39.440  30.350  32.052  1.00  0.00    -0.248 NA
ATOM     49  C   UNL A   1      37.463  31.581  31.904  1.00  0.00     0.031 C 
ATOM     50  C   UNL A   1      38.929  29.069  27.792  1.00  0.00     0.029 A 
ATOM     51  N   UNL A   1      40.157  28.809  29.640  1.00  0.00    -0.354 N 
ATOM     52  C   UNL A   1      39.260  31.083  33.217  1.00  0.00     0.074 A 
ATOM     53  C   UNL A   1      38.073  31.887  33.038  1.00  0.00     0.031 C 
ATOM     54  C   UNL A   1      39.959  28.265  27.480  1.00  0.00     0.029 A 
ATOM     55  C   UNL A   1      40.800  28.089  28.659  1.00  0.00     0.049 A 
ATOM     56  H   UNL A   1      40.482  28.864  30.568  1.00  0.00     0.167 HD
ATOM     57  C   UNL A   1      39.992  31.060  34.354  1.00  0.00     0.034 A 
ATOM     58  C   UNL A   1      41.940  27.371  28.709  1.00  0.00     0.034 A 
ATOM     59  C   UNL A   1      41.108  30.180  34.559  1.00  0.00     0.049 A 
ATOM     60  C   UNL A   1      42.682  27.280  30.018  1.00  0.00     0.074 A 
ATOM     61  C   UNL A   1      41.829  29.962  35.718  1.00  0.00     0.029 A 
ATOM     62  N   UNL A   1      41.656  29.365  33.582  1.00  0.00    -0.354 N 
ATOM     63  N   UNL A   1      42.390  27.836  31.169  1.00  0.00    -0.248 NA
ATOM     64  C   UNL A   1      43.889  26.441  30.045  1.00  0.00     0.031 C 
ATOM     65  C   UNL A   1      42.819  29.015  35.440  1.00  0.00     0.029 A 
ATOM     66  C   UNL A   1      42.711  28.644  34.109  1.00  0.00     0.049 A 
ATOM     67  H   UNL A   1      41.343  29.309  32.650  1.00  0.00     0.167 HD
ATOM     68  C   UNL A   1      43.360  27.396  32.063  1.00  0.00     0.074 A 
ATOM     69  C   UNL A   1      44.233  26.505  31.325  1.00  0.00     0.031 C 
ATOM     70  C   UNL A   1      43.529  27.717  33.369  1.00  0.00     0.034 A 
BRANCH  57  71
ATOM     71  C   UNL A   1      39.551  31.946  35.486  1.00  0.00     0.023 A 
ATOM     72  C   UNL A   1      39.951  33.298  35.502  1.00  0.00     0.012 A 
ATOM     73  C   UNL A   1      38.721  31.457  36.512  1.00  0.00     0.148 A 
ATOM     74  C   UNL A   1      39.567  34.141  36.543  1.00  0.00     0.002 A 
ATOM     75  C   UNL A   1      38.304  32.317  37.523  1.00  0.00     0.091 A 
ATOM     76  F   UNL A   1      38.371  30.164  36.494  1.00  0.00    -0.205 F 
ATOM     77  C   UNL A   1      38.736  33.653  37.547  1.00  0.00     0.022 A 
BRANCH  75  78
ATOM     78  S   UNL A   1      37.172  31.808  38.821  1.00  0.00     0.127 S 
ATOM     79  O   UNL A   1      36.909  30.417  38.456  1.00  0.00    -0.237 OA
ATOM     80  O   UNL A   1      37.987  31.978  40.025  1.00  0.00    -0.237 OA
ATOM     81  O   UNL A   1      36.030  32.707  38.731  1.00  0.00    -0.744 OA
ENDBRANCH  75  78
ENDBRANCH  57  71
BRANCH  58  82
ATOM     82  C   UNL A   1      42.403  26.614  27.511  1.00  0.00     0.023 A 
ATOM     83  C   UNL A   1      43.192  27.274  26.547  1.00  0.00     0.012 A 
ATOM     84  C   UNL A   1      42.102  25.250  27.329  1.00  0.00     0.148 A 
ATOM     85  C   UNL A   1      43.648  26.600  25.414  1.00  0.00     0.002 A 
ATOM     86  C   UNL A   1      42.602  24.571  26.223  1.00  0.00     0.091 A 
ATOM     87  F   UNL A   1      41.336  24.641  28.246  1.00  0.00    -0.205 F 
ATOM     88  C   UNL A   1      43.362  25.247  25.256  1.00  0.00     0.022 A 
BRANCH  86  89
ATOM     89  S   UNL A   1      42.394  22.798  26.013  1.00  0.00     0.127 S 
ATOM     90  O   UNL A   1      43.010  22.575  24.709  1.00  0.00    -0.237 OA
ATOM     91  O   UNL A   1      43.145  22.264  27.151  1.00  0.00    -0.237 OA
ATOM     92  O   UNL A   1      40.957  22.567  26.091  1.00  0.00    -0.744 OA
ENDBRANCH  86  89
ENDBRANCH  58  82
BRANCH  70  93
ATOM     93  C   UNL A   1      44.691  27.098  34.097  1.00  0.00     0.023 A 
ATOM     94  C   UNL A   1      45.909  27.799  34.174  1.00  0.00     0.012 A 
ATOM     95  C   UNL A   1      44.541  25.884  34.795  1.00  0.00     0.148 A 
ATOM     96  C   UNL A   1      46.970  27.292  34.920  1.00  0.00     0.002 A 
ATOM     97  C   UNL A   1      45.589  25.406  35.573  1.00  0.00     0.091 A 
ATOM     98  F   UNL A   1      43.376  25.226  34.693  1.00  0.00    -0.205 F 
ATOM     99  C   UNL A   1      46.806  26.104  35.630  1.00  0.00     0.022 A 
BRANCH  97 100
ATOM    100  S   UNL A   1      45.435  23.937  36.594  1.00  0.00     0.127 S 
ATOM    101  O   UNL A   1      44.647  23.056  35.735  1.00  0.00    -0.237 OA
ATOM    102  O   UNL A   1      46.831  23.531  36.768  1.00  0.00    -0.237 OA
ATOM    103  O   UNL A   1      44.776  24.368  37.820  1.00  0.00    -0.744 OA
ENDBRANCH  97 100
ENDBRANCH  70  93
ENDBRANCH  44  45
ENDBRANCH  36  39
ENDBRANCH  34  35
ENDBRANCH   1  34
TORSDOF 17
ENDMDL
MODEL 3
REMARK VINA RESULT:     -13.5      1.440      7.354
REMARK SMILES Cc1[nH]c2ccccc2c1[C@H](C(=O)NCCCCNC(=O)c1ccc(-c2c3nc(c(-c4cccc(S(=O)(=O)[O-])c4F)c4ccc([nH]4)c(-c4cccc(S(=O)(=O)[O-])c4F)c4nc(c(-c5cccc(S(=O)(=O)[O-])c5F)c5ccc2[nH]5)C=C4)C=C3)cc1)[NH+]1CCN(C(=O)c2ccco2)CC1
REMARK SMILES IDX 17 1 16 2 15 3 14 4 12 5 13 6 11 8 10 9 1 10 2 11 3 12 4 13
REMARK SMILES IDX 9 15 5 16 8 17 6 18 7 19 85 20 86 21 97 22 87 24 96 25 88 26
REMARK SMILES IDX 89 27 90 28 91 29 92 30 95 31 93 32 94 33 18 34 19 35 20 36
REMARK SMILES IDX 21 38 22 39 23 40 84 41 24 42 83 43 25 44 26 45 27 46 77 47
REMARK SMILES IDX 28 48 82 49 76 50 78 51 29 52 81 53 75 54 74 55 30 57 62 58
REMARK SMILES IDX 42 59 61 60 43 61 46 62 60 63 79 64 44 65 45 66 59 68 80 69
REMARK SMILES IDX 47 70 31 71 32 72 40 73 33 74 35 75 41 76 34 77 36 78 37 79
REMARK SMILES IDX 38 80 39 81 63 82 64 83 72 84 65 85 67 86 73 87 66 88 68 89
REMARK SMILES IDX 69 90 70 91 71 92 48 93 49 94 57 95 50 96 52 97 58 98 51 99
REMARK SMILES IDX 53 100 54 101 55 102 56 103
REMARK H PARENT 14 7 3 14 85 23 19 37 78 56 46 67
REMARK Flexibility Score: inf
ROOT
ATOM      1  C   UNL A   1      31.417  30.029  26.602  1.00  0.00     0.023 C 
ENDROOT
BRANCH   1   2
ATOM      2  C   UNL A   1      31.769  28.873  27.523  1.00  0.00     0.023 C 
BRANCH   2   3
ATOM      3  C   UNL A   1      32.319  27.660  26.787  1.00  0.00     0.116 C 
BRANCH   3   4
ATOM      4  N   UNL A   1      31.388  26.550  26.766  1.00  0.00    -0.351 N 
ATOM      5  C   UNL A   1      31.062  25.702  25.739  1.00  0.00     0.283 C 
ATOM      6  O   UNL A   1      30.250  24.804  25.987  1.00  0.00    -0.268 OA
ATOM      7  H   UNL A   1      30.918  26.380  27.615  1.00  0.00     0.163 HD
BRANCH   5   8
ATOM      8  C   UNL A   1      31.688  25.826  24.322  1.00  0.00     0.308 C 
BRANCH   8   9
ATOM      9  C   UNL A   1      31.473  27.214  23.712  1.00  0.00     0.047 A 
ATOM     10  C   UNL A   1      33.993  27.925  23.424  1.00  0.00     0.065 C 
ATOM     11  C   UNL A   1      32.512  28.055  23.300  1.00  0.00     0.022 A 
ATOM     12  N   UNL A   1      31.963  29.087  22.584  1.00  0.00    -0.358 N 
ATOM     13  C   UNL A   1      30.595  29.011  22.600  1.00  0.00     0.046 A 
ATOM     14  H   UNL A   1      32.480  29.786  22.123  1.00  0.00     0.166 HD
ATOM     15  C   UNL A   1      30.250  27.907  23.383  1.00  0.00     0.009 A 
ATOM     16  C   UNL A   1      29.652  29.832  21.969  1.00  0.00     0.027 A 
ATOM     17  C   UNL A   1      28.876  27.674  23.607  1.00  0.00     0.011 A 
ATOM     18  C   UNL A   1      28.301  29.555  22.187  1.00  0.00     0.002 A 
ATOM     19  C   UNL A   1      27.917  28.505  23.014  1.00  0.00     0.001 A 
ENDBRANCH   8   9
BRANCH   8  20
ATOM     20  N   UNL A   1      33.079  25.295  24.207  1.00  0.00    -0.318 N 
ATOM     21  C   UNL A   1      33.857  25.073  25.439  1.00  0.00     0.285 C 
ATOM     22  C   UNL A   1      33.163  24.070  23.389  1.00  0.00     0.285 C 
ATOM     23  H   UNL A   1      33.520  26.093  23.749  1.00  0.00     0.349 HD
ATOM     24  C   UNL A   1      33.568  23.781  26.231  1.00  0.00     0.181 C 
ATOM     25  C   UNL A   1      32.798  22.753  24.099  1.00  0.00     0.181 C 
ATOM     26  N   UNL A   1      33.450  22.584  25.401  1.00  0.00    -0.325 N 
ATOM     27  C   UNL A   1      33.455  21.356  26.090  1.00  0.00     0.289 C 
ATOM     28  O   UNL A   1      33.540  21.330  27.319  1.00  0.00    -0.265 OA
BRANCH  27  29
ATOM     29  C   UNL A   1      33.407  20.136  25.309  1.00  0.00     0.191 A 
ATOM     30  C   UNL A   1      34.386  19.413  24.649  1.00  0.00     0.056 A 
ATOM     31  O   UNL A   1      32.216  19.465  25.215  1.00  0.00    -0.459 OA
ATOM     32  C   UNL A   1      33.758  18.266  24.109  1.00  0.00     0.043 A 
ATOM     33  C   UNL A   1      32.437  18.346  24.481  1.00  0.00     0.196 A 
ENDBRANCH  27  29
ENDBRANCH   8  20
ENDBRANCH   5   8
ENDBRANCH   3   4
ENDBRANCH   2   3
ENDBRANCH   1   2
BRANCH   1  34
ATOM     34  C   UNL A   1      32.567  30.991  26.349  1.00  0.00     0.116 C 
BRANCH  34  35
ATOM     35  N   UNL A   1      32.332  32.334  26.883  1.00  0.00    -0.352 N 
ATOM     36  C   UNL A   1      33.178  33.068  27.685  1.00  0.00     0.251 C 
ATOM     37  H   UNL A   1      31.476  32.757  26.644  1.00  0.00     0.163 HD
ATOM     38  O   UNL A   1      32.857  34.145  28.160  1.00  0.00    -0.269 OA
BRANCH  36  39
ATOM     39  C   UNL A   1      34.491  32.464  27.962  1.00  0.00     0.039 A 
ATOM     40  C   UNL A   1      35.621  33.284  27.988  1.00  0.00     0.014 A 
ATOM     41  C   UNL A   1      34.517  31.161  28.463  1.00  0.00     0.014 A 
ATOM     42  C   UNL A   1      36.778  32.814  28.608  1.00  0.00     0.010 A 
ATOM     43  C   UNL A   1      35.635  30.742  29.164  1.00  0.00     0.010 A 
ATOM     44  C   UNL A   1      36.774  31.563  29.247  1.00  0.00    -0.014 A 
BRANCH  44  45
ATOM     45  C   UNL A   1      37.940  31.074  30.022  1.00  0.00     0.031 A 
ATOM     46  C   UNL A   1      38.864  30.069  29.391  1.00  0.00     0.074 A 
ATOM     47  C   UNL A   1      38.088  31.420  31.317  1.00  0.00     0.049 A 
ATOM     48  N   UNL A   1      39.847  29.400  29.929  1.00  0.00    -0.248 NA
ATOM     49  C   UNL A   1      38.610  29.730  27.978  1.00  0.00     0.031 C 
ATOM     50  C   UNL A   1      37.195  32.304  32.071  1.00  0.00     0.029 A 
ATOM     51  N   UNL A   1      39.030  31.040  32.242  1.00  0.00    -0.354 N 
ATOM     52  C   UNL A   1      40.281  28.518  28.948  1.00  0.00     0.074 A 
ATOM     53  C   UNL A   1      39.429  28.707  27.796  1.00  0.00     0.031 C 
ATOM     54  C   UNL A   1      37.635  32.403  33.337  1.00  0.00     0.029 A 
ATOM     55  C   UNL A   1      38.823  31.571  33.495  1.00  0.00     0.049 A 
ATOM     56  H   UNL A   1      39.783  30.443  32.028  1.00  0.00     0.167 HD
ATOM     57  C   UNL A   1      41.324  27.658  28.984  1.00  0.00     0.034 A 
ATOM     58  C   UNL A   1      39.513  31.399  34.640  1.00  0.00     0.034 A 
ATOM     59  C   UNL A   1      42.227  27.555  30.095  1.00  0.00     0.049 A 
ATOM     60  C   UNL A   1      40.732  30.513  34.625  1.00  0.00     0.074 A 
ATOM     61  C   UNL A   1      43.400  26.829  30.184  1.00  0.00     0.029 A 
ATOM     62  N   UNL A   1      42.060  28.205  31.307  1.00  0.00    -0.354 N 
ATOM     63  N   UNL A   1      41.239  29.828  33.628  1.00  0.00    -0.248 NA
ATOM     64  C   UNL A   1      41.490  30.398  35.880  1.00  0.00     0.031 C 
ATOM     65  C   UNL A   1      43.943  27.039  31.455  1.00  0.00     0.029 A 
ATOM     66  C   UNL A   1      43.108  27.896  32.154  1.00  0.00     0.049 A 
ATOM     67  H   UNL A   1      41.307  28.798  31.532  1.00  0.00     0.167 HD
ATOM     68  C   UNL A   1      42.387  29.222  34.126  1.00  0.00     0.074 A 
ATOM     69  C   UNL A   1      42.515  29.643  35.507  1.00  0.00     0.031 C 
ATOM     70  C   UNL A   1      43.245  28.375  33.506  1.00  0.00     0.034 A 
BRANCH  57  71
ATOM     71  C   UNL A   1      41.589  26.833  27.756  1.00  0.00     0.023 A 
ATOM     72  C   UNL A   1      42.144  27.450  26.616  1.00  0.00     0.012 A 
ATOM     73  C   UNL A   1      41.323  25.451  27.734  1.00  0.00     0.148 A 
ATOM     74  C   UNL A   1      42.392  26.714  25.459  1.00  0.00     0.002 A 
ATOM     75  C   UNL A   1      41.616  24.714  26.592  1.00  0.00     0.091 A 
ATOM     76  F   UNL A   1      40.772  24.887  28.818  1.00  0.00    -0.205 F 
ATOM     77  C   UNL A   1      42.137  25.346  25.450  1.00  0.00     0.022 A 
BRANCH  75  78
ATOM     78  S   UNL A   1      41.397  22.934  26.504  1.00  0.00     0.127 S 
ATOM     79  O   UNL A   1      39.950  22.823  26.329  1.00  0.00    -0.237 OA
ATOM     80  O   UNL A   1      42.182  22.585  25.319  1.00  0.00    -0.237 OA
ATOM     81  O   UNL A   1      41.920  22.405  27.755  1.00  0.00    -0.744 OA
ENDBRANCH  75  78
ENDBRANCH  57  71
BRANCH  58  82
ATOM     82  C   UNL A   1      39.123  32.147  35.870  1.00  0.00     0.023 A 
ATOM     83  C   UNL A   1      39.568  33.474  36.034  1.00  0.00     0.012 A 
ATOM     84  C   UNL A   1      38.296  31.577  36.857  1.00  0.00     0.148 A 
ATOM     85  C   UNL A   1      39.221  34.208  37.168  1.00  0.00     0.002 A 
ATOM     86  C   UNL A   1      37.911  32.332  37.961  1.00  0.00     0.091 A 
ATOM     87  F   UNL A   1      37.894  30.308  36.695  1.00  0.00    -0.205 F 
ATOM     88  C   UNL A   1      38.386  33.642  38.126  1.00  0.00     0.022 A 
BRANCH  86  89
ATOM     89  S   UNL A   1      36.731  31.725  39.172  1.00  0.00     0.127 S 
ATOM     90  O   UNL A   1      37.434  31.970  40.427  1.00  0.00    -0.237 OA
ATOM     91  O   UNL A   1      35.574  32.590  38.934  1.00  0.00    -0.237 OA
ATOM     92  O   UNL A   1      36.507  30.327  38.825  1.00  0.00    -0.744 OA
ENDBRANCH  86  89
ENDBRANCH  58  82
BRANCH  70  93
ATOM     93  C   UNL A   1      44.409  27.851  34.302  1.00  0.00     0.023 A 
ATOM     94  C   UNL A   1      45.593  28.611  34.373  1.00  0.00     0.012 A 
ATOM     95  C   UNL A   1      44.291  26.673  35.064  1.00  0.00     0.148 A 
ATOM     96  C   UNL A   1      46.651  28.195  35.178  1.00  0.00     0.002 A 
ATOM     97  C   UNL A   1      45.334  26.288  35.898  1.00  0.00     0.091 A 
ATOM     98  F   UNL A   1      43.160  25.958  34.966  1.00  0.00    -0.205 F 
ATOM     99  C   UNL A   1      46.516  27.043  35.950  1.00  0.00     0.022 A 
BRANCH  97 100
ATOM    100  S   UNL A   1      45.213  24.874  36.998  1.00  0.00     0.127 S 
ATOM    101  O   UNL A   1      46.506  24.913  37.677  1.00  0.00    -0.237 OA
ATOM    102  O   UNL A   1      44.070  25.230  37.840  1.00  0.00    -0.237 OA
ATOM    103  O   UNL A   1      44.991  23.717  36.141  1.00  0.00    -0.744 OA
ENDBRANCH  97 100
ENDBRANCH  70  93
ENDBRANCH  44  45
ENDBRANCH  36  39
ENDBRANCH  34  35
ENDBRANCH   1  34
TORSDOF 17
ENDMDL
