MODEL 1
REMARK VINA RESULT:     -10.8      0.000      0.000
REMARK SMILES CCc1nsc(NC[C@H](CC(C)C)C(=O)NCCCCNC(=O)c2ccc(-c3c4nc(c(-c5cccc(S(=O)(=O)[O-])c5F)c5ccc([nH]5)c(-c5cccc(S(=O)(=O)[O-])c5F)c5nc(c(-c6cccc(S(=O)(=O)[O-])c6F)c6ccc3[nH]6)C=C5)C=C4)cc2)n1
REMARK SMILES IDX 18 1 17 2 16 3 14 4 15 5 9 7 8 8 7 9 6 11 3 12 4 13 87 14
REMARK SMILES IDX 5 15 2 16 1 17 10 18 11 19 12 20 13 21 19 22 20 23 21 24
REMARK SMILES IDX 22 25 23 27 24 28 25 29 86 30 26 31 85 32 27 33 28 34 29 35
REMARK SMILES IDX 79 36 30 37 84 38 78 39 80 40 31 41 83 42 77 43 76 44 32 46
REMARK SMILES IDX 64 47 44 48 63 49 45 50 48 51 62 52 81 53 46 54 47 55 61 57
REMARK SMILES IDX 82 58 49 59 33 60 34 61 42 62 35 63 37 64 43 65 36 66 38 67
REMARK SMILES IDX 39 68 40 69 41 70 65 71 66 72 74 73 67 74 69 75 75 76 68 77
REMARK SMILES IDX 70 78 71 79 72 80 73 81 50 82 51 83 59 84 52 85 54 86 60 87
REMARK SMILES IDX 53 88 55 89 56 90 57 91 58 92
REMARK H PARENT 16 6 7 10 21 26 80 45 48 56
REMARK Flexibility Score: inf
ROOT
ATOM      1  C   UNL A   1      31.853  27.739  26.951  1.00  0.00     0.023 C 
ENDROOT
BRANCH   1   2
ATOM      2  C   UNL A   1      31.812  26.527  26.027  1.00  0.00     0.116 C 
BRANCH   2   3
ATOM      3  N   UNL A   1      31.586  25.276  26.726  1.00  0.00    -0.356 N 
ATOM      4  C   UNL A   1      32.224  24.079  26.589  1.00  0.00     0.224 C 
ATOM      5  O   UNL A   1      31.930  23.165  27.361  1.00  0.00    -0.275 OA
ATOM      6  H   UNL A   1      30.867  25.294  27.399  1.00  0.00     0.163 HD
BRANCH   4   7
ATOM      7  C   UNL A   1      33.304  23.868  25.525  1.00  0.00     0.098 C 
BRANCH   7   8
ATOM      8  C   UNL A   1      32.680  23.153  24.299  1.00  0.00     0.128 C 
BRANCH   8   9
ATOM      9  N   UNL A   1      31.847  22.007  24.612  1.00  0.00    -0.359 N 
ATOM     10  H   UNL A   1      30.896  22.172  24.807  1.00  0.00     0.162 HD
BRANCH   9  11
ATOM     11  C   UNL A   1      32.282  20.729  24.656  1.00  0.00     0.202 A 
ATOM     12  C   UNL A   1      32.877  18.738  23.905  1.00  0.00     0.144 A 
ATOM     13  N   UNL A   1      33.280  18.514  25.156  1.00  0.00    -0.174 NA
ATOM     14  N   UNL A   1      32.278  19.957  23.593  1.00  0.00    -0.204 NA
ATOM     15  S   UNL A   1      32.921  19.886  26.027  1.00  0.00     0.004 S 
BRANCH  12  16
ATOM     16  C   UNL A   1      33.062  17.733  22.814  1.00  0.00     0.075 C 
ATOM     17  C   UNL A   1      34.040  16.609  23.121  1.00  0.00     0.012 C 
ENDBRANCH  12  16
ENDBRANCH   9  11
ENDBRANCH   8   9
ENDBRANCH   7   8
BRANCH   7  18
ATOM     18  C   UNL A   1      34.610  23.330  26.155  1.00  0.00     0.018 C 
BRANCH  18  19
ATOM     19  C   UNL A   1      35.762  23.116  25.149  1.00  0.00    -0.017 C 
ATOM     20  C   UNL A   1      37.077  23.743  25.619  1.00  0.00     0.007 C 
ATOM     21  C   UNL A   1      35.967  21.614  24.925  1.00  0.00     0.007 C 
ENDBRANCH  18  19
ENDBRANCH   7  18
ENDBRANCH   4   7
ENDBRANCH   2   3
ENDBRANCH   1   2
BRANCH   1  22
ATOM     22  C   UNL A   1      31.461  29.061  26.298  1.00  0.00     0.023 C 
BRANCH  22  23
ATOM     23  C   UNL A   1      32.596  30.059  26.102  1.00  0.00     0.116 C 
BRANCH  23  24
ATOM     24  N   UNL A   1      32.264  31.415  26.521  1.00  0.00    -0.352 N 
ATOM     25  C   UNL A   1      33.010  32.274  27.295  1.00  0.00     0.251 C 
ATOM     26  H   UNL A   1      31.395  31.760  26.211  1.00  0.00     0.163 HD
ATOM     27  O   UNL A   1      32.551  33.356  27.652  1.00  0.00    -0.269 OA
BRANCH  25  28
ATOM     28  C   UNL A   1      34.359  31.855  27.726  1.00  0.00     0.039 A 
ATOM     29  C   UNL A   1      35.350  32.824  27.899  1.00  0.00     0.014 A 
ATOM     30  C   UNL A   1      34.608  30.518  28.044  1.00  0.00     0.014 A 
ATOM     31  C   UNL A   1      36.566  32.465  28.484  1.00  0.00     0.010 A 
ATOM     32  C   UNL A   1      35.791  30.178  28.688  1.00  0.00     0.010 A 
ATOM     33  C   UNL A   1      36.776  31.150  28.928  1.00  0.00    -0.014 A 
BRANCH  33  34
ATOM     34  C   UNL A   1      37.995  30.761  29.682  1.00  0.00     0.031 A 
ATOM     35  C   UNL A   1      38.963  29.776  29.088  1.00  0.00     0.074 A 
ATOM     36  C   UNL A   1      38.158  31.189  30.950  1.00  0.00     0.049 A 
ATOM     37  N   UNL A   1      40.002  29.207  29.639  1.00  0.00    -0.248 NA
ATOM     38  C   UNL A   1      38.708  29.349  27.702  1.00  0.00     0.031 C 
ATOM     39  C   UNL A   1      37.244  32.080  31.669  1.00  0.00     0.029 A 
ATOM     40  N   UNL A   1      39.131  30.899  31.875  1.00  0.00    -0.354 N 
ATOM     41  C   UNL A   1      40.495  28.321  28.690  1.00  0.00     0.074 A 
ATOM     42  C   UNL A   1      39.629  28.410  27.535  1.00  0.00     0.031 C 
ATOM     43  C   UNL A   1      37.697  32.259  32.921  1.00  0.00     0.029 A 
ATOM     44  C   UNL A   1      38.914  31.476  33.105  1.00  0.00     0.049 A 
ATOM     45  H   UNL A   1      39.911  30.331  31.677  1.00  0.00     0.167 HD
ATOM     46  C   UNL A   1      41.587  27.525  28.762  1.00  0.00     0.034 A 
ATOM     47  C   UNL A   1      39.612  31.378  34.254  1.00  0.00     0.034 A 
ATOM     48  C   UNL A   1      42.487  27.492  29.881  1.00  0.00     0.049 A 
ATOM     49  C   UNL A   1      40.861  30.539  34.284  1.00  0.00     0.074 A 
ATOM     50  C   UNL A   1      43.679  26.799  30.007  1.00  0.00     0.029 A 
ATOM     51  N   UNL A   1      42.299  28.184  31.067  1.00  0.00    -0.354 N 
ATOM     52  N   UNL A   1      41.400  29.833  33.320  1.00  0.00    -0.248 NA
ATOM     53  C   UNL A   1      41.616  30.510  35.545  1.00  0.00     0.031 C 
ATOM     54  C   UNL A   1      44.211  27.072  31.271  1.00  0.00     0.029 A 
ATOM     55  C   UNL A   1      43.352  27.937  31.931  1.00  0.00     0.049 A 
ATOM     56  H   UNL A   1      41.530  28.766  31.266  1.00  0.00     0.167 HD
ATOM     57  C   UNL A   1      42.573  29.304  33.846  1.00  0.00     0.074 A 
ATOM     58  C   UNL A   1      42.675  29.784  35.209  1.00  0.00     0.031 C 
ATOM     59  C   UNL A   1      43.474  28.479  33.259  1.00  0.00     0.034 A 
BRANCH  46  60
ATOM     60  C   UNL A   1      41.914  26.680  27.561  1.00  0.00     0.023 A 
ATOM     61  C   UNL A   1      42.532  27.281  26.445  1.00  0.00     0.012 A 
ATOM     62  C   UNL A   1      41.663  25.295  27.552  1.00  0.00     0.148 A 
ATOM     63  C   UNL A   1      42.868  26.522  25.325  1.00  0.00     0.002 A 
ATOM     64  C   UNL A   1      42.037  24.537  26.446  1.00  0.00     0.091 A 
ATOM     65  F   UNL A   1      41.052  24.746  28.610  1.00  0.00    -0.205 F 
ATOM     66  C   UNL A   1      42.630  25.151  25.330  1.00  0.00     0.022 A 
BRANCH  64  67
ATOM     67  S   UNL A   1      41.835  22.753  26.393  1.00  0.00     0.127 S 
ATOM     68  O   UNL A   1      40.379  22.621  26.380  1.00  0.00    -0.237 OA
ATOM     69  O   UNL A   1      42.488  22.403  25.131  1.00  0.00    -0.237 OA
ATOM     70  O   UNL A   1      42.505  22.242  27.579  1.00  0.00    -0.744 OA
ENDBRANCH  64  67
ENDBRANCH  46  60
BRANCH  47  71
ATOM     71  C   UNL A   1      39.188  32.162  35.449  1.00  0.00     0.023 A 
ATOM     72  C   UNL A   1      38.323  31.563  36.387  1.00  0.00     0.012 A 
ATOM     73  C   UNL A   1      39.660  33.466  35.687  1.00  0.00     0.148 A 
ATOM     74  C   UNL A   1      37.917  32.259  37.526  1.00  0.00     0.002 A 
ATOM     75  C   UNL A   1      39.292  34.135  36.850  1.00  0.00     0.091 A 
ATOM     76  F   UNL A   1      40.468  34.027  34.775  1.00  0.00    -0.205 F 
ATOM     77  C   UNL A   1      38.409  33.538  37.763  1.00  0.00     0.022 A 
BRANCH  75  78
ATOM     78  S   UNL A   1      39.985  35.732  37.292  1.00  0.00     0.127 S 
ATOM     79  O   UNL A   1      39.329  36.001  38.568  1.00  0.00    -0.237 OA
ATOM     80  O   UNL A   1      41.415  35.432  37.385  1.00  0.00    -0.237 OA
ATOM     81  O   UNL A   1      39.636  36.621  36.192  1.00  0.00    -0.744 OA
ENDBRANCH  75  78
ENDBRANCH  47  71
BRANCH  59  82
ATOM     82  C   UNL A   1      44.672  28.058  34.066  1.00  0.00     0.023 A 
ATOM     83  C   UNL A   1      45.820  28.872  34.078  1.00  0.00     0.012 A 
ATOM     84  C   UNL A   1      44.622  26.914  34.888  1.00  0.00     0.148 A 
ATOM     85  C   UNL A   1      46.909  28.548  34.886  1.00  0.00     0.002 A 
ATOM     86  C   UNL A   1      45.696  26.619  35.720  1.00  0.00     0.091 A 
ATOM     87  F   UNL A   1      43.528  26.141  34.843  1.00  0.00    -0.205 F 
ATOM     88  C   UNL A   1      46.842  27.430  35.714  1.00  0.00     0.022 A 
BRANCH  86  89
ATOM     89  S   UNL A   1      45.659  25.252  36.884  1.00  0.00     0.127 S 
ATOM     90  O   UNL A   1      46.810  25.551  37.733  1.00  0.00    -0.237 OA
ATOM     91  O   UNL A   1      44.360  25.428  37.534  1.00  0.00    -0.237 OA
ATOM     92  O   UNL A   1      45.770  24.041  36.081  1.00  0.00    -0.744 OA
ENDBRANCH  86  89
ENDBRANCH  59  82
ENDBRANCH  33  34
ENDBRANCH  25  28
ENDBRANCH  23  24
ENDBRANCH  22  23
ENDBRANCH   1  22
TORSDOF 20
ENDMDL
MODEL 2
REMARK VINA RESULT:     -10.5      4.806      9.752
REMARK SMILES CCc1nsc(NC[C@H](CC(C)C)C(=O)NCCCCNC(=O)c2ccc(-c3c4nc(c(-c5cccc(S(=O)(=O)[O-])c5F)c5ccc([nH]5)c(-c5cccc(S(=O)(=O)[O-])c5F)c5nc(c(-c6cccc(S(=O)(=O)[O-])c6F)c6ccc3[nH]6)C=C5)C=C4)cc2)n1
REMARK SMILES IDX 18 1 17 2 16 3 14 4 15 5 9 7 8 8 7 9 6 11 3 12 4 13 87 14
REMARK SMILES IDX 5 15 2 16 1 17 10 18 11 19 12 20 13 21 19 22 20 23 21 24
REMARK SMILES IDX 22 25 23 27 24 28 25 29 86 30 26 31 85 32 27 33 28 34 29 35
REMARK SMILES IDX 79 36 30 37 84 38 78 39 80 40 31 41 83 42 77 43 76 44 32 46
REMARK SMILES IDX 64 47 44 48 63 49 45 50 48 51 62 52 81 53 46 54 47 55 61 57
REMARK SMILES IDX 82 58 49 59 33 60 34 61 42 62 35 63 37 64 43 65 36 66 38 67
REMARK SMILES IDX 39 68 40 69 41 70 65 71 66 72 74 73 67 74 69 75 75 76 68 77
REMARK SMILES IDX 70 78 71 79 72 80 73 81 50 82 51 83 59 84 52 85 54 86 60 87
REMARK SMILES IDX 53 88 55 89 56 90 57 91 58 92
REMARK H PARENT 16 6 7 10 21 26 80 45 48 56
REMARK Flexibility Score: inf
ROOT
ATOM      1  C   UNL A   1      35.081  22.950  23.183  1.00  0.00     0.023 C 
ENDROOT
BRANCH   1   2
ATOM      2  C   UNL A   1      34.351  24.211  23.630  1.00  0.00     0.116 C 
BRANCH   2   3
ATOM      3  N   UNL A   1      33.071  24.400  22.975  1.00  0.00    -0.356 N 
ATOM      4  C   UNL A   1      31.986  25.118  23.383  1.00  0.00     0.224 C 
ATOM      5  O   UNL A   1      31.027  25.220  22.616  1.00  0.00    -0.275 OA
ATOM      6  H   UNL A   1      32.970  23.942  22.109  1.00  0.00     0.163 HD
BRANCH   4   7
ATOM      7  C   UNL A   1      31.956  25.813  24.745  1.00  0.00     0.098 C 
BRANCH   7   8
ATOM      8  C   UNL A   1      30.882  25.141  25.638  1.00  0.00     0.128 C 
BRANCH   8   9
ATOM      9  N   UNL A   1      30.707  23.716  25.425  1.00  0.00    -0.359 N 
ATOM     10  H   UNL A   1      29.866  23.415  25.012  1.00  0.00     0.162 HD
BRANCH   9  11
ATOM     11  C   UNL A   1      31.617  22.772  25.754  1.00  0.00     0.202 A 
ATOM     12  C   UNL A   1      32.954  21.034  25.490  1.00  0.00     0.144 A 
ATOM     13  N   UNL A   1      33.417  21.353  26.699  1.00  0.00    -0.174 NA
ATOM     14  N   UNL A   1      31.918  21.785  24.940  1.00  0.00    -0.204 NA
ATOM     15  S   UNL A   1      32.543  22.673  27.212  1.00  0.00     0.004 S 
BRANCH  12  16
ATOM     16  C   UNL A   1      33.521  19.906  24.691  1.00  0.00     0.075 C 
ATOM     17  C   UNL A   1      32.763  18.590  24.788  1.00  0.00     0.012 C 
ENDBRANCH  12  16
ENDBRANCH   9  11
ENDBRANCH   8   9
ENDBRANCH   7   8
BRANCH   7  18
ATOM     18  C   UNL A   1      31.981  27.352  24.587  1.00  0.00     0.018 C 
BRANCH  18  19
ATOM     19  C   UNL A   1      33.269  28.025  25.109  1.00  0.00    -0.017 C 
ATOM     20  C   UNL A   1      32.990  29.337  25.845  1.00  0.00     0.007 C 
ATOM     21  C   UNL A   1      33.999  27.060  26.050  1.00  0.00     0.007 C 
ENDBRANCH  18  19
ENDBRANCH   7  18
ENDBRANCH   4   7
ENDBRANCH   2   3
ENDBRANCH   1   2
BRANCH   1  22
ATOM     22  C   UNL A   1      36.503  22.804  23.715  1.00  0.00     0.023 C 
BRANCH  22  23
ATOM     23  C   UNL A   1      36.620  22.285  25.144  1.00  0.00     0.116 C 
BRANCH  23  24
ATOM     24  N   UNL A   1      37.500  21.131  25.278  1.00  0.00    -0.352 N 
ATOM     25  C   UNL A   1      38.741  21.069  25.868  1.00  0.00     0.251 C 
ATOM     26  H   UNL A   1      37.163  20.287  24.898  1.00  0.00     0.163 HD
ATOM     27  O   UNL A   1      39.412  20.042  25.814  1.00  0.00    -0.269 OA
BRANCH  25  28
ATOM     28  C   UNL A   1      39.274  22.277  26.532  1.00  0.00     0.039 A 
ATOM     29  C   UNL A   1      40.324  22.144  27.444  1.00  0.00     0.014 A 
ATOM     30  C   UNL A   1      38.792  23.540  26.181  1.00  0.00     0.014 A 
ATOM     31  C   UNL A   1      40.957  23.289  27.932  1.00  0.00     0.010 A 
ATOM     32  C   UNL A   1      39.467  24.674  26.614  1.00  0.00     0.010 A 
ATOM     33  C   UNL A   1      40.565  24.560  27.482  1.00  0.00    -0.014 A 
BRANCH  33  34
ATOM     34  C   UNL A   1      41.304  25.791  27.864  1.00  0.00     0.031 A 
ATOM     35  C   UNL A   1      40.597  26.889  28.610  1.00  0.00     0.074 A 
ATOM     36  C   UNL A   1      42.564  25.975  27.424  1.00  0.00     0.049 A 
ATOM     37  N   UNL A   1      41.022  28.087  28.909  1.00  0.00    -0.248 NA
ATOM     38  C   UNL A   1      39.217  26.613  29.046  1.00  0.00     0.031 C 
ATOM     39  C   UNL A   1      43.330  25.019  26.620  1.00  0.00     0.029 A 
ATOM     40  N   UNL A   1      43.412  27.047  27.557  1.00  0.00    -0.354 N 
ATOM     41  C   UNL A   1      39.952  28.726  29.522  1.00  0.00     0.074 A 
ATOM     42  C   UNL A   1      38.848  27.790  29.532  1.00  0.00     0.031 C 
ATOM     43  C   UNL A   1      44.529  25.550  26.328  1.00  0.00     0.029 A 
ATOM     44  C   UNL A   1      44.609  26.891  26.896  1.00  0.00     0.049 A 
ATOM     45  H   UNL A   1      43.184  27.853  28.076  1.00  0.00     0.167 HD
ATOM     46  C   UNL A   1      39.899  29.969  30.053  1.00  0.00     0.034 A 
ATOM     47  C   UNL A   1      45.649  27.736  26.758  1.00  0.00     0.034 A 
ATOM     48  C   UNL A   1      41.017  30.870  30.106  1.00  0.00     0.049 A 
ATOM     49  C   UNL A   1      45.590  29.087  27.419  1.00  0.00     0.074 A 
ATOM     50  C   UNL A   1      41.095  32.110  30.718  1.00  0.00     0.029 A 
ATOM     51  N   UNL A   1      42.254  30.628  29.531  1.00  0.00    -0.354 N 
ATOM     52  N   UNL A   1      44.625  29.610  28.134  1.00  0.00    -0.248 NA
ATOM     53  C   UNL A   1      46.773  29.949  27.283  1.00  0.00     0.031 C 
ATOM     54  C   UNL A   1      42.382  32.618  30.511  1.00  0.00     0.029 A 
ATOM     55  C   UNL A   1      43.105  31.694  29.773  1.00  0.00     0.049 A 
ATOM     56  H   UNL A   1      42.494  29.818  29.025  1.00  0.00     0.167 HD
ATOM     57  C   UNL A   1      45.095  30.846  28.563  1.00  0.00     0.074 A 
ATOM     58  C   UNL A   1      46.438  30.987  28.039  1.00  0.00     0.031 C 
ATOM     59  C   UNL A   1      44.463  31.788  29.305  1.00  0.00     0.034 A 
BRANCH  46  60
ATOM     60  C   UNL A   1      38.607  30.400  30.693  1.00  0.00     0.023 A 
ATOM     61  C   UNL A   1      38.380  30.100  32.052  1.00  0.00     0.012 A 
ATOM     62  C   UNL A   1      37.649  31.140  29.976  1.00  0.00     0.148 A 
ATOM     63  C   UNL A   1      37.203  30.505  32.681  1.00  0.00     0.002 A 
ATOM     64  C   UNL A   1      36.494  31.574  30.621  1.00  0.00     0.091 A 
ATOM     65  F   UNL A   1      37.870  31.392  28.679  1.00  0.00    -0.205 F 
ATOM     66  C   UNL A   1      36.267  31.249  31.969  1.00  0.00     0.022 A 
BRANCH  64  67
ATOM     67  S   UNL A   1      35.265  32.598  29.804  1.00  0.00     0.127 S 
ATOM     68  O   UNL A   1      34.766  31.693  28.770  1.00  0.00    -0.237 OA
ATOM     69  O   UNL A   1      34.316  32.869  30.885  1.00  0.00    -0.237 OA
ATOM     70  O   UNL A   1      35.982  33.771  29.325  1.00  0.00    -0.744 OA
ENDBRANCH  64  67
ENDBRANCH  46  60
BRANCH  47  71
ATOM     71  C   UNL A   1      46.871  27.295  26.027  1.00  0.00     0.023 A 
ATOM     72  C   UNL A   1      46.969  27.547  24.645  1.00  0.00     0.012 A 
ATOM     73  C   UNL A   1      47.947  26.671  26.688  1.00  0.00     0.148 A 
ATOM     74  C   UNL A   1      48.104  27.164  23.929  1.00  0.00     0.002 A 
ATOM     75  C   UNL A   1      49.096  26.338  25.979  1.00  0.00     0.091 A 
ATOM     76  F   UNL A   1      47.830  26.423  28.000  1.00  0.00    -0.205 F 
ATOM     77  C   UNL A   1      49.171  26.571  24.597  1.00  0.00     0.022 A 
BRANCH  75  78
ATOM     78  S   UNL A   1      50.563  25.691  26.790  1.00  0.00     0.127 S 
ATOM     79  O   UNL A   1      50.894  26.769  27.716  1.00  0.00    -0.237 OA
ATOM     80  O   UNL A   1      50.055  24.472  27.419  1.00  0.00    -0.237 OA
ATOM     81  O   UNL A   1      51.520  25.451  25.717  1.00  0.00    -0.744 OA
ENDBRANCH  75  78
ENDBRANCH  47  71
BRANCH  59  82
ATOM     82  C   UNL A   1      45.217  33.049  29.632  1.00  0.00     0.023 A 
ATOM     83  C   UNL A   1      45.993  33.107  30.804  1.00  0.00     0.012 A 
ATOM     84  C   UNL A   1      45.237  34.131  28.730  1.00  0.00     0.148 A 
ATOM     85  C   UNL A   1      46.769  34.231  31.084  1.00  0.00     0.002 A 
ATOM     86  C   UNL A   1      46.043  35.232  28.996  1.00  0.00     0.091 A 
ATOM     87  F   UNL A   1      44.472  34.062  27.631  1.00  0.00    -0.205 F 
ATOM     88  C   UNL A   1      46.803  35.286  30.176  1.00  0.00     0.022 A 
BRANCH  86  89
ATOM     89  S   UNL A   1      46.217  36.595  27.839  1.00  0.00     0.127 S 
ATOM     90  O   UNL A   1      47.139  37.476  28.553  1.00  0.00    -0.237 OA
ATOM     91  O   UNL A   1      46.789  35.937  26.664  1.00  0.00    -0.237 OA
ATOM     92  O   UNL A   1      44.873  37.122  27.639  1.00  0.00    -0.744 OA
ENDBRANCH  86  89
ENDBRANCH  59  82
ENDBRANCH  33  34
ENDBRANCH  25  28
ENDBRANCH  23  24
ENDBRANCH  22  23
ENDBRANCH   1  22
TORSDOF 20
ENDMDL
MODEL 3
REMARK VINA RESULT:     -10.5      5.171      7.960
REMARK SMILES CCc1nsc(NC[C@H](CC(C)C)C(=O)NCCCCNC(=O)c2ccc(-c3c4nc(c(-c5cccc(S(=O)(=O)[O-])c5F)c5ccc([nH]5)c(-c5cccc(S(=O)(=O)[O-])c5F)c5nc(c(-c6cccc(S(=O)(=O)[O-])c6F)c6ccc3[nH]6)C=C5)C=C4)cc2)n1
REMARK SMILES IDX 18 1 17 2 16 3 14 4 15 5 9 7 8 8 7 9 6 11 3 12 4 13 87 14
REMARK SMILES IDX 5 15 2 16 1 17 10 18 11 19 12 20 13 21 19 22 20 23 21 24
REMARK SMILES IDX 22 25 23 27 24 28 25 29 86 30 26 31 85 32 27 33 28 34 29 35
REMARK SMILES IDX 79 36 30 37 84 38 78 39 80 40 31 41 83 42 77 43 76 44 32 46
REMARK SMILES IDX 64 47 44 48 63 49 45 50 48 51 62 52 81 53 46 54 47 55 61 57
REMARK SMILES IDX 82 58 49 59 33 60 34 61 42 62 35 63 37 64 43 65 36 66 38 67
REMARK SMILES IDX 39 68 40 69 41 70 65 71 66 72 74 73 67 74 69 75 75 76 68 77
REMARK SMILES IDX 70 78 71 79 72 80 73 81 50 82 51 83 59 84 52 85 54 86 60 87
REMARK SMILES IDX 53 88 55 89 56 90 57 91 58 92
REMARK H PARENT 16 6 7 10 21 26 80 45 48 56
REMARK Flexibility Score: inf
ROOT
ATOM      1  C   UNL A   1      35.960  20.734  25.004  1.00  0.00     0.023 C 
ENDROOT
BRANCH   1   2
ATOM      2  C   UNL A   1      35.654  22.219  24.849  1.00  0.00     0.116 C 
BRANCH   2   3
ATOM      3  N   UNL A   1      35.206  22.580  23.518  1.00  0.00    -0.356 N 
ATOM      4  C   UNL A   1      33.969  22.966  23.094  1.00  0.00     0.224 C 
ATOM      5  O   UNL A   1      33.834  23.321  21.922  1.00  0.00    -0.275 OA
ATOM      6  H   UNL A   1      35.897  22.542  22.817  1.00  0.00     0.163 HD
BRANCH   4   7
ATOM      7  C   UNL A   1      32.772  22.991  24.046  1.00  0.00     0.098 C 
BRANCH   7   8
ATOM      8  C   UNL A   1      31.924  21.710  23.834  1.00  0.00     0.128 C 
BRANCH   8   9
ATOM      9  N   UNL A   1      32.226  20.615  24.739  1.00  0.00    -0.359 N 
ATOM     10  H   UNL A   1      32.175  20.794  25.706  1.00  0.00     0.162 HD
BRANCH   9  11
ATOM     11  C   UNL A   1      32.573  19.369  24.349  1.00  0.00     0.202 A 
ATOM     12  C   UNL A   1      33.216  17.265  24.543  1.00  0.00     0.144 A 
ATOM     13  N   UNL A   1      32.953  17.185  23.238  1.00  0.00    -0.174 NA
ATOM     14  N   UNL A   1      33.050  18.484  25.195  1.00  0.00    -0.204 NA
ATOM     15  S   UNL A   1      32.451  18.698  22.759  1.00  0.00     0.004 S 
BRANCH  12  16
ATOM     16  C   UNL A   1      33.668  16.084  25.340  1.00  0.00     0.075 C 
ATOM     17  C   UNL A   1      32.692  14.918  25.391  1.00  0.00     0.012 C 
ENDBRANCH  12  16
ENDBRANCH   9  11
ENDBRANCH   8   9
ENDBRANCH   7   8
BRANCH   7  18
ATOM     18  C   UNL A   1      32.090  24.380  24.050  1.00  0.00     0.018 C 
BRANCH  18  19
ATOM     19  C   UNL A   1      32.307  25.191  25.346  1.00  0.00    -0.017 C 
ATOM     20  C   UNL A   1      32.454  24.298  26.580  1.00  0.00     0.007 C 
ATOM     21  C   UNL A   1      33.560  26.061  25.196  1.00  0.00     0.007 C 
ENDBRANCH  18  19
ENDBRANCH   7  18
ENDBRANCH   4   7
ENDBRANCH   2   3
ENDBRANCH   1   2
BRANCH   1  22
ATOM     22  C   UNL A   1      37.413  20.345  24.751  1.00  0.00     0.023 C 
BRANCH  22  23
ATOM     23  C   UNL A   1      38.449  21.089  25.585  1.00  0.00     0.116 C 
BRANCH  23  24
ATOM     24  N   UNL A   1      39.548  20.248  26.043  1.00  0.00    -0.352 N 
ATOM     25  C   UNL A   1      40.677  20.622  26.733  1.00  0.00     0.251 C 
ATOM     26  H   UNL A   1      39.472  19.289  25.831  1.00  0.00     0.163 HD
ATOM     27  O   UNL A   1      41.571  19.811  26.963  1.00  0.00    -0.269 OA
BRANCH  25  28
ATOM     28  C   UNL A   1      40.818  22.031  27.158  1.00  0.00     0.039 A 
ATOM     29  C   UNL A   1      41.613  22.331  28.265  1.00  0.00     0.014 A 
ATOM     30  C   UNL A   1      40.235  23.051  26.402  1.00  0.00     0.014 A 
ATOM     31  C   UNL A   1      41.904  23.665  28.559  1.00  0.00     0.010 A 
ATOM     32  C   UNL A   1      40.582  24.372  26.655  1.00  0.00     0.010 A 
ATOM     33  C   UNL A   1      41.431  24.692  27.727  1.00  0.00    -0.014 A 
BRANCH  33  34
ATOM     34  C   UNL A   1      41.834  26.108  27.921  1.00  0.00     0.031 A 
ATOM     35  C   UNL A   1      43.227  26.547  27.563  1.00  0.00     0.074 A 
ATOM     36  C   UNL A   1      40.995  26.961  28.542  1.00  0.00     0.049 A 
ATOM     37  N   UNL A   1      43.812  27.694  27.784  1.00  0.00    -0.248 NA
ATOM     38  C   UNL A   1      44.086  25.552  26.897  1.00  0.00     0.031 C 
ATOM     39  C   UNL A   1      39.648  26.632  29.014  1.00  0.00     0.029 A 
ATOM     40  N   UNL A   1      41.166  28.270  28.919  1.00  0.00    -0.354 N 
ATOM     41  C   UNL A   1      45.117  27.546  27.334  1.00  0.00     0.074 A 
ATOM     42  C   UNL A   1      45.247  26.190  26.846  1.00  0.00     0.031 C 
ATOM     43  C   UNL A   1      39.119  27.707  29.622  1.00  0.00     0.029 A 
ATOM     44  C   UNL A   1      40.095  28.791  29.609  1.00  0.00     0.049 A 
ATOM     45  H   UNL A   1      41.980  28.788  28.717  1.00  0.00     0.167 HD
ATOM     46  C   UNL A   1      46.112  28.463  27.303  1.00  0.00     0.034 A 
ATOM     47  C   UNL A   1      39.923  30.002  30.174  1.00  0.00     0.034 A 
ATOM     48  C   UNL A   1      45.960  29.830  27.722  1.00  0.00     0.049 A 
ATOM     49  C   UNL A   1      41.020  31.026  30.063  1.00  0.00     0.074 A 
ATOM     50  C   UNL A   1      46.876  30.864  27.631  1.00  0.00     0.029 A 
ATOM     51  N   UNL A   1      44.818  30.354  28.306  1.00  0.00    -0.354 N 
ATOM     52  N   UNL A   1      42.193  30.915  29.487  1.00  0.00    -0.248 NA
ATOM     53  C   UNL A   1      40.761  32.349  30.648  1.00  0.00     0.031 C 
ATOM     54  C   UNL A   1      46.286  32.016  28.162  1.00  0.00     0.029 A 
ATOM     55  C   UNL A   1      45.003  31.699  28.580  1.00  0.00     0.049 A 
ATOM     56  H   UNL A   1      43.996  29.847  28.497  1.00  0.00     0.167 HD
ATOM     57  C   UNL A   1      42.796  32.161  29.610  1.00  0.00     0.074 A 
ATOM     58  C   UNL A   1      41.854  33.017  30.301  1.00  0.00     0.031 C 
ATOM     59  C   UNL A   1      44.029  32.555  29.205  1.00  0.00     0.034 A 
BRANCH  46  60
ATOM     60  C   UNL A   1      47.434  28.039  26.724  1.00  0.00     0.023 A 
ATOM     61  C   UNL A   1      48.495  27.721  27.596  1.00  0.00     0.012 A 
ATOM     62  C   UNL A   1      47.614  27.905  25.335  1.00  0.00     0.148 A 
ATOM     63  C   UNL A   1      49.726  27.303  27.093  1.00  0.00     0.002 A 
ATOM     64  C   UNL A   1      48.833  27.451  24.842  1.00  0.00     0.091 A 
ATOM     65  F   UNL A   1      46.603  28.239  24.521  1.00  0.00    -0.205 F 
ATOM     66  C   UNL A   1      49.891  27.158  25.718  1.00  0.00     0.022 A 
BRANCH  64  67
ATOM     67  S   UNL A   1      49.114  27.167  23.090  1.00  0.00     0.127 S 
ATOM     68  O   UNL A   1      48.361  25.934  22.865  1.00  0.00    -0.237 OA
ATOM     69  O   UNL A   1      48.524  28.360  22.482  1.00  0.00    -0.237 OA
ATOM     70  O   UNL A   1      50.557  27.063  22.932  1.00  0.00    -0.744 OA
ENDBRANCH  64  67
ENDBRANCH  46  60
BRANCH  47  71
ATOM     71  C   UNL A   1      38.625  30.339  30.824  1.00  0.00     0.023 A 
ATOM     72  C   UNL A   1      38.402  29.937  32.155  1.00  0.00     0.012 A 
ATOM     73  C   UNL A   1      37.632  31.085  30.159  1.00  0.00     0.148 A 
ATOM     74  C   UNL A   1      37.207  30.248  32.804  1.00  0.00     0.002 A 
ATOM     75  C   UNL A   1      36.464  31.435  30.827  1.00  0.00     0.091 A 
ATOM     76  F   UNL A   1      37.853  31.445  28.886  1.00  0.00    -0.205 F 
ATOM     77  C   UNL A   1      36.244  31.006  32.145  1.00  0.00     0.022 A 
BRANCH  75  78
ATOM     78  S   UNL A   1      35.233  32.519  30.093  1.00  0.00     0.127 S 
ATOM     79  O   UNL A   1      34.761  31.718  28.968  1.00  0.00    -0.237 OA
ATOM     80  O   UNL A   1      34.272  32.677  31.185  1.00  0.00    -0.237 OA
ATOM     81  O   UNL A   1      35.951  33.741  29.753  1.00  0.00    -0.744 OA
ENDBRANCH  75  78
ENDBRANCH  47  71
BRANCH  59  82
ATOM     82  C   UNL A   1      44.431  33.982  29.463  1.00  0.00     0.023 A 
ATOM     83  C   UNL A   1      45.107  34.305  30.655  1.00  0.00     0.012 A 
ATOM     84  C   UNL A   1      44.232  34.975  28.485  1.00  0.00     0.148 A 
ATOM     85  C   UNL A   1      45.566  35.602  30.877  1.00  0.00     0.002 A 
ATOM     86  C   UNL A   1      44.728  36.257  28.696  1.00  0.00     0.091 A 
ATOM     87  F   UNL A   1      43.567  34.649  27.367  1.00  0.00    -0.205 F 
ATOM     88  C   UNL A   1      45.388  36.573  29.895  1.00  0.00     0.022 A 
BRANCH  86  89
ATOM     89  S   UNL A   1      44.623  37.544  27.448  1.00  0.00     0.127 S 
ATOM     90  O   UNL A   1      45.718  37.181  26.552  1.00  0.00    -0.237 OA
ATOM     91  O   UNL A   1      43.285  37.334  26.892  1.00  0.00    -0.237 OA
ATOM     92  O   UNL A   1      44.786  38.804  28.161  1.00  0.00    -0.744 OA
ENDBRANCH  86  89
ENDBRANCH  59  82
ENDBRANCH  33  34
ENDBRANCH  25  28
ENDBRANCH  23  24
ENDBRANCH  22  23
ENDBRANCH   1  22
TORSDOF 20
ENDMDL
