MODEL 1
REMARK VINA RESULT:     -13.3      0.000      0.000
REMARK SMILES C[C@H]1Oc2ccccc2C=C1/C=C/C(=O)N[C@H](C(=O)NCCCCNC(=O)c1ccc(-c2c3nc(c(-c4cccc(S(=O)(=O)[O-])c4F)c4ccc([nH]4)c(-c4cccc(S(=O)(=O)[O-])c4F)c4nc(c(-c5cccc(S(=O)(=O)[O-])c5F)c5ccc2[nH]5)C=C4)C=C3)cc1)c1ccccc1
REMARK SMILES IDX 22 1 21 2 20 3 18 4 19 5 17 7 16 8 14 9 15 10 13 12 12 13
REMARK SMILES IDX 11 14 1 15 2 16 3 17 4 18 10 19 5 20 9 21 6 22 8 23 7 24
REMARK SMILES IDX 91 25 92 26 96 27 93 28 95 29 94 30 23 31 24 32 25 33 26 34
REMARK SMILES IDX 27 36 28 37 29 38 90 39 30 40 89 41 31 42 32 43 33 44 83 45
REMARK SMILES IDX 34 46 88 47 82 48 84 49 35 50 87 51 81 52 80 53 36 55 68 56
REMARK SMILES IDX 48 57 67 58 49 59 52 60 66 61 85 62 50 63 51 64 65 66 86 67
REMARK SMILES IDX 53 68 37 69 38 70 46 71 39 72 41 73 47 74 40 75 42 76 43 77
REMARK SMILES IDX 44 78 45 79 69 80 70 81 78 82 71 83 73 84 79 85 72 86 74 87
REMARK SMILES IDX 75 88 76 89 77 90 54 91 55 92 63 93 56 94 58 95 64 96 57 97
REMARK SMILES IDX 59 98 60 99 61 100 62 101
REMARK H PARENT 20 6 16 11 25 35 84 54 52 65
REMARK Flexibility Score: inf
ROOT
ATOM      1  C   UNL A   1      36.396  23.204  23.656  1.00  0.00     0.023 C 
ENDROOT
BRANCH   1   2
ATOM      2  C   UNL A   1      35.042  23.600  24.243  1.00  0.00     0.116 C 
BRANCH   2   3
ATOM      3  N   UNL A   1      33.950  23.367  23.320  1.00  0.00    -0.354 N 
ATOM      4  C   UNL A   1      32.967  22.416  23.365  1.00  0.00     0.247 C 
ATOM      5  O   UNL A   1      32.212  22.360  22.389  1.00  0.00    -0.272 OA
ATOM      6  H   UNL A   1      33.910  23.979  22.550  1.00  0.00     0.163 HD
BRANCH   4   7
ATOM      7  C   UNL A   1      32.933  21.361  24.510  1.00  0.00     0.202 C 
BRANCH   7   8
ATOM      8  N   UNL A   1      31.908  21.463  25.554  1.00  0.00    -0.337 N 
ATOM      9  C   UNL A   1      30.829  22.272  25.699  1.00  0.00     0.244 C 
ATOM     10  O   UNL A   1      29.936  21.943  26.478  1.00  0.00    -0.270 OA
ATOM     11  H   UNL A   1      32.025  20.822  26.291  1.00  0.00     0.164 HD
BRANCH   9  12
ATOM     12  C   UNL A   1      30.813  23.630  25.121  1.00  0.00     0.071 C 
ATOM     13  C   UNL A   1      30.859  24.790  25.791  1.00  0.00     0.013 C 
BRANCH  13  14
ATOM     14  C   UNL A   1      30.716  26.100  25.156  1.00  0.00    -0.007 C 
ATOM     15  C   UNL A   1      33.184  26.735  24.995  1.00  0.00     0.058 C 
ATOM     16  C   UNL A   1      31.789  27.144  25.469  1.00  0.00     0.200 C 
ATOM     17  O   UNL A   1      31.573  28.472  24.950  1.00  0.00    -0.485 OA
ATOM     18  C   UNL A   1      30.525  28.691  24.107  1.00  0.00     0.127 A 
ATOM     19  C   UNL A   1      29.677  26.388  24.356  1.00  0.00     0.019 C 
ATOM     20  C   UNL A   1      30.437  29.971  23.559  1.00  0.00     0.047 A 
ATOM     21  C   UNL A   1      29.565  27.728  23.799  1.00  0.00     0.017 A 
ATOM     22  C   UNL A   1      29.380  30.301  22.711  1.00  0.00     0.004 A 
ATOM     23  C   UNL A   1      28.495  28.068  22.962  1.00  0.00     0.012 A 
ATOM     24  C   UNL A   1      28.404  29.351  22.419  1.00  0.00     0.001 A 
ENDBRANCH  13  14
ENDBRANCH   9  12
ENDBRANCH   7   8
BRANCH   7  25
ATOM     25  C   UNL A   1      33.160  19.915  24.055  1.00  0.00    -0.016 A 
ATOM     26  C   UNL A   1      32.320  19.257  23.142  1.00  0.00     0.006 A 
ATOM     27  C   UNL A   1      34.230  19.184  24.606  1.00  0.00     0.006 A 
ATOM     28  C   UNL A   1      32.535  17.916  22.803  1.00  0.00     0.000 A 
ATOM     29  C   UNL A   1      34.445  17.846  24.265  1.00  0.00     0.000 A 
ATOM     30  C   UNL A   1      33.594  17.211  23.366  1.00  0.00     0.000 A 
ENDBRANCH   7  25
ENDBRANCH   4   7
ENDBRANCH   2   3
ENDBRANCH   1   2
BRANCH   1  31
ATOM     31  C   UNL A   1      36.826  21.759  23.932  1.00  0.00     0.023 C 
BRANCH  31  32
ATOM     32  C   UNL A   1      37.023  21.405  25.404  1.00  0.00     0.116 C 
BRANCH  32  33
ATOM     33  N   UNL A   1      38.078  20.423  25.609  1.00  0.00    -0.352 N 
ATOM     34  C   UNL A   1      39.369  20.587  26.058  1.00  0.00     0.251 C 
ATOM     35  H   UNL A   1      37.830  19.495  25.392  1.00  0.00     0.163 HD
ATOM     36  O   UNL A   1      40.161  19.651  25.976  1.00  0.00    -0.269 OA
BRANCH  34  37
ATOM     37  C   UNL A   1      39.811  21.889  26.606  1.00  0.00     0.039 A 
ATOM     38  C   UNL A   1      39.267  23.085  26.137  1.00  0.00     0.014 A 
ATOM     39  C   UNL A   1      40.791  21.915  27.604  1.00  0.00     0.014 A 
ATOM     40  C   UNL A   1      39.832  24.298  26.517  1.00  0.00     0.010 A 
ATOM     41  C   UNL A   1      41.295  23.140  28.053  1.00  0.00     0.010 A 
ATOM     42  C   UNL A   1      40.863  24.341  27.471  1.00  0.00    -0.014 A 
BRANCH  42  43
ATOM     43  C   UNL A   1      41.471  25.649  27.832  1.00  0.00     0.031 A 
ATOM     44  C   UNL A   1      42.873  25.996  27.401  1.00  0.00     0.074 A 
ATOM     45  C   UNL A   1      40.740  26.551  28.516  1.00  0.00     0.049 A 
ATOM     46  N   UNL A   1      43.540  27.104  27.600  1.00  0.00    -0.248 NA
ATOM     47  C   UNL A   1      43.628  24.972  26.658  1.00  0.00     0.031 C 
ATOM     48  C   UNL A   1      39.380  26.331  29.012  1.00  0.00     0.029 A 
ATOM     49  N   UNL A   1      41.029  27.836  28.903  1.00  0.00    -0.354 N 
ATOM     50  C   UNL A   1      44.798  26.900  27.044  1.00  0.00     0.074 A 
ATOM     51  C   UNL A   1      44.808  25.559  26.504  1.00  0.00     0.031 C 
ATOM     52  C   UNL A   1      38.940  27.452  29.602  1.00  0.00     0.029 A 
ATOM     53  C   UNL A   1      39.998  28.456  29.566  1.00  0.00     0.049 A 
ATOM     54  H   UNL A   1      41.893  28.272  28.721  1.00  0.00     0.167 HD
ATOM     55  C   UNL A   1      45.841  27.759  26.967  1.00  0.00     0.034 A 
ATOM     56  C   UNL A   1      39.909  29.692  30.096  1.00  0.00     0.034 A 
ATOM     57  C   UNL A   1      45.815  29.114  27.446  1.00  0.00     0.049 A 
ATOM     58  C   UNL A   1      41.074  30.630  29.981  1.00  0.00     0.074 A 
ATOM     59  C   UNL A   1      46.809  30.073  27.355  1.00  0.00     0.029 A 
ATOM     60  N   UNL A   1      44.746  29.704  28.099  1.00  0.00    -0.354 N 
ATOM     61  N   UNL A   1      42.220  30.444  29.374  1.00  0.00    -0.248 NA
ATOM     62  C   UNL A   1      40.932  31.953  30.608  1.00  0.00     0.031 C 
ATOM     63  C   UNL A   1      46.343  31.244  27.958  1.00  0.00     0.029 A 
ATOM     64  C   UNL A   1      45.056  31.015  28.418  1.00  0.00     0.049 A 
ATOM     65  H   UNL A   1      43.893  29.258  28.305  1.00  0.00     0.167 HD
ATOM     66  C   UNL A   1      42.932  31.625  29.534  1.00  0.00     0.074 A 
ATOM     67  C   UNL A   1      42.080  32.532  30.278  1.00  0.00     0.031 C 
ATOM     68  C   UNL A   1      44.185  31.922  29.117  1.00  0.00     0.034 A 
BRANCH  55  69
ATOM     69  C   UNL A   1      47.099  27.292  26.285  1.00  0.00     0.023 A 
ATOM     70  C   UNL A   1      47.330  27.664  24.946  1.00  0.00     0.012 A 
ATOM     71  C   UNL A   1      48.094  26.595  26.997  1.00  0.00     0.148 A 
ATOM     72  C   UNL A   1      48.535  27.342  24.322  1.00  0.00     0.002 A 
ATOM     73  C   UNL A   1      49.303  26.303  26.376  1.00  0.00     0.091 A 
ATOM     74  F   UNL A   1      47.843  26.246  28.266  1.00  0.00    -0.205 F 
ATOM     75  C   UNL A   1      49.523  26.672  25.039  1.00  0.00     0.022 A 
BRANCH  73  76
ATOM     76  S   UNL A   1      50.664  25.494  27.225  1.00  0.00     0.127 S 
ATOM     77  O   UNL A   1      50.006  24.309  27.773  1.00  0.00    -0.237 OA
ATOM     78  O   UNL A   1      51.592  25.224  26.127  1.00  0.00    -0.237 OA
ATOM     79  O   UNL A   1      51.147  26.446  28.215  1.00  0.00    -0.744 OA
ENDBRANCH  73  76
ENDBRANCH  55  69
BRANCH  56  80
ATOM     80  C   UNL A   1      38.636  30.113  30.738  1.00  0.00     0.023 A 
ATOM     81  C   UNL A   1      38.443  29.868  32.111  1.00  0.00     0.012 A 
ATOM     82  C   UNL A   1      37.660  30.829  30.018  1.00  0.00     0.148 A 
ATOM     83  C   UNL A   1      37.296  30.329  32.757  1.00  0.00     0.002 A 
ATOM     84  C   UNL A   1      36.542  31.323  30.677  1.00  0.00     0.091 A 
ATOM     85  F   UNL A   1      37.869  31.043  28.711  1.00  0.00    -0.205 F 
ATOM     86  C   UNL A   1      36.353  31.066  32.044  1.00  0.00     0.022 A 
BRANCH  84  87
ATOM     87  S   UNL A   1      35.333  32.380  29.873  1.00  0.00     0.127 S 
ATOM     88  O   UNL A   1      34.846  31.514  28.801  1.00  0.00    -0.237 OA
ATOM     89  O   UNL A   1      34.378  32.617  30.956  1.00  0.00    -0.237 OA
ATOM     90  O   UNL A   1      36.064  33.562  29.440  1.00  0.00    -0.744 OA
ENDBRANCH  84  87
ENDBRANCH  56  80
BRANCH  68  91
ATOM     91  C   UNL A   1      44.734  33.284  29.439  1.00  0.00     0.023 A 
ATOM     92  C   UNL A   1      45.459  33.467  30.631  1.00  0.00     0.012 A 
ATOM     93  C   UNL A   1      44.645  34.335  28.507  1.00  0.00     0.148 A 
ATOM     94  C   UNL A   1      46.086  34.684  30.896  1.00  0.00     0.002 A 
ATOM     95  C   UNL A   1      45.300  35.534  28.762  1.00  0.00     0.091 A 
ATOM     96  F   UNL A   1      43.942  34.134  27.383  1.00  0.00    -0.205 F 
ATOM     97  C   UNL A   1      46.017  35.711  29.957  1.00  0.00     0.022 A 
BRANCH  95  98
ATOM     98  S   UNL A   1      45.333  36.890  27.584  1.00  0.00     0.127 S 
ATOM     99  O   UNL A   1      46.073  37.910  28.325  1.00  0.00    -0.237 OA
ATOM    100  O   UNL A   1      46.061  36.304  26.459  1.00  0.00    -0.237 OA
ATOM    101  O   UNL A   1      43.941  37.216  27.303  1.00  0.00    -0.744 OA
ENDBRANCH  95  98
ENDBRANCH  68  91
ENDBRANCH  42  43
ENDBRANCH  34  37
ENDBRANCH  32  33
ENDBRANCH  31  32
ENDBRANCH   1  31
TORSDOF 18
ENDMDL
MODEL 2
REMARK VINA RESULT:     -13.2      1.737      4.663
REMARK SMILES C[C@H]1Oc2ccccc2C=C1/C=C/C(=O)N[C@H](C(=O)NCCCCNC(=O)c1ccc(-c2c3nc(c(-c4cccc(S(=O)(=O)[O-])c4F)c4ccc([nH]4)c(-c4cccc(S(=O)(=O)[O-])c4F)c4nc(c(-c5cccc(S(=O)(=O)[O-])c5F)c5ccc2[nH]5)C=C4)C=C3)cc1)c1ccccc1
REMARK SMILES IDX 22 1 21 2 20 3 18 4 19 5 17 7 16 8 14 9 15 10 13 12 12 13
REMARK SMILES IDX 11 14 1 15 2 16 3 17 4 18 10 19 5 20 9 21 6 22 8 23 7 24
REMARK SMILES IDX 91 25 92 26 96 27 93 28 95 29 94 30 23 31 24 32 25 33 26 34
REMARK SMILES IDX 27 36 28 37 29 38 90 39 30 40 89 41 31 42 32 43 33 44 83 45
REMARK SMILES IDX 34 46 88 47 82 48 84 49 35 50 87 51 81 52 80 53 36 55 68 56
REMARK SMILES IDX 48 57 67 58 49 59 52 60 66 61 85 62 50 63 51 64 65 66 86 67
REMARK SMILES IDX 53 68 37 69 38 70 46 71 39 72 41 73 47 74 40 75 42 76 43 77
REMARK SMILES IDX 44 78 45 79 69 80 70 81 78 82 71 83 73 84 79 85 72 86 74 87
REMARK SMILES IDX 75 88 76 89 77 90 54 91 55 92 63 93 56 94 58 95 64 96 57 97
REMARK SMILES IDX 59 98 60 99 61 100 62 101
REMARK H PARENT 20 6 16 11 25 35 84 54 52 65
REMARK Flexibility Score: inf
ROOT
ATOM      1  C   UNL A   1      34.429  23.361  22.887  1.00  0.00     0.023 C 
ENDROOT
BRANCH   1   2
ATOM      2  C   UNL A   1      33.307  24.395  22.971  1.00  0.00     0.116 C 
BRANCH   2   3
ATOM      3  N   UNL A   1      33.490  25.320  24.071  1.00  0.00    -0.354 N 
ATOM      4  C   UNL A   1      32.558  26.073  24.733  1.00  0.00     0.247 C 
ATOM      5  O   UNL A   1      32.992  26.871  25.569  1.00  0.00    -0.272 OA
ATOM      6  H   UNL A   1      34.416  25.421  24.387  1.00  0.00     0.163 HD
BRANCH   4   7
ATOM      7  C   UNL A   1      31.060  26.036  24.311  1.00  0.00     0.202 C 
BRANCH   7   8
ATOM      8  N   UNL A   1      30.053  25.566  25.268  1.00  0.00    -0.337 N 
ATOM      9  C   UNL A   1      30.016  24.498  26.105  1.00  0.00     0.244 C 
ATOM     10  O   UNL A   1      29.224  24.505  27.045  1.00  0.00    -0.270 OA
ATOM     11  H   UNL A   1      29.250  26.133  25.312  1.00  0.00     0.164 HD
BRANCH   9  12
ATOM     12  C   UNL A   1      30.734  23.251  25.779  1.00  0.00     0.071 C 
ATOM     13  C   UNL A   1      31.948  22.885  26.212  1.00  0.00     0.013 C 
BRANCH  13  14
ATOM     14  C   UNL A   1      32.649  21.687  25.748  1.00  0.00    -0.007 C 
ATOM     15  C   UNL A   1      34.328  21.445  27.655  1.00  0.00     0.058 C 
ATOM     16  C   UNL A   1      34.119  21.545  26.144  1.00  0.00     0.200 C 
ATOM     17  O   UNL A   1      34.840  20.433  25.574  1.00  0.00    -0.485 OA
ATOM     18  C   UNL A   1      34.158  19.507  24.845  1.00  0.00     0.127 A 
ATOM     19  C   UNL A   1      32.042  20.764  24.984  1.00  0.00     0.019 C 
ATOM     20  C   UNL A   1      34.896  18.403  24.414  1.00  0.00     0.047 A 
ATOM     21  C   UNL A   1      32.810  19.623  24.510  1.00  0.00     0.017 A 
ATOM     22  C   UNL A   1      34.294  17.417  23.633  1.00  0.00     0.004 A 
ATOM     23  C   UNL A   1      32.213  18.640  23.712  1.00  0.00     0.012 A 
ATOM     24  C   UNL A   1      32.953  17.540  23.274  1.00  0.00     0.001 A 
ENDBRANCH  13  14
ENDBRANCH   9  12
ENDBRANCH   7   8
BRANCH   7  25
ATOM     25  C   UNL A   1      30.586  27.260  23.521  1.00  0.00    -0.016 A 
ATOM     26  C   UNL A   1      31.465  28.128  22.849  1.00  0.00     0.006 A 
ATOM     27  C   UNL A   1      29.213  27.570  23.496  1.00  0.00     0.006 A 
ATOM     28  C   UNL A   1      30.988  29.267  22.191  1.00  0.00     0.000 A 
ATOM     29  C   UNL A   1      28.739  28.707  22.836  1.00  0.00     0.000 A 
ATOM     30  C   UNL A   1      29.628  29.558  22.187  1.00  0.00     0.000 A 
ENDBRANCH   7  25
ENDBRANCH   4   7
ENDBRANCH   2   3
ENDBRANCH   1   2
BRANCH   1  31
ATOM     31  C   UNL A   1      35.477  23.447  24.002  1.00  0.00     0.023 C 
BRANCH  31  32
ATOM     32  C   UNL A   1      36.869  22.943  23.630  1.00  0.00     0.116 C 
BRANCH  32  33
ATOM     33  N   UNL A   1      37.216  21.700  24.307  1.00  0.00    -0.352 N 
ATOM     34  C   UNL A   1      38.124  21.460  25.312  1.00  0.00     0.251 C 
ATOM     35  H   UNL A   1      36.724  20.906  23.995  1.00  0.00     0.163 HD
ATOM     36  O   UNL A   1      38.404  20.301  25.610  1.00  0.00    -0.269 OA
BRANCH  34  37
ATOM     37  C   UNL A   1      38.786  22.587  26.008  1.00  0.00     0.039 A 
ATOM     38  C   UNL A   1      38.139  23.813  26.161  1.00  0.00     0.014 A 
ATOM     39  C   UNL A   1      40.080  22.416  26.512  1.00  0.00     0.014 A 
ATOM     40  C   UNL A   1      38.844  24.913  26.638  1.00  0.00     0.010 A 
ATOM     41  C   UNL A   1      40.757  23.502  27.076  1.00  0.00     0.010 A 
ATOM     42  C   UNL A   1      40.167  24.775  27.090  1.00  0.00    -0.014 A 
BRANCH  42  43
ATOM     43  C   UNL A   1      40.909  25.976  27.561  1.00  0.00     0.031 A 
ATOM     44  C   UNL A   1      42.337  26.217  27.143  1.00  0.00     0.074 A 
ATOM     45  C   UNL A   1      40.278  26.879  28.336  1.00  0.00     0.049 A 
ATOM     46  N   UNL A   1      43.115  27.228  27.433  1.00  0.00    -0.248 NA
ATOM     47  C   UNL A   1      42.978  25.195  26.298  1.00  0.00     0.031 C 
ATOM     48  C   UNL A   1      38.905  26.753  28.829  1.00  0.00     0.029 A 
ATOM     49  N   UNL A   1      40.699  28.087  28.835  1.00  0.00    -0.354 N 
ATOM     50  C   UNL A   1      44.342  26.950  26.842  1.00  0.00     0.074 A 
ATOM     51  C   UNL A   1      44.211  25.670  26.181  1.00  0.00     0.031 C 
ATOM     52  C   UNL A   1      38.585  27.853  29.526  1.00  0.00     0.029 A 
ATOM     53  C   UNL A   1      39.740  28.744  29.568  1.00  0.00     0.049 A 
ATOM     54  H   UNL A   1      41.602  28.448  28.681  1.00  0.00     0.167 HD
ATOM     55  C   UNL A   1      45.467  27.702  26.829  1.00  0.00     0.034 A 
ATOM     56  C   UNL A   1      39.782  29.927  30.211  1.00  0.00     0.034 A 
ATOM     57  C   UNL A   1      45.583  29.001  27.431  1.00  0.00     0.049 A 
ATOM     58  C   UNL A   1      41.036  30.749  30.165  1.00  0.00     0.074 A 
ATOM     59  C   UNL A   1      46.669  29.859  27.414  1.00  0.00     0.029 A 
ATOM     60  N   UNL A   1      44.583  29.634  28.151  1.00  0.00    -0.354 N 
ATOM     61  N   UNL A   1      42.153  30.505  29.527  1.00  0.00    -0.248 NA
ATOM     62  C   UNL A   1      41.033  32.015  30.913  1.00  0.00     0.031 C 
ATOM     63  C   UNL A   1      46.329  31.010  28.129  1.00  0.00     0.029 A 
ATOM     64  C   UNL A   1      45.028  30.871  28.585  1.00  0.00     0.049 A 
ATOM     65  H   UNL A   1      43.690  29.260  28.328  1.00  0.00     0.167 HD
ATOM     66  C   UNL A   1      42.983  31.587  29.784  1.00  0.00     0.074 A 
ATOM     67  C   UNL A   1      42.234  32.502  30.621  1.00  0.00     0.031 C 
ATOM     68  C   UNL A   1      44.258  31.793  29.377  1.00  0.00     0.034 A 
BRANCH  55  69
ATOM     69  C   UNL A   1      46.667  27.175  26.088  1.00  0.00     0.023 A 
ATOM     70  C   UNL A   1      47.417  26.127  26.657  1.00  0.00     0.012 A 
ATOM     71  C   UNL A   1      46.976  27.630  24.792  1.00  0.00     0.148 A 
ATOM     72  C   UNL A   1      48.465  25.543  25.946  1.00  0.00     0.002 A 
ATOM     73  C   UNL A   1      48.004  27.023  24.080  1.00  0.00     0.091 A 
ATOM     74  F   UNL A   1      46.252  28.634  24.279  1.00  0.00    -0.205 F 
ATOM     75  C   UNL A   1      48.751  25.983  24.656  1.00  0.00     0.022 A 
BRANCH  73  76
ATOM     76  S   UNL A   1      48.419  27.474  22.391  1.00  0.00     0.127 S 
ATOM     77  O   UNL A   1      49.644  28.248  22.585  1.00  0.00    -0.237 OA
ATOM     78  O   UNL A   1      48.616  26.167  21.765  1.00  0.00    -0.237 OA
ATOM     79  O   UNL A   1      47.283  28.232  21.883  1.00  0.00    -0.744 OA
ENDBRANCH  73  76
ENDBRANCH  55  69
BRANCH  56  80
ATOM     80  C   UNL A   1      38.562  30.414  30.907  1.00  0.00     0.023 A 
ATOM     81  C   UNL A   1      38.469  30.283  32.305  1.00  0.00     0.012 A 
ATOM     82  C   UNL A   1      37.540  31.081  30.204  1.00  0.00     0.148 A 
ATOM     83  C   UNL A   1      37.376  30.808  32.994  1.00  0.00     0.002 A 
ATOM     84  C   UNL A   1      36.476  31.640  30.900  1.00  0.00     0.091 A 
ATOM     85  F   UNL A   1      37.653  31.186  28.872  1.00  0.00    -0.205 F 
ATOM     86  C   UNL A   1      36.387  31.497  32.295  1.00  0.00     0.022 A 
BRANCH  84  87
ATOM     87  S   UNL A   1      35.218  32.643  30.104  1.00  0.00     0.127 S 
ATOM     88  O   UNL A   1      34.367  33.007  31.235  1.00  0.00    -0.237 OA
ATOM     89  O   UNL A   1      36.015  33.739  29.554  1.00  0.00    -0.237 OA
ATOM     90  O   UNL A   1      34.597  31.784  29.105  1.00  0.00    -0.744 OA
ENDBRANCH  84  87
ENDBRANCH  56  80
BRANCH  68  91
ATOM     91  C   UNL A   1      44.946  33.056  29.816  1.00  0.00     0.023 A 
ATOM     92  C   UNL A   1      45.660  33.063  31.028  1.00  0.00     0.012 A 
ATOM     93  C   UNL A   1      44.993  34.181  28.969  1.00  0.00     0.148 A 
ATOM     94  C   UNL A   1      46.410  34.179  31.398  1.00  0.00     0.002 A 
ATOM     95  C   UNL A   1      45.769  35.275  29.329  1.00  0.00     0.091 A 
ATOM     96  F   UNL A   1      44.297  34.147  27.824  1.00  0.00    -0.205 F 
ATOM     97  C   UNL A   1      46.475  35.278  30.544  1.00  0.00     0.022 A 
BRANCH  95  98
ATOM     98  S   UNL A   1      45.977  36.708  28.264  1.00  0.00     0.127 S 
ATOM     99  O   UNL A   1      46.830  37.567  29.084  1.00  0.00    -0.237 OA
ATOM    100  O   UNL A   1      46.637  36.129  27.094  1.00  0.00    -0.237 OA
ATOM    101  O   UNL A   1      44.637  37.223  28.014  1.00  0.00    -0.744 OA
ENDBRANCH  95  98
ENDBRANCH  68  91
ENDBRANCH  42  43
ENDBRANCH  34  37
ENDBRANCH  32  33
ENDBRANCH  31  32
ENDBRANCH   1  31
TORSDOF 18
ENDMDL
MODEL 3
REMARK VINA RESULT:     -13.2      1.373      4.520
REMARK SMILES C[C@H]1Oc2ccccc2C=C1/C=C/C(=O)N[C@H](C(=O)NCCCCNC(=O)c1ccc(-c2c3nc(c(-c4cccc(S(=O)(=O)[O-])c4F)c4ccc([nH]4)c(-c4cccc(S(=O)(=O)[O-])c4F)c4nc(c(-c5cccc(S(=O)(=O)[O-])c5F)c5ccc2[nH]5)C=C4)C=C3)cc1)c1ccccc1
REMARK SMILES IDX 22 1 21 2 20 3 18 4 19 5 17 7 16 8 14 9 15 10 13 12 12 13
REMARK SMILES IDX 11 14 1 15 2 16 3 17 4 18 10 19 5 20 9 21 6 22 8 23 7 24
REMARK SMILES IDX 91 25 92 26 96 27 93 28 95 29 94 30 23 31 24 32 25 33 26 34
REMARK SMILES IDX 27 36 28 37 29 38 90 39 30 40 89 41 31 42 32 43 33 44 83 45
REMARK SMILES IDX 34 46 88 47 82 48 84 49 35 50 87 51 81 52 80 53 36 55 68 56
REMARK SMILES IDX 48 57 67 58 49 59 52 60 66 61 85 62 50 63 51 64 65 66 86 67
REMARK SMILES IDX 53 68 37 69 38 70 46 71 39 72 41 73 47 74 40 75 42 76 43 77
REMARK SMILES IDX 44 78 45 79 69 80 70 81 78 82 71 83 73 84 79 85 72 86 74 87
REMARK SMILES IDX 75 88 76 89 77 90 54 91 55 92 63 93 56 94 58 95 64 96 57 97
REMARK SMILES IDX 59 98 60 99 61 100 62 101
REMARK H PARENT 20 6 16 11 25 35 84 54 52 65
REMARK Flexibility Score: inf
ROOT
ATOM      1  C   UNL A   1      35.257  23.660  23.928  1.00  0.00     0.023 C 
ENDROOT
BRANCH   1   2
ATOM      2  C   UNL A   1      35.244  24.616  25.120  1.00  0.00     0.116 C 
BRANCH   2   3
ATOM      3  N   UNL A   1      33.939  24.705  25.743  1.00  0.00    -0.354 N 
ATOM      4  C   UNL A   1      32.981  25.672  25.610  1.00  0.00     0.247 C 
ATOM      5  O   UNL A   1      31.991  25.568  26.341  1.00  0.00    -0.272 OA
ATOM      6  H   UNL A   1      33.709  23.963  26.348  1.00  0.00     0.163 HD
BRANCH   4   7
ATOM      7  C   UNL A   1      33.229  26.919  24.711  1.00  0.00     0.202 C 
BRANCH   7   8
ATOM      8  N   UNL A   1      32.752  26.914  23.324  1.00  0.00    -0.337 N 
ATOM      9  C   UNL A   1      32.126  25.970  22.577  1.00  0.00     0.244 C 
ATOM     10  O   UNL A   1      31.529  26.315  21.559  1.00  0.00    -0.270 OA
ATOM     11  H   UNL A   1      32.919  27.755  22.842  1.00  0.00     0.164 HD
BRANCH   9  12
ATOM     12  C   UNL A   1      32.339  24.533  22.833  1.00  0.00     0.071 C 
ATOM     13  C   UNL A   1      31.454  23.669  23.351  1.00  0.00     0.013 C 
BRANCH  13  14
ATOM     14  C   UNL A   1      31.777  22.283  23.690  1.00  0.00    -0.007 C 
ATOM     15  C   UNL A   1      30.748  22.195  26.025  1.00  0.00     0.058 C 
ATOM     16  C   UNL A   1      31.994  21.963  25.170  1.00  0.00     0.200 C 
ATOM     17  O   UNL A   1      32.443  20.629  25.486  1.00  0.00    -0.485 OA
ATOM     18  C   UNL A   1      32.511  19.700  24.491  1.00  0.00     0.127 A 
ATOM     19  C   UNL A   1      31.907  21.335  22.747  1.00  0.00     0.019 C 
ATOM     20  C   UNL A   1      32.850  18.405  24.885  1.00  0.00     0.047 A 
ATOM     21  C   UNL A   1      32.283  19.988  23.146  1.00  0.00     0.017 A 
ATOM     22  C   UNL A   1      32.977  17.393  23.935  1.00  0.00     0.004 A 
ATOM     23  C   UNL A   1      32.429  18.973  22.193  1.00  0.00     0.012 A 
ATOM     24  C   UNL A   1      32.775  17.678  22.586  1.00  0.00     0.001 A 
ENDBRANCH  13  14
ENDBRANCH   9  12
ENDBRANCH   7   8
BRANCH   7  25
ATOM     25  C   UNL A   1      32.992  28.266  25.404  1.00  0.00    -0.016 A 
ATOM     26  C   UNL A   1      31.880  29.082  25.134  1.00  0.00     0.006 A 
ATOM     27  C   UNL A   1      33.948  28.742  26.321  1.00  0.00     0.006 A 
ATOM     28  C   UNL A   1      31.739  30.331  25.749  1.00  0.00     0.000 A 
ATOM     29  C   UNL A   1      33.804  29.989  26.936  1.00  0.00     0.000 A 
ATOM     30  C   UNL A   1      32.700  30.785  26.646  1.00  0.00     0.000 A 
ENDBRANCH   7  25
ENDBRANCH   4   7
ENDBRANCH   2   3
ENDBRANCH   1   2
BRANCH   1  31
ATOM     31  C   UNL A   1      35.585  22.201  24.267  1.00  0.00     0.023 C 
BRANCH  31  32
ATOM     32  C   UNL A   1      36.236  21.977  25.629  1.00  0.00     0.116 C 
BRANCH  32  33
ATOM     33  N   UNL A   1      37.294  20.976  25.588  1.00  0.00    -0.352 N 
ATOM     34  C   UNL A   1      38.639  21.096  25.851  1.00  0.00     0.251 C 
ATOM     35  H   UNL A   1      37.001  20.072  25.331  1.00  0.00     0.163 HD
ATOM     36  O   UNL A   1      39.395  20.169  25.570  1.00  0.00    -0.269 OA
BRANCH  34  37
ATOM     37  C   UNL A   1      39.180  22.343  26.438  1.00  0.00     0.039 A 
ATOM     38  C   UNL A   1      38.636  23.584  26.106  1.00  0.00     0.014 A 
ATOM     39  C   UNL A   1      40.254  22.270  27.331  1.00  0.00     0.014 A 
ATOM     40  C   UNL A   1      39.279  24.751  26.509  1.00  0.00     0.010 A 
ATOM     41  C   UNL A   1      40.843  23.446  27.808  1.00  0.00     0.010 A 
ATOM     42  C   UNL A   1      40.399  24.697  27.354  1.00  0.00    -0.014 A 
BRANCH  42  43
ATOM     43  C   UNL A   1      41.087  25.958  27.739  1.00  0.00     0.031 A 
ATOM     44  C   UNL A   1      42.482  26.258  27.253  1.00  0.00     0.074 A 
ATOM     45  C   UNL A   1      40.434  26.861  28.497  1.00  0.00     0.049 A 
ATOM     46  N   UNL A   1      43.210  27.324  27.465  1.00  0.00    -0.248 NA
ATOM     47  C   UNL A   1      43.149  25.235  26.431  1.00  0.00     0.031 C 
ATOM     48  C   UNL A   1      39.091  26.682  29.051  1.00  0.00     0.029 A 
ATOM     49  N   UNL A   1      40.804  28.113  28.922  1.00  0.00    -0.354 N 
ATOM     50  C   UNL A   1      44.429  27.087  26.838  1.00  0.00     0.074 A 
ATOM     51  C   UNL A   1      44.347  25.772  26.242  1.00  0.00     0.031 C 
ATOM     52  C   UNL A   1      38.734  27.795  29.709  1.00  0.00     0.029 A 
ATOM     53  C   UNL A   1      39.837  28.750  29.662  1.00  0.00     0.049 A 
ATOM     54  H   UNL A   1      41.678  28.517  28.715  1.00  0.00     0.167 HD
ATOM     55  C   UNL A   1      45.507  27.900  26.745  1.00  0.00     0.034 A 
ATOM     56  C   UNL A   1      39.834  29.963  30.248  1.00  0.00     0.034 A 
ATOM     57  C   UNL A   1      45.569  29.231  27.281  1.00  0.00     0.049 A 
ATOM     58  C   UNL A   1      41.036  30.851  30.113  1.00  0.00     0.074 A 
ATOM     59  C   UNL A   1      46.603  30.147  27.180  1.00  0.00     0.029 A 
ATOM     60  N   UNL A   1      44.563  29.841  28.011  1.00  0.00    -0.354 N 
ATOM     61  N   UNL A   1      42.141  30.640  29.442  1.00  0.00    -0.248 NA
ATOM     62  C   UNL A   1      40.988  32.150  30.802  1.00  0.00     0.031 C 
ATOM     63  C   UNL A   1      46.224  31.310  27.855  1.00  0.00     0.029 A 
ATOM     64  C   UNL A   1      44.951  31.120  28.369  1.00  0.00     0.049 A 
ATOM     65  H   UNL A   1      43.700  29.427  28.241  1.00  0.00     0.167 HD
ATOM     66  C   UNL A   1      42.915  31.778  29.616  1.00  0.00     0.074 A 
ATOM     67  C   UNL A   1      42.146  32.689  30.439  1.00  0.00     0.031 C 
ATOM     68  C   UNL A   1      44.160  32.035  29.148  1.00  0.00     0.034 A 
BRANCH  55  69
ATOM     69  C   UNL A   1      46.706  27.406  25.981  1.00  0.00     0.023 A 
ATOM     70  C   UNL A   1      46.816  27.706  24.609  1.00  0.00     0.012 A 
ATOM     71  C   UNL A   1      47.768  26.756  26.639  1.00  0.00     0.148 A 
ATOM     72  C   UNL A   1      47.965  27.360  23.900  1.00  0.00     0.002 A 
ATOM     73  C   UNL A   1      48.921  26.440  25.932  1.00  0.00     0.091 A 
ATOM     74  F   UNL A   1      47.633  26.475  27.942  1.00  0.00    -0.205 F 
ATOM     75  C   UNL A   1      49.020  26.737  24.563  1.00  0.00     0.022 A 
BRANCH  73  76
ATOM     76  S   UNL A   1      50.362  25.688  26.700  1.00  0.00     0.127 S 
ATOM     77  O   UNL A   1      50.720  26.694  27.699  1.00  0.00    -0.237 OA
ATOM     78  O   UNL A   1      49.805  24.453  27.252  1.00  0.00    -0.237 OA
ATOM     79  O   UNL A   1      51.336  25.499  25.635  1.00  0.00    -0.744 OA
ENDBRANCH  73  76
ENDBRANCH  55  69
BRANCH  56  80
ATOM     80  C   UNL A   1      38.615  30.414  30.969  1.00  0.00     0.023 A 
ATOM     81  C   UNL A   1      38.504  30.171  32.352  1.00  0.00     0.012 A 
ATOM     82  C   UNL A   1      37.613  31.156  30.314  1.00  0.00     0.148 A 
ATOM     83  C   UNL A   1      37.412  30.657  33.070  1.00  0.00     0.002 A 
ATOM     84  C   UNL A   1      36.552  31.676  31.043  1.00  0.00     0.091 A 
ATOM     85  F   UNL A   1      37.744  31.368  28.997  1.00  0.00    -0.205 F 
ATOM     86  C   UNL A   1      36.444  31.420  32.420  1.00  0.00     0.022 A 
BRANCH  84  87
ATOM     87  S   UNL A   1      35.321  32.764  30.320  1.00  0.00     0.127 S 
ATOM     88  O   UNL A   1      34.397  32.953  31.437  1.00  0.00    -0.237 OA
ATOM     89  O   UNL A   1      36.125  33.938  29.979  1.00  0.00    -0.237 OA
ATOM     90  O   UNL A   1      34.779  32.047  29.174  1.00  0.00    -0.744 OA
ENDBRANCH  84  87
ENDBRANCH  56  80
BRANCH  68  91
ATOM     91  C   UNL A   1      44.790  33.354  29.500  1.00  0.00     0.023 A 
ATOM     92  C   UNL A   1      45.624  33.437  30.630  1.00  0.00     0.012 A 
ATOM     93  C   UNL A   1      44.660  34.465  28.643  1.00  0.00     0.148 A 
ATOM     94  C   UNL A   1      46.319  34.613  30.908  1.00  0.00     0.002 A 
ATOM     95  C   UNL A   1      45.382  35.622  28.909  1.00  0.00     0.091 A 
ATOM     96  F   UNL A   1      43.852  34.358  27.578  1.00  0.00    -0.205 F 
ATOM     97  C   UNL A   1      46.209  35.699  30.043  1.00  0.00     0.022 A 
BRANCH  95  98
ATOM     98  S   UNL A   1      45.364  37.047  27.815  1.00  0.00     0.127 S 
ATOM     99  O   UNL A   1      45.475  36.416  26.501  1.00  0.00    -0.237 OA
ATOM    100  O   UNL A   1      44.057  37.638  28.100  1.00  0.00    -0.237 OA
ATOM    101  O   UNL A   1      46.502  37.870  28.205  1.00  0.00    -0.744 OA
ENDBRANCH  95  98
ENDBRANCH  68  91
ENDBRANCH  42  43
ENDBRANCH  34  37
ENDBRANCH  32  33
ENDBRANCH  31  32
ENDBRANCH   1  31
TORSDOF 18
ENDMDL
