MODEL 1
REMARK VINA RESULT:      -8.7      0.000      0.000
REMARK SMILES C[C@H](CC(=O)N1CCC2(CC1)CN(CCCC(=O)NCCCCNC(=O)c1ccc(-c3c4nc(c(-c5cccc(S(=O)(=O)[O-])c5F)c5ccc([nH]5)c(-c5cccc(S(=O)(=O)[O-])c5F)c5nc(c(-c6cccc(S(=O)(=O)[O-])c6F)c6ccc3[nH]6)C=C5)C=C4)cc1)C(=O)O2)n1ccnc1
REMARK SMILES IDX 20 1 19 2 17 3 18 4 16 6 15 7 14 8 13 9 4 10 5 11 6 12 7 13
REMARK SMILES IDX 11 14 8 15 10 16 9 17 12 18 92 19 90 20 91 21 3 22 2 23 1 24
REMARK SMILES IDX 93 25 94 26 97 27 95 28 96 29 21 30 22 31 23 32 24 33 25 34
REMARK SMILES IDX 26 36 27 37 28 38 89 39 29 40 88 41 30 42 31 43 32 44 82 45
REMARK SMILES IDX 33 46 87 47 81 48 83 49 34 50 86 51 80 52 79 53 35 55 67 56
REMARK SMILES IDX 47 57 66 58 48 59 51 60 65 61 84 62 49 63 50 64 64 66 85 67
REMARK SMILES IDX 52 68 36 69 37 70 45 71 38 72 40 73 46 74 39 75 41 76 42 77
REMARK SMILES IDX 43 78 44 79 68 80 69 81 77 82 70 83 72 84 78 85 71 86 73 87
REMARK SMILES IDX 74 88 75 89 76 90 53 91 54 92 62 93 55 94 57 95 63 96 56 97
REMARK SMILES IDX 58 98 59 99 60 100 61 101
REMARK H PARENT 19 5 24 35 83 54 51 65
REMARK Flexibility Score: inf
ROOT
ATOM      1  C   UNL A   1      35.781  31.806  31.886  1.00  0.00     0.116 C 
ENDROOT
BRANCH   1   2
ATOM      2  N   UNL A   1      35.827  32.240  33.261  1.00  0.00    -0.356 N 
ATOM      3  C   UNL A   1      36.851  32.735  34.000  1.00  0.00     0.220 C 
ATOM      4  O   UNL A   1      36.607  33.079  35.160  1.00  0.00    -0.275 OA
ATOM      5  H   UNL A   1      34.972  32.162  33.745  1.00  0.00     0.163 HD
BRANCH   3   6
ATOM      6  C   UNL A   1      38.234  32.975  33.419  1.00  0.00     0.102 C 
BRANCH   6   7
ATOM      7  C   UNL A   1      39.423  32.148  33.908  1.00  0.00     0.031 C 
BRANCH   7   8
ATOM      8  C   UNL A   1      39.442  30.620  33.839  1.00  0.00     0.124 C 
BRANCH   8   9
ATOM      9  N   UNL A   1      40.496  29.839  34.477  1.00  0.00    -0.304 N 
ATOM     10  C   UNL A   1      44.201  24.729  36.070  1.00  0.00     0.224 C 
ATOM     11  O   UNL A   1      45.408  24.783  36.339  1.00  0.00    -0.275 OA
ATOM     12  N   UNL A   1      43.429  25.875  36.074  1.00  0.00    -0.342 N 
ATOM     13  C   UNL A   1      44.102  27.172  36.047  1.00  0.00     0.123 C 
ATOM     14  C   UNL A   1      41.996  25.977  36.316  1.00  0.00     0.123 C 
ATOM     15  C   UNL A   1      43.527  28.016  34.912  1.00  0.00     0.072 C 
ATOM     16  C   UNL A   1      41.311  26.822  35.253  1.00  0.00     0.072 C 
ATOM     17  C   UNL A   1      42.012  28.183  35.052  1.00  0.00     0.135 C 
ATOM     18  C   UNL A   1      41.425  28.939  33.863  1.00  0.00     0.172 C 
ATOM     19  O   UNL A   1      41.727  29.034  36.177  1.00  0.00    -0.441 OA
ATOM     20  C   UNL A   1      40.742  29.921  35.831  1.00  0.00     0.410 C 
ATOM     21  O   UNL A   1      40.188  30.656  36.624  1.00  0.00    -0.224 OA
BRANCH  10  22
ATOM     22  C   UNL A   1      43.667  23.416  35.501  1.00  0.00     0.125 C 
BRANCH  22  23
ATOM     23  C   UNL A   1      44.433  22.575  34.465  1.00  0.00     0.094 C 
ATOM     24  C   UNL A   1      44.894  23.421  33.270  1.00  0.00     0.032 C 
BRANCH  23  25
ATOM     25  N   UNL A   1      45.436  21.685  35.057  1.00  0.00    -0.334 N 
ATOM     26  C   UNL A   1      46.408  20.994  34.373  1.00  0.00     0.107 A 
ATOM     27  C   UNL A   1      45.659  21.448  36.387  1.00  0.00     0.199 A 
ATOM     28  C   UNL A   1      47.105  20.293  35.327  1.00  0.00     0.130 A 
ATOM     29  N   UNL A   1      46.608  20.556  36.571  1.00  0.00    -0.245 NA
ENDBRANCH  23  25
ENDBRANCH  22  23
ENDBRANCH  10  22
ENDBRANCH   8   9
ENDBRANCH   7   8
ENDBRANCH   6   7
ENDBRANCH   3   6
ENDBRANCH   1   2
BRANCH   1  30
ATOM     30  C   UNL A   1      35.991  32.967  30.916  1.00  0.00     0.023 C 
BRANCH  30  31
ATOM     31  C   UNL A   1      34.801  33.229  30.004  1.00  0.00     0.023 C 
BRANCH  31  32
ATOM     32  C   UNL A   1      35.049  32.891  28.541  1.00  0.00     0.116 C 
BRANCH  32  33
ATOM     33  N   UNL A   1      34.101  31.932  27.984  1.00  0.00    -0.352 N 
ATOM     34  C   UNL A   1      34.312  30.594  27.737  1.00  0.00     0.251 C 
ATOM     35  H   UNL A   1      33.208  32.282  27.760  1.00  0.00     0.163 HD
ATOM     36  O   UNL A   1      33.437  29.901  27.228  1.00  0.00    -0.269 OA
BRANCH  34  37
ATOM     37  C   UNL A   1      35.635  30.020  28.054  1.00  0.00     0.039 A 
ATOM     38  C   UNL A   1      36.649  30.080  27.099  1.00  0.00     0.014 A 
ATOM     39  C   UNL A   1      35.895  29.540  29.340  1.00  0.00     0.014 A 
ATOM     40  C   UNL A   1      37.949  29.721  27.460  1.00  0.00     0.010 A 
ATOM     41  C   UNL A   1      37.205  29.287  29.723  1.00  0.00     0.010 A 
ATOM     42  C   UNL A   1      38.246  29.360  28.786  1.00  0.00    -0.014 A 
BRANCH  42  43
ATOM     43  C   UNL A   1      39.636  29.054  29.209  1.00  0.00     0.031 A 
ATOM     44  C   UNL A   1      40.445  30.091  29.942  1.00  0.00     0.074 A 
ATOM     45  C   UNL A   1      40.195  27.872  28.878  1.00  0.00     0.049 A 
ATOM     46  N   UNL A   1      41.671  30.016  30.391  1.00  0.00    -0.248 NA
ATOM     47  C   UNL A   1      39.804  31.397  30.177  1.00  0.00     0.031 C 
ATOM     48  C   UNL A   1      39.549  26.816  28.096  1.00  0.00     0.029 A 
ATOM     49  N   UNL A   1      41.441  27.364  29.150  1.00  0.00    -0.354 N 
ATOM     50  C   UNL A   1      41.954  31.264  30.932  1.00  0.00     0.074 A 
ATOM     51  C   UNL A   1      40.795  32.096  30.705  1.00  0.00     0.031 C 
ATOM     52  C   UNL A   1      40.390  25.777  27.975  1.00  0.00     0.029 A 
ATOM     53  C   UNL A   1      41.648  26.103  28.641  1.00  0.00     0.049 A 
ATOM     54  H   UNL A   1      42.123  27.857  29.660  1.00  0.00     0.167 HD
ATOM     55  C   UNL A   1      43.062  31.675  31.592  1.00  0.00     0.034 A 
ATOM     56  C   UNL A   1      42.728  25.300  28.707  1.00  0.00     0.034 A 
ATOM     57  C   UNL A   1      44.204  30.838  31.838  1.00  0.00     0.049 A 
ATOM     58  C   UNL A   1      43.941  25.773  29.462  1.00  0.00     0.074 A 
ATOM     59  C   UNL A   1      45.348  31.131  32.558  1.00  0.00     0.029 A 
ATOM     60  N   UNL A   1      44.355  29.546  31.357  1.00  0.00    -0.354 N 
ATOM     61  N   UNL A   1      44.130  26.900  30.104  1.00  0.00    -0.248 NA
ATOM     62  C   UNL A   1      45.077  24.843  29.535  1.00  0.00     0.031 C 
ATOM     63  C   UNL A   1      46.206  30.029  32.481  1.00  0.00     0.029 A 
ATOM     64  C   UNL A   1      45.577  29.031  31.753  1.00  0.00     0.049 A 
ATOM     65  H   UNL A   1      43.689  29.065  30.814  1.00  0.00     0.167 HD
ATOM     66  C   UNL A   1      45.387  26.800  30.690  1.00  0.00     0.074 A 
ATOM     67  C   UNL A   1      45.901  25.489  30.346  1.00  0.00     0.031 C 
ATOM     68  C   UNL A   1      46.059  27.710  31.438  1.00  0.00     0.034 A 
BRANCH  55  69
ATOM     69  C   UNL A   1      43.066  33.084  32.132  1.00  0.00     0.023 A 
ATOM     70  C   UNL A   1      43.278  34.168  31.253  1.00  0.00     0.012 A 
ATOM     71  C   UNL A   1      42.835  33.339  33.497  1.00  0.00     0.148 A 
ATOM     72  C   UNL A   1      43.310  35.476  31.731  1.00  0.00     0.002 A 
ATOM     73  C   UNL A   1      42.816  34.651  33.957  1.00  0.00     0.091 A 
ATOM     74  F   UNL A   1      42.656  32.298  34.322  1.00  0.00    -0.205 F 
ATOM     75  C   UNL A   1      43.069  35.719  33.080  1.00  0.00     0.022 A 
BRANCH  73  76
ATOM     76  S   UNL A   1      42.434  35.076  35.659  1.00  0.00     0.127 S 
ATOM     77  O   UNL A   1      41.123  34.449  35.833  1.00  0.00    -0.237 OA
ATOM     78  O   UNL A   1      43.521  34.426  36.389  1.00  0.00    -0.237 OA
ATOM     79  O   UNL A   1      42.442  36.531  35.722  1.00  0.00    -0.744 OA
ENDBRANCH  73  76
ENDBRANCH  55  69
BRANCH  56  80
ATOM     80  C   UNL A   1      42.688  23.935  28.105  1.00  0.00     0.023 A 
ATOM     81  C   UNL A   1      41.887  22.940  28.699  1.00  0.00     0.012 A 
ATOM     82  C   UNL A   1      43.428  23.621  26.949  1.00  0.00     0.148 A 
ATOM     83  C   UNL A   1      41.856  21.646  28.179  1.00  0.00     0.002 A 
ATOM     84  C   UNL A   1      43.348  22.345  26.403  1.00  0.00     0.091 A 
ATOM     85  F   UNL A   1      44.189  24.579  26.402  1.00  0.00    -0.205 F 
ATOM     86  C   UNL A   1      42.579  21.351  27.027  1.00  0.00     0.022 A 
BRANCH  84  87
ATOM     87  S   UNL A   1      44.144  21.904  24.855  1.00  0.00     0.127 S 
ATOM     88  O   UNL A   1      43.454  22.772  23.905  1.00  0.00    -0.237 OA
ATOM     89  O   UNL A   1      45.537  22.264  25.121  1.00  0.00    -0.237 OA
ATOM     90  O   UNL A   1      43.913  20.475  24.684  1.00  0.00    -0.744 OA
ENDBRANCH  84  87
ENDBRANCH  56  80
BRANCH  68  91
ATOM     91  C   UNL A   1      47.408  27.307  31.978  1.00  0.00     0.023 A 
ATOM     92  C   UNL A   1      48.583  27.660  31.284  1.00  0.00     0.012 A 
ATOM     93  C   UNL A   1      47.510  26.618  33.202  1.00  0.00     0.148 A 
ATOM     94  C   UNL A   1      49.834  27.289  31.775  1.00  0.00     0.002 A 
ATOM     95  C   UNL A   1      48.762  26.302  33.714  1.00  0.00     0.091 A 
ATOM     96  F   UNL A   1      46.381  26.276  33.841  1.00  0.00    -0.205 F 
ATOM     97  C   UNL A   1      49.925  26.620  32.994  1.00  0.00     0.022 A 
BRANCH  95  98
ATOM     98  S   UNL A   1      48.978  25.536  35.324  1.00  0.00     0.127 S 
ATOM     99  O   UNL A   1      48.412  24.206  35.099  1.00  0.00    -0.237 OA
ATOM    100  O   UNL A   1      50.432  25.561  35.487  1.00  0.00    -0.237 OA
ATOM    101  O   UNL A   1      48.251  26.373  36.269  1.00  0.00    -0.744 OA
ENDBRANCH  95  98
ENDBRANCH  68  91
ENDBRANCH  42  43
ENDBRANCH  34  37
ENDBRANCH  32  33
ENDBRANCH  31  32
ENDBRANCH  30  31
ENDBRANCH   1  30
TORSDOF 20
ENDMDL
MODEL 2
REMARK VINA RESULT:      -8.2      4.681      8.823
REMARK SMILES C[C@H](CC(=O)N1CCC2(CC1)CN(CCCC(=O)NCCCCNC(=O)c1ccc(-c3c4nc(c(-c5cccc(S(=O)(=O)[O-])c5F)c5ccc([nH]5)c(-c5cccc(S(=O)(=O)[O-])c5F)c5nc(c(-c6cccc(S(=O)(=O)[O-])c6F)c6ccc3[nH]6)C=C5)C=C4)cc1)C(=O)O2)n1ccnc1
REMARK SMILES IDX 20 1 19 2 17 3 18 4 16 6 15 7 14 8 13 9 4 10 5 11 6 12 7 13
REMARK SMILES IDX 11 14 8 15 10 16 9 17 12 18 92 19 90 20 91 21 3 22 2 23 1 24
REMARK SMILES IDX 93 25 94 26 97 27 95 28 96 29 21 30 22 31 23 32 24 33 25 34
REMARK SMILES IDX 26 36 27 37 28 38 89 39 29 40 88 41 30 42 31 43 32 44 82 45
REMARK SMILES IDX 33 46 87 47 81 48 83 49 34 50 86 51 80 52 79 53 35 55 67 56
REMARK SMILES IDX 47 57 66 58 48 59 51 60 65 61 84 62 49 63 50 64 64 66 85 67
REMARK SMILES IDX 52 68 36 69 37 70 45 71 38 72 40 73 46 74 39 75 41 76 42 77
REMARK SMILES IDX 43 78 44 79 68 80 69 81 77 82 70 83 72 84 78 85 71 86 73 87
REMARK SMILES IDX 74 88 75 89 76 90 53 91 54 92 62 93 55 94 57 95 63 96 56 97
REMARK SMILES IDX 58 98 59 99 60 100 61 101
REMARK H PARENT 19 5 24 35 83 54 51 65
REMARK Flexibility Score: inf
ROOT
ATOM      1  C   UNL A   1      32.458  29.633  26.571  1.00  0.00     0.116 C 
ENDROOT
BRANCH   1   2
ATOM      2  N   UNL A   1      33.150  29.541  25.309  1.00  0.00    -0.356 N 
ATOM      3  C   UNL A   1      32.675  29.405  24.045  1.00  0.00     0.220 C 
ATOM      4  O   UNL A   1      33.494  29.399  23.122  1.00  0.00    -0.275 OA
ATOM      5  H   UNL A   1      34.132  29.583  25.375  1.00  0.00     0.163 HD
BRANCH   3   6
ATOM      6  C   UNL A   1      31.189  29.371  23.733  1.00  0.00     0.102 C 
BRANCH   6   7
ATOM      7  C   UNL A   1      30.692  28.724  22.440  1.00  0.00     0.031 C 
BRANCH   7   8
ATOM      8  C   UNL A   1      30.926  27.245  22.123  1.00  0.00     0.124 C 
BRANCH   8   9
ATOM      9  N   UNL A   1      31.380  26.308  23.144  1.00  0.00    -0.304 N 
ATOM     10  C   UNL A   1      34.886  21.644  26.032  1.00  0.00     0.224 C 
ATOM     11  O   UNL A   1      35.133  21.589  27.244  1.00  0.00    -0.275 OA
ATOM     12  N   UNL A   1      33.875  22.459  25.559  1.00  0.00    -0.342 N 
ATOM     13  C   UNL A   1      33.349  23.502  26.437  1.00  0.00     0.123 C 
ATOM     14  C   UNL A   1      33.095  22.286  24.341  1.00  0.00     0.123 C 
ATOM     15  C   UNL A   1      33.379  24.842  25.704  1.00  0.00     0.072 C 
ATOM     16  C   UNL A   1      33.034  23.572  23.531  1.00  0.00     0.072 C 
ATOM     17  C   UNL A   1      32.597  24.779  24.391  1.00  0.00     0.135 C 
ATOM     18  C   UNL A   1      32.715  26.086  23.611  1.00  0.00     0.172 C 
ATOM     19  O   UNL A   1      31.190  24.673  24.676  1.00  0.00    -0.441 OA
ATOM     20  C   UNL A   1      30.498  25.505  23.837  1.00  0.00     0.410 C 
ATOM     21  O   UNL A   1      29.287  25.510  23.741  1.00  0.00    -0.224 OA
BRANCH  10  22
ATOM     22  C   UNL A   1      35.884  20.986  25.082  1.00  0.00     0.125 C 
BRANCH  22  23
ATOM     23  C   UNL A   1      37.075  21.735  24.460  1.00  0.00     0.094 C 
ATOM     24  C   UNL A   1      36.627  22.708  23.360  1.00  0.00     0.032 C 
BRANCH  23  25
ATOM     25  N   UNL A   1      38.017  22.265  25.451  1.00  0.00    -0.334 N 
ATOM     26  C   UNL A   1      39.137  21.624  25.924  1.00  0.00     0.107 A 
ATOM     27  C   UNL A   1      38.019  23.512  26.017  1.00  0.00     0.199 A 
ATOM     28  C   UNL A   1      39.702  22.486  26.832  1.00  0.00     0.130 A 
ATOM     29  N   UNL A   1      38.978  23.641  26.907  1.00  0.00    -0.245 NA
ENDBRANCH  23  25
ENDBRANCH  22  23
ENDBRANCH  10  22
ENDBRANCH   8   9
ENDBRANCH   7   8
ENDBRANCH   6   7
ENDBRANCH   3   6
ENDBRANCH   1   2
BRANCH   1  30
ATOM     30  C   UNL A   1      32.773  30.938  27.300  1.00  0.00     0.023 C 
BRANCH  30  31
ATOM     31  C   UNL A   1      34.233  31.078  27.705  1.00  0.00     0.023 C 
BRANCH  31  32
ATOM     32  C   UNL A   1      34.726  32.516  27.778  1.00  0.00     0.116 C 
BRANCH  32  33
ATOM     33  N   UNL A   1      33.751  33.449  28.331  1.00  0.00    -0.352 N 
ATOM     34  C   UNL A   1      33.765  34.035  29.577  1.00  0.00     0.251 C 
ATOM     35  H   UNL A   1      32.996  33.688  27.745  1.00  0.00     0.163 HD
ATOM     36  O   UNL A   1      32.857  34.779  29.935  1.00  0.00    -0.269 OA
BRANCH  34  37
ATOM     37  C   UNL A   1      34.875  33.710  30.495  1.00  0.00     0.039 A 
ATOM     38  C   UNL A   1      34.799  32.554  31.272  1.00  0.00     0.014 A 
ATOM     39  C   UNL A   1      36.037  34.485  30.484  1.00  0.00     0.014 A 
ATOM     40  C   UNL A   1      35.921  32.138  31.989  1.00  0.00     0.010 A 
ATOM     41  C   UNL A   1      37.181  34.010  31.111  1.00  0.00     0.010 A 
ATOM     42  C   UNL A   1      37.135  32.840  31.882  1.00  0.00    -0.014 A 
BRANCH  42  43
ATOM     43  C   UNL A   1      38.362  32.368  32.572  1.00  0.00     0.031 A 
ATOM     44  C   UNL A   1      38.641  32.796  33.988  1.00  0.00     0.074 A 
ATOM     45  C   UNL A   1      39.258  31.609  31.907  1.00  0.00     0.049 A 
ATOM     46  N   UNL A   1      39.655  32.493  34.757  1.00  0.00    -0.248 NA
ATOM     47  C   UNL A   1      37.670  33.708  34.615  1.00  0.00     0.031 C 
ATOM     48  C   UNL A   1      39.149  31.198  30.505  1.00  0.00     0.029 A 
ATOM     49  N   UNL A   1      40.446  31.059  32.319  1.00  0.00    -0.354 N 
ATOM     50  C   UNL A   1      39.457  33.196  35.939  1.00  0.00     0.074 A 
ATOM     51  C   UNL A   1      38.259  33.985  35.767  1.00  0.00     0.031 C 
ATOM     52  C   UNL A   1      40.208  30.438  30.184  1.00  0.00     0.029 A 
ATOM     53  C   UNL A   1      41.089  30.335  31.343  1.00  0.00     0.049 A 
ATOM     54  H   UNL A   1      40.804  31.173  33.229  1.00  0.00     0.167 HD
ATOM     55  C   UNL A   1      40.182  33.162  37.082  1.00  0.00     0.034 A 
ATOM     56  C   UNL A   1      42.256  29.662  31.379  1.00  0.00     0.034 A 
ATOM     57  C   UNL A   1      41.359  32.358  37.259  1.00  0.00     0.049 A 
ATOM     58  C   UNL A   1      43.035  29.625  32.666  1.00  0.00     0.074 A 
ATOM     59  C   UNL A   1      42.128  32.194  38.398  1.00  0.00     0.029 A 
ATOM     60  N   UNL A   1      41.950  31.591  36.266  1.00  0.00    -0.354 N 
ATOM     61  N   UNL A   1      42.748  30.170  33.824  1.00  0.00    -0.248 NA
ATOM     62  C   UNL A   1      44.281  28.846  32.662  1.00  0.00     0.031 C 
ATOM     63  C   UNL A   1      43.204  31.358  38.082  1.00  0.00     0.029 A 
ATOM     64  C   UNL A   1      43.080  30.962  36.760  1.00  0.00     0.049 A 
ATOM     65  H   UNL A   1      41.614  31.507  35.344  1.00  0.00     0.167 HD
ATOM     66  C   UNL A   1      43.754  29.766  34.696  1.00  0.00     0.074 A 
ATOM     67  C   UNL A   1      44.643  28.911  33.935  1.00  0.00     0.031 C 
ATOM     68  C   UNL A   1      43.932  30.080  36.003  1.00  0.00     0.034 A 
BRANCH  55  69
ATOM     69  C   UNL A   1      39.689  33.992  38.241  1.00  0.00     0.023 A 
ATOM     70  C   UNL A   1      38.772  33.437  39.159  1.00  0.00     0.012 A 
ATOM     71  C   UNL A   1      40.149  35.309  38.439  1.00  0.00     0.148 A 
ATOM     72  C   UNL A   1      38.283  34.191  40.223  1.00  0.00     0.002 A 
ATOM     73  C   UNL A   1      39.697  36.037  39.533  1.00  0.00     0.091 A 
ATOM     74  F   UNL A   1      41.004  35.829  37.547  1.00  0.00    -0.205 F 
ATOM     75  C   UNL A   1      38.752  35.488  40.416  1.00  0.00     0.022 A 
BRANCH  73  76
ATOM     76  S   UNL A   1      40.302  37.683  39.919  1.00  0.00     0.127 S 
ATOM     77  O   UNL A   1      39.184  38.519  39.480  1.00  0.00    -0.237 OA
ATOM     78  O   UNL A   1      40.476  37.614  41.369  1.00  0.00    -0.237 OA
ATOM     79  O   UNL A   1      41.536  37.846  39.164  1.00  0.00    -0.744 OA
ENDBRANCH  73  76
ENDBRANCH  55  69
BRANCH  56  80
ATOM     80  C   UNL A   1      42.725  28.904  30.182  1.00  0.00     0.023 A 
ATOM     81  C   UNL A   1      42.266  27.588  29.973  1.00  0.00     0.012 A 
ATOM     82  C   UNL A   1      43.611  29.477  29.251  1.00  0.00     0.148 A 
ATOM     83  C   UNL A   1      42.712  26.842  28.882  1.00  0.00     0.002 A 
ATOM     84  C   UNL A   1      44.007  28.749  28.135  1.00  0.00     0.091 A 
ATOM     85  F   UNL A   1      44.041  30.727  29.470  1.00  0.00    -0.205 F 
ATOM     86  C   UNL A   1      43.575  27.425  27.959  1.00  0.00     0.022 A 
BRANCH  84  87
ATOM     87  S   UNL A   1      45.018  29.454  26.829  1.00  0.00     0.127 S 
ATOM     88  O   UNL A   1      46.331  29.513  27.465  1.00  0.00    -0.237 OA
ATOM     89  O   UNL A   1      44.888  28.450  25.774  1.00  0.00    -0.237 OA
ATOM     90  O   UNL A   1      44.414  30.742  26.513  1.00  0.00    -0.744 OA
ENDBRANCH  84  87
ENDBRANCH  56  80
BRANCH  68  91
ATOM     91  C   UNL A   1      45.109  29.460  36.713  1.00  0.00     0.023 A 
ATOM     92  C   UNL A   1      46.350  30.128  36.744  1.00  0.00     0.012 A 
ATOM     93  C   UNL A   1      44.967  28.235  37.393  1.00  0.00     0.148 A 
ATOM     94  C   UNL A   1      47.444  29.559  37.396  1.00  0.00     0.002 A 
ATOM     95  C   UNL A   1      46.045  27.703  38.090  1.00  0.00     0.091 A 
ATOM     96  F   UNL A   1      43.784  27.606  37.340  1.00  0.00    -0.205 F 
ATOM     97  C   UNL A   1      47.289  28.354  38.077  1.00  0.00     0.022 A 
BRANCH  95  98
ATOM     98  S   UNL A   1      45.910  26.211  39.080  1.00  0.00     0.127 S 
ATOM     99  O   UNL A   1      46.170  25.170  38.087  1.00  0.00    -0.237 OA
ATOM    100  O   UNL A   1      46.975  26.396  40.066  1.00  0.00    -0.237 OA
ATOM    101  O   UNL A   1      44.564  26.220  39.638  1.00  0.00    -0.744 OA
ENDBRANCH  95  98
ENDBRANCH  68  91
ENDBRANCH  42  43
ENDBRANCH  34  37
ENDBRANCH  32  33
ENDBRANCH  31  32
ENDBRANCH  30  31
ENDBRANCH   1  30
TORSDOF 20
ENDMDL
MODEL 3
REMARK VINA RESULT:      -8.1      4.772      8.875
REMARK SMILES C[C@H](CC(=O)N1CCC2(CC1)CN(CCCC(=O)NCCCCNC(=O)c1ccc(-c3c4nc(c(-c5cccc(S(=O)(=O)[O-])c5F)c5ccc([nH]5)c(-c5cccc(S(=O)(=O)[O-])c5F)c5nc(c(-c6cccc(S(=O)(=O)[O-])c6F)c6ccc3[nH]6)C=C5)C=C4)cc1)C(=O)O2)n1ccnc1
REMARK SMILES IDX 20 1 19 2 17 3 18 4 16 6 15 7 14 8 13 9 4 10 5 11 6 12 7 13
REMARK SMILES IDX 11 14 8 15 10 16 9 17 12 18 92 19 90 20 91 21 3 22 2 23 1 24
REMARK SMILES IDX 93 25 94 26 97 27 95 28 96 29 21 30 22 31 23 32 24 33 25 34
REMARK SMILES IDX 26 36 27 37 28 38 89 39 29 40 88 41 30 42 31 43 32 44 82 45
REMARK SMILES IDX 33 46 87 47 81 48 83 49 34 50 86 51 80 52 79 53 35 55 67 56
REMARK SMILES IDX 47 57 66 58 48 59 51 60 65 61 84 62 49 63 50 64 64 66 85 67
REMARK SMILES IDX 52 68 36 69 37 70 45 71 38 72 40 73 46 74 39 75 41 76 42 77
REMARK SMILES IDX 43 78 44 79 68 80 69 81 77 82 70 83 72 84 78 85 71 86 73 87
REMARK SMILES IDX 74 88 75 89 76 90 53 91 54 92 62 93 55 94 57 95 63 96 56 97
REMARK SMILES IDX 58 98 59 99 60 100 61 101
REMARK H PARENT 19 5 24 35 83 54 51 65
REMARK Flexibility Score: inf
ROOT
ATOM      1  C   UNL A   1      33.798  31.673  27.231  1.00  0.00     0.116 C 
ENDROOT
BRANCH   1   2
ATOM      2  N   UNL A   1      33.769  30.270  27.566  1.00  0.00    -0.356 N 
ATOM      3  C   UNL A   1      32.897  29.292  27.212  1.00  0.00     0.220 C 
ATOM      4  O   UNL A   1      33.132  28.146  27.603  1.00  0.00    -0.275 OA
ATOM      5  H   UNL A   1      34.504  29.972  28.150  1.00  0.00     0.163 HD
BRANCH   3   6
ATOM      6  C   UNL A   1      31.726  29.544  26.278  1.00  0.00     0.102 C 
BRANCH   6   7
ATOM      7  C   UNL A   1      31.944  29.564  24.765  1.00  0.00     0.031 C 
BRANCH   7   8
ATOM      8  C   UNL A   1      32.798  28.518  24.047  1.00  0.00     0.124 C 
BRANCH   8   9
ATOM      9  N   UNL A   1      32.406  27.113  24.001  1.00  0.00    -0.304 N 
ATOM     10  C   UNL A   1      32.882  20.625  24.245  1.00  0.00     0.224 C 
ATOM     11  O   UNL A   1      31.992  19.862  24.644  1.00  0.00    -0.275 OA
ATOM     12  N   UNL A   1      32.587  21.934  23.912  1.00  0.00    -0.342 N 
ATOM     13  C   UNL A   1      31.318  22.501  24.364  1.00  0.00     0.123 C 
ATOM     14  C   UNL A   1      33.295  22.789  22.970  1.00  0.00     0.123 C 
ATOM     15  C   UNL A   1      31.583  23.820  25.086  1.00  0.00     0.072 C 
ATOM     16  C   UNL A   1      33.597  24.152  23.574  1.00  0.00     0.072 C 
ATOM     17  C   UNL A   1      32.341  24.804  24.193  1.00  0.00     0.135 C 
ATOM     18  C   UNL A   1      32.696  26.081  24.950  1.00  0.00     0.172 C 
ATOM     19  O   UNL A   1      31.474  25.258  23.137  1.00  0.00    -0.441 OA
ATOM     20  C   UNL A   1      31.631  26.609  22.977  1.00  0.00     0.410 C 
ATOM     21  O   UNL A   1      31.146  27.240  22.059  1.00  0.00    -0.224 OA
BRANCH  10  22
ATOM     22  C   UNL A   1      34.325  20.146  24.373  1.00  0.00     0.125 C 
BRANCH  22  23
ATOM     23  C   UNL A   1      35.334  20.767  25.355  1.00  0.00     0.094 C 
ATOM     24  C   UNL A   1      36.545  21.367  24.627  1.00  0.00     0.032 C 
BRANCH  23  25
ATOM     25  N   UNL A   1      34.712  21.606  26.383  1.00  0.00    -0.334 N 
ATOM     26  C   UNL A   1      34.906  22.957  26.549  1.00  0.00     0.107 A 
ATOM     27  C   UNL A   1      33.763  21.238  27.299  1.00  0.00     0.199 A 
ATOM     28  C   UNL A   1      34.134  23.312  27.628  1.00  0.00     0.130 A 
ATOM     29  N   UNL A   1      33.456  22.228  28.107  1.00  0.00    -0.245 NA
ENDBRANCH  23  25
ENDBRANCH  22  23
ENDBRANCH  10  22
ENDBRANCH   8   9
ENDBRANCH   7   8
ENDBRANCH   6   7
ENDBRANCH   3   6
ENDBRANCH   1   2
BRANCH   1  30
ATOM     30  C   UNL A   1      33.559  32.556  28.454  1.00  0.00     0.023 C 
BRANCH  30  31
ATOM     31  C   UNL A   1      34.745  33.439  28.816  1.00  0.00     0.023 C 
BRANCH  31  32
ATOM     32  C   UNL A   1      34.427  34.927  28.856  1.00  0.00     0.116 C 
BRANCH  32  33
ATOM     33  N   UNL A   1      33.361  35.280  29.786  1.00  0.00    -0.352 N 
ATOM     34  C   UNL A   1      33.332  35.071  31.147  1.00  0.00     0.251 C 
ATOM     35  H   UNL A   1      32.570  35.719  29.396  1.00  0.00     0.163 HD
ATOM     36  O   UNL A   1      32.352  35.385  31.813  1.00  0.00    -0.269 OA
BRANCH  34  37
ATOM     37  C   UNL A   1      34.493  34.416  31.781  1.00  0.00     0.039 A 
ATOM     38  C   UNL A   1      34.379  33.091  32.205  1.00  0.00     0.014 A 
ATOM     39  C   UNL A   1      35.722  35.077  31.838  1.00  0.00     0.014 A 
ATOM     40  C   UNL A   1      35.522  32.407  32.622  1.00  0.00     0.010 A 
ATOM     41  C   UNL A   1      36.870  34.362  32.150  1.00  0.00     0.010 A 
ATOM     42  C   UNL A   1      36.784  33.024  32.559  1.00  0.00    -0.014 A 
BRANCH  42  43
ATOM     43  C   UNL A   1      38.021  32.287  32.920  1.00  0.00     0.031 A 
ATOM     44  C   UNL A   1      38.744  32.612  34.200  1.00  0.00     0.074 A 
ATOM     45  C   UNL A   1      38.532  31.372  32.070  1.00  0.00     0.049 A 
ATOM     46  N   UNL A   1      39.836  32.084  34.688  1.00  0.00    -0.248 NA
ATOM     47  C   UNL A   1      38.185  33.695  35.028  1.00  0.00     0.031 C 
ATOM     48  C   UNL A   1      37.976  31.026  30.760  1.00  0.00     0.029 A 
ATOM     49  N   UNL A   1      39.644  30.574  32.177  1.00  0.00    -0.354 N 
ATOM     50  C   UNL A   1      40.107  32.784  35.857  1.00  0.00     0.074 A 
ATOM     51  C   UNL A   1      39.099  33.813  35.977  1.00  0.00     0.031 C 
ATOM     52  C   UNL A   1      38.730  30.068  30.199  1.00  0.00     0.029 A 
ATOM     53  C   UNL A   1      39.842  29.753  31.091  1.00  0.00     0.049 A 
ATOM     54  H   UNL A   1      40.243  30.587  32.958  1.00  0.00     0.167 HD
ATOM     55  C   UNL A   1      41.082  32.571  36.772  1.00  0.00     0.034 A 
ATOM     56  C   UNL A   1      40.809  28.848  30.845  1.00  0.00     0.034 A 
ATOM     57  C   UNL A   1      42.068  31.533  36.663  1.00  0.00     0.049 A 
ATOM     58  C   UNL A   1      41.872  28.617  31.885  1.00  0.00     0.074 A 
ATOM     59  C   UNL A   1      43.056  31.183  37.568  1.00  0.00     0.029 A 
ATOM     60  N   UNL A   1      42.204  30.682  35.576  1.00  0.00    -0.354 N 
ATOM     61  N   UNL A   1      42.019  29.182  33.059  1.00  0.00    -0.248 NA
ATOM     62  C   UNL A   1      42.881  27.592  31.582  1.00  0.00     0.031 C 
ATOM     63  C   UNL A   1      43.811  30.146  37.010  1.00  0.00     0.029 A 
ATOM     64  C   UNL A   1      43.266  29.817  35.779  1.00  0.00     0.049 A 
ATOM     65  H   UNL A   1      41.628  30.692  34.777  1.00  0.00     0.167 HD
ATOM     66  C   UNL A   1      43.109  28.555  33.651  1.00  0.00     0.074 A 
ATOM     67  C   UNL A   1      43.569  27.549  32.714  1.00  0.00     0.031 C 
ATOM     68  C   UNL A   1      43.685  28.793  34.856  1.00  0.00     0.034 A 
BRANCH  55  69
ATOM     69  C   UNL A   1      41.095  33.460  37.992  1.00  0.00     0.023 A 
ATOM     70  C   UNL A   1      42.027  34.516  38.078  1.00  0.00     0.012 A 
ATOM     71  C   UNL A   1      40.173  33.268  39.039  1.00  0.00     0.148 A 
ATOM     72  C   UNL A   1      42.074  35.334  39.204  1.00  0.00     0.002 A 
ATOM     73  C   UNL A   1      40.192  34.121  40.136  1.00  0.00     0.091 A 
ATOM     74  F   UNL A   1      39.308  32.247  38.952  1.00  0.00    -0.205 F 
ATOM     75  C   UNL A   1      41.151  35.144  40.229  1.00  0.00     0.022 A 
BRANCH  73  76
ATOM     76  S   UNL A   1      38.994  34.014  41.469  1.00  0.00     0.127 S 
ATOM     77  O   UNL A   1      39.392  32.767  42.124  1.00  0.00    -0.237 OA
ATOM     78  O   UNL A   1      39.282  35.224  42.239  1.00  0.00    -0.237 OA
ATOM     79  O   UNL A   1      37.684  33.994  40.834  1.00  0.00    -0.744 OA
ENDBRANCH  73  76
ENDBRANCH  55  69
BRANCH  56  80
ATOM     80  C   UNL A   1      40.779  28.036  29.593  1.00  0.00     0.023 A 
ATOM     81  C   UNL A   1      39.879  26.958  29.490  1.00  0.00     0.012 A 
ATOM     82  C   UNL A   1      41.625  28.330  28.507  1.00  0.00     0.148 A 
ATOM     83  C   UNL A   1      39.850  26.160  28.345  1.00  0.00     0.002 A 
ATOM     84  C   UNL A   1      41.552  27.566  27.348  1.00  0.00     0.091 A 
ATOM     85  F   UNL A   1      42.479  29.356  28.626  1.00  0.00    -0.205 F 
ATOM     86  C   UNL A   1      40.680  26.469  27.272  1.00  0.00     0.022 A 
BRANCH  84  87
ATOM     87  S   UNL A   1      42.491  27.961  25.868  1.00  0.00     0.127 S 
ATOM     88  O   UNL A   1      42.081  29.339  25.611  1.00  0.00    -0.237 OA
ATOM     89  O   UNL A   1      43.868  27.804  26.338  1.00  0.00    -0.237 OA
ATOM     90  O   UNL A   1      42.081  26.985  24.867  1.00  0.00    -0.744 OA
ENDBRANCH  84  87
ENDBRANCH  56  80
BRANCH  68  91
ATOM     91  C   UNL A   1      44.849  27.922  35.255  1.00  0.00     0.023 A 
ATOM     92  C   UNL A   1      46.168  28.318  34.953  1.00  0.00     0.012 A 
ATOM     93  C   UNL A   1      44.635  26.731  35.975  1.00  0.00     0.148 A 
ATOM     94  C   UNL A   1      47.249  27.516  35.316  1.00  0.00     0.002 A 
ATOM     95  C   UNL A   1      45.720  25.966  36.385  1.00  0.00     0.091 A 
ATOM     96  F   UNL A   1      43.373  26.361  36.241  1.00  0.00    -0.205 F 
ATOM     97  C   UNL A   1      47.027  26.348  36.040  1.00  0.00     0.022 A 
BRANCH  95  98
ATOM     98  S   UNL A   1      45.536  24.503  37.409  1.00  0.00     0.127 S 
ATOM     99  O   UNL A   1      44.761  25.023  38.535  1.00  0.00    -0.237 OA
ATOM    100  O   UNL A   1      44.799  23.598  36.527  1.00  0.00    -0.237 OA
ATOM    101  O   UNL A   1      46.888  24.065  37.731  1.00  0.00    -0.744 OA
ENDBRANCH  95  98
ENDBRANCH  68  91
ENDBRANCH  42  43
ENDBRANCH  34  37
ENDBRANCH  32  33
ENDBRANCH  31  32
ENDBRANCH  30  31
ENDBRANCH   1  30
TORSDOF 20
ENDMDL
