MODEL 1
REMARK VINA RESULT:     -11.8      0.000      0.000
REMARK SMILES C[C@@H]1[C@H](C(=O)NCCCCNC(=O)c2ccc(-c3c4nc(c(-c5cccc(S(=O)(=O)[O-])c5F)c5ccc([nH]5)c(-c5cccc(S(=O)(=O)[O-])c5F)c5nc(c(-c6cccc(S(=O)(=O)[O-])c6F)c6ccc3[nH]6)C=C5)C=C4)cc2)[C@@H](C)CC(=O)N1CC(C)(C)S(C)(=O)=O
REMARK SMILES IDX 8 1 7 2 6 3 4 4 5 5 3 7 1 8 2 9 82 10 77 11 80 12 79 13
REMARK SMILES IDX 78 14 81 15 83 16 84 17 85 18 86 19 87 20 88 21 89 22 90 23
REMARK SMILES IDX 9 24 10 25 11 26 12 27 13 29 14 30 15 31 76 32 16 33 75 34
REMARK SMILES IDX 17 35 18 36 19 37 69 38 20 39 74 40 68 41 70 42 21 43 73 44
REMARK SMILES IDX 67 45 66 46 22 48 54 49 34 50 53 51 35 52 38 53 52 54 71 55
REMARK SMILES IDX 36 56 37 57 51 59 72 60 39 61 23 62 24 63 32 64 25 65 27 66
REMARK SMILES IDX 33 67 26 68 28 69 29 70 30 71 31 72 55 73 56 74 64 75 57 76
REMARK SMILES IDX 59 77 65 78 58 79 60 80 61 81 62 82 63 83 40 84 41 85 49 86
REMARK SMILES IDX 42 87 44 88 50 89 43 90 45 91 46 92 47 93 48 94
REMARK H PARENT 6 6 11 28 70 47 38 58
REMARK Flexibility Score: inf
ROOT
ATOM      1  C   UNL A   1      36.559  19.770  25.001  1.00  0.00     0.023 C 
ENDROOT
BRANCH   1   2
ATOM      2  C   UNL A   1      36.133  21.221  25.244  1.00  0.00     0.116 C 
BRANCH   2   3
ATOM      3  N   UNL A   1      35.087  21.344  26.248  1.00  0.00    -0.356 N 
ATOM      4  C   UNL A   1      33.892  21.994  26.247  1.00  0.00     0.225 C 
ATOM      5  O   UNL A   1      33.248  21.991  27.301  1.00  0.00    -0.275 OA
ATOM      6  H   UNL A   1      35.282  20.867  27.087  1.00  0.00     0.163 HD
BRANCH   4   7
ATOM      7  C   UNL A   1      33.324  22.742  25.029  1.00  0.00     0.104 C 
ATOM      8  C   UNL A   1      35.082  24.552  25.579  1.00  0.00     0.032 C 
ATOM      9  C   UNL A   1      33.746  24.231  24.932  1.00  0.00     0.094 C 
ATOM     10  N   UNL A   1      33.661  24.873  23.587  1.00  0.00    -0.338 N 
ATOM     11  C   UNL A   1      33.361  21.940  23.727  1.00  0.00     0.010 C 
ATOM     12  C   UNL A   1      33.323  24.164  22.442  1.00  0.00     0.223 C 
ATOM     13  C   UNL A   1      32.779  22.767  22.599  1.00  0.00     0.104 C 
ATOM     14  C   UNL A   1      32.539  20.644  23.860  1.00  0.00     0.009 C 
ATOM     15  O   UNL A   1      33.270  24.678  21.326  1.00  0.00    -0.275 OA
BRANCH  10  16
ATOM     16  C   UNL A   1      33.563  26.352  23.551  1.00  0.00     0.142 C 
BRANCH  16  17
ATOM     17  C   UNL A   1      32.321  27.207  23.975  1.00  0.00     0.084 C 
ATOM     18  C   UNL A   1      31.988  27.173  25.473  1.00  0.00     0.030 C 
ATOM     19  C   UNL A   1      32.690  28.679  23.642  1.00  0.00     0.030 C 
BRANCH  17  20
ATOM     20  S   UNL A   1      30.784  26.802  23.072  1.00  0.00     0.154 S 
ATOM     21  C   UNL A   1      29.594  28.062  23.490  1.00  0.00     0.158 C 
ATOM     22  O   UNL A   1      31.036  26.882  21.647  1.00  0.00    -0.229 OA
ATOM     23  O   UNL A   1      30.249  25.570  23.628  1.00  0.00    -0.229 OA
ENDBRANCH  17  20
ENDBRANCH  16  17
ENDBRANCH  10  16
ENDBRANCH   4   7
ENDBRANCH   2   3
ENDBRANCH   1   2
BRANCH   1  24
ATOM     24  C   UNL A   1      38.037  19.548  24.725  1.00  0.00     0.023 C 
BRANCH  24  25
ATOM     25  C   UNL A   1      38.953  19.856  25.894  1.00  0.00     0.116 C 
BRANCH  25  26
ATOM     26  N   UNL A   1      40.128  18.996  25.956  1.00  0.00    -0.352 N 
ATOM     27  C   UNL A   1      41.436  19.354  26.196  1.00  0.00     0.251 C 
ATOM     28  H   UNL A   1      39.966  18.036  25.807  1.00  0.00     0.163 HD
ATOM     29  O   UNL A   1      42.334  18.530  26.123  1.00  0.00    -0.269 OA
BRANCH  27  30
ATOM     30  C   UNL A   1      41.731  20.767  26.510  1.00  0.00     0.039 A 
ATOM     31  C   UNL A   1      42.202  21.096  27.782  1.00  0.00     0.014 A 
ATOM     32  C   UNL A   1      41.614  21.742  25.518  1.00  0.00     0.014 A 
ATOM     33  C   UNL A   1      42.616  22.404  28.039  1.00  0.00     0.010 A 
ATOM     34  C   UNL A   1      42.125  23.011  25.744  1.00  0.00     0.010 A 
ATOM     35  C   UNL A   1      42.609  23.362  27.013  1.00  0.00    -0.014 A 
BRANCH  35  36
ATOM     36  C   UNL A   1      43.062  24.756  27.243  1.00  0.00     0.031 A 
ATOM     37  C   UNL A   1      42.125  25.735  27.899  1.00  0.00     0.074 A 
ATOM     38  C   UNL A   1      44.262  25.160  26.781  1.00  0.00     0.049 A 
ATOM     39  N   UNL A   1      42.289  27.013  28.116  1.00  0.00    -0.248 NA
ATOM     40  C   UNL A   1      40.812  25.219  28.329  1.00  0.00     0.031 C 
ATOM     41  C   UNL A   1      45.215  24.325  26.045  1.00  0.00     0.029 A 
ATOM     42  N   UNL A   1      44.872  26.386  26.840  1.00  0.00    -0.354 N 
ATOM     43  C   UNL A   1      41.089  27.459  28.658  1.00  0.00     0.074 A 
ATOM     44  C   UNL A   1      40.190  26.329  28.694  1.00  0.00     0.031 C 
ATOM     45  C   UNL A   1      46.293  25.062  25.730  1.00  0.00     0.029 A 
ATOM     46  C   UNL A   1      46.100  26.423  26.221  1.00  0.00     0.049 A 
ATOM     47  H   UNL A   1      44.470  27.168  27.284  1.00  0.00     0.167 HD
ATOM     48  C   UNL A   1      40.776  28.690  29.124  1.00  0.00     0.034 A 
ATOM     49  C   UNL A   1      46.970  27.441  26.071  1.00  0.00     0.034 A 
ATOM     50  C   UNL A   1      41.702  29.787  29.160  1.00  0.00     0.049 A 
ATOM     51  C   UNL A   1      46.632  28.777  26.678  1.00  0.00     0.074 A 
ATOM     52  C   UNL A   1      41.527  31.044  29.707  1.00  0.00     0.029 A 
ATOM     53  N   UNL A   1      42.984  29.750  28.634  1.00  0.00    -0.354 N 
ATOM     54  N   UNL A   1      45.556  29.135  27.336  1.00  0.00    -0.248 NA
ATOM     55  C   UNL A   1      47.645  29.837  26.561  1.00  0.00     0.031 C 
ATOM     56  C   UNL A   1      42.703  31.773  29.503  1.00  0.00     0.029 A 
ATOM     57  C   UNL A   1      43.614  30.963  28.844  1.00  0.00     0.049 A 
ATOM     58  H   UNL A   1      43.386  28.977  28.177  1.00  0.00     0.167 HD
ATOM     59  C   UNL A   1      45.777  30.446  27.744  1.00  0.00     0.074 A 
ATOM     60  C   UNL A   1      47.100  30.810  27.278  1.00  0.00     0.031 C 
ATOM     61  C   UNL A   1      44.956  31.280  28.428  1.00  0.00     0.034 A 
BRANCH  48  62
ATOM     62  C   UNL A   1      39.400  28.891  29.701  1.00  0.00     0.023 A 
ATOM     63  C   UNL A   1      39.131  28.463  31.018  1.00  0.00     0.012 A 
ATOM     64  C   UNL A   1      38.391  29.541  28.966  1.00  0.00     0.148 A 
ATOM     65  C   UNL A   1      37.868  28.644  31.581  1.00  0.00     0.002 A 
ATOM     66  C   UNL A   1      37.148  29.761  29.550  1.00  0.00     0.091 A 
ATOM     67  F   UNL A   1      38.658  29.919  27.708  1.00  0.00    -0.205 F 
ATOM     68  C   UNL A   1      36.882  29.302  30.852  1.00  0.00     0.022 A 
BRANCH  66  69
ATOM     69  S   UNL A   1      35.835  30.667  28.725  1.00  0.00     0.127 S 
ATOM     70  O   UNL A   1      35.113  29.589  28.050  1.00  0.00    -0.237 OA
ATOM     71  O   UNL A   1      35.121  31.266  29.853  1.00  0.00    -0.237 OA
ATOM     72  O   UNL A   1      36.495  31.622  27.848  1.00  0.00    -0.744 OA
ENDBRANCH  66  69
ENDBRANCH  48  62
BRANCH  49  73
ATOM     73  C   UNL A   1      48.280  27.214  25.394  1.00  0.00     0.023 A 
ATOM     74  C   UNL A   1      49.377  26.768  26.157  1.00  0.00     0.012 A 
ATOM     75  C   UNL A   1      48.442  27.413  24.010  1.00  0.00     0.148 A 
ATOM     76  C   UNL A   1      50.622  26.560  25.561  1.00  0.00     0.002 A 
ATOM     77  C   UNL A   1      49.671  27.152  23.413  1.00  0.00     0.091 A 
ATOM     78  F   UNL A   1      47.389  27.847  23.303  1.00  0.00    -0.205 F 
ATOM     79  C   UNL A   1      50.767  26.742  24.188  1.00  0.00     0.022 A 
BRANCH  77  80
ATOM     80  S   UNL A   1      49.909  27.236  21.634  1.00  0.00     0.127 S 
ATOM     81  O   UNL A   1      48.911  26.284  21.152  1.00  0.00    -0.237 OA
ATOM     82  O   UNL A   1      49.607  28.640  21.352  1.00  0.00    -0.237 OA
ATOM     83  O   UNL A   1      51.300  26.869  21.409  1.00  0.00    -0.744 OA
ENDBRANCH  77  80
ENDBRANCH  49  73
BRANCH  61  84
ATOM     84  C   UNL A   1      45.470  32.657  28.753  1.00  0.00     0.023 A 
ATOM     85  C   UNL A   1      46.279  32.850  29.889  1.00  0.00     0.012 A 
ATOM     86  C   UNL A   1      45.227  33.737  27.882  1.00  0.00     0.148 A 
ATOM     87  C   UNL A   1      46.813  34.105  30.171  1.00  0.00     0.002 A 
ATOM     88  C   UNL A   1      45.801  34.973  28.144  1.00  0.00     0.091 A 
ATOM     89  F   UNL A   1      44.439  33.535  26.816  1.00  0.00    -0.205 F 
ATOM     90  C   UNL A   1      46.585  35.163  29.293  1.00  0.00     0.022 A 
BRANCH  88  91
ATOM     91  S   UNL A   1      45.642  36.362  27.015  1.00  0.00     0.127 S 
ATOM     92  O   UNL A   1      46.386  37.405  27.718  1.00  0.00    -0.237 OA
ATOM     93  O   UNL A   1      46.295  35.857  25.805  1.00  0.00    -0.237 OA
ATOM     94  O   UNL A   1      44.212  36.597  26.871  1.00  0.00    -0.744 OA
ENDBRANCH  88  91
ENDBRANCH  61  84
ENDBRANCH  35  36
ENDBRANCH  27  30
ENDBRANCH  25  26
ENDBRANCH  24  25
ENDBRANCH   1  24
TORSDOF 17
ENDMDL
MODEL 2
REMARK VINA RESULT:     -11.6      2.169      7.838
REMARK SMILES C[C@@H]1[C@H](C(=O)NCCCCNC(=O)c2ccc(-c3c4nc(c(-c5cccc(S(=O)(=O)[O-])c5F)c5ccc([nH]5)c(-c5cccc(S(=O)(=O)[O-])c5F)c5nc(c(-c6cccc(S(=O)(=O)[O-])c6F)c6ccc3[nH]6)C=C5)C=C4)cc2)[C@@H](C)CC(=O)N1CC(C)(C)S(C)(=O)=O
REMARK SMILES IDX 8 1 7 2 6 3 4 4 5 5 3 7 1 8 2 9 82 10 77 11 80 12 79 13
REMARK SMILES IDX 78 14 81 15 83 16 84 17 85 18 86 19 87 20 88 21 89 22 90 23
REMARK SMILES IDX 9 24 10 25 11 26 12 27 13 29 14 30 15 31 76 32 16 33 75 34
REMARK SMILES IDX 17 35 18 36 19 37 69 38 20 39 74 40 68 41 70 42 21 43 73 44
REMARK SMILES IDX 67 45 66 46 22 48 54 49 34 50 53 51 35 52 38 53 52 54 71 55
REMARK SMILES IDX 36 56 37 57 51 59 72 60 39 61 23 62 24 63 32 64 25 65 27 66
REMARK SMILES IDX 33 67 26 68 28 69 29 70 30 71 31 72 55 73 56 74 64 75 57 76
REMARK SMILES IDX 59 77 65 78 58 79 60 80 61 81 62 82 63 83 40 84 41 85 49 86
REMARK SMILES IDX 42 87 44 88 50 89 43 90 45 91 46 92 47 93 48 94
REMARK H PARENT 6 6 11 28 70 47 38 58
REMARK Flexibility Score: inf
ROOT
ATOM      1  C   UNL A   1      35.142  21.105  25.948  1.00  0.00     0.023 C 
ENDROOT
BRANCH   1   2
ATOM      2  C   UNL A   1      34.078  20.451  25.061  1.00  0.00     0.116 C 
BRANCH   2   3
ATOM      3  N   UNL A   1      32.725  20.658  25.551  1.00  0.00    -0.356 N 
ATOM      4  C   UNL A   1      31.807  21.635  25.314  1.00  0.00     0.225 C 
ATOM      5  O   UNL A   1      30.754  21.588  25.959  1.00  0.00    -0.275 OA
ATOM      6  H   UNL A   1      32.414  19.961  26.174  1.00  0.00     0.163 HD
BRANCH   4   7
ATOM      7  C   UNL A   1      32.020  22.788  24.320  1.00  0.00     0.104 C 
ATOM      8  C   UNL A   1      33.108  24.027  26.308  1.00  0.00     0.032 C 
ATOM      9  C   UNL A   1      32.389  24.145  24.975  1.00  0.00     0.094 C 
ATOM     10  N   UNL A   1      33.073  25.151  24.111  1.00  0.00    -0.338 N 
ATOM     11  C   UNL A   1      32.813  22.401  23.070  1.00  0.00     0.010 C 
ATOM     12  C   UNL A   1      33.466  24.872  22.808  1.00  0.00     0.223 C 
ATOM     13  C   UNL A   1      32.961  23.606  22.164  1.00  0.00     0.104 C 
ATOM     14  C   UNL A   1      32.092  21.287  22.289  1.00  0.00     0.009 C 
ATOM     15  O   UNL A   1      34.049  25.686  22.095  1.00  0.00    -0.275 OA
BRANCH  10  16
ATOM     16  C   UNL A   1      32.981  26.571  24.527  1.00  0.00     0.142 C 
BRANCH  16  17
ATOM     17  C   UNL A   1      31.661  27.388  24.739  1.00  0.00     0.084 C 
ATOM     18  C   UNL A   1      30.425  26.823  24.027  1.00  0.00     0.030 C 
ATOM     19  C   UNL A   1      31.361  27.315  26.262  1.00  0.00     0.030 C 
BRANCH  17  20
ATOM     20  S   UNL A   1      31.786  29.154  24.282  1.00  0.00     0.154 S 
ATOM     21  C   UNL A   1      32.149  30.048  25.782  1.00  0.00     0.158 C 
ATOM     22  O   UNL A   1      32.904  29.331  23.377  1.00  0.00    -0.229 OA
ATOM     23  O   UNL A   1      30.466  29.606  23.875  1.00  0.00    -0.229 OA
ENDBRANCH  17  20
ENDBRANCH  16  17
ENDBRANCH  10  16
ENDBRANCH   4   7
ENDBRANCH   2   3
ENDBRANCH   1   2
BRANCH   1  24
ATOM     24  C   UNL A   1      35.754  22.389  25.416  1.00  0.00     0.023 C 
BRANCH  24  25
ATOM     25  C   UNL A   1      37.079  22.211  24.700  1.00  0.00     0.116 C 
BRANCH  25  26
ATOM     26  N   UNL A   1      37.851  21.071  25.178  1.00  0.00    -0.352 N 
ATOM     27  C   UNL A   1      38.987  21.076  25.958  1.00  0.00     0.251 C 
ATOM     28  H   UNL A   1      37.519  20.184  24.909  1.00  0.00     0.163 HD
ATOM     29  O   UNL A   1      39.583  20.038  26.201  1.00  0.00    -0.269 OA
BRANCH  27  30
ATOM     30  C   UNL A   1      39.487  22.370  26.463  1.00  0.00     0.039 A 
ATOM     31  C   UNL A   1      40.478  22.379  27.446  1.00  0.00     0.014 A 
ATOM     32  C   UNL A   1      39.025  23.564  25.904  1.00  0.00     0.014 A 
ATOM     33  C   UNL A   1      41.052  23.593  27.824  1.00  0.00     0.010 A 
ATOM     34  C   UNL A   1      39.671  24.753  26.204  1.00  0.00     0.010 A 
ATOM     35  C   UNL A   1      40.675  24.785  27.183  1.00  0.00    -0.014 A 
BRANCH  35  36
ATOM     36  C   UNL A   1      41.279  26.090  27.544  1.00  0.00     0.031 A 
ATOM     37  C   UNL A   1      42.707  26.372  27.160  1.00  0.00     0.074 A 
ATOM     38  C   UNL A   1      40.585  26.971  28.293  1.00  0.00     0.049 A 
ATOM     39  N   UNL A   1      43.449  27.408  27.449  1.00  0.00    -0.248 NA
ATOM     40  C   UNL A   1      43.408  25.332  26.384  1.00  0.00     0.031 C 
ATOM     41  C   UNL A   1      39.228  26.766  28.806  1.00  0.00     0.029 A 
ATOM     42  N   UNL A   1      40.938  28.204  28.774  1.00  0.00    -0.354 N 
ATOM     43  C   UNL A   1      44.710  27.122  26.936  1.00  0.00     0.074 A 
ATOM     44  C   UNL A   1      44.647  25.799  26.361  1.00  0.00     0.031 C 
ATOM     45  C   UNL A   1      38.861  27.842  29.522  1.00  0.00     0.029 A 
ATOM     46  C   UNL A   1      39.962  28.801  29.537  1.00  0.00     0.049 A 
ATOM     47  H   UNL A   1      41.810  28.626  28.591  1.00  0.00     0.167 HD
ATOM     48  C   UNL A   1      45.811  27.908  26.909  1.00  0.00     0.034 A 
ATOM     49  C   UNL A   1      39.957  29.989  30.173  1.00  0.00     0.034 A 
ATOM     50  C   UNL A   1      45.841  29.253  27.411  1.00  0.00     0.049 A 
ATOM     51  C   UNL A   1      41.165  30.880  30.051  1.00  0.00     0.074 A 
ATOM     52  C   UNL A   1      46.868  30.175  27.340  1.00  0.00     0.029 A 
ATOM     53  N   UNL A   1      44.789  29.870  28.070  1.00  0.00    -0.354 N 
ATOM     54  N   UNL A   1      42.292  30.659  29.418  1.00  0.00    -0.248 NA
ATOM     55  C   UNL A   1      41.085  32.201  30.692  1.00  0.00     0.031 C 
ATOM     56  C   UNL A   1      46.440  31.350  27.964  1.00  0.00     0.029 A 
ATOM     57  C   UNL A   1      45.140  31.163  28.410  1.00  0.00     0.049 A 
ATOM     58  H   UNL A   1      43.922  29.450  28.268  1.00  0.00     0.167 HD
ATOM     59  C   UNL A   1      43.039  31.824  29.551  1.00  0.00     0.074 A 
ATOM     60  C   UNL A   1      42.227  32.756  30.307  1.00  0.00     0.031 C 
ATOM     61  C   UNL A   1      44.290  32.095  29.105  1.00  0.00     0.034 A 
BRANCH  48  62
ATOM     62  C   UNL A   1      47.047  27.357  26.249  1.00  0.00     0.023 A 
ATOM     63  C   UNL A   1      47.263  27.592  24.876  1.00  0.00     0.012 A 
ATOM     64  C   UNL A   1      48.014  26.653  26.990  1.00  0.00     0.148 A 
ATOM     65  C   UNL A   1      48.403  27.102  24.241  1.00  0.00     0.002 A 
ATOM     66  C   UNL A   1      49.172  26.207  26.361  1.00  0.00     0.091 A 
ATOM     67  F   UNL A   1      47.781  26.419  28.290  1.00  0.00    -0.205 F 
ATOM     68  C   UNL A   1      49.361  26.420  24.985  1.00  0.00     0.022 A 
BRANCH  66  69
ATOM     69  S   UNL A   1      50.502  25.388  27.246  1.00  0.00     0.127 S 
ATOM     70  O   UNL A   1      50.898  26.419  28.205  1.00  0.00    -0.237 OA
ATOM     71  O   UNL A   1      49.816  24.237  27.836  1.00  0.00    -0.237 OA
ATOM     72  O   UNL A   1      51.503  25.050  26.245  1.00  0.00    -0.744 OA
ENDBRANCH  66  69
ENDBRANCH  48  62
BRANCH  49  73
ATOM     73  C   UNL A   1      38.740  30.443  30.905  1.00  0.00     0.023 A 
ATOM     74  C   UNL A   1      38.640  30.200  32.289  1.00  0.00     0.012 A 
ATOM     75  C   UNL A   1      37.696  31.127  30.253  1.00  0.00     0.148 A 
ATOM     76  C   UNL A   1      37.509  30.595  33.004  1.00  0.00     0.002 A 
ATOM     77  C   UNL A   1      36.596  31.567  30.981  1.00  0.00     0.091 A 
ATOM     78  F   UNL A   1      37.803  31.340  28.934  1.00  0.00    -0.205 F 
ATOM     79  C   UNL A   1      36.491  31.287  32.353  1.00  0.00     0.022 A 
BRANCH  77  80
ATOM     80  S   UNL A   1      35.302  32.575  30.248  1.00  0.00     0.127 S 
ATOM     81  O   UNL A   1      36.037  33.783  29.879  1.00  0.00    -0.237 OA
ATOM     82  O   UNL A   1      34.872  31.748  29.120  1.00  0.00    -0.237 OA
ATOM     83  O   UNL A   1      34.295  32.734  31.288  1.00  0.00    -0.744 OA
ENDBRANCH  77  80
ENDBRANCH  49  73
BRANCH  61  84
ATOM     84  C   UNL A   1      44.850  33.464  29.383  1.00  0.00     0.023 A 
ATOM     85  C   UNL A   1      45.544  33.704  30.584  1.00  0.00     0.012 A 
ATOM     86  C   UNL A   1      44.767  34.483  28.414  1.00  0.00     0.148 A 
ATOM     87  C   UNL A   1      46.121  34.948  30.831  1.00  0.00     0.002 A 
ATOM     88  C   UNL A   1      45.385  35.704  28.646  1.00  0.00     0.091 A 
ATOM     89  F   UNL A   1      44.085  34.239  27.285  1.00  0.00    -0.205 F 
ATOM     90  C   UNL A   1      46.053  35.943  29.858  1.00  0.00     0.022 A 
BRANCH  88  91
ATOM     91  S   UNL A   1      45.432  37.005  27.407  1.00  0.00     0.127 S 
ATOM     92  O   UNL A   1      46.206  38.039  28.090  1.00  0.00    -0.237 OA
ATOM     93  O   UNL A   1      46.130  36.353  26.297  1.00  0.00    -0.237 OA
ATOM     94  O   UNL A   1      44.042  37.341  27.128  1.00  0.00    -0.744 OA
ENDBRANCH  88  91
ENDBRANCH  61  84
ENDBRANCH  35  36
ENDBRANCH  27  30
ENDBRANCH  25  26
ENDBRANCH  24  25
ENDBRANCH   1  24
TORSDOF 17
ENDMDL
MODEL 3
REMARK VINA RESULT:     -11.5      1.154      7.530
REMARK SMILES C[C@@H]1[C@H](C(=O)NCCCCNC(=O)c2ccc(-c3c4nc(c(-c5cccc(S(=O)(=O)[O-])c5F)c5ccc([nH]5)c(-c5cccc(S(=O)(=O)[O-])c5F)c5nc(c(-c6cccc(S(=O)(=O)[O-])c6F)c6ccc3[nH]6)C=C5)C=C4)cc2)[C@@H](C)CC(=O)N1CC(C)(C)S(C)(=O)=O
REMARK SMILES IDX 8 1 7 2 6 3 4 4 5 5 3 7 1 8 2 9 82 10 77 11 80 12 79 13
REMARK SMILES IDX 78 14 81 15 83 16 84 17 85 18 86 19 87 20 88 21 89 22 90 23
REMARK SMILES IDX 9 24 10 25 11 26 12 27 13 29 14 30 15 31 76 32 16 33 75 34
REMARK SMILES IDX 17 35 18 36 19 37 69 38 20 39 74 40 68 41 70 42 21 43 73 44
REMARK SMILES IDX 67 45 66 46 22 48 54 49 34 50 53 51 35 52 38 53 52 54 71 55
REMARK SMILES IDX 36 56 37 57 51 59 72 60 39 61 23 62 24 63 32 64 25 65 27 66
REMARK SMILES IDX 33 67 26 68 28 69 29 70 30 71 31 72 55 73 56 74 64 75 57 76
REMARK SMILES IDX 59 77 65 78 58 79 60 80 61 81 62 82 63 83 40 84 41 85 49 86
REMARK SMILES IDX 42 87 44 88 50 89 43 90 45 91 46 92 47 93 48 94
REMARK H PARENT 6 6 11 28 70 47 38 58
REMARK Flexibility Score: inf
ROOT
ATOM      1  C   UNL A   1      36.737  20.037  24.983  1.00  0.00     0.023 C 
ENDROOT
BRANCH   1   2
ATOM      2  C   UNL A   1      36.512  21.429  25.581  1.00  0.00     0.116 C 
BRANCH   2   3
ATOM      3  N   UNL A   1      35.467  21.449  26.592  1.00  0.00    -0.356 N 
ATOM      4  C   UNL A   1      34.179  21.887  26.567  1.00  0.00     0.225 C 
ATOM      5  O   UNL A   1      33.551  21.855  27.630  1.00  0.00    -0.275 OA
ATOM      6  H   UNL A   1      35.745  21.077  27.461  1.00  0.00     0.163 HD
BRANCH   4   7
ATOM      7  C   UNL A   1      33.485  22.435  25.309  1.00  0.00     0.104 C 
ATOM      8  C   UNL A   1      34.895  24.561  25.706  1.00  0.00     0.032 C 
ATOM      9  C   UNL A   1      33.636  23.964  25.102  1.00  0.00     0.094 C 
ATOM     10  N   UNL A   1      33.435  24.484  23.717  1.00  0.00    -0.338 N 
ATOM     11  C   UNL A   1      33.660  21.561  24.065  1.00  0.00     0.010 C 
ATOM     12  C   UNL A   1      33.225  23.647  22.630  1.00  0.00     0.223 C 
ATOM     13  C   UNL A   1      32.937  22.191  22.891  1.00  0.00     0.104 C 
ATOM     14  C   UNL A   1      33.081  20.154  24.299  1.00  0.00     0.009 C 
ATOM     15  O   UNL A   1      33.080  24.063  21.482  1.00  0.00    -0.275 OA
BRANCH  10  16
ATOM     16  C   UNL A   1      33.077  25.916  23.581  1.00  0.00     0.142 C 
BRANCH  16  17
ATOM     17  C   UNL A   1      31.717  26.573  23.997  1.00  0.00     0.084 C 
ATOM     18  C   UNL A   1      30.609  25.584  24.383  1.00  0.00     0.030 C 
ATOM     19  C   UNL A   1      32.025  27.405  25.272  1.00  0.00     0.030 C 
BRANCH  17  20
ATOM     20  S   UNL A   1      31.016  27.710  22.749  1.00  0.00     0.154 S 
ATOM     21  C   UNL A   1      29.289  27.907  23.146  1.00  0.00     0.158 C 
ATOM     22  O   UNL A   1      31.653  29.005  22.876  1.00  0.00    -0.229 OA
ATOM     23  O   UNL A   1      31.039  27.033  21.463  1.00  0.00    -0.229 OA
ENDBRANCH  17  20
ENDBRANCH  16  17
ENDBRANCH  10  16
ENDBRANCH   4   7
ENDBRANCH   2   3
ENDBRANCH   1   2
BRANCH   1  24
ATOM     24  C   UNL A   1      38.186  19.608  24.822  1.00  0.00     0.023 C 
BRANCH  24  25
ATOM     25  C   UNL A   1      39.118  20.103  25.910  1.00  0.00     0.116 C 
BRANCH  25  26
ATOM     26  N   UNL A   1      40.369  19.360  25.989  1.00  0.00    -0.352 N 
ATOM     27  C   UNL A   1      41.626  19.834  26.295  1.00  0.00     0.251 C 
ATOM     28  H   UNL A   1      40.309  18.396  25.799  1.00  0.00     0.163 HD
ATOM     29  O   UNL A   1      42.603  19.105  26.229  1.00  0.00    -0.269 OA
BRANCH  27  30
ATOM     30  C   UNL A   1      41.768  21.255  26.672  1.00  0.00     0.039 A 
ATOM     31  C   UNL A   1      41.920  21.590  28.019  1.00  0.00     0.014 A 
ATOM     32  C   UNL A   1      41.829  22.237  25.681  1.00  0.00     0.014 A 
ATOM     33  C   UNL A   1      42.195  22.912  28.366  1.00  0.00     0.010 A 
ATOM     34  C   UNL A   1      42.208  23.527  26.021  1.00  0.00     0.010 A 
ATOM     35  C   UNL A   1      42.373  23.884  27.367  1.00  0.00    -0.014 A 
BRANCH  35  36
ATOM     36  C   UNL A   1      42.688  25.295  27.698  1.00  0.00     0.031 A 
ATOM     37  C   UNL A   1      44.106  25.782  27.569  1.00  0.00     0.074 A 
ATOM     38  C   UNL A   1      41.730  26.099  28.201  1.00  0.00     0.049 A 
ATOM     39  N   UNL A   1      44.610  26.946  27.885  1.00  0.00    -0.248 NA
ATOM     40  C   UNL A   1      45.100  24.820  27.058  1.00  0.00     0.031 C 
ATOM     41  C   UNL A   1      40.342  25.709  28.462  1.00  0.00     0.029 A 
ATOM     42  N   UNL A   1      41.789  27.407  28.609  1.00  0.00    -0.354 N 
ATOM     43  C   UNL A   1      45.977  26.838  27.659  1.00  0.00     0.074 A 
ATOM     44  C   UNL A   1      46.233  25.484  27.225  1.00  0.00     0.031 C 
ATOM     45  C   UNL A   1      39.679  26.759  28.976  1.00  0.00     0.029 A 
ATOM     46  C   UNL A   1      40.597  27.886  29.102  1.00  0.00     0.049 A 
ATOM     47  H   UNL A   1      42.606  27.953  28.554  1.00  0.00     0.167 HD
ATOM     48  C   UNL A   1      46.930  27.793  27.762  1.00  0.00     0.034 A 
ATOM     49  C   UNL A   1      40.284  29.100  29.597  1.00  0.00     0.034 A 
ATOM     50  C   UNL A   1      46.656  29.156  28.116  1.00  0.00     0.049 A 
ATOM     51  C   UNL A   1      41.344  30.169  29.616  1.00  0.00     0.074 A 
ATOM     52  C   UNL A   1      47.526  30.230  28.147  1.00  0.00     0.029 A 
ATOM     53  N   UNL A   1      45.410  29.636  28.490  1.00  0.00    -0.354 N 
ATOM     54  N   UNL A   1      42.598  30.094  29.239  1.00  0.00    -0.248 NA
ATOM     55  C   UNL A   1      40.938  31.501  30.087  1.00  0.00     0.031 C 
ATOM     56  C   UNL A   1      46.808  31.360  28.550  1.00  0.00     0.029 A 
ATOM     57  C   UNL A   1      45.487  30.991  28.753  1.00  0.00     0.049 A 
ATOM     58  H   UNL A   1      44.593  29.093  28.560  1.00  0.00     0.167 HD
ATOM     59  C   UNL A   1      43.120  31.373  29.391  1.00  0.00     0.074 A 
ATOM     60  C   UNL A   1      42.039  32.209  29.873  1.00  0.00     0.031 C 
ATOM     61  C   UNL A   1      44.381  31.816  29.169  1.00  0.00     0.034 A 
BRANCH  48  62
ATOM     62  C   UNL A   1      48.345  27.409  27.415  1.00  0.00     0.023 A 
ATOM     63  C   UNL A   1      49.160  26.806  28.396  1.00  0.00     0.012 A 
ATOM     64  C   UNL A   1      48.852  27.599  26.116  1.00  0.00     0.148 A 
ATOM     65  C   UNL A   1      50.470  26.433  28.100  1.00  0.00     0.002 A 
ATOM     66  C   UNL A   1      50.144  27.182  25.815  1.00  0.00     0.091 A 
ATOM     67  F   UNL A   1      48.071  28.195  25.204  1.00  0.00    -0.205 F 
ATOM     68  C   UNL A   1      50.957  26.611  26.809  1.00  0.00     0.022 A 
BRANCH  66  69
ATOM     69  S   UNL A   1      50.839  27.293  24.163  1.00  0.00     0.127 S 
ATOM     70  O   UNL A   1      52.050  26.485  24.298  1.00  0.00    -0.237 OA
ATOM     71  O   UNL A   1      49.788  26.685  23.346  1.00  0.00    -0.237 OA
ATOM     72  O   UNL A   1      51.058  28.710  23.914  1.00  0.00    -0.744 OA
ENDBRANCH  66  69
ENDBRANCH  48  62
BRANCH  49  73
ATOM     73  C   UNL A   1      38.887  29.396  30.027  1.00  0.00     0.023 A 
ATOM     74  C   UNL A   1      38.498  29.094  31.347  1.00  0.00     0.012 A 
ATOM     75  C   UNL A   1      37.954  29.990  29.157  1.00  0.00     0.148 A 
ATOM     76  C   UNL A   1      37.195  29.343  31.781  1.00  0.00     0.002 A 
ATOM     77  C   UNL A   1      36.673  30.285  29.611  1.00  0.00     0.091 A 
ATOM     78  F   UNL A   1      38.339  30.261  27.901  1.00  0.00    -0.205 F 
ATOM     79  C   UNL A   1      36.286  29.946  30.917  1.00  0.00     0.022 A 
BRANCH  77  80
ATOM     80  S   UNL A   1      35.482  31.178  28.606  1.00  0.00     0.127 S 
ATOM     81  O   UNL A   1      34.760  30.086  27.956  1.00  0.00    -0.237 OA
ATOM     82  O   UNL A   1      34.715  31.908  29.616  1.00  0.00    -0.237 OA
ATOM     83  O   UNL A   1      36.273  32.029  27.728  1.00  0.00    -0.744 OA
ENDBRANCH  77  80
ENDBRANCH  49  73
BRANCH  61  84
ATOM     84  C   UNL A   1      44.662  33.276  29.404  1.00  0.00     0.023 A 
ATOM     85  C   UNL A   1      45.144  33.702  30.656  1.00  0.00     0.012 A 
ATOM     86  C   UNL A   1      44.534  34.208  28.355  1.00  0.00     0.148 A 
ATOM     87  C   UNL A   1      45.465  35.040  30.872  1.00  0.00     0.002 A 
ATOM     88  C   UNL A   1      44.902  35.531  28.564  1.00  0.00     0.091 A 
ATOM     89  F   UNL A   1      44.055  33.785  27.176  1.00  0.00    -0.205 F 
ATOM     90  C   UNL A   1      45.357  35.952  29.823  1.00  0.00     0.022 A 
BRANCH  88  91
ATOM     91  S   UNL A   1      44.889  36.748  27.242  1.00  0.00     0.127 S 
ATOM     92  O   UNL A   1      45.752  36.116  26.246  1.00  0.00    -0.237 OA
ATOM     93  O   UNL A   1      43.471  36.798  26.878  1.00  0.00    -0.237 OA
ATOM     94  O   UNL A   1      45.402  37.979  27.828  1.00  0.00    -0.744 OA
ENDBRANCH  88  91
ENDBRANCH  61  84
ENDBRANCH  35  36
ENDBRANCH  27  30
ENDBRANCH  25  26
ENDBRANCH  24  25
ENDBRANCH   1  24
TORSDOF 17
ENDMDL
