MODEL 1
REMARK VINA RESULT:      -8.9      0.000      0.000
REMARK SMILES CCCCCCOC(=O)Nc1cccc(-c2ccc([C@@H](C)C(=O)NCCCCNC(=O)c3ccc(-c4c5nc(c(-c6cccc(S(=O)(=O)[O-])c6F)c6ccc([nH]6)c(-c6cccc(S(=O)(=O)[O-])c6F)c6nc(c(-c7cccc(S(=O)(=O)[O-])c7F)c7ccc4[nH]7)C=C6)C=C5)cc3)cc2F)c1
REMARK SMILES IDX 20 1 21 2 19 3 16 4 17 5 96 6 18 7 95 8 97 9 15 10 11 11
REMARK SMILES IDX 12 12 98 13 13 14 14 15 10 16 8 17 9 18 7 20 6 21 5 22 4 23
REMARK SMILES IDX 3 24 2 25 1 26 22 27 23 28 24 29 25 31 26 32 27 33 28 34
REMARK SMILES IDX 29 35 30 36 31 38 32 39 33 40 94 41 34 42 93 43 35 44 36 45
REMARK SMILES IDX 37 46 87 47 38 48 92 49 86 50 88 51 39 52 91 53 85 54 84 55
REMARK SMILES IDX 40 57 72 58 52 59 71 60 53 61 56 62 70 63 89 64 54 65 55 66
REMARK SMILES IDX 69 68 90 69 57 70 41 71 42 72 50 73 43 74 45 75 51 76 44 77
REMARK SMILES IDX 46 78 47 79 48 80 49 81 73 82 74 83 82 84 75 85 77 86 83 87
REMARK SMILES IDX 76 88 78 89 79 90 80 91 81 92 58 93 59 94 67 95 60 96 62 97
REMARK SMILES IDX 68 98 61 99 63 100 64 101 65 102 66 103
REMARK H PARENT 10 19 24 30 29 37 88 56 56 67
REMARK Flexibility Score: inf
ROOT
ATOM      1  C   UNL A   1      34.985  34.571  29.374  1.00  0.00     0.105 C 
ATOM      2  C   UNL A   1      34.719  35.179  27.999  1.00  0.00     0.023 C 
ENDROOT
BRANCH   1   3
ATOM      3  C   UNL A   1      35.841  33.314  29.391  1.00  0.00    -0.033 A 
ATOM      4  C   UNL A   1      37.433  30.944  29.189  1.00  0.00     0.018 A 
ATOM      5  C   UNL A   1      37.971  32.153  29.652  1.00  0.00     0.012 A 
ATOM      6  C   UNL A   1      36.062  30.946  28.884  1.00  0.00     0.131 A 
ATOM      7  C   UNL A   1      37.181  33.302  29.790  1.00  0.00     0.005 A 
ATOM      8  C   UNL A   1      35.285  32.105  28.956  1.00  0.00     0.044 A 
ATOM      9  F   UNL A   1      35.439  29.815  28.517  1.00  0.00    -0.206 F 
BRANCH   4  10
ATOM     10  C   UNL A   1      38.277  29.736  29.040  1.00  0.00    -0.013 A 
ATOM     11  C   UNL A   1      39.793  28.364  27.689  1.00  0.00     0.045 A 
ATOM     12  C   UNL A   1      39.755  27.355  28.649  1.00  0.00     0.026 A 
ATOM     13  C   UNL A   1      39.081  29.550  27.902  1.00  0.00     0.035 A 
ATOM     14  C   UNL A   1      39.033  27.546  29.823  1.00  0.00     0.003 A 
ATOM     15  C   UNL A   1      38.291  28.717  30.009  1.00  0.00     0.009 A 
BRANCH  11  16
ATOM     16  N   UNL A   1      40.438  28.103  26.474  1.00  0.00    -0.291 N 
ATOM     17  C   UNL A   1      41.679  28.528  26.078  1.00  0.00     0.411 C 
ATOM     18  O   UNL A   1      41.941  28.683  24.897  1.00  0.00    -0.224 OA
ATOM     19  H   UNL A   1      39.942  27.549  25.828  1.00  0.00     0.173 HD
BRANCH  17  20
ATOM     20  O   UNL A   1      42.561  28.609  27.107  1.00  0.00    -0.449 OA
BRANCH  20  21
ATOM     21  C   UNL A   1      43.831  27.951  26.968  1.00  0.00     0.235 C 
BRANCH  21  22
ATOM     22  C   UNL A   1      43.683  26.480  26.561  1.00  0.00     0.042 C 
BRANCH  22  23
ATOM     23  C   UNL A   1      42.821  25.613  27.488  1.00  0.00     0.003 C 
BRANCH  23  24
ATOM     24  C   UNL A   1      43.462  25.269  28.839  1.00  0.00    -0.000 C 
BRANCH  24  25
ATOM     25  C   UNL A   1      43.991  23.841  28.957  1.00  0.00    -0.003 C 
ATOM     26  C   UNL A   1      45.091  23.538  27.954  1.00  0.00     0.004 C 
ENDBRANCH  24  25
ENDBRANCH  23  24
ENDBRANCH  22  23
ENDBRANCH  21  22
ENDBRANCH  20  21
ENDBRANCH  17  20
ENDBRANCH  11  16
ENDBRANCH   4  10
ENDBRANCH   1   3
BRANCH   1  27
ATOM     27  C   UNL A   1      33.739  34.483  30.270  1.00  0.00     0.227 C 
ATOM     28  O   UNL A   1      32.639  34.831  29.821  1.00  0.00    -0.274 OA
ATOM     29  N   UNL A   1      33.759  34.021  31.550  1.00  0.00    -0.356 N 
ATOM     30  H   UNL A   1      32.872  33.964  31.974  1.00  0.00     0.163 HD
BRANCH  29  31
ATOM     31  C   UNL A   1      34.851  33.598  32.400  1.00  0.00     0.116 C 
BRANCH  31  32
ATOM     32  C   UNL A   1      35.306  34.708  33.349  1.00  0.00     0.023 C 
BRANCH  32  33
ATOM     33  C   UNL A   1      35.588  34.254  34.780  1.00  0.00     0.023 C 
BRANCH  33  34
ATOM     34  C   UNL A   1      36.995  33.722  35.025  1.00  0.00     0.116 C 
BRANCH  34  35
ATOM     35  N   UNL A   1      37.064  32.653  36.014  1.00  0.00    -0.352 N 
ATOM     36  C   UNL A   1      37.934  31.586  36.041  1.00  0.00     0.251 C 
ATOM     37  H   UNL A   1      36.410  32.698  36.748  1.00  0.00     0.163 HD
ATOM     38  O   UNL A   1      37.828  30.713  36.897  1.00  0.00    -0.269 OA
BRANCH  36  39
ATOM     39  C   UNL A   1      38.970  31.492  34.992  1.00  0.00     0.039 A 
ATOM     40  C   UNL A   1      40.264  31.937  35.274  1.00  0.00     0.014 A 
ATOM     41  C   UNL A   1      38.680  30.877  33.772  1.00  0.00     0.014 A 
ATOM     42  C   UNL A   1      41.289  31.689  34.358  1.00  0.00     0.010 A 
ATOM     43  C   UNL A   1      39.716  30.556  32.904  1.00  0.00     0.010 A 
ATOM     44  C   UNL A   1      41.031  30.958  33.185  1.00  0.00    -0.014 A 
BRANCH  44  45
ATOM     45  C   UNL A   1      42.119  30.589  32.245  1.00  0.00     0.031 A 
ATOM     46  C   UNL A   1      42.818  29.264  32.389  1.00  0.00     0.074 A 
ATOM     47  C   UNL A   1      42.549  31.485  31.334  1.00  0.00     0.049 A 
ATOM     48  N   UNL A   1      43.838  28.793  31.720  1.00  0.00    -0.248 NA
ATOM     49  C   UNL A   1      42.329  28.363  33.446  1.00  0.00     0.031 C 
ATOM     50  C   UNL A   1      42.014  32.837  31.157  1.00  0.00     0.029 A 
ATOM     51  N   UNL A   1      43.555  31.403  30.403  1.00  0.00    -0.354 N 
ATOM     52  C   UNL A   1      44.138  27.567  32.300  1.00  0.00     0.074 A 
ATOM     53  C   UNL A   1      43.218  27.383  33.400  1.00  0.00     0.031 C 
ATOM     54  C   UNL A   1      42.692  33.454  30.175  1.00  0.00     0.029 A 
ATOM     55  C   UNL A   1      43.726  32.557  29.672  1.00  0.00     0.049 A 
ATOM     56  H   UNL A   1      44.102  30.596  30.271  1.00  0.00     0.167 HD
ATOM     57  C   UNL A   1      45.070  26.659  31.929  1.00  0.00     0.034 A 
ATOM     58  C   UNL A   1      44.620  32.857  28.710  1.00  0.00     0.034 A 
ATOM     59  C   UNL A   1      45.945  26.822  30.801  1.00  0.00     0.049 A 
ATOM     60  C   UNL A   1      45.611  31.809  28.279  1.00  0.00     0.074 A 
ATOM     61  C   UNL A   1      46.855  25.918  30.282  1.00  0.00     0.029 A 
ATOM     62  N   UNL A   1      46.022  27.963  30.019  1.00  0.00    -0.354 N 
ATOM     63  N   UNL A   1      45.767  30.588  28.730  1.00  0.00    -0.248 NA
ATOM     64  C   UNL A   1      46.524  32.164  27.183  1.00  0.00     0.031 C 
ATOM     65  C   UNL A   1      47.498  26.523  29.196  1.00  0.00     0.029 A 
ATOM     66  C   UNL A   1      46.969  27.793  29.025  1.00  0.00     0.049 A 
ATOM     67  H   UNL A   1      45.483  28.776  30.152  1.00  0.00     0.167 HD
ATOM     68  C   UNL A   1      46.767  30.018  27.951  1.00  0.00     0.074 A 
ATOM     69  C   UNL A   1      47.166  31.022  26.985  1.00  0.00     0.031 C 
ATOM     70  C   UNL A   1      47.316  28.781  28.036  1.00  0.00     0.034 A 
BRANCH  57  71
ATOM     71  C   UNL A   1      45.148  25.378  32.719  1.00  0.00     0.023 A 
ATOM     72  C   UNL A   1      44.327  24.289  32.361  1.00  0.00     0.012 A 
ATOM     73  C   UNL A   1      46.064  25.232  33.779  1.00  0.00     0.148 A 
ATOM     74  C   UNL A   1      44.384  23.091  33.068  1.00  0.00     0.002 A 
ATOM     75  C   UNL A   1      46.150  24.017  34.450  1.00  0.00     0.091 A 
ATOM     76  F   UNL A   1      46.822  26.283  34.121  1.00  0.00    -0.205 F 
ATOM     77  C   UNL A   1      45.303  22.951  34.105  1.00  0.00     0.022 A 
BRANCH  75  78
ATOM     78  S   UNL A   1      47.354  23.710  35.747  1.00  0.00     0.127 S 
ATOM     79  O   UNL A   1      48.580  24.224  35.138  1.00  0.00    -0.237 OA
ATOM     80  O   UNL A   1      46.833  24.520  36.849  1.00  0.00    -0.237 OA
ATOM     81  O   UNL A   1      47.328  22.273  35.985  1.00  0.00    -0.744 OA
ENDBRANCH  75  78
ENDBRANCH  57  71
BRANCH  58  82
ATOM     82  C   UNL A   1      44.569  34.185  28.032  1.00  0.00     0.023 A 
ATOM     83  C   UNL A   1      43.701  34.369  26.938  1.00  0.00     0.012 A 
ATOM     84  C   UNL A   1      45.348  35.269  28.479  1.00  0.00     0.148 A 
ATOM     85  C   UNL A   1      43.634  35.597  26.280  1.00  0.00     0.002 A 
ATOM     86  C   UNL A   1      45.236  36.506  27.854  1.00  0.00     0.091 A 
ATOM     87  F   UNL A   1      46.176  35.073  29.516  1.00  0.00    -0.205 F 
ATOM     88  C   UNL A   1      44.392  36.668  26.744  1.00  0.00     0.022 A 
BRANCH  86  89
ATOM     89  S   UNL A   1      46.074  37.974  28.464  1.00  0.00     0.127 S 
ATOM     90  O   UNL A   1      45.495  39.019  27.624  1.00  0.00    -0.237 OA
ATOM     91  O   UNL A   1      45.653  38.003  29.864  1.00  0.00    -0.237 OA
ATOM     92  O   UNL A   1      47.496  37.721  28.272  1.00  0.00    -0.744 OA
ENDBRANCH  86  89
ENDBRANCH  58  82
BRANCH  70  93
ATOM     93  C   UNL A   1      48.383  28.418  27.038  1.00  0.00     0.023 A 
ATOM     94  C   UNL A   1      49.738  28.432  27.424  1.00  0.00     0.012 A 
ATOM     95  C   UNL A   1      48.036  27.981  25.744  1.00  0.00     0.148 A 
ATOM     96  C   UNL A   1      50.733  28.046  26.528  1.00  0.00     0.002 A 
ATOM     97  C   UNL A   1      49.029  27.550  24.873  1.00  0.00     0.091 A 
ATOM     98  F   UNL A   1      46.742  27.992  25.390  1.00  0.00    -0.205 F 
ATOM     99  C   UNL A   1      50.380  27.593  25.259  1.00  0.00     0.022 A 
BRANCH  97 100
ATOM    100  S   UNL A   1      48.659  26.859  23.257  1.00  0.00     0.127 S 
ATOM    101  O   UNL A   1      47.745  27.858  22.707  1.00  0.00    -0.237 OA
ATOM    102  O   UNL A   1      49.978  26.823  22.624  1.00  0.00    -0.237 OA
ATOM    103  O   UNL A   1      48.075  25.547  23.507  1.00  0.00    -0.744 OA
ENDBRANCH  97 100
ENDBRANCH  70  93
ENDBRANCH  44  45
ENDBRANCH  36  39
ENDBRANCH  34  35
ENDBRANCH  33  34
ENDBRANCH  32  33
ENDBRANCH  31  32
ENDBRANCH  29  31
ENDBRANCH   1  27
TORSDOF 23
ENDMDL
MODEL 2
REMARK VINA RESULT:      -8.3      7.565     13.583
REMARK SMILES CCCCCCOC(=O)Nc1cccc(-c2ccc([C@@H](C)C(=O)NCCCCNC(=O)c3ccc(-c4c5nc(c(-c6cccc(S(=O)(=O)[O-])c6F)c6ccc([nH]6)c(-c6cccc(S(=O)(=O)[O-])c6F)c6nc(c(-c7cccc(S(=O)(=O)[O-])c7F)c7ccc4[nH]7)C=C6)C=C5)cc3)cc2F)c1
REMARK SMILES IDX 20 1 21 2 19 3 16 4 17 5 96 6 18 7 95 8 97 9 15 10 11 11
REMARK SMILES IDX 12 12 98 13 13 14 14 15 10 16 8 17 9 18 7 20 6 21 5 22 4 23
REMARK SMILES IDX 3 24 2 25 1 26 22 27 23 28 24 29 25 31 26 32 27 33 28 34
REMARK SMILES IDX 29 35 30 36 31 38 32 39 33 40 94 41 34 42 93 43 35 44 36 45
REMARK SMILES IDX 37 46 87 47 38 48 92 49 86 50 88 51 39 52 91 53 85 54 84 55
REMARK SMILES IDX 40 57 72 58 52 59 71 60 53 61 56 62 70 63 89 64 54 65 55 66
REMARK SMILES IDX 69 68 90 69 57 70 41 71 42 72 50 73 43 74 45 75 51 76 44 77
REMARK SMILES IDX 46 78 47 79 48 80 49 81 73 82 74 83 82 84 75 85 77 86 83 87
REMARK SMILES IDX 76 88 78 89 79 90 80 91 81 92 58 93 59 94 67 95 60 96 62 97
REMARK SMILES IDX 68 98 61 99 63 100 64 101 65 102 66 103
REMARK H PARENT 10 19 24 30 29 37 88 56 56 67
REMARK Flexibility Score: inf
ROOT
ATOM      1  C   UNL A   1      34.440  33.017  28.579  1.00  0.00     0.105 C 
ATOM      2  C   UNL A   1      33.241  33.960  28.499  1.00  0.00     0.023 C 
ENDROOT
BRANCH   1   3
ATOM      3  C   UNL A   1      34.272  31.670  27.894  1.00  0.00    -0.033 A 
ATOM      4  C   UNL A   1      33.953  29.249  26.400  1.00  0.00     0.018 A 
ATOM      5  C   UNL A   1      35.120  29.513  27.131  1.00  0.00     0.012 A 
ATOM      6  C   UNL A   1      32.931  30.209  26.487  1.00  0.00     0.131 A 
ATOM      7  C   UNL A   1      35.259  30.679  27.896  1.00  0.00     0.005 A 
ATOM      8  C   UNL A   1      33.091  31.404  27.192  1.00  0.00     0.044 A 
ATOM      9  F   UNL A   1      31.746  30.004  25.892  1.00  0.00    -0.206 F 
BRANCH   4  10
ATOM     10  C   UNL A   1      33.818  28.017  25.590  1.00  0.00    -0.013 A 
ATOM     11  C   UNL A   1      33.745  25.572  25.446  1.00  0.00     0.045 A 
ATOM     12  C   UNL A   1      33.746  25.641  24.056  1.00  0.00     0.026 A 
ATOM     13  C   UNL A   1      33.753  26.752  26.200  1.00  0.00     0.035 A 
ATOM     14  C   UNL A   1      33.726  26.881  23.426  1.00  0.00     0.003 A 
ATOM     15  C   UNL A   1      33.777  28.054  24.184  1.00  0.00     0.009 A 
BRANCH  11  16
ATOM     16  N   UNL A   1      33.871  24.315  26.051  1.00  0.00    -0.291 N 
ATOM     17  C   UNL A   1      32.874  23.533  26.571  1.00  0.00     0.411 C 
ATOM     18  O   UNL A   1      33.101  22.746  27.475  1.00  0.00    -0.224 OA
ATOM     19  H   UNL A   1      34.784  23.950  26.110  1.00  0.00     0.173 HD
BRANCH  17  20
ATOM     20  O   UNL A   1      31.706  23.645  25.887  1.00  0.00    -0.449 OA
BRANCH  20  21
ATOM     21  C   UNL A   1      30.479  23.668  26.635  1.00  0.00     0.235 C 
BRANCH  21  22
ATOM     22  C   UNL A   1      29.622  24.896  26.307  1.00  0.00     0.042 C 
BRANCH  22  23
ATOM     23  C   UNL A   1      30.305  25.985  25.470  1.00  0.00     0.003 C 
BRANCH  23  24
ATOM     24  C   UNL A   1      29.760  26.148  24.045  1.00  0.00    -0.000 C 
BRANCH  24  25
ATOM     25  C   UNL A   1      29.512  27.591  23.609  1.00  0.00    -0.003 C 
ATOM     26  C   UNL A   1      30.461  28.043  22.513  1.00  0.00     0.004 C 
ENDBRANCH  24  25
ENDBRANCH  23  24
ENDBRANCH  22  23
ENDBRANCH  21  22
ENDBRANCH  20  21
ENDBRANCH  17  20
ENDBRANCH  11  16
ENDBRANCH   4  10
ENDBRANCH   1   3
BRANCH   1  27
ATOM     27  C   UNL A   1      35.071  32.926  29.978  1.00  0.00     0.227 C 
ATOM     28  O   UNL A   1      34.443  32.384  30.896  1.00  0.00    -0.274 OA
ATOM     29  N   UNL A   1      36.312  33.397  30.279  1.00  0.00    -0.356 N 
ATOM     30  H   UNL A   1      36.604  33.208  31.201  1.00  0.00     0.163 HD
BRANCH  29  31
ATOM     31  C   UNL A   1      37.279  34.127  29.488  1.00  0.00     0.116 C 
BRANCH  31  32
ATOM     32  C   UNL A   1      38.621  33.397  29.402  1.00  0.00     0.023 C 
BRANCH  32  33
ATOM     33  C   UNL A   1      39.024  32.643  30.668  1.00  0.00     0.023 C 
BRANCH  33  34
ATOM     34  C   UNL A   1      39.265  31.150  30.482  1.00  0.00     0.116 C 
BRANCH  34  35
ATOM     35  N   UNL A   1      38.053  30.341  30.523  1.00  0.00    -0.352 N 
ATOM     36  C   UNL A   1      37.255  30.073  31.614  1.00  0.00     0.251 C 
ATOM     37  H   UNL A   1      37.771  29.937  29.671  1.00  0.00     0.163 HD
ATOM     38  O   UNL A   1      36.302  29.307  31.519  1.00  0.00    -0.269 OA
BRANCH  36  39
ATOM     39  C   UNL A   1      37.601  30.692  32.910  1.00  0.00     0.039 A 
ATOM     40  C   UNL A   1      38.680  30.185  33.638  1.00  0.00     0.014 A 
ATOM     41  C   UNL A   1      36.917  31.828  33.350  1.00  0.00     0.014 A 
ATOM     42  C   UNL A   1      39.127  30.872  34.770  1.00  0.00     0.010 A 
ATOM     43  C   UNL A   1      37.417  32.553  34.424  1.00  0.00     0.010 A 
ATOM     44  C   UNL A   1      38.525  32.085  35.146  1.00  0.00    -0.014 A 
BRANCH  44  45
ATOM     45  C   UNL A   1      39.043  32.889  36.281  1.00  0.00     0.031 A 
ATOM     46  C   UNL A   1      40.224  33.800  36.078  1.00  0.00     0.074 A 
ATOM     47  C   UNL A   1      38.524  32.721  37.513  1.00  0.00     0.049 A 
ATOM     48  N   UNL A   1      40.870  34.521  36.957  1.00  0.00    -0.248 NA
ATOM     49  C   UNL A   1      40.774  33.885  34.714  1.00  0.00     0.031 C 
ATOM     50  C   UNL A   1      37.437  31.800  37.857  1.00  0.00     0.029 A 
ATOM     51  N   UNL A   1      38.859  33.298  38.713  1.00  0.00    -0.354 N 
ATOM     52  C   UNL A   1      41.922  35.109  36.265  1.00  0.00     0.074 A 
ATOM     53  C   UNL A   1      41.853  34.630  34.903  1.00  0.00     0.031 C 
ATOM     54  C   UNL A   1      37.193  31.880  39.175  1.00  0.00     0.029 A 
ATOM     55  C   UNL A   1      38.119  32.832  39.776  1.00  0.00     0.049 A 
ATOM     56  H   UNL A   1      39.561  33.981  38.804  1.00  0.00     0.167 HD
ATOM     57  C   UNL A   1      42.842  35.995  36.714  1.00  0.00     0.034 A 
ATOM     58  C   UNL A   1      38.185  33.136  41.088  1.00  0.00     0.034 A 
ATOM     59  C   UNL A   1      42.873  36.510  38.055  1.00  0.00     0.049 A 
ATOM     60  C   UNL A   1      39.181  34.166  41.550  1.00  0.00     0.074 A 
ATOM     61  C   UNL A   1      43.701  37.485  38.582  1.00  0.00     0.029 A 
ATOM     62  N   UNL A   1      42.043  36.090  39.082  1.00  0.00    -0.354 N 
ATOM     63  N   UNL A   1      40.059  34.838  40.846  1.00  0.00    -0.248 NA
ATOM     64  C   UNL A   1      39.171  34.507  42.980  1.00  0.00     0.031 C 
ATOM     65  C   UNL A   1      43.383  37.641  39.935  1.00  0.00     0.029 A 
ATOM     66  C   UNL A   1      42.341  36.780  40.244  1.00  0.00     0.049 A 
ATOM     67  H   UNL A   1      41.344  35.402  38.998  1.00  0.00     0.167 HD
ATOM     68  C   UNL A   1      40.679  35.706  41.736  1.00  0.00     0.074 A 
ATOM     69  C   UNL A   1      40.062  35.488  43.029  1.00  0.00     0.031 C 
ATOM     70  C   UNL A   1      41.679  36.593  41.509  1.00  0.00     0.034 A 
BRANCH  57  71
ATOM     71  C   UNL A   1      43.854  36.510  35.723  1.00  0.00     0.023 A 
ATOM     72  C   UNL A   1      45.165  35.993  35.736  1.00  0.00     0.012 A 
ATOM     73  C   UNL A   1      43.499  37.466  34.751  1.00  0.00     0.148 A 
ATOM     74  C   UNL A   1      46.118  36.445  34.826  1.00  0.00     0.002 A 
ATOM     75  C   UNL A   1      44.442  37.878  33.817  1.00  0.00     0.091 A 
ATOM     76  F   UNL A   1      42.254  37.964  34.767  1.00  0.00    -0.205 F 
ATOM     77  C   UNL A   1      45.754  37.379  33.861  1.00  0.00     0.022 A 
BRANCH  75  78
ATOM     78  S   UNL A   1      44.051  39.016  32.484  1.00  0.00     0.127 S 
ATOM     79  O   UNL A   1      45.311  39.744  32.339  1.00  0.00    -0.237 OA
ATOM     80  O   UNL A   1      43.742  38.105  31.381  1.00  0.00    -0.237 OA
ATOM     81  O   UNL A   1      42.922  39.809  32.952  1.00  0.00    -0.744 OA
ENDBRANCH  75  78
ENDBRANCH  57  71
BRANCH  58  82
ATOM     82  C   UNL A   1      37.228  32.514  42.047  1.00  0.00     0.023 A 
ATOM     83  C   UNL A   1      37.626  31.381  42.782  1.00  0.00     0.012 A 
ATOM     84  C   UNL A   1      35.942  33.049  42.256  1.00  0.00     0.148 A 
ATOM     85  C   UNL A   1      36.752  30.773  43.684  1.00  0.00     0.002 A 
ATOM     86  C   UNL A   1      35.096  32.472  43.196  1.00  0.00     0.091 A 
ATOM     87  F   UNL A   1      35.576  34.122  41.539  1.00  0.00    -0.205 F 
ATOM     88  C   UNL A   1      35.492  31.323  43.899  1.00  0.00     0.022 A 
BRANCH  86  89
ATOM     89  S   UNL A   1      33.508  33.190  43.632  1.00  0.00     0.127 S 
ATOM     90  O   UNL A   1      33.889  34.548  44.013  1.00  0.00    -0.237 OA
ATOM     91  O   UNL A   1      32.773  33.086  42.372  1.00  0.00    -0.237 OA
ATOM     92  O   UNL A   1      32.981  32.355  44.703  1.00  0.00    -0.744 OA
ENDBRANCH  86  89
ENDBRANCH  58  82
BRANCH  70  93
ATOM     93  C   UNL A   1      42.152  37.429  42.668  1.00  0.00     0.023 A 
ATOM     94  C   UNL A   1      41.536  38.667  42.938  1.00  0.00     0.012 A 
ATOM     95  C   UNL A   1      43.149  36.947  43.541  1.00  0.00     0.148 A 
ATOM     96  C   UNL A   1      41.925  39.426  44.040  1.00  0.00     0.002 A 
ATOM     97  C   UNL A   1      43.496  37.685  44.664  1.00  0.00     0.091 A 
ATOM     98  F   UNL A   1      43.735  35.775  43.256  1.00  0.00    -0.205 F 
ATOM     99  C   UNL A   1      42.895  38.931  44.910  1.00  0.00     0.022 A 
BRANCH  97 100
ATOM    100  S   UNL A   1      44.662  37.081  45.890  1.00  0.00     0.127 S 
ATOM    101  O   UNL A   1      44.626  38.149  46.887  1.00  0.00    -0.237 OA
ATOM    102  O   UNL A   1      44.042  35.826  46.318  1.00  0.00    -0.237 OA
ATOM    103  O   UNL A   1      45.930  36.919  45.192  1.00  0.00    -0.744 OA
ENDBRANCH  97 100
ENDBRANCH  70  93
ENDBRANCH  44  45
ENDBRANCH  36  39
ENDBRANCH  34  35
ENDBRANCH  33  34
ENDBRANCH  32  33
ENDBRANCH  31  32
ENDBRANCH  29  31
ENDBRANCH   1  27
TORSDOF 23
ENDMDL
MODEL 3
REMARK VINA RESULT:      -8.1      5.373     11.585
REMARK SMILES CCCCCCOC(=O)Nc1cccc(-c2ccc([C@@H](C)C(=O)NCCCCNC(=O)c3ccc(-c4c5nc(c(-c6cccc(S(=O)(=O)[O-])c6F)c6ccc([nH]6)c(-c6cccc(S(=O)(=O)[O-])c6F)c6nc(c(-c7cccc(S(=O)(=O)[O-])c7F)c7ccc4[nH]7)C=C6)C=C5)cc3)cc2F)c1
REMARK SMILES IDX 20 1 21 2 19 3 16 4 17 5 96 6 18 7 95 8 97 9 15 10 11 11
REMARK SMILES IDX 12 12 98 13 13 14 14 15 10 16 8 17 9 18 7 20 6 21 5 22 4 23
REMARK SMILES IDX 3 24 2 25 1 26 22 27 23 28 24 29 25 31 26 32 27 33 28 34
REMARK SMILES IDX 29 35 30 36 31 38 32 39 33 40 94 41 34 42 93 43 35 44 36 45
REMARK SMILES IDX 37 46 87 47 38 48 92 49 86 50 88 51 39 52 91 53 85 54 84 55
REMARK SMILES IDX 40 57 72 58 52 59 71 60 53 61 56 62 70 63 89 64 54 65 55 66
REMARK SMILES IDX 69 68 90 69 57 70 41 71 42 72 50 73 43 74 45 75 51 76 44 77
REMARK SMILES IDX 46 78 47 79 48 80 49 81 73 82 74 83 82 84 75 85 77 86 83 87
REMARK SMILES IDX 76 88 78 89 79 90 80 91 81 92 58 93 59 94 67 95 60 96 62 97
REMARK SMILES IDX 68 98 61 99 63 100 64 101 65 102 66 103
REMARK H PARENT 10 19 24 30 29 37 88 56 56 67
REMARK Flexibility Score: inf
ROOT
ATOM      1  C   UNL A   1      37.871  32.927  36.873  1.00  0.00     0.105 C 
ATOM      2  C   UNL A   1      38.860  34.080  36.711  1.00  0.00     0.023 C 
ENDROOT
BRANCH   1   3
ATOM      3  C   UNL A   1      37.790  32.311  38.261  1.00  0.00    -0.033 A 
ATOM      4  C   UNL A   1      37.557  31.359  40.951  1.00  0.00     0.018 A 
ATOM      5  C   UNL A   1      36.765  30.840  39.916  1.00  0.00     0.012 A 
ATOM      6  C   UNL A   1      38.506  32.328  40.584  1.00  0.00     0.131 A 
ATOM      7  C   UNL A   1      36.908  31.278  38.592  1.00  0.00     0.005 A 
ATOM      8  C   UNL A   1      38.607  32.816  39.280  1.00  0.00     0.044 A 
ATOM      9  F   UNL A   1      39.368  32.819  41.489  1.00  0.00    -0.206 F 
BRANCH   4  10
ATOM     10  C   UNL A   1      37.394  30.896  42.348  1.00  0.00    -0.013 A 
ATOM     11  C   UNL A   1      36.315  31.107  44.538  1.00  0.00     0.045 A 
ATOM     12  C   UNL A   1      37.184  30.159  45.071  1.00  0.00     0.026 A 
ATOM     13  C   UNL A   1      36.407  31.448  43.183  1.00  0.00     0.035 A 
ATOM     14  C   UNL A   1      38.116  29.536  44.247  1.00  0.00     0.003 A 
ATOM     15  C   UNL A   1      38.230  29.912  42.905  1.00  0.00     0.009 A 
BRANCH  11  16
ATOM     16  N   UNL A   1      35.461  31.793  45.410  1.00  0.00    -0.291 N 
ATOM     17  C   UNL A   1      34.499  31.261  46.227  1.00  0.00     0.411 C 
ATOM     18  O   UNL A   1      33.519  31.913  46.549  1.00  0.00    -0.224 OA
ATOM     19  H   UNL A   1      35.564  32.772  45.440  1.00  0.00     0.173 HD
BRANCH  17  20
ATOM     20  O   UNL A   1      34.836  30.039  46.713  1.00  0.00    -0.449 OA
BRANCH  20  21
ATOM     21  C   UNL A   1      33.847  28.997  46.682  1.00  0.00     0.235 C 
BRANCH  21  22
ATOM     22  C   UNL A   1      33.200  28.851  45.299  1.00  0.00     0.042 C 
BRANCH  22  23
ATOM     23  C   UNL A   1      32.204  27.694  45.145  1.00  0.00     0.003 C 
BRANCH  23  24
ATOM     24  C   UNL A   1      31.475  27.289  46.433  1.00  0.00    -0.000 C 
BRANCH  24  25
ATOM     25  C   UNL A   1      31.936  25.969  47.047  1.00  0.00    -0.003 C 
ATOM     26  C   UNL A   1      32.394  26.121  48.488  1.00  0.00     0.004 C 
ENDBRANCH  24  25
ENDBRANCH  23  24
ENDBRANCH  22  23
ENDBRANCH  21  22
ENDBRANCH  20  21
ENDBRANCH  17  20
ENDBRANCH  11  16
ENDBRANCH   4  10
ENDBRANCH   1   3
BRANCH   1  27
ATOM     27  C   UNL A   1      37.928  31.891  35.739  1.00  0.00     0.227 C 
ATOM     28  O   UNL A   1      38.526  30.823  35.918  1.00  0.00    -0.274 OA
ATOM     29  N   UNL A   1      37.337  32.065  34.525  1.00  0.00    -0.356 N 
ATOM     30  H   UNL A   1      37.405  31.287  33.926  1.00  0.00     0.163 HD
BRANCH  29  31
ATOM     31  C   UNL A   1      36.623  33.190  33.959  1.00  0.00     0.116 C 
BRANCH  31  32
ATOM     32  C   UNL A   1      36.884  33.340  32.459  1.00  0.00     0.023 C 
BRANCH  32  33
ATOM     33  C   UNL A   1      35.649  33.670  31.622  1.00  0.00     0.023 C 
BRANCH  33  34
ATOM     34  C   UNL A   1      34.734  32.489  31.327  1.00  0.00     0.116 C 
BRANCH  34  35
ATOM     35  N   UNL A   1      34.237  32.448  29.957  1.00  0.00    -0.352 N 
ATOM     36  C   UNL A   1      34.808  31.821  28.871  1.00  0.00     0.251 C 
ATOM     37  H   UNL A   1      33.393  32.926  29.786  1.00  0.00     0.163 HD
ATOM     38  O   UNL A   1      34.318  31.935  27.753  1.00  0.00    -0.269 OA
BRANCH  36  39
ATOM     39  C   UNL A   1      36.049  31.046  29.076  1.00  0.00     0.039 A 
ATOM     40  C   UNL A   1      37.268  31.597  28.673  1.00  0.00     0.014 A 
ATOM     41  C   UNL A   1      36.010  29.824  29.753  1.00  0.00     0.014 A 
ATOM     42  C   UNL A   1      38.459  30.957  29.024  1.00  0.00     0.010 A 
ATOM     43  C   UNL A   1      37.197  29.237  30.173  1.00  0.00     0.010 A 
ATOM     44  C   UNL A   1      38.434  29.795  29.814  1.00  0.00    -0.014 A 
BRANCH  44  45
ATOM     45  C   UNL A   1      39.684  29.151  30.289  1.00  0.00     0.031 A 
ATOM     46  C   UNL A   1      40.373  29.670  31.522  1.00  0.00     0.074 A 
ATOM     47  C   UNL A   1      40.256  28.175  29.556  1.00  0.00     0.049 A 
ATOM     48  N   UNL A   1      41.509  29.296  32.051  1.00  0.00    -0.248 NA
ATOM     49  C   UNL A   1      39.717  30.778  32.237  1.00  0.00     0.031 C 
ATOM     50  C   UNL A   1      39.733  27.648  28.293  1.00  0.00     0.029 A 
ATOM     51  N   UNL A   1      41.418  27.471  29.752  1.00  0.00    -0.354 N 
ATOM     52  C   UNL A   1      41.724  30.146  33.129  1.00  0.00     0.074 A 
ATOM     53  C   UNL A   1      40.621  31.081  33.156  1.00  0.00     0.031 C 
ATOM     54  C   UNL A   1      40.567  26.702  27.832  1.00  0.00     0.029 A 
ATOM     55  C   UNL A   1      41.696  26.573  28.746  1.00  0.00     0.049 A 
ATOM     56  H   UNL A   1      41.997  27.597  30.537  1.00  0.00     0.167 HD
ATOM     57  C   UNL A   1      42.729  30.129  34.035  1.00  0.00     0.034 A 
ATOM     58  C   UNL A   1      42.746  25.744  28.580  1.00  0.00     0.034 A 
ATOM     59  C   UNL A   1      43.793  29.164  34.036  1.00  0.00     0.049 A 
ATOM     60  C   UNL A   1      43.821  25.707  29.632  1.00  0.00     0.074 A 
ATOM     61  C   UNL A   1      44.803  28.999  34.967  1.00  0.00     0.029 A 
ATOM     62  N   UNL A   1      43.988  28.203  33.058  1.00  0.00    -0.354 N 
ATOM     63  N   UNL A   1      43.918  26.406  30.737  1.00  0.00    -0.248 NA
ATOM     64  C   UNL A   1      44.913  24.742  29.436  1.00  0.00     0.031 C 
ATOM     65  C   UNL A   1      45.622  27.948  34.540  1.00  0.00     0.029 A 
ATOM     66  C   UNL A   1      45.106  27.444  33.355  1.00  0.00     0.049 A 
ATOM     67  H   UNL A   1      43.416  28.078  32.266  1.00  0.00     0.167 HD
ATOM     68  C   UNL A   1      45.057  25.942  31.384  1.00  0.00     0.074 A 
ATOM     69  C   UNL A   1      45.606  24.886  30.557  1.00  0.00     0.031 C 
ATOM     70  C   UNL A   1      45.608  26.359  32.551  1.00  0.00     0.034 A 
BRANCH  57  71
ATOM     71  C   UNL A   1      42.687  31.153  35.141  1.00  0.00     0.023 A 
ATOM     72  C   UNL A   1      41.970  30.872  36.322  1.00  0.00     0.012 A 
ATOM     73  C   UNL A   1      43.394  32.366  35.034  1.00  0.00     0.148 A 
ATOM     74  C   UNL A   1      41.923  31.796  37.362  1.00  0.00     0.002 A 
ATOM     75  C   UNL A   1      43.380  33.264  36.096  1.00  0.00     0.091 A 
ATOM     76  F   UNL A   1      44.052  32.628  33.896  1.00  0.00    -0.205 F 
ATOM     77  C   UNL A   1      42.636  32.987  37.254  1.00  0.00     0.022 A 
BRANCH  75  78
ATOM     78  S   UNL A   1      44.330  34.789  36.087  1.00  0.00     0.127 S 
ATOM     79  O   UNL A   1      44.044  35.321  37.419  1.00  0.00    -0.237 OA
ATOM     80  O   UNL A   1      45.697  34.300  35.906  1.00  0.00    -0.237 OA
ATOM     81  O   UNL A   1      43.814  35.576  34.976  1.00  0.00    -0.744 OA
ENDBRANCH  75  78
ENDBRANCH  57  71
BRANCH  58  82
ATOM     82  C   UNL A   1      42.792  24.825  27.407  1.00  0.00     0.023 A 
ATOM     83  C   UNL A   1      43.447  25.239  26.231  1.00  0.00     0.012 A 
ATOM     84  C   UNL A   1      42.220  23.539  27.456  1.00  0.00     0.148 A 
ATOM     85  C   UNL A   1      43.504  24.404  25.114  1.00  0.00     0.002 A 
ATOM     86  C   UNL A   1      42.327  22.691  26.360  1.00  0.00     0.091 A 
ATOM     87  F   UNL A   1      41.591  23.166  28.581  1.00  0.00    -0.205 F 
ATOM     88  C   UNL A   1      42.953  23.127  25.182  1.00  0.00     0.022 A 
BRANCH  86  89
ATOM     89  S   UNL A   1      41.764  20.985  26.403  1.00  0.00     0.127 S 
ATOM     90  O   UNL A   1      42.514  20.396  25.296  1.00  0.00    -0.237 OA
ATOM     91  O   UNL A   1      42.193  20.559  27.735  1.00  0.00    -0.237 OA
ATOM     92  O   UNL A   1      40.319  21.045  26.229  1.00  0.00    -0.744 OA
ENDBRANCH  86  89
ENDBRANCH  58  82
BRANCH  70  93
ATOM     93  C   UNL A   1      46.849  25.656  33.032  1.00  0.00     0.023 A 
ATOM     94  C   UNL A   1      48.118  26.178  32.714  1.00  0.00     0.012 A 
ATOM     95  C   UNL A   1      46.754  24.527  33.870  1.00  0.00     0.148 A 
ATOM     96  C   UNL A   1      49.275  25.569  33.199  1.00  0.00     0.002 A 
ATOM     97  C   UNL A   1      47.908  23.955  34.388  1.00  0.00     0.091 A 
ATOM     98  F   UNL A   1      45.537  24.035  34.145  1.00  0.00    -0.205 F 
ATOM     99  C   UNL A   1      49.171  24.467  34.045  1.00  0.00     0.022 A 
BRANCH  97 100
ATOM    100  S   UNL A   1      47.866  22.597  35.564  1.00  0.00     0.127 S 
ATOM    101  O   UNL A   1      47.452  21.482  34.715  1.00  0.00    -0.237 OA
ATOM    102  O   UNL A   1      49.256  22.535  36.019  1.00  0.00    -0.237 OA
ATOM    103  O   UNL A   1      46.912  22.988  36.593  1.00  0.00    -0.744 OA
ENDBRANCH  97 100
ENDBRANCH  70  93
ENDBRANCH  44  45
ENDBRANCH  36  39
ENDBRANCH  34  35
ENDBRANCH  33  34
ENDBRANCH  32  33
ENDBRANCH  31  32
ENDBRANCH  29  31
ENDBRANCH   1  27
TORSDOF 23
ENDMDL
