MODEL 1
REMARK VINA RESULT:     -14.3      0.000      0.000
REMARK SMILES O=C(NCCCCNC(=O)[C@H]1[C@@H](C(=O)Nc2ccccc2-c2ccccc2)[C@@H]2C=C[C@H]1O2)c1ccc(-c2c3nc(c(-c4cccc(S(=O)(=O)[O-])c4F)c4ccc([nH]4)c(-c4cccc(S(=O)(=O)[O-])c4F)c4nc(c(-c5cccc(S(=O)(=O)[O-])c5F)c5ccc2[nH]5)C=C4)C=C3)cc1
REMARK SMILES IDX 5 1 4 2 3 3 1 4 2 5 33 7 34 8 95 9 35 10 94 11 36 12 37 13
REMARK SMILES IDX 38 14 88 15 39 16 93 17 87 18 89 19 40 20 92 21 86 22 85 23
REMARK SMILES IDX 41 25 73 26 53 27 72 28 54 29 57 30 71 31 90 32 55 33 56 34
REMARK SMILES IDX 70 36 91 37 58 38 42 39 43 40 51 41 44 42 46 43 52 44 45 45
REMARK SMILES IDX 47 46 48 47 49 48 50 49 74 50 75 51 83 52 76 53 78 54 84 55
REMARK SMILES IDX 77 56 79 57 80 58 81 59 82 60 59 61 60 62 68 63 61 64 63 65
REMARK SMILES IDX 69 66 62 67 64 68 65 69 66 70 67 71 6 72 7 73 8 74 9 75
REMARK SMILES IDX 10 77 11 78 12 79 31 80 28 81 30 82 32 83 29 84 13 85 14 86
REMARK SMILES IDX 15 87 16 89 17 90 21 91 18 92 20 93 19 94 22 95 23 96 27 97
REMARK SMILES IDX 24 98 26 99 25 100
REMARK H PARENT 3 6 89 24 57 35 8 76 15 88
REMARK Flexibility Score: inf
ROOT
ATOM      1  C   UNL A   1      32.029  31.408  26.881  1.00  0.00     0.023 C 
ENDROOT
BRANCH   1   2
ATOM      2  C   UNL A   1      33.094  32.408  27.309  1.00  0.00     0.116 C 
BRANCH   2   3
ATOM      3  N   UNL A   1      32.640  33.754  27.594  1.00  0.00    -0.352 N 
ATOM      4  O   UNL A   1      32.679  35.678  28.806  1.00  0.00    -0.269 OA
ATOM      5  C   UNL A   1      33.163  34.577  28.575  1.00  0.00     0.251 C 
ATOM      6  H   UNL A   1      31.903  34.110  27.048  1.00  0.00     0.163 HD
BRANCH   5   7
ATOM      7  C   UNL A   1      34.304  34.063  29.371  1.00  0.00     0.039 A 
ATOM      8  C   UNL A   1      35.608  34.435  29.032  1.00  0.00     0.014 A 
ATOM      9  C   UNL A   1      34.074  33.131  30.385  1.00  0.00     0.014 A 
ATOM     10  C   UNL A   1      36.686  33.782  29.627  1.00  0.00     0.010 A 
ATOM     11  C   UNL A   1      35.161  32.527  31.027  1.00  0.00     0.010 A 
ATOM     12  C   UNL A   1      36.477  32.823  30.634  1.00  0.00    -0.014 A 
BRANCH  12  13
ATOM     13  C   UNL A   1      37.644  32.197  31.313  1.00  0.00     0.031 A 
ATOM     14  C   UNL A   1      38.417  31.069  30.680  1.00  0.00     0.074 A 
ATOM     15  C   UNL A   1      37.995  32.645  32.535  1.00  0.00     0.049 A 
ATOM     16  N   UNL A   1      39.452  30.416  31.147  1.00  0.00    -0.248 NA
ATOM     17  C   UNL A   1      37.970  30.608  29.357  1.00  0.00     0.031 C 
ATOM     18  C   UNL A   1      37.301  33.705  33.269  1.00  0.00     0.029 A 
ATOM     19  N   UNL A   1      39.008  32.267  33.378  1.00  0.00    -0.354 N 
ATOM     20  C   UNL A   1      39.754  29.442  30.201  1.00  0.00     0.074 A 
ATOM     21  C   UNL A   1      38.789  29.589  29.131  1.00  0.00     0.031 C 
ATOM     22  C   UNL A   1      37.917  33.904  34.444  1.00  0.00     0.029 A 
ATOM     23  C   UNL A   1      39.013  32.952  34.571  1.00  0.00     0.049 A 
ATOM     24  H   UNL A   1      39.667  31.571  33.153  1.00  0.00     0.167 HD
ATOM     25  C   UNL A   1      40.748  28.519  30.218  1.00  0.00     0.034 A 
ATOM     26  C   UNL A   1      39.797  32.819  35.658  1.00  0.00     0.034 A 
ATOM     27  C   UNL A   1      41.718  28.392  31.276  1.00  0.00     0.049 A 
ATOM     28  C   UNL A   1      40.893  31.792  35.644  1.00  0.00     0.074 A 
ATOM     29  C   UNL A   1      42.802  27.533  31.354  1.00  0.00     0.029 A 
ATOM     30  N   UNL A   1      41.716  29.133  32.449  1.00  0.00    -0.354 N 
ATOM     31  N   UNL A   1      41.240  30.969  34.686  1.00  0.00    -0.248 NA
ATOM     32  C   UNL A   1      41.725  31.697  36.852  1.00  0.00     0.031 C 
ATOM     33  C   UNL A   1      43.434  27.732  32.586  1.00  0.00     0.029 A 
ATOM     34  C   UNL A   1      42.769  28.742  33.263  1.00  0.00     0.049 A 
ATOM     35  H   UNL A   1      41.063  29.834  32.672  1.00  0.00     0.167 HD
ATOM     36  C   UNL A   1      42.350  30.281  35.159  1.00  0.00     0.074 A 
ATOM     37  C   UNL A   1      42.630  30.803  36.481  1.00  0.00     0.031 C 
ATOM     38  C   UNL A   1      43.065  29.297  34.558  1.00  0.00     0.034 A 
BRANCH  25  39
ATOM     39  C   UNL A   1      40.857  27.575  29.044  1.00  0.00     0.023 A 
ATOM     40  C   UNL A   1      40.035  26.431  28.985  1.00  0.00     0.012 A 
ATOM     41  C   UNL A   1      41.724  27.853  27.967  1.00  0.00     0.148 A 
ATOM     42  C   UNL A   1      40.098  25.563  27.895  1.00  0.00     0.002 A 
ATOM     43  C   UNL A   1      41.750  27.007  26.863  1.00  0.00     0.091 A 
ATOM     44  F   UNL A   1      42.510  28.937  28.043  1.00  0.00    -0.205 F 
ATOM     45  C   UNL A   1      40.948  25.855  26.832  1.00  0.00     0.022 A 
BRANCH  43  46
ATOM     46  S   UNL A   1      42.751  27.339  25.408  1.00  0.00     0.127 S 
ATOM     47  O   UNL A   1      42.550  26.119  24.627  1.00  0.00    -0.237 OA
ATOM     48  O   UNL A   1      42.105  28.528  24.853  1.00  0.00    -0.237 OA
ATOM     49  O   UNL A   1      44.106  27.555  25.895  1.00  0.00    -0.744 OA
ENDBRANCH  43  46
ENDBRANCH  25  39
BRANCH  26  50
ATOM     50  C   UNL A   1      39.595  33.716  36.830  1.00  0.00     0.023 A 
ATOM     51  C   UNL A   1      39.985  35.066  36.742  1.00  0.00     0.012 A 
ATOM     52  C   UNL A   1      38.983  33.251  38.010  1.00  0.00     0.148 A 
ATOM     53  C   UNL A   1      39.793  35.932  37.820  1.00  0.00     0.002 A 
ATOM     54  C   UNL A   1      38.740  34.132  39.056  1.00  0.00     0.091 A 
ATOM     55  F   UNL A   1      38.632  31.959  38.077  1.00  0.00    -0.205 F 
ATOM     56  C   UNL A   1      39.159  35.468  38.970  1.00  0.00     0.022 A 
BRANCH  54  57
ATOM     57  S   UNL A   1      37.807  33.657  40.516  1.00  0.00     0.127 S 
ATOM     58  O   UNL A   1      38.684  32.657  41.118  1.00  0.00    -0.237 OA
ATOM     59  O   UNL A   1      37.723  34.924  41.244  1.00  0.00    -0.237 OA
ATOM     60  O   UNL A   1      36.529  33.164  40.022  1.00  0.00    -0.744 OA
ENDBRANCH  54  57
ENDBRANCH  26  50
BRANCH  38  61
ATOM     61  C   UNL A   1      44.250  28.746  35.309  1.00  0.00     0.023 A 
ATOM     62  C   UNL A   1      45.531  29.299  35.109  1.00  0.00     0.012 A 
ATOM     63  C   UNL A   1      44.085  27.711  36.248  1.00  0.00     0.148 A 
ATOM     64  C   UNL A   1      46.635  28.802  35.802  1.00  0.00     0.002 A 
ATOM     65  C   UNL A   1      45.179  27.255  36.973  1.00  0.00     0.091 A 
ATOM     66  F   UNL A   1      42.863  27.182  36.409  1.00  0.00    -0.205 F 
ATOM     67  C   UNL A   1      46.457  27.788  36.741  1.00  0.00     0.022 A 
BRANCH  65  68
ATOM     68  S   UNL A   1      45.027  26.023  38.271  1.00  0.00     0.127 S 
ATOM     69  O   UNL A   1      44.079  26.665  39.181  1.00  0.00    -0.237 OA
ATOM     70  O   UNL A   1      44.490  24.871  37.545  1.00  0.00    -0.237 OA
ATOM     71  O   UNL A   1      46.369  25.830  38.801  1.00  0.00    -0.744 OA
ENDBRANCH  65  68
ENDBRANCH  38  61
ENDBRANCH  12  13
ENDBRANCH   5   7
ENDBRANCH   2   3
ENDBRANCH   1   2
BRANCH   1  72
ATOM     72  C   UNL A   1      32.460  30.092  26.201  1.00  0.00     0.023 C 
BRANCH  72  73
ATOM     73  C   UNL A   1      31.394  29.230  25.117  1.00  0.00     0.116 C 
BRANCH  73  74
ATOM     74  N   UNL A   1      31.707  27.792  23.639  1.00  0.00    -0.356 N 
ATOM     75  C   UNL A   1      31.765  26.277  23.292  1.00  0.00     0.227 C 
ATOM     76  H   UNL A   1      31.898  28.281  22.805  1.00  0.00     0.163 HD
ATOM     77  O   UNL A   1      31.969  26.041  22.092  1.00  0.00    -0.275 OA
BRANCH  75  78
ATOM     78  C   UNL A   1      31.663  24.948  24.369  1.00  0.00     0.127 C 
ATOM     79  C   UNL A   1      32.741  24.620  25.393  1.00  0.00     0.127 C 
ATOM     80  C   UNL A   1      30.427  24.836  25.282  1.00  0.00     0.155 C 
ATOM     81  C   UNL A   1      32.033  24.694  26.736  1.00  0.00     0.155 C 
ATOM     82  C   UNL A   1      30.349  23.430  25.889  1.00  0.00     0.004 C 
ATOM     83  O   UNL A   1      30.905  25.549  26.451  1.00  0.00    -0.365 OA
ATOM     84  C   UNL A   1      31.307  23.368  26.830  1.00  0.00     0.004 C 
BRANCH  79  85
ATOM     85  C   UNL A   1      33.955  25.322  25.030  1.00  0.00     0.231 C 
ATOM     86  O   UNL A   1      34.027  26.272  24.265  1.00  0.00    -0.274 OA
ATOM     87  N   UNL A   1      34.983  24.913  25.886  1.00  0.00    -0.325 N 
ATOM     88  H   UNL A   1      35.349  25.565  26.527  1.00  0.00     0.169 HD
BRANCH  87  89
ATOM     89  C   UNL A   1      35.531  23.574  25.869  1.00  0.00     0.049 A 
ATOM     90  C   UNL A   1      37.308  23.937  26.148  1.00  0.00     0.027 A 
ATOM     91  C   UNL A   1      35.068  21.839  25.299  1.00  0.00     0.005 A 
ATOM     92  C   UNL A   1      38.570  22.721  25.862  1.00  0.00     0.002 A 
ATOM     93  C   UNL A   1      36.448  20.647  25.049  1.00  0.00     0.011 A 
ATOM     94  C   UNL A   1      38.134  21.085  25.348  1.00  0.00     0.001 A 
BRANCH  91  95
ATOM     95  C   UNL A   1      33.980  21.180  24.424  1.00  0.00    -0.016 A 
ATOM     96  C   UNL A   1      33.456  19.901  24.527  1.00  0.00     0.009 A 
ATOM     97  C   UNL A   1      33.447  21.997  23.357  1.00  0.00     0.009 A 
ATOM     98  C   UNL A   1      32.443  19.487  23.629  1.00  0.00     0.001 A 
ATOM     99  C   UNL A   1      32.444  21.598  22.483  1.00  0.00     0.001 A 
ATOM    100  C   UNL A   1      31.936  20.327  22.625  1.00  0.00     0.000 A 
ENDBRANCH  91  95
ENDBRANCH  87  89
ENDBRANCH  79  85
ENDBRANCH  75  78
ENDBRANCH  73  74
ENDBRANCH  72  73
ENDBRANCH   1  72
TORSDOF 17
ENDMDL
MODEL 2
REMARK VINA RESULT:     -14.1      5.416     11.597
REMARK SMILES O=C(NCCCCNC(=O)[C@H]1[C@@H](C(=O)Nc2ccccc2-c2ccccc2)[C@@H]2C=C[C@H]1O2)c1ccc(-c2c3nc(c(-c4cccc(S(=O)(=O)[O-])c4F)c4ccc([nH]4)c(-c4cccc(S(=O)(=O)[O-])c4F)c4nc(c(-c5cccc(S(=O)(=O)[O-])c5F)c5ccc2[nH]5)C=C4)C=C3)cc1
REMARK SMILES IDX 5 1 4 2 3 3 1 4 2 5 33 7 34 8 95 9 35 10 94 11 36 12 37 13
REMARK SMILES IDX 38 14 88 15 39 16 93 17 87 18 89 19 40 20 92 21 86 22 85 23
REMARK SMILES IDX 41 25 73 26 53 27 72 28 54 29 57 30 71 31 90 32 55 33 56 34
REMARK SMILES IDX 70 36 91 37 58 38 42 39 43 40 51 41 44 42 46 43 52 44 45 45
REMARK SMILES IDX 47 46 48 47 49 48 50 49 74 50 75 51 83 52 76 53 78 54 84 55
REMARK SMILES IDX 77 56 79 57 80 58 81 59 82 60 59 61 60 62 68 63 61 64 63 65
REMARK SMILES IDX 69 66 62 67 64 68 65 69 66 70 67 71 6 72 7 73 8 74 9 75
REMARK SMILES IDX 10 77 11 78 12 79 31 80 28 81 30 82 32 83 29 84 13 85 14 86
REMARK SMILES IDX 15 87 16 89 17 90 21 91 18 92 20 93 19 94 22 95 23 96 27 97
REMARK SMILES IDX 24 98 26 99 25 100
REMARK H PARENT 3 6 89 24 57 35 8 76 15 88
REMARK Flexibility Score: inf
ROOT
ATOM      1  C   UNL A   1      38.398  20.676  25.199  1.00  0.00     0.023 C 
ENDROOT
BRANCH   1   2
ATOM      2  C   UNL A   1      39.437  20.472  26.292  1.00  0.00     0.116 C 
BRANCH   2   3
ATOM      3  N   UNL A   1      40.337  19.348  26.128  1.00  0.00    -0.352 N 
ATOM      4  O   UNL A   1      42.413  18.444  25.922  1.00  0.00    -0.269 OA
ATOM      5  C   UNL A   1      41.718  19.428  26.139  1.00  0.00     0.251 C 
ATOM      6  H   UNL A   1      39.934  18.459  25.999  1.00  0.00     0.163 HD
BRANCH   5   7
ATOM      7  C   UNL A   1      42.330  20.757  26.379  1.00  0.00     0.039 A 
ATOM      8  C   UNL A   1      42.559  21.189  27.688  1.00  0.00     0.014 A 
ATOM      9  C   UNL A   1      42.577  21.608  25.299  1.00  0.00     0.014 A 
ATOM     10  C   UNL A   1      42.919  22.515  27.922  1.00  0.00     0.010 A 
ATOM     11  C   UNL A   1      43.004  22.920  25.537  1.00  0.00     0.010 A 
ATOM     12  C   UNL A   1      43.149  23.395  26.851  1.00  0.00    -0.014 A 
BRANCH  12  13
ATOM     13  C   UNL A   1      43.613  24.784  27.121  1.00  0.00     0.031 A 
ATOM     14  C   UNL A   1      42.680  25.838  27.660  1.00  0.00     0.074 A 
ATOM     15  C   UNL A   1      44.895  25.099  26.853  1.00  0.00     0.049 A 
ATOM     16  N   UNL A   1      42.931  27.093  27.941  1.00  0.00    -0.248 NA
ATOM     17  C   UNL A   1      41.287  25.439  27.909  1.00  0.00     0.031 C 
ATOM     18  C   UNL A   1      45.885  24.176  26.293  1.00  0.00     0.029 A 
ATOM     19  N   UNL A   1      45.586  26.274  27.003  1.00  0.00    -0.354 N 
ATOM     20  C   UNL A   1      41.724  27.644  28.359  1.00  0.00     0.074 A 
ATOM     21  C   UNL A   1      40.739  26.585  28.291  1.00  0.00     0.031 C 
ATOM     22  C   UNL A   1      47.058  24.813  26.162  1.00  0.00     0.029 A 
ATOM     23  C   UNL A   1      46.892  26.201  26.576  1.00  0.00     0.049 A 
ATOM     24  H   UNL A   1      45.186  27.092  27.378  1.00  0.00     0.167 HD
ATOM     25  C   UNL A   1      41.464  28.911  28.768  1.00  0.00     0.034 A 
ATOM     26  C   UNL A   1      47.847  27.147  26.503  1.00  0.00     0.034 A 
ATOM     27  C   UNL A   1      42.454  29.955  28.853  1.00  0.00     0.049 A 
ATOM     28  C   UNL A   1      47.530  28.539  26.970  1.00  0.00     0.074 A 
ATOM     29  C   UNL A   1      42.304  31.251  29.318  1.00  0.00     0.029 A 
ATOM     30  N   UNL A   1      43.776  29.831  28.451  1.00  0.00    -0.354 N 
ATOM     31  N   UNL A   1      46.417  29.005  27.480  1.00  0.00    -0.248 NA
ATOM     32  C   UNL A   1      48.613  29.529  26.878  1.00  0.00     0.031 C 
ATOM     33  C   UNL A   1      43.524  31.918  29.167  1.00  0.00     0.029 A 
ATOM     34  C   UNL A   1      44.448  31.028  28.642  1.00  0.00     0.049 A 
ATOM     35  H   UNL A   1      44.179  29.011  28.083  1.00  0.00     0.167 HD
ATOM     36  C   UNL A   1      46.673  30.332  27.802  1.00  0.00     0.074 A 
ATOM     37  C   UNL A   1      48.055  30.586  27.450  1.00  0.00     0.031 C 
ATOM     38  C   UNL A   1      45.836  31.259  28.330  1.00  0.00     0.034 A 
BRANCH  25  39
ATOM     39  C   UNL A   1      40.050  29.246  29.179  1.00  0.00     0.023 A 
ATOM     40  C   UNL A   1      39.091  29.569  28.197  1.00  0.00     0.012 A 
ATOM     41  C   UNL A   1      39.651  29.176  30.530  1.00  0.00     0.148 A 
ATOM     42  C   UNL A   1      37.772  29.851  28.553  1.00  0.00     0.002 A 
ATOM     43  C   UNL A   1      38.324  29.415  30.873  1.00  0.00     0.091 A 
ATOM     44  F   UNL A   1      40.576  28.882  31.455  1.00  0.00    -0.205 F 
ATOM     45  C   UNL A   1      37.387  29.766  29.888  1.00  0.00     0.022 A 
BRANCH  43  46
ATOM     46  S   UNL A   1      37.711  29.253  32.555  1.00  0.00     0.127 S 
ATOM     47  O   UNL A   1      38.646  30.104  33.292  1.00  0.00    -0.237 OA
ATOM     48  O   UNL A   1      36.356  29.792  32.444  1.00  0.00    -0.237 OA
ATOM     49  O   UNL A   1      37.776  27.833  32.870  1.00  0.00    -0.744 OA
ENDBRANCH  43  46
ENDBRANCH  25  39
BRANCH  26  50
ATOM     50  C   UNL A   1      49.206  26.790  26.007  1.00  0.00     0.023 A 
ATOM     51  C   UNL A   1      50.055  26.012  26.817  1.00  0.00     0.012 A 
ATOM     52  C   UNL A   1      49.642  27.179  24.726  1.00  0.00     0.148 A 
ATOM     53  C   UNL A   1      51.327  25.651  26.370  1.00  0.00     0.002 A 
ATOM     54  C   UNL A   1      50.885  26.764  24.264  1.00  0.00     0.091 A 
ATOM     55  F   UNL A   1      48.823  27.930  23.977  1.00  0.00    -0.205 F 
ATOM     56  C   UNL A   1      51.736  26.015  25.090  1.00  0.00     0.022 A 
BRANCH  54  57
ATOM     57  S   UNL A   1      51.434  27.068  22.580  1.00  0.00     0.127 S 
ATOM     58  O   UNL A   1      50.282  26.616  21.805  1.00  0.00    -0.237 OA
ATOM     59  O   UNL A   1      51.642  28.517  22.589  1.00  0.00    -0.237 OA
ATOM     60  O   UNL A   1      52.653  26.289  22.418  1.00  0.00    -0.744 OA
ENDBRANCH  54  57
ENDBRANCH  26  50
BRANCH  38  61
ATOM     61  C   UNL A   1      46.402  32.629  28.600  1.00  0.00     0.023 A 
ATOM     62  C   UNL A   1      47.057  32.894  29.819  1.00  0.00     0.012 A 
ATOM     63  C   UNL A   1      46.325  33.641  27.624  1.00  0.00     0.148 A 
ATOM     64  C   UNL A   1      47.591  34.156  30.078  1.00  0.00     0.002 A 
ATOM     65  C   UNL A   1      46.904  34.880  27.868  1.00  0.00     0.091 A 
ATOM     66  F   UNL A   1      45.679  33.378  26.479  1.00  0.00    -0.205 F 
ATOM     67  C   UNL A   1      47.524  35.145  29.099  1.00  0.00     0.022 A 
BRANCH  65  68
ATOM     68  S   UNL A   1      46.952  36.180  26.628  1.00  0.00     0.127 S 
ATOM     69  O   UNL A   1      45.531  36.472  26.447  1.00  0.00    -0.237 OA
ATOM     70  O   UNL A   1      47.709  37.232  27.309  1.00  0.00    -0.237 OA
ATOM     71  O   UNL A   1      47.625  35.606  25.472  1.00  0.00    -0.744 OA
ENDBRANCH  65  68
ENDBRANCH  38  61
ENDBRANCH  12  13
ENDBRANCH   5   7
ENDBRANCH   2   3
ENDBRANCH   1   2
BRANCH   1  72
ATOM     72  C   UNL A   1      37.778  22.074  24.998  1.00  0.00     0.023 C 
BRANCH  72  73
ATOM     73  C   UNL A   1      36.268  22.292  24.147  1.00  0.00     0.116 C 
BRANCH  73  74
ATOM     74  N   UNL A   1      34.268  22.247  24.738  1.00  0.00    -0.356 N 
ATOM     75  C   UNL A   1      32.853  22.876  24.583  1.00  0.00     0.227 C 
ATOM     76  H   UNL A   1      34.183  21.515  25.392  1.00  0.00     0.163 HD
ATOM     77  O   UNL A   1      31.972  22.302  25.240  1.00  0.00    -0.275 OA
BRANCH  75  78
ATOM     78  C   UNL A   1      32.416  24.276  23.698  1.00  0.00     0.127 C 
ATOM     79  C   UNL A   1      32.927  25.670  24.038  1.00  0.00     0.127 C 
ATOM     80  C   UNL A   1      32.673  24.293  22.178  1.00  0.00     0.155 C 
ATOM     81  C   UNL A   1      33.666  26.126  22.790  1.00  0.00     0.155 C 
ATOM     82  C   UNL A   1      31.903  25.450  21.530  1.00  0.00     0.004 C 
ATOM     83  O   UNL A   1      34.001  24.875  22.148  1.00  0.00    -0.365 OA
ATOM     84  C   UNL A   1      32.556  26.576  21.863  1.00  0.00     0.004 C 
BRANCH  79  85
ATOM     85  C   UNL A   1      33.459  25.654  25.385  1.00  0.00     0.231 C 
ATOM     86  O   UNL A   1      33.428  24.702  26.151  1.00  0.00    -0.274 OA
ATOM     87  N   UNL A   1      34.237  26.800  25.573  1.00  0.00    -0.325 N 
ATOM     88  H   UNL A   1      35.211  26.696  25.685  1.00  0.00     0.169 HD
BRANCH  87  89
ATOM     89  C   UNL A   1      33.674  28.132  25.613  1.00  0.00     0.049 A 
ATOM     90  C   UNL A   1      34.553  28.824  27.067  1.00  0.00     0.027 A 
ATOM     91  C   UNL A   1      32.190  29.085  24.949  1.00  0.00     0.005 A 
ATOM     92  C   UNL A   1      34.022  30.321  27.861  1.00  0.00     0.002 A 
ATOM     93  C   UNL A   1      31.731  30.634  25.831  1.00  0.00     0.011 A 
ATOM     94  C   UNL A   1      32.642  31.227  27.224  1.00  0.00     0.001 A 
BRANCH  91  95
ATOM     95  C   UNL A   1      30.852  28.766  24.249  1.00  0.00    -0.016 A 
ATOM     96  C   UNL A   1      30.125  29.568  23.384  1.00  0.00     0.009 A 
ATOM     97  C   UNL A   1      30.281  27.470  24.539  1.00  0.00     0.009 A 
ATOM     98  C   UNL A   1      28.916  29.082  22.830  1.00  0.00     0.001 A 
ATOM     99  C   UNL A   1      29.102  26.985  23.987  1.00  0.00     0.001 A 
ATOM    100  C   UNL A   1      28.415  27.803  23.119  1.00  0.00     0.000 A 
ENDBRANCH  91  95
ENDBRANCH  87  89
ENDBRANCH  79  85
ENDBRANCH  75  78
ENDBRANCH  73  74
ENDBRANCH  72  73
ENDBRANCH   1  72
TORSDOF 17
ENDMDL
MODEL 3
REMARK VINA RESULT:     -13.8      1.047      7.868
REMARK SMILES O=C(NCCCCNC(=O)[C@H]1[C@@H](C(=O)Nc2ccccc2-c2ccccc2)[C@@H]2C=C[C@H]1O2)c1ccc(-c2c3nc(c(-c4cccc(S(=O)(=O)[O-])c4F)c4ccc([nH]4)c(-c4cccc(S(=O)(=O)[O-])c4F)c4nc(c(-c5cccc(S(=O)(=O)[O-])c5F)c5ccc2[nH]5)C=C4)C=C3)cc1
REMARK SMILES IDX 5 1 4 2 3 3 1 4 2 5 33 7 34 8 95 9 35 10 94 11 36 12 37 13
REMARK SMILES IDX 38 14 88 15 39 16 93 17 87 18 89 19 40 20 92 21 86 22 85 23
REMARK SMILES IDX 41 25 73 26 53 27 72 28 54 29 57 30 71 31 90 32 55 33 56 34
REMARK SMILES IDX 70 36 91 37 58 38 42 39 43 40 51 41 44 42 46 43 52 44 45 45
REMARK SMILES IDX 47 46 48 47 49 48 50 49 74 50 75 51 83 52 76 53 78 54 84 55
REMARK SMILES IDX 77 56 79 57 80 58 81 59 82 60 59 61 60 62 68 63 61 64 63 65
REMARK SMILES IDX 69 66 62 67 64 68 65 69 66 70 67 71 6 72 7 73 8 74 9 75
REMARK SMILES IDX 10 77 11 78 12 79 31 80 28 81 30 82 32 83 29 84 13 85 14 86
REMARK SMILES IDX 15 87 16 89 17 90 21 91 18 92 20 93 19 94 22 95 23 96 27 97
REMARK SMILES IDX 24 98 26 99 25 100
REMARK H PARENT 3 6 89 24 57 35 8 76 15 88
REMARK Flexibility Score: inf
ROOT
ATOM      1  C   UNL A   1      32.169  31.848  27.075  1.00  0.00     0.023 C 
ENDROOT
BRANCH   1   2
ATOM      2  C   UNL A   1      33.198  32.908  27.440  1.00  0.00     0.116 C 
BRANCH   2   3
ATOM      3  N   UNL A   1      32.684  34.212  27.807  1.00  0.00    -0.352 N 
ATOM      4  O   UNL A   1      32.623  36.050  29.142  1.00  0.00    -0.269 OA
ATOM      5  C   UNL A   1      33.158  34.989  28.847  1.00  0.00     0.251 C 
ATOM      6  H   UNL A   1      31.939  34.572  27.273  1.00  0.00     0.163 HD
BRANCH   5   7
ATOM      7  C   UNL A   1      34.310  34.472  29.626  1.00  0.00     0.039 A 
ATOM      8  C   UNL A   1      35.601  34.571  29.101  1.00  0.00     0.014 A 
ATOM      9  C   UNL A   1      34.083  33.798  30.827  1.00  0.00     0.014 A 
ATOM     10  C   UNL A   1      36.649  33.890  29.717  1.00  0.00     0.010 A 
ATOM     11  C   UNL A   1      35.152  33.172  31.479  1.00  0.00     0.010 A 
ATOM     12  C   UNL A   1      36.439  33.185  30.915  1.00  0.00    -0.014 A 
BRANCH  12  13
ATOM     13  C   UNL A   1      37.588  32.534  31.601  1.00  0.00     0.031 A 
ATOM     14  C   UNL A   1      38.068  32.996  32.953  1.00  0.00     0.074 A 
ATOM     15  C   UNL A   1      38.220  31.519  30.978  1.00  0.00     0.049 A 
ATOM     16  N   UNL A   1      39.058  32.536  33.677  1.00  0.00    -0.248 NA
ATOM     17  C   UNL A   1      37.352  34.123  33.570  1.00  0.00     0.031 C 
ATOM     18  C   UNL A   1      37.875  31.007  29.650  1.00  0.00     0.029 A 
ATOM     19  N   UNL A   1      39.285  30.746  31.365  1.00  0.00    -0.354 N 
ATOM     20  C   UNL A   1      39.112  33.338  34.812  1.00  0.00     0.074 A 
ATOM     21  C   UNL A   1      38.055  34.319  34.678  1.00  0.00     0.031 C 
ATOM     22  C   UNL A   1      38.698  29.995  29.340  1.00  0.00     0.029 A 
ATOM     23  C   UNL A   1      39.664  29.822  30.419  1.00  0.00     0.049 A 
ATOM     24  H   UNL A   1      39.735  30.844  32.235  1.00  0.00     0.167 HD
ATOM     25  C   UNL A   1      39.959  33.260  35.869  1.00  0.00     0.034 A 
ATOM     26  C   UNL A   1      40.685  28.945  30.406  1.00  0.00     0.034 A 
ATOM     27  C   UNL A   1      40.996  32.268  36.006  1.00  0.00     0.049 A 
ATOM     28  C   UNL A   1      41.601  28.877  31.595  1.00  0.00     0.074 A 
ATOM     29  C   UNL A   1      41.860  32.065  37.068  1.00  0.00     0.029 A 
ATOM     30  N   UNL A   1      41.322  31.321  35.045  1.00  0.00    -0.354 N 
ATOM     31  N   UNL A   1      41.556  29.560  32.711  1.00  0.00    -0.248 NA
ATOM     32  C   UNL A   1      42.693  27.895  31.532  1.00  0.00     0.031 C 
ATOM     33  C   UNL A   1      42.728  31.018  36.736  1.00  0.00     0.029 A 
ATOM     34  C   UNL A   1      42.382  30.542  35.482  1.00  0.00     0.049 A 
ATOM     35  H   UNL A   1      40.866  31.218  34.178  1.00  0.00     0.167 HD
ATOM     36  C   UNL A   1      42.589  29.070  33.500  1.00  0.00     0.074 A 
ATOM     37  C   UNL A   1      43.227  28.015  32.739  1.00  0.00     0.031 C 
ATOM     38  C   UNL A   1      42.982  29.466  34.736  1.00  0.00     0.034 A 
BRANCH  25  39
ATOM     39  C   UNL A   1      39.793  34.264  36.985  1.00  0.00     0.023 A 
ATOM     40  C   UNL A   1      40.114  35.619  36.762  1.00  0.00     0.012 A 
ATOM     41  C   UNL A   1      39.257  33.882  38.232  1.00  0.00     0.148 A 
ATOM     42  C   UNL A   1      39.938  36.568  37.770  1.00  0.00     0.002 A 
ATOM     43  C   UNL A   1      39.044  34.841  39.216  1.00  0.00     0.091 A 
ATOM     44  F   UNL A   1      38.970  32.588  38.435  1.00  0.00    -0.205 F 
ATOM     45  C   UNL A   1      39.396  36.181  38.992  1.00  0.00     0.022 A 
BRANCH  43  46
ATOM     46  S   UNL A   1      38.276  34.457  40.796  1.00  0.00     0.127 S 
ATOM     47  O   UNL A   1      39.401  33.889  41.539  1.00  0.00    -0.237 OA
ATOM     48  O   UNL A   1      37.846  35.776  41.260  1.00  0.00    -0.237 OA
ATOM     49  O   UNL A   1      37.191  33.533  40.501  1.00  0.00    -0.744 OA
ENDBRANCH  43  46
ENDBRANCH  25  39
BRANCH  26  50
ATOM     50  C   UNL A   1      40.862  28.032  29.243  1.00  0.00     0.023 A 
ATOM     51  C   UNL A   1      40.158  26.813  29.207  1.00  0.00     0.012 A 
ATOM     52  C   UNL A   1      41.688  28.382  28.157  1.00  0.00     0.148 A 
ATOM     53  C   UNL A   1      40.294  25.947  28.121  1.00  0.00     0.002 A 
ATOM     54  C   UNL A   1      41.771  27.544  27.053  1.00  0.00     0.091 A 
ATOM     55  F   UNL A   1      42.359  29.541  28.218  1.00  0.00    -0.205 F 
ATOM     56  C   UNL A   1      41.088  26.318  27.040  1.00  0.00     0.022 A 
BRANCH  54  57
ATOM     57  S   UNL A   1      42.657  28.005  25.560  1.00  0.00     0.127 S 
ATOM     58  O   UNL A   1      44.008  28.222  26.071  1.00  0.00    -0.237 OA
ATOM     59  O   UNL A   1      42.495  26.808  24.733  1.00  0.00    -0.237 OA
ATOM     60  O   UNL A   1      41.976  29.185  25.046  1.00  0.00    -0.744 OA
ENDBRANCH  54  57
ENDBRANCH  26  50
BRANCH  38  61
ATOM     61  C   UNL A   1      44.134  28.726  35.366  1.00  0.00     0.023 A 
ATOM     62  C   UNL A   1      45.460  29.099  35.066  1.00  0.00     0.012 A 
ATOM     63  C   UNL A   1      43.900  27.691  36.291  1.00  0.00     0.148 A 
ATOM     64  C   UNL A   1      46.534  28.425  35.647  1.00  0.00     0.002 A 
ATOM     65  C   UNL A   1      44.974  27.059  36.906  1.00  0.00     0.091 A 
ATOM     66  F   UNL A   1      42.632  27.336  36.547  1.00  0.00    -0.205 F 
ATOM     67  C   UNL A   1      46.291  27.414  36.575  1.00  0.00     0.022 A 
BRANCH  65  68
ATOM     68  S   UNL A   1      44.755  25.815  38.183  1.00  0.00     0.127 S 
ATOM     69  O   UNL A   1      43.992  26.553  39.189  1.00  0.00    -0.237 OA
ATOM     70  O   UNL A   1      43.997  24.779  37.481  1.00  0.00    -0.237 OA
ATOM     71  O   UNL A   1      46.096  25.413  38.586  1.00  0.00    -0.744 OA
ENDBRANCH  65  68
ENDBRANCH  38  61
ENDBRANCH  12  13
ENDBRANCH   5   7
ENDBRANCH   2   3
ENDBRANCH   1   2
BRANCH   1  72
ATOM     72  C   UNL A   1      32.647  30.431  26.695  1.00  0.00     0.023 C 
BRANCH  72  73
ATOM     73  C   UNL A   1      31.914  29.003  27.385  1.00  0.00     0.116 C 
BRANCH  73  74
ATOM     74  N   UNL A   1      30.795  27.434  26.586  1.00  0.00    -0.356 N 
ATOM     75  C   UNL A   1      30.670  26.372  25.456  1.00  0.00     0.227 C 
ATOM     76  H   UNL A   1      30.015  27.314  27.175  1.00  0.00     0.163 HD
ATOM     77  O   UNL A   1      29.697  25.614  25.582  1.00  0.00    -0.275 OA
BRANCH  75  78
ATOM     78  C   UNL A   1      31.652  26.199  24.062  1.00  0.00     0.127 C 
ATOM     79  C   UNL A   1      32.950  25.403  24.051  1.00  0.00     0.127 C 
ATOM     80  C   UNL A   1      31.013  25.628  22.781  1.00  0.00     0.155 C 
ATOM     81  C   UNL A   1      32.729  24.317  23.011  1.00  0.00     0.155 C 
ATOM     82  C   UNL A   1      31.929  25.886  21.579  1.00  0.00     0.004 C 
ATOM     83  O   UNL A   1      31.288  24.216  22.963  1.00  0.00    -0.365 OA
ATOM     84  C   UNL A   1      32.960  25.031  21.695  1.00  0.00     0.004 C 
BRANCH  79  85
ATOM     85  C   UNL A   1      33.381  25.199  25.418  1.00  0.00     0.231 C 
ATOM     86  O   UNL A   1      33.794  26.068  26.172  1.00  0.00    -0.274 OA
ATOM     87  N   UNL A   1      33.005  23.914  25.820  1.00  0.00    -0.325 N 
ATOM     88  H   UNL A   1      32.312  23.820  26.514  1.00  0.00     0.169 HD
BRANCH  87  89
ATOM     89  C   UNL A   1      33.592  22.715  25.260  1.00  0.00     0.049 A 
ATOM     90  C   UNL A   1      32.128  21.609  25.229  1.00  0.00     0.027 A 
ATOM     91  C   UNL A   1      35.286  21.936  24.990  1.00  0.00     0.005 A 
ATOM     92  C   UNL A   1      32.280  19.857  24.988  1.00  0.00     0.002 A 
ATOM     93  C   UNL A   1      35.336  20.114  24.731  1.00  0.00     0.011 A 
ATOM     94  C   UNL A   1      33.869  19.128  24.712  1.00  0.00     0.001 A 
BRANCH  91  95
ATOM     95  C   UNL A   1      36.739  22.183  25.448  1.00  0.00    -0.016 A 
ATOM     96  C   UNL A   1      37.807  21.299  25.428  1.00  0.00     0.009 A 
ATOM     97  C   UNL A   1      37.020  23.501  25.972  1.00  0.00     0.009 A 
ATOM     98  C   UNL A   1      39.077  21.727  25.882  1.00  0.00     0.001 A 
ATOM     99  C   UNL A   1      38.269  23.928  26.406  1.00  0.00     0.001 A 
ATOM    100  C   UNL A   1      39.309  23.028  26.356  1.00  0.00     0.000 A 
ENDBRANCH  91  95
ENDBRANCH  87  89
ENDBRANCH  79  85
ENDBRANCH  75  78
ENDBRANCH  73  74
ENDBRANCH  72  73
ENDBRANCH   1  72
TORSDOF 17
ENDMDL
