MODEL 1
REMARK VINA RESULT:     -12.1      0.000      0.000
REMARK SMILES CC(=O)N1[C@@H](c2c(F)cccc2Cl)SC[C@H]1C(=O)NCCCCNC(=O)c1ccc(-c2c3nc(c(-c4cccc(S(=O)(=O)[O-])c4F)c4ccc([nH]4)c(-c4cccc(S(=O)(=O)[O-])c4F)c4nc(c(-c5cccc(S(=O)(=O)[O-])c5F)c5ccc2[nH]5)C=C4)C=C3)cc1
REMARK SMILES IDX 22 1 21 2 20 3 19 4 17 5 18 6 16 8 4 9 5 10 14 11 15 12 2 13
REMARK SMILES IDX 1 14 3 15 6 16 7 17 12 18 8 19 9 20 11 21 13 22 10 23 23 24
REMARK SMILES IDX 24 25 25 26 26 28 27 29 28 30 89 31 29 32 88 33 30 34 31 35
REMARK SMILES IDX 32 36 82 37 33 38 87 39 81 40 83 41 34 42 86 43 80 44 79 45
REMARK SMILES IDX 35 47 67 48 47 49 66 50 48 51 51 52 65 53 84 54 49 55 50 56
REMARK SMILES IDX 64 58 85 59 52 60 36 61 37 62 45 63 38 64 40 65 46 66 39 67
REMARK SMILES IDX 41 68 42 69 43 70 44 71 68 72 69 73 77 74 70 75 72 76 78 77
REMARK SMILES IDX 71 78 73 79 74 80 75 81 76 82 53 83 54 84 62 85 55 86 57 87
REMARK SMILES IDX 63 88 56 89 58 90 59 91 60 92 61 93
REMARK H PARENT 19 7 24 27 83 46 51 57
REMARK Flexibility Score: inf
ROOT
ATOM      1  C   UNL A   1      31.410  28.797  26.403  1.00  0.00     0.023 C 
ENDROOT
BRANCH   1   2
ATOM      2  C   UNL A   1      31.422  27.321  26.805  1.00  0.00     0.023 C 
BRANCH   2   3
ATOM      3  C   UNL A   1      30.761  26.379  25.804  1.00  0.00     0.116 C 
BRANCH   3   4
ATOM      4  N   UNL A   1      30.260  25.161  26.384  1.00  0.00    -0.354 N 
ATOM      5  C   UNL A   1      30.878  23.949  26.483  1.00  0.00     0.243 C 
ATOM      6  O   UNL A   1      30.465  23.180  27.360  1.00  0.00    -0.273 OA
ATOM      7  H   UNL A   1      29.352  25.208  26.758  1.00  0.00     0.163 HD
BRANCH   5   8
ATOM      8  C   UNL A   1      32.168  23.589  25.704  1.00  0.00     0.185 C 
ATOM      9  N   UNL A   1      32.307  23.967  24.280  1.00  0.00    -0.314 N 
ATOM     10  C   UNL A   1      33.634  24.486  23.889  1.00  0.00     0.179 C 
ATOM     11  S   UNL A   1      34.740  23.986  25.255  1.00  0.00    -0.129 SA
ATOM     12  C   UNL A   1      33.404  24.012  26.486  1.00  0.00     0.107 C 
BRANCH   9  13
ATOM     13  C   UNL A   1      31.441  23.250  23.464  1.00  0.00     0.221 C 
ATOM     14  C   UNL A   1      31.792  21.840  23.069  1.00  0.00     0.114 C 
ATOM     15  O   UNL A   1      30.327  23.689  23.173  1.00  0.00    -0.275 OA
ENDBRANCH   9  13
BRANCH  10  16
ATOM     16  C   UNL A   1      33.656  25.976  23.527  1.00  0.00     0.039 A 
ATOM     17  C   UNL A   1      34.084  26.983  24.417  1.00  0.00     0.130 A 
ATOM     18  C   UNL A   1      33.218  26.446  22.270  1.00  0.00     0.050 A 
ATOM     19  F   UNL A   1      34.544  26.686  25.638  1.00  0.00    -0.207 F 
ATOM     20  C   UNL A   1      34.014  28.349  24.122  1.00  0.00     0.040 A 
ATOM     21  C   UNL A   1      33.115  27.820  21.979  1.00  0.00     0.021 A 
ATOM     22  Cl  UNL A   1      32.851  25.403  20.947  1.00  0.00    -0.084 Cl
ATOM     23  C   UNL A   1      33.504  28.773  22.907  1.00  0.00     0.005 A 
ENDBRANCH  10  16
ENDBRANCH   5   8
ENDBRANCH   3   4
ENDBRANCH   2   3
ENDBRANCH   1   2
BRANCH   1  24
ATOM     24  C   UNL A   1      32.613  29.630  26.843  1.00  0.00     0.116 C 
BRANCH  24  25
ATOM     25  N   UNL A   1      32.321  31.046  27.038  1.00  0.00    -0.352 N 
ATOM     26  C   UNL A   1      33.170  32.049  27.468  1.00  0.00     0.251 C 
ATOM     27  H   UNL A   1      31.398  31.324  26.837  1.00  0.00     0.163 HD
ATOM     28  O   UNL A   1      32.772  33.187  27.633  1.00  0.00    -0.269 OA
BRANCH  26  29
ATOM     29  C   UNL A   1      34.572  31.683  27.767  1.00  0.00     0.039 A 
ATOM     30  C   UNL A   1      35.555  32.677  27.763  1.00  0.00     0.014 A 
ATOM     31  C   UNL A   1      34.865  30.389  28.197  1.00  0.00     0.014 A 
ATOM     32  C   UNL A   1      36.813  32.401  28.307  1.00  0.00     0.010 A 
ATOM     33  C   UNL A   1      36.085  30.144  28.809  1.00  0.00     0.010 A 
ATOM     34  C   UNL A   1      37.063  31.151  28.892  1.00  0.00    -0.014 A 
BRANCH  34  35
ATOM     35  C   UNL A   1      38.309  30.839  29.640  1.00  0.00     0.031 A 
ATOM     36  C   UNL A   1      39.273  29.844  29.054  1.00  0.00     0.074 A 
ATOM     37  C   UNL A   1      38.464  31.280  30.905  1.00  0.00     0.049 A 
ATOM     38  N   UNL A   1      40.238  29.186  29.635  1.00  0.00    -0.248 NA
ATOM     39  C   UNL A   1      39.078  29.499  27.635  1.00  0.00     0.031 C 
ATOM     40  C   UNL A   1      37.559  32.194  31.608  1.00  0.00     0.029 A 
ATOM     41  N   UNL A   1      39.414  30.971  31.850  1.00  0.00    -0.354 N 
ATOM     42  C   UNL A   1      40.702  28.283  28.685  1.00  0.00     0.074 A 
ATOM     43  C   UNL A   1      39.913  28.480  27.490  1.00  0.00     0.031 C 
ATOM     44  C   UNL A   1      37.989  32.362  32.870  1.00  0.00     0.029 A 
ATOM     45  C   UNL A   1      39.171  31.535  33.084  1.00  0.00     0.049 A 
ATOM     46  H   UNL A   1      40.195  30.402  31.662  1.00  0.00     0.167 HD
ATOM     47  C   UNL A   1      41.705  27.382  28.799  1.00  0.00     0.034 A 
ATOM     48  C   UNL A   1      39.815  31.382  34.259  1.00  0.00     0.034 A 
ATOM     49  C   UNL A   1      42.549  27.277  29.956  1.00  0.00     0.049 A 
ATOM     50  C   UNL A   1      41.007  30.462  34.316  1.00  0.00     0.074 A 
ATOM     51  C   UNL A   1      43.673  26.492  30.130  1.00  0.00     0.029 A 
ATOM     52  N   UNL A   1      42.372  27.996  31.128  1.00  0.00    -0.354 N 
ATOM     53  N   UNL A   1      41.516  29.714  33.366  1.00  0.00    -0.248 NA
ATOM     54  C   UNL A   1      41.732  30.383  35.593  1.00  0.00     0.031 C 
ATOM     55  C   UNL A   1      44.180  26.739  31.409  1.00  0.00     0.029 A 
ATOM     56  C   UNL A   1      43.376  27.686  32.025  1.00  0.00     0.049 A 
ATOM     57  H   UNL A   1      41.640  28.633  31.295  1.00  0.00     0.167 HD
ATOM     58  C   UNL A   1      42.646  29.121  33.912  1.00  0.00     0.074 A 
ATOM     59  C   UNL A   1      42.753  29.596  35.276  1.00  0.00     0.031 C 
ATOM     60  C   UNL A   1      43.513  28.249  33.342  1.00  0.00     0.034 A 
BRANCH  47  61
ATOM     61  C   UNL A   1      41.989  26.483  27.626  1.00  0.00     0.023 A 
ATOM     62  C   UNL A   1      42.765  26.962  26.552  1.00  0.00     0.012 A 
ATOM     63  C   UNL A   1      41.550  25.144  27.619  1.00  0.00     0.148 A 
ATOM     64  C   UNL A   1      43.072  26.134  25.473  1.00  0.00     0.002 A 
ATOM     65  C   UNL A   1      41.898  24.311  26.562  1.00  0.00     0.091 A 
ATOM     66  F   UNL A   1      40.797  24.711  28.642  1.00  0.00    -0.205 F 
ATOM     67  C   UNL A   1      42.648  24.808  25.484  1.00  0.00     0.022 A 
BRANCH  65  68
ATOM     68  S   UNL A   1      41.472  22.566  26.517  1.00  0.00     0.127 S 
ATOM     69  O   UNL A   1      42.179  22.120  25.317  1.00  0.00    -0.237 OA
ATOM     70  O   UNL A   1      42.039  22.079  27.775  1.00  0.00    -0.237 OA
ATOM     71  O   UNL A   1      40.019  22.510  26.442  1.00  0.00    -0.744 OA
ENDBRANCH  65  68
ENDBRANCH  47  61
BRANCH  48  72
ATOM     72  C   UNL A   1      39.407  32.176  35.455  1.00  0.00     0.023 A 
ATOM     73  C   UNL A   1      38.541  31.587  36.397  1.00  0.00     0.012 A 
ATOM     74  C   UNL A   1      39.873  33.485  35.680  1.00  0.00     0.148 A 
ATOM     75  C   UNL A   1      38.117  32.297  37.521  1.00  0.00     0.002 A 
ATOM     76  C   UNL A   1      39.486  34.170  36.829  1.00  0.00     0.091 A 
ATOM     77  F   UNL A   1      40.683  34.041  34.769  1.00  0.00    -0.205 F 
ATOM     78  C   UNL A   1      38.597  33.585  37.743  1.00  0.00     0.022 A 
BRANCH  76  79
ATOM     79  S   UNL A   1      40.162  35.780  37.252  1.00  0.00     0.127 S 
ATOM     80  O   UNL A   1      39.742  36.591  36.113  1.00  0.00    -0.237 OA
ATOM     81  O   UNL A   1      39.477  36.084  38.510  1.00  0.00    -0.237 OA
ATOM     82  O   UNL A   1      41.596  35.566  37.394  1.00  0.00    -0.744 OA
ENDBRANCH  76  79
ENDBRANCH  48  72
BRANCH  60  83
ATOM     83  C   UNL A   1      44.703  27.805  34.145  1.00  0.00     0.023 A 
ATOM     84  C   UNL A   1      45.877  28.581  34.145  1.00  0.00     0.012 A 
ATOM     85  C   UNL A   1      44.600  26.693  35.003  1.00  0.00     0.148 A 
ATOM     86  C   UNL A   1      46.939  28.248  34.984  1.00  0.00     0.002 A 
ATOM     87  C   UNL A   1      45.644  26.395  35.869  1.00  0.00     0.091 A 
ATOM     88  F   UNL A   1      43.477  25.961  34.970  1.00  0.00    -0.205 F 
ATOM     89  C   UNL A   1      46.818  27.167  35.856  1.00  0.00     0.022 A 
BRANCH  87  90
ATOM     90  S   UNL A   1      45.535  25.086  37.094  1.00  0.00     0.127 S 
ATOM     91  O   UNL A   1      45.683  23.890  36.267  1.00  0.00    -0.237 OA
ATOM     92  O   UNL A   1      46.677  25.376  37.960  1.00  0.00    -0.237 OA
ATOM     93  O   UNL A   1      44.236  25.243  37.735  1.00  0.00    -0.744 OA
ENDBRANCH  87  90
ENDBRANCH  60  83
ENDBRANCH  34  35
ENDBRANCH  26  29
ENDBRANCH  24  25
ENDBRANCH   1  24
TORSDOF 16
ENDMDL
MODEL 2
REMARK VINA RESULT:     -12.1      1.406      2.687
REMARK SMILES CC(=O)N1[C@@H](c2c(F)cccc2Cl)SC[C@H]1C(=O)NCCCCNC(=O)c1ccc(-c2c3nc(c(-c4cccc(S(=O)(=O)[O-])c4F)c4ccc([nH]4)c(-c4cccc(S(=O)(=O)[O-])c4F)c4nc(c(-c5cccc(S(=O)(=O)[O-])c5F)c5ccc2[nH]5)C=C4)C=C3)cc1
REMARK SMILES IDX 22 1 21 2 20 3 19 4 17 5 18 6 16 8 4 9 5 10 14 11 15 12 2 13
REMARK SMILES IDX 1 14 3 15 6 16 7 17 12 18 8 19 9 20 11 21 13 22 10 23 23 24
REMARK SMILES IDX 24 25 25 26 26 28 27 29 28 30 89 31 29 32 88 33 30 34 31 35
REMARK SMILES IDX 32 36 82 37 33 38 87 39 81 40 83 41 34 42 86 43 80 44 79 45
REMARK SMILES IDX 35 47 67 48 47 49 66 50 48 51 51 52 65 53 84 54 49 55 50 56
REMARK SMILES IDX 64 58 85 59 52 60 36 61 37 62 45 63 38 64 40 65 46 66 39 67
REMARK SMILES IDX 41 68 42 69 43 70 44 71 68 72 69 73 77 74 70 75 72 76 78 77
REMARK SMILES IDX 71 78 73 79 74 80 75 81 76 82 53 83 54 84 62 85 55 86 57 87
REMARK SMILES IDX 63 88 56 89 58 90 59 91 60 92 61 93
REMARK H PARENT 19 7 24 27 83 46 51 57
REMARK Flexibility Score: inf
ROOT
ATOM      1  C   UNL A   1      31.949  28.889  24.876  1.00  0.00     0.023 C 
ENDROOT
BRANCH   1   2
ATOM      2  C   UNL A   1      32.281  28.878  23.383  1.00  0.00     0.023 C 
BRANCH   2   3
ATOM      3  C   UNL A   1      31.495  27.863  22.559  1.00  0.00     0.116 C 
BRANCH   3   4
ATOM      4  N   UNL A   1      32.317  26.916  21.852  1.00  0.00    -0.354 N 
ATOM      5  C   UNL A   1      32.882  25.766  22.318  1.00  0.00     0.243 C 
ATOM      6  O   UNL A   1      33.183  24.909  21.478  1.00  0.00    -0.273 OA
ATOM      7  H   UNL A   1      32.495  27.126  20.908  1.00  0.00     0.163 HD
BRANCH   5   8
ATOM      8  C   UNL A   1      32.972  25.416  23.825  1.00  0.00     0.185 C 
ATOM      9  N   UNL A   1      32.037  24.435  24.418  1.00  0.00    -0.314 N 
ATOM     10  C   UNL A   1      32.639  23.483  25.375  1.00  0.00     0.179 C 
ATOM     11  S   UNL A   1      34.246  24.235  25.814  1.00  0.00    -0.129 SA
ATOM     12  C   UNL A   1      34.406  25.082  24.215  1.00  0.00     0.107 C 
BRANCH   9  13
ATOM     13  C   UNL A   1      30.734  24.915  24.459  1.00  0.00     0.221 C 
ATOM     14  C   UNL A   1      30.237  25.602  25.704  1.00  0.00     0.114 C 
ATOM     15  O   UNL A   1      30.023  24.921  23.453  1.00  0.00    -0.275 OA
ENDBRANCH   9  13
BRANCH  10  16
ATOM     16  C   UNL A   1      32.696  22.032  24.885  1.00  0.00     0.039 A 
ATOM     17  C   UNL A   1      32.352  21.643  23.574  1.00  0.00     0.130 A 
ATOM     18  C   UNL A   1      33.075  20.970  25.735  1.00  0.00     0.050 A 
ATOM     19  F   UNL A   1      31.991  22.543  22.651  1.00  0.00    -0.207 F 
ATOM     20  C   UNL A   1      32.310  20.309  23.154  1.00  0.00     0.040 A 
ATOM     21  C   UNL A   1      33.004  19.624  25.329  1.00  0.00     0.021 A 
ATOM     22  Cl  UNL A   1      33.737  21.212  27.309  1.00  0.00    -0.084 Cl
ATOM     23  C   UNL A   1      32.613  19.291  24.041  1.00  0.00     0.005 A 
ENDBRANCH  10  16
ENDBRANCH   5   8
ENDBRANCH   3   4
ENDBRANCH   2   3
ENDBRANCH   1   2
BRANCH   1  24
ATOM     24  C   UNL A   1      32.965  29.571  25.792  1.00  0.00     0.116 C 
BRANCH  24  25
ATOM     25  N   UNL A   1      32.466  30.775  26.447  1.00  0.00    -0.352 N 
ATOM     26  C   UNL A   1      33.132  31.626  27.310  1.00  0.00     0.251 C 
ATOM     27  H   UNL A   1      31.531  31.014  26.249  1.00  0.00     0.163 HD
ATOM     28  O   UNL A   1      32.570  32.574  27.823  1.00  0.00    -0.269 OA
BRANCH  26  29
ATOM     29  C   UNL A   1      34.545  31.317  27.625  1.00  0.00     0.039 A 
ATOM     30  C   UNL A   1      35.480  32.355  27.662  1.00  0.00     0.014 A 
ATOM     31  C   UNL A   1      34.890  30.028  28.030  1.00  0.00     0.014 A 
ATOM     32  C   UNL A   1      36.740  32.124  28.222  1.00  0.00     0.010 A 
ATOM     33  C   UNL A   1      36.110  29.824  28.657  1.00  0.00     0.010 A 
ATOM     34  C   UNL A   1      37.039  30.872  28.782  1.00  0.00    -0.014 A 
BRANCH  34  35
ATOM     35  C   UNL A   1      38.285  30.600  29.545  1.00  0.00     0.031 A 
ATOM     36  C   UNL A   1      39.281  29.627  28.976  1.00  0.00     0.074 A 
ATOM     37  C   UNL A   1      38.415  31.054  30.808  1.00  0.00     0.049 A 
ATOM     38  N   UNL A   1      40.257  28.999  29.572  1.00  0.00    -0.248 NA
ATOM     39  C   UNL A   1      39.109  29.266  27.558  1.00  0.00     0.031 C 
ATOM     40  C   UNL A   1      37.479  31.949  31.495  1.00  0.00     0.029 A 
ATOM     41  N   UNL A   1      39.363  30.778  31.765  1.00  0.00    -0.354 N 
ATOM     42  C   UNL A   1      40.755  28.102  28.634  1.00  0.00     0.074 A 
ATOM     43  C   UNL A   1      39.973  28.269  27.429  1.00  0.00     0.031 C 
ATOM     44  C   UNL A   1      37.891  32.138  32.759  1.00  0.00     0.029 A 
ATOM     45  C   UNL A   1      39.093  31.345  32.992  1.00  0.00     0.049 A 
ATOM     46  H   UNL A   1      40.161  30.229  31.589  1.00  0.00     0.167 HD
ATOM     47  C   UNL A   1      41.780  27.229  28.764  1.00  0.00     0.034 A 
ATOM     48  C   UNL A   1      39.729  31.218  34.174  1.00  0.00     0.034 A 
ATOM     49  C   UNL A   1      42.615  27.156  29.931  1.00  0.00     0.049 A 
ATOM     50  C   UNL A   1      40.944  30.330  34.250  1.00  0.00     0.074 A 
ATOM     51  C   UNL A   1      43.759  26.403  30.122  1.00  0.00     0.029 A 
ATOM     52  N   UNL A   1      42.408  27.879  31.095  1.00  0.00    -0.354 N 
ATOM     53  N   UNL A   1      41.482  29.590  33.311  1.00  0.00    -0.248 NA
ATOM     54  C   UNL A   1      41.658  30.281  35.534  1.00  0.00     0.031 C 
ATOM     55  C   UNL A   1      44.245  26.673  31.404  1.00  0.00     0.029 A 
ATOM     56  C   UNL A   1      43.409  27.603  32.004  1.00  0.00     0.049 A 
ATOM     57  H   UNL A   1      41.657  28.497  31.250  1.00  0.00     0.167 HD
ATOM     58  C   UNL A   1      42.623  29.031  33.873  1.00  0.00     0.074 A 
ATOM     59  C   UNL A   1      42.703  29.520  35.234  1.00  0.00     0.031 C 
ATOM     60  C   UNL A   1      43.519  28.179  33.319  1.00  0.00     0.034 A 
BRANCH  47  61
ATOM     61  C   UNL A   1      42.101  26.329  27.601  1.00  0.00     0.023 A 
ATOM     62  C   UNL A   1      42.897  26.812  26.544  1.00  0.00     0.012 A 
ATOM     63  C   UNL A   1      41.674  24.986  27.589  1.00  0.00     0.148 A 
ATOM     64  C   UNL A   1      43.237  25.984  25.476  1.00  0.00     0.002 A 
ATOM     65  C   UNL A   1      42.055  24.153  26.543  1.00  0.00     0.091 A 
ATOM     66  F   UNL A   1      40.902  24.550  28.595  1.00  0.00    -0.205 F 
ATOM     67  C   UNL A   1      42.826  24.654  25.481  1.00  0.00     0.022 A 
BRANCH  65  68
ATOM     68  S   UNL A   1      41.647  22.404  26.494  1.00  0.00     0.127 S 
ATOM     69  O   UNL A   1      40.188  22.444  26.393  1.00  0.00    -0.237 OA
ATOM     70  O   UNL A   1      42.330  21.963  25.278  1.00  0.00    -0.237 OA
ATOM     71  O   UNL A   1      42.172  21.835  27.727  1.00  0.00    -0.744 OA
ENDBRANCH  65  68
ENDBRANCH  47  61
BRANCH  48  72
ATOM     72  C   UNL A   1      39.287  32.010  35.359  1.00  0.00     0.023 A 
ATOM     73  C   UNL A   1      38.410  31.412  36.286  1.00  0.00     0.012 A 
ATOM     74  C   UNL A   1      39.732  33.325  35.591  1.00  0.00     0.148 A 
ATOM     75  C   UNL A   1      37.955  32.120  37.400  1.00  0.00     0.002 A 
ATOM     76  C   UNL A   1      39.314  34.008  36.730  1.00  0.00     0.091 A 
ATOM     77  F   UNL A   1      40.554  33.889  34.693  1.00  0.00    -0.205 F 
ATOM     78  C   UNL A   1      38.415  33.414  37.627  1.00  0.00     0.022 A 
BRANCH  76  79
ATOM     79  S   UNL A   1      39.962  35.628  37.162  1.00  0.00     0.127 S 
ATOM     80  O   UNL A   1      41.393  35.359  37.271  1.00  0.00    -0.237 OA
ATOM     81  O   UNL A   1      39.575  36.435  36.004  1.00  0.00    -0.237 OA
ATOM     82  O   UNL A   1      39.280  35.994  38.395  1.00  0.00    -0.744 OA
ENDBRANCH  76  79
ENDBRANCH  48  72
BRANCH  60  83
ATOM     83  C   UNL A   1      44.712  27.773  34.137  1.00  0.00     0.023 A 
ATOM     84  C   UNL A   1      45.864  28.581  34.143  1.00  0.00     0.012 A 
ATOM     85  C   UNL A   1      44.630  26.665  35.002  1.00  0.00     0.148 A 
ATOM     86  C   UNL A   1      46.926  28.283  34.995  1.00  0.00     0.002 A 
ATOM     87  C   UNL A   1      45.673  26.401  35.880  1.00  0.00     0.091 A 
ATOM     88  F   UNL A   1      43.528  25.902  34.962  1.00  0.00    -0.205 F 
ATOM     89  C   UNL A   1      46.825  27.205  35.873  1.00  0.00     0.022 A 
BRANCH  87  90
ATOM     90  S   UNL A   1      45.586  25.099  37.113  1.00  0.00     0.127 S 
ATOM     91  O   UNL A   1      45.287  23.928  36.291  1.00  0.00    -0.237 OA
ATOM     92  O   UNL A   1      46.935  25.119  37.681  1.00  0.00    -0.237 OA
ATOM     93  O   UNL A   1      44.534  25.493  38.041  1.00  0.00    -0.744 OA
ENDBRANCH  87  90
ENDBRANCH  60  83
ENDBRANCH  34  35
ENDBRANCH  26  29
ENDBRANCH  24  25
ENDBRANCH   1  24
TORSDOF 16
ENDMDL
MODEL 3
REMARK VINA RESULT:     -12.1      5.257      9.850
REMARK SMILES CC(=O)N1[C@@H](c2c(F)cccc2Cl)SC[C@H]1C(=O)NCCCCNC(=O)c1ccc(-c2c3nc(c(-c4cccc(S(=O)(=O)[O-])c4F)c4ccc([nH]4)c(-c4cccc(S(=O)(=O)[O-])c4F)c4nc(c(-c5cccc(S(=O)(=O)[O-])c5F)c5ccc2[nH]5)C=C4)C=C3)cc1
REMARK SMILES IDX 22 1 21 2 20 3 19 4 17 5 18 6 16 8 4 9 5 10 14 11 15 12 2 13
REMARK SMILES IDX 1 14 3 15 6 16 7 17 12 18 8 19 9 20 11 21 13 22 10 23 23 24
REMARK SMILES IDX 24 25 25 26 26 28 27 29 28 30 89 31 29 32 88 33 30 34 31 35
REMARK SMILES IDX 32 36 82 37 33 38 87 39 81 40 83 41 34 42 86 43 80 44 79 45
REMARK SMILES IDX 35 47 67 48 47 49 66 50 48 51 51 52 65 53 84 54 49 55 50 56
REMARK SMILES IDX 64 58 85 59 52 60 36 61 37 62 45 63 38 64 40 65 46 66 39 67
REMARK SMILES IDX 41 68 42 69 43 70 44 71 68 72 69 73 77 74 70 75 72 76 78 77
REMARK SMILES IDX 71 78 73 79 74 80 75 81 76 82 53 83 54 84 62 85 55 86 57 87
REMARK SMILES IDX 63 88 56 89 58 90 59 91 60 92 61 93
REMARK H PARENT 19 7 24 27 83 46 51 57
REMARK Flexibility Score: inf
ROOT
ATOM      1  C   UNL A   1      35.525  21.466  25.353  1.00  0.00     0.023 C 
ENDROOT
BRANCH   1   2
ATOM      2  C   UNL A   1      34.579  21.703  26.532  1.00  0.00     0.023 C 
BRANCH   2   3
ATOM      3  C   UNL A   1      33.100  21.509  26.216  1.00  0.00     0.116 C 
BRANCH   3   4
ATOM      4  N   UNL A   1      32.227  22.432  26.892  1.00  0.00    -0.354 N 
ATOM      5  C   UNL A   1      31.945  23.727  26.570  1.00  0.00     0.243 C 
ATOM      6  O   UNL A   1      30.887  24.195  27.010  1.00  0.00    -0.273 OA
ATOM      7  H   UNL A   1      31.775  22.084  27.693  1.00  0.00     0.163 HD
BRANCH   5   8
ATOM      8  C   UNL A   1      32.767  24.543  25.542  1.00  0.00     0.185 C 
ATOM      9  N   UNL A   1      32.241  24.765  24.177  1.00  0.00    -0.314 N 
ATOM     10  C   UNL A   1      32.437  26.126  23.636  1.00  0.00     0.179 C 
ATOM     11  S   UNL A   1      33.714  26.866  24.714  1.00  0.00    -0.129 SA
ATOM     12  C   UNL A   1      33.233  25.859  26.149  1.00  0.00     0.107 C 
BRANCH   9  13
ATOM     13  C   UNL A   1      32.205  23.592  23.435  1.00  0.00     0.221 C 
ATOM     14  C   UNL A   1      33.477  23.061  22.825  1.00  0.00     0.114 C 
ATOM     15  O   UNL A   1      31.188  22.899  23.382  1.00  0.00    -0.275 OA
ENDBRANCH   9  13
BRANCH  10  16
ATOM     16  C   UNL A   1      31.150  26.942  23.473  1.00  0.00     0.039 A 
ATOM     17  C   UNL A   1      29.887  26.491  23.909  1.00  0.00     0.130 A 
ATOM     18  C   UNL A   1      31.140  28.205  22.842  1.00  0.00     0.050 A 
ATOM     19  F   UNL A   1      29.743  25.321  24.541  1.00  0.00    -0.207 F 
ATOM     20  C   UNL A   1      28.698  27.192  23.674  1.00  0.00     0.040 A 
ATOM     21  C   UNL A   1      29.946  28.900  22.575  1.00  0.00     0.021 A 
ATOM     22  Cl  UNL A   1      32.577  29.058  22.416  1.00  0.00    -0.084 Cl
ATOM     23  C   UNL A   1      28.722  28.390  22.982  1.00  0.00     0.005 A 
ENDBRANCH  10  16
ENDBRANCH   5   8
ENDBRANCH   3   4
ENDBRANCH   2   3
ENDBRANCH   1   2
BRANCH   1  24
ATOM     24  C   UNL A   1      36.956  21.978  25.517  1.00  0.00     0.116 C 
BRANCH  24  25
ATOM     25  N   UNL A   1      37.976  20.939  25.426  1.00  0.00    -0.352 N 
ATOM     26  C   UNL A   1      39.262  20.948  25.932  1.00  0.00     0.251 C 
ATOM     27  H   UNL A   1      37.714  20.124  24.939  1.00  0.00     0.163 HD
ATOM     28  O   UNL A   1      40.026  20.023  25.735  1.00  0.00    -0.269 OA
BRANCH  26  29
ATOM     29  C   UNL A   1      39.697  22.146  26.686  1.00  0.00     0.039 A 
ATOM     30  C   UNL A   1      40.647  22.008  27.701  1.00  0.00     0.014 A 
ATOM     31  C   UNL A   1      39.270  23.407  26.272  1.00  0.00     0.014 A 
ATOM     32  C   UNL A   1      41.262  23.149  28.225  1.00  0.00     0.010 A 
ATOM     33  C   UNL A   1      39.940  24.530  26.735  1.00  0.00     0.010 A 
ATOM     34  C   UNL A   1      40.958  24.413  27.698  1.00  0.00    -0.014 A 
BRANCH  34  35
ATOM     35  C   UNL A   1      41.689  25.650  28.078  1.00  0.00     0.031 A 
ATOM     36  C   UNL A   1      40.948  26.727  28.821  1.00  0.00     0.074 A 
ATOM     37  C   UNL A   1      42.923  25.882  27.585  1.00  0.00     0.049 A 
ATOM     38  N   UNL A   1      41.258  27.984  28.982  1.00  0.00    -0.248 NA
ATOM     39  C   UNL A   1      39.650  26.346  29.406  1.00  0.00     0.031 C 
ATOM     40  C   UNL A   1      43.717  24.940  26.790  1.00  0.00     0.029 A 
ATOM     41  N   UNL A   1      43.707  27.011  27.630  1.00  0.00    -0.354 N 
ATOM     42  C   UNL A   1      40.157  28.566  29.599  1.00  0.00     0.074 A 
ATOM     43  C   UNL A   1      39.172  27.523  29.785  1.00  0.00     0.031 C 
ATOM     44  C   UNL A   1      44.863  25.530  26.415  1.00  0.00     0.029 A 
ATOM     45  C   UNL A   1      44.871  26.906  26.900  1.00  0.00     0.049 A 
ATOM     46  H   UNL A   1      43.460  27.817  28.138  1.00  0.00     0.167 HD
ATOM     47  C   UNL A   1      39.990  29.851  29.987  1.00  0.00     0.034 A 
ATOM     48  C   UNL A   1      45.822  27.824  26.633  1.00  0.00     0.034 A 
ATOM     49  C   UNL A   1      41.021  30.847  29.894  1.00  0.00     0.049 A 
ATOM     50  C   UNL A   1      45.662  29.215  27.188  1.00  0.00     0.074 A 
ATOM     51  C   UNL A   1      41.008  32.144  30.373  1.00  0.00     0.029 A 
ATOM     52  N   UNL A   1      42.256  30.649  29.299  1.00  0.00    -0.354 N 
ATOM     53  N   UNL A   1      44.671  29.712  27.888  1.00  0.00    -0.248 NA
ATOM     54  C   UNL A   1      46.757  30.164  26.944  1.00  0.00     0.031 C 
ATOM     55  C   UNL A   1      42.240  32.730  30.070  1.00  0.00     0.029 A 
ATOM     56  C   UNL A   1      43.022  31.793  29.412  1.00  0.00     0.049 A 
ATOM     57  H   UNL A   1      42.546  29.815  28.861  1.00  0.00     0.167 HD
ATOM     58  C   UNL A   1      45.047  31.009  28.213  1.00  0.00     0.074 A 
ATOM     59  C   UNL A   1      46.358  31.223  27.636  1.00  0.00     0.031 C 
ATOM     60  C   UNL A   1      44.363  31.946  28.914  1.00  0.00     0.034 A 
BRANCH  47  61
ATOM     61  C   UNL A   1      38.675  30.243  30.606  1.00  0.00     0.023 A 
ATOM     62  C   UNL A   1      38.456  30.020  31.979  1.00  0.00     0.012 A 
ATOM     63  C   UNL A   1      37.685  30.895  29.844  1.00  0.00     0.148 A 
ATOM     64  C   UNL A   1      37.260  30.410  32.579  1.00  0.00     0.002 A 
ATOM     65  C   UNL A   1      36.513  31.322  30.459  1.00  0.00     0.091 A 
ATOM     66  F   UNL A   1      37.904  31.082  28.533  1.00  0.00    -0.205 F 
ATOM     67  C   UNL A   1      36.295  31.069  31.823  1.00  0.00     0.022 A 
BRANCH  65  68
ATOM     68  S   UNL A   1      35.242  32.250  29.593  1.00  0.00     0.127 S 
ATOM     69  O   UNL A   1      34.303  32.545  30.675  1.00  0.00    -0.237 OA
ATOM     70  O   UNL A   1      35.989  33.408  29.101  1.00  0.00    -0.237 OA
ATOM     71  O   UNL A   1      34.737  31.365  28.553  1.00  0.00    -0.744 OA
ENDBRANCH  65  68
ENDBRANCH  47  61
BRANCH  48  72
ATOM     72  C   UNL A   1      47.051  27.441  25.876  1.00  0.00     0.023 A 
ATOM     73  C   UNL A   1      48.079  26.755  26.554  1.00  0.00     0.012 A 
ATOM     74  C   UNL A   1      47.208  27.727  24.507  1.00  0.00     0.148 A 
ATOM     75  C   UNL A   1      49.254  26.394  25.893  1.00  0.00     0.002 A 
ATOM     76  C   UNL A   1      48.361  27.320  23.841  1.00  0.00     0.091 A 
ATOM     77  F   UNL A   1      46.230  28.395  23.877  1.00  0.00    -0.205 F 
ATOM     78  C   UNL A   1      49.391  26.667  24.535  1.00  0.00     0.022 A 
BRANCH  76  79
ATOM     79  S   UNL A   1      48.558  27.518  22.066  1.00  0.00     0.127 S 
ATOM     80  O   UNL A   1      47.284  28.125  21.689  1.00  0.00    -0.237 OA
ATOM     81  O   UNL A   1      49.715  28.411  21.980  1.00  0.00    -0.237 OA
ATOM     82  O   UNL A   1      48.806  26.176  21.559  1.00  0.00    -0.744 OA
ENDBRANCH  76  79
ENDBRANCH  48  72
BRANCH  60  83
ATOM     83  C   UNL A   1      45.035  33.264  29.178  1.00  0.00     0.023 A 
ATOM     84  C   UNL A   1      45.906  33.399  30.276  1.00  0.00     0.012 A 
ATOM     85  C   UNL A   1      44.904  34.320  28.255  1.00  0.00     0.148 A 
ATOM     86  C   UNL A   1      46.631  34.575  30.456  1.00  0.00     0.002 A 
ATOM     87  C   UNL A   1      45.665  35.470  28.417  1.00  0.00     0.091 A 
ATOM     88  F   UNL A   1      44.055  34.171  27.229  1.00  0.00    -0.205 F 
ATOM     89  C   UNL A   1      46.524  35.603  29.521  1.00  0.00     0.022 A 
BRANCH  87  90
ATOM     90  S   UNL A   1      45.667  36.800  27.210  1.00  0.00     0.127 S 
ATOM     91  O   UNL A   1      46.426  37.836  27.908  1.00  0.00    -0.237 OA
ATOM     92  O   UNL A   1      46.365  36.190  26.078  1.00  0.00    -0.237 OA
ATOM     93  O   UNL A   1      44.268  37.116  26.958  1.00  0.00    -0.744 OA
ENDBRANCH  87  90
ENDBRANCH  60  83
ENDBRANCH  34  35
ENDBRANCH  26  29
ENDBRANCH  24  25
ENDBRANCH   1  24
TORSDOF 16
ENDMDL
