MODEL 1
REMARK VINA RESULT:     -11.2      0.000      0.000
REMARK SMILES Cc1csc(=O)n1CC(=O)N[C@@H](C(=O)NCCCCNC(=O)c1ccc(-c2c3nc(c(-c4cccc(S(=O)(=O)[O-])c4F)c4ccc([nH]4)c(-c4cccc(S(=O)(=O)[O-])c4F)c4nc(c(-c5cccc(S(=O)(=O)[O-])c5F)c5ccc2[nH]5)C=C4)C=C3)cc1)[C@@H](C)O
REMARK SMILES IDX 17 1 16 2 15 3 13 4 14 5 12 7 11 8 9 9 10 10 8 12 7 13 1 14
REMARK SMILES IDX 2 15 3 16 4 17 5 18 6 19 86 20 87 21 88 22 18 24 19 25 20 26
REMARK SMILES IDX 21 27 22 29 23 30 24 31 85 32 25 33 84 34 26 35 27 36 28 37
REMARK SMILES IDX 78 38 29 39 83 40 77 41 79 42 30 43 82 44 76 45 75 46 31 48
REMARK SMILES IDX 63 49 43 50 62 51 44 52 47 53 61 54 80 55 45 56 46 57 60 59
REMARK SMILES IDX 81 60 48 61 32 62 33 63 41 64 34 65 36 66 42 67 35 68 37 69
REMARK SMILES IDX 38 70 39 71 40 72 64 73 65 74 73 75 66 76 68 77 74 78 67 79
REMARK SMILES IDX 69 80 70 81 71 82 72 83 49 84 50 85 58 86 51 87 53 88 59 89
REMARK SMILES IDX 52 90 54 91 55 92 56 93 57 94
REMARK H PARENT 15 6 11 11 88 23 20 28 79 47 47 58
REMARK Flexibility Score: inf
ROOT
ATOM      1  C   UNL A   1      37.319  20.127  24.745  1.00  0.00     0.023 C 
ENDROOT
BRANCH   1   2
ATOM      2  C   UNL A   1      36.335  21.294  24.661  1.00  0.00     0.116 C 
BRANCH   2   3
ATOM      3  N   UNL A   1      35.442  21.369  25.801  1.00  0.00    -0.354 N 
ATOM      4  C   UNL A   1      34.101  21.094  25.870  1.00  0.00     0.245 C 
ATOM      5  O   UNL A   1      33.573  21.116  26.984  1.00  0.00    -0.273 OA
ATOM      6  H   UNL A   1      35.860  21.658  26.645  1.00  0.00     0.163 HD
BRANCH   4   7
ATOM      7  C   UNL A   1      33.314  20.681  24.595  1.00  0.00     0.200 C 
BRANCH   7   8
ATOM      8  N   UNL A   1      32.198  21.607  24.398  1.00  0.00    -0.340 N 
ATOM      9  C   UNL A   1      32.174  22.846  23.831  1.00  0.00     0.240 C 
ATOM     10  O   UNL A   1      31.068  23.386  23.733  1.00  0.00    -0.273 OA
ATOM     11  H   UNL A   1      31.329  21.283  24.726  1.00  0.00     0.164 HD
BRANCH   9  12
ATOM     12  C   UNL A   1      33.440  23.513  23.253  1.00  0.00     0.226 C 
BRANCH  12  13
ATOM     13  N   UNL A   1      33.468  24.966  23.270  1.00  0.00    -0.294 N 
ATOM     14  C   UNL A   1      34.069  25.228  25.726  1.00  0.00     0.065 C 
ATOM     15  C   UNL A   1      33.734  25.770  24.375  1.00  0.00     0.029 A 
ATOM     16  C   UNL A   1      33.731  27.081  24.091  1.00  0.00     0.091 A 
ATOM     17  S   UNL A   1      33.516  27.377  22.399  1.00  0.00    -0.082 S 
ATOM     18  C   UNL A   1      33.359  25.652  22.057  1.00  0.00     0.307 A 
ATOM     19  O   UNL A   1      33.161  25.199  20.954  1.00  0.00    -0.257 OA
ENDBRANCH  12  13
ENDBRANCH   9  12
ENDBRANCH   7   8
BRANCH   7  20
ATOM     20  C   UNL A   1      32.860  19.194  24.699  1.00  0.00     0.143 C 
ATOM     21  C   UNL A   1      32.747  18.467  23.359  1.00  0.00     0.041 C 
BRANCH  20  22
ATOM     22  O   UNL A   1      33.817  18.429  25.441  1.00  0.00    -0.391 OA
ATOM     23  H   UNL A   1      33.890  17.542  25.056  1.00  0.00     0.211 HD
ENDBRANCH  20  22
ENDBRANCH   7  20
ENDBRANCH   4   7
ENDBRANCH   2   3
ENDBRANCH   1   2
BRANCH   1  24
ATOM     24  C   UNL A   1      38.775  20.526  25.018  1.00  0.00     0.023 C 
BRANCH  24  25
ATOM     25  C   UNL A   1      39.389  19.882  26.259  1.00  0.00     0.116 C 
BRANCH  25  26
ATOM     26  N   UNL A   1      40.587  19.097  25.972  1.00  0.00    -0.352 N 
ATOM     27  C   UNL A   1      41.881  19.564  25.833  1.00  0.00     0.251 C 
ATOM     28  H   UNL A   1      40.460  18.126  25.867  1.00  0.00     0.163 HD
ATOM     29  O   UNL A   1      42.719  18.926  25.204  1.00  0.00    -0.269 OA
BRANCH  27  30
ATOM     30  C   UNL A   1      42.240  20.850  26.458  1.00  0.00     0.039 A 
ATOM     31  C   UNL A   1      42.611  21.953  25.687  1.00  0.00     0.014 A 
ATOM     32  C   UNL A   1      42.174  20.943  27.847  1.00  0.00     0.014 A 
ATOM     33  C   UNL A   1      42.827  23.175  26.322  1.00  0.00     0.010 A 
ATOM     34  C   UNL A   1      42.307  22.163  28.467  1.00  0.00     0.010 A 
ATOM     35  C   UNL A   1      42.652  23.279  27.711  1.00  0.00    -0.014 A 
BRANCH  35  36
ATOM     36  C   UNL A   1      42.647  24.588  28.358  1.00  0.00     0.031 A 
ATOM     37  C   UNL A   1      41.416  25.393  28.119  1.00  0.00     0.074 A 
ATOM     38  C   UNL A   1      43.537  24.948  29.307  1.00  0.00     0.049 A 
ATOM     39  N   UNL A   1      41.327  26.534  27.517  1.00  0.00    -0.248 NA
ATOM     40  C   UNL A   1      40.115  24.811  28.483  1.00  0.00     0.031 C 
ATOM     41  C   UNL A   1      44.604  24.124  29.887  1.00  0.00     0.029 A 
ATOM     42  N   UNL A   1      43.566  26.072  30.080  1.00  0.00    -0.354 N 
ATOM     43  C   UNL A   1      39.996  26.926  27.647  1.00  0.00     0.074 A 
ATOM     44  C   UNL A   1      39.271  25.752  28.056  1.00  0.00     0.031 C 
ATOM     45  C   UNL A   1      44.978  24.652  31.072  1.00  0.00     0.029 A 
ATOM     46  C   UNL A   1      44.298  25.921  31.254  1.00  0.00     0.049 A 
ATOM     47  H   UNL A   1      43.111  26.909  29.832  1.00  0.00     0.167 HD
ATOM     48  C   UNL A   1      39.647  28.242  27.668  1.00  0.00     0.034 A 
ATOM     49  C   UNL A   1      44.295  26.745  32.330  1.00  0.00     0.034 A 
ATOM     50  C   UNL A   1      40.718  29.080  27.185  1.00  0.00     0.049 A 
ATOM     51  C   UNL A   1      43.806  28.065  31.870  1.00  0.00     0.074 A 
ATOM     52  C   UNL A   1      41.486  29.122  26.038  1.00  0.00     0.029 A 
ATOM     53  N   UNL A   1      41.398  29.827  28.116  1.00  0.00    -0.354 N 
ATOM     54  N   UNL A   1      44.464  28.827  31.042  1.00  0.00    -0.248 NA
ATOM     55  C   UNL A   1      42.391  28.364  32.007  1.00  0.00     0.031 C 
ATOM     56  C   UNL A   1      42.797  29.456  26.491  1.00  0.00     0.029 A 
ATOM     57  C   UNL A   1      42.732  29.668  27.870  1.00  0.00     0.049 A 
ATOM     58  H   UNL A   1      40.997  30.376  28.829  1.00  0.00     0.167 HD
ATOM     59  C   UNL A   1      43.482  29.358  30.217  1.00  0.00     0.074 A 
ATOM     60  C   UNL A   1      42.229  29.147  30.938  1.00  0.00     0.031 C 
ATOM     61  C   UNL A   1      43.741  29.642  28.905  1.00  0.00     0.034 A 
BRANCH  48  62
ATOM     62  C   UNL A   1      38.509  28.831  28.478  1.00  0.00     0.023 A 
ATOM     63  C   UNL A   1      37.576  29.639  27.786  1.00  0.00     0.012 A 
ATOM     64  C   UNL A   1      38.470  28.883  29.890  1.00  0.00     0.148 A 
ATOM     65  C   UNL A   1      36.714  30.512  28.458  1.00  0.00     0.002 A 
ATOM     66  C   UNL A   1      37.551  29.689  30.556  1.00  0.00     0.091 A 
ATOM     67  F   UNL A   1      39.406  28.268  30.614  1.00  0.00    -0.205 F 
ATOM     68  C   UNL A   1      36.698  30.534  29.845  1.00  0.00     0.022 A 
BRANCH  66  69
ATOM     69  S   UNL A   1      37.452  29.708  32.350  1.00  0.00     0.127 S 
ATOM     70  O   UNL A   1      38.668  30.436  32.700  1.00  0.00    -0.237 OA
ATOM     71  O   UNL A   1      36.204  30.437  32.574  1.00  0.00    -0.237 OA
ATOM     72  O   UNL A   1      37.402  28.306  32.750  1.00  0.00    -0.744 OA
ENDBRANCH  66  69
ENDBRANCH  48  62
BRANCH  49  73
ATOM     73  C   UNL A   1      44.487  26.427  33.764  1.00  0.00     0.023 A 
ATOM     74  C   UNL A   1      45.780  26.465  34.321  1.00  0.00     0.012 A 
ATOM     75  C   UNL A   1      43.387  26.342  34.648  1.00  0.00     0.148 A 
ATOM     76  C   UNL A   1      45.971  26.456  35.708  1.00  0.00     0.002 A 
ATOM     77  C   UNL A   1      43.581  26.316  36.026  1.00  0.00     0.091 A 
ATOM     78  F   UNL A   1      42.145  26.386  34.147  1.00  0.00    -0.205 F 
ATOM     79  C   UNL A   1      44.872  26.388  36.561  1.00  0.00     0.022 A 
BRANCH  77  80
ATOM     80  S   UNL A   1      42.197  26.227  37.171  1.00  0.00     0.127 S 
ATOM     81  O   UNL A   1      42.865  26.329  38.469  1.00  0.00    -0.237 OA
ATOM     82  O   UNL A   1      41.411  27.397  36.791  1.00  0.00    -0.237 OA
ATOM     83  O   UNL A   1      41.566  24.933  36.931  1.00  0.00    -0.744 OA
ENDBRANCH  77  80
ENDBRANCH  49  73
BRANCH  61  84
ATOM     84  C   UNL A   1      45.174  29.644  28.435  1.00  0.00     0.023 A 
ATOM     85  C   UNL A   1      46.025  30.755  28.606  1.00  0.00     0.012 A 
ATOM     86  C   UNL A   1      45.724  28.432  27.982  1.00  0.00     0.148 A 
ATOM     87  C   UNL A   1      47.388  30.667  28.309  1.00  0.00     0.002 A 
ATOM     88  C   UNL A   1      47.088  28.332  27.738  1.00  0.00     0.091 A 
ATOM     89  F   UNL A   1      44.904  27.381  27.827  1.00  0.00    -0.205 F 
ATOM     90  C   UNL A   1      47.923  29.451  27.891  1.00  0.00     0.022 A 
BRANCH  88  91
ATOM     91  S   UNL A   1      47.852  26.762  27.328  1.00  0.00     0.127 S 
ATOM     92  O   UNL A   1      49.247  27.145  27.121  1.00  0.00    -0.237 OA
ATOM     93  O   UNL A   1      47.608  25.967  28.533  1.00  0.00    -0.237 OA
ATOM     94  O   UNL A   1      47.152  26.275  26.146  1.00  0.00    -0.744 OA
ENDBRANCH  88  91
ENDBRANCH  61  84
ENDBRANCH  35  36
ENDBRANCH  27  30
ENDBRANCH  25  26
ENDBRANCH  24  25
ENDBRANCH   1  24
TORSDOF 19
ENDMDL
MODEL 2
REMARK VINA RESULT:     -10.9      4.428      9.481
REMARK SMILES Cc1csc(=O)n1CC(=O)N[C@@H](C(=O)NCCCCNC(=O)c1ccc(-c2c3nc(c(-c4cccc(S(=O)(=O)[O-])c4F)c4ccc([nH]4)c(-c4cccc(S(=O)(=O)[O-])c4F)c4nc(c(-c5cccc(S(=O)(=O)[O-])c5F)c5ccc2[nH]5)C=C4)C=C3)cc1)[C@@H](C)O
REMARK SMILES IDX 17 1 16 2 15 3 13 4 14 5 12 7 11 8 9 9 10 10 8 12 7 13 1 14
REMARK SMILES IDX 2 15 3 16 4 17 5 18 6 19 86 20 87 21 88 22 18 24 19 25 20 26
REMARK SMILES IDX 21 27 22 29 23 30 24 31 85 32 25 33 84 34 26 35 27 36 28 37
REMARK SMILES IDX 78 38 29 39 83 40 77 41 79 42 30 43 82 44 76 45 75 46 31 48
REMARK SMILES IDX 63 49 43 50 62 51 44 52 47 53 61 54 80 55 45 56 46 57 60 59
REMARK SMILES IDX 81 60 48 61 32 62 33 63 41 64 34 65 36 66 42 67 35 68 37 69
REMARK SMILES IDX 38 70 39 71 40 72 64 73 65 74 73 75 66 76 68 77 74 78 67 79
REMARK SMILES IDX 69 80 70 81 71 82 72 83 49 84 50 85 58 86 51 87 53 88 59 89
REMARK SMILES IDX 52 90 54 91 55 92 56 93 57 94
REMARK H PARENT 15 6 11 11 88 23 20 28 79 47 47 58
REMARK Flexibility Score: inf
ROOT
ATOM      1  C   UNL A   1      32.129  30.279  25.570  1.00  0.00     0.023 C 
ENDROOT
BRANCH   1   2
ATOM      2  C   UNL A   1      31.123  29.185  25.208  1.00  0.00     0.116 C 
BRANCH   2   3
ATOM      3  N   UNL A   1      30.587  29.327  23.868  1.00  0.00    -0.354 N 
ATOM      4  C   UNL A   1      30.479  28.389  22.874  1.00  0.00     0.245 C 
ATOM      5  O   UNL A   1      29.876  28.714  21.849  1.00  0.00    -0.273 OA
ATOM      6  H   UNL A   1      30.252  30.225  23.641  1.00  0.00     0.163 HD
BRANCH   4   7
ATOM      7  C   UNL A   1      31.020  26.948  23.089  1.00  0.00     0.200 C 
BRANCH   7   8
ATOM      8  N   UNL A   1      31.546  26.438  21.821  1.00  0.00    -0.340 N 
ATOM      9  C   UNL A   1      32.810  26.054  21.486  1.00  0.00     0.240 C 
ATOM     10  O   UNL A   1      32.963  25.595  20.350  1.00  0.00    -0.273 OA
ATOM     11  H   UNL A   1      30.883  26.363  21.098  1.00  0.00     0.164 HD
BRANCH   9  12
ATOM     12  C   UNL A   1      33.980  26.097  22.492  1.00  0.00     0.226 C 
BRANCH  12  13
ATOM     13  N   UNL A   1      33.974  25.081  23.530  1.00  0.00    -0.294 N 
ATOM     14  C   UNL A   1      33.771  26.670  25.505  1.00  0.00     0.065 C 
ATOM     15  C   UNL A   1      33.895  25.309  24.902  1.00  0.00     0.029 A 
ATOM     16  C   UNL A   1      33.871  24.180  25.627  1.00  0.00     0.091 A 
ATOM     17  S   UNL A   1      33.821  22.769  24.627  1.00  0.00    -0.082 S 
ATOM     18  C   UNL A   1      33.900  23.737  23.153  1.00  0.00     0.307 A 
ATOM     19  O   UNL A   1      33.915  23.269  22.039  1.00  0.00    -0.257 OA
ENDBRANCH  12  13
ENDBRANCH   9  12
ENDBRANCH   7   8
BRANCH   7  20
ATOM     20  C   UNL A   1      29.910  26.039  23.695  1.00  0.00     0.143 C 
ATOM     21  C   UNL A   1      30.145  25.631  25.150  1.00  0.00     0.041 C 
BRANCH  20  22
ATOM     22  O   UNL A   1      28.654  26.729  23.716  1.00  0.00    -0.391 OA
ATOM     23  H   UNL A   1      28.251  26.693  22.835  1.00  0.00     0.211 HD
ENDBRANCH  20  22
ENDBRANCH   7  20
ENDBRANCH   4   7
ENDBRANCH   2   3
ENDBRANCH   1   2
BRANCH   1  24
ATOM     24  C   UNL A   1      31.530  31.500  26.279  1.00  0.00     0.023 C 
BRANCH  24  25
ATOM     25  C   UNL A   1      32.412  32.096  27.373  1.00  0.00     0.116 C 
BRANCH  25  26
ATOM     26  N   UNL A   1      32.216  33.533  27.556  1.00  0.00    -0.352 N 
ATOM     27  C   UNL A   1      32.912  34.371  28.408  1.00  0.00     0.251 C 
ATOM     28  H   UNL A   1      31.512  33.952  27.012  1.00  0.00     0.163 HD
ATOM     29  O   UNL A   1      32.424  35.429  28.791  1.00  0.00    -0.269 OA
BRANCH  27  30
ATOM     30  C   UNL A   1      34.260  33.969  28.851  1.00  0.00     0.039 A 
ATOM     31  C   UNL A   1      34.457  33.306  30.063  1.00  0.00     0.014 A 
ATOM     32  C   UNL A   1      35.335  34.249  28.010  1.00  0.00     0.014 A 
ATOM     33  C   UNL A   1      35.736  32.847  30.378  1.00  0.00     0.010 A 
ATOM     34  C   UNL A   1      36.578  33.728  28.278  1.00  0.00     0.010 A 
ATOM     35  C   UNL A   1      36.789  33.042  29.471  1.00  0.00    -0.014 A 
BRANCH  35  36
ATOM     36  C   UNL A   1      38.071  32.373  29.673  1.00  0.00     0.031 A 
ATOM     37  C   UNL A   1      38.117  30.962  29.195  1.00  0.00     0.074 A 
ATOM     38  C   UNL A   1      39.203  33.028  30.010  1.00  0.00     0.049 A 
ATOM     39  N   UNL A   1      38.311  29.898  29.903  1.00  0.00    -0.248 NA
ATOM     40  C   UNL A   1      37.790  30.688  27.787  1.00  0.00     0.031 C 
ATOM     41  C   UNL A   1      39.378  34.475  30.182  1.00  0.00     0.029 A 
ATOM     42  N   UNL A   1      40.479  32.555  30.097  1.00  0.00    -0.354 N 
ATOM     43  C   UNL A   1      38.377  28.846  28.991  1.00  0.00     0.074 A 
ATOM     44  C   UNL A   1      37.850  29.355  27.753  1.00  0.00     0.031 C 
ATOM     45  C   UNL A   1      40.689  34.779  30.077  1.00  0.00     0.029 A 
ATOM     46  C   UNL A   1      41.449  33.546  29.990  1.00  0.00     0.049 A 
ATOM     47  H   UNL A   1      40.693  31.602  30.224  1.00  0.00     0.167 HD
ATOM     48  C   UNL A   1      39.108  27.727  29.256  1.00  0.00     0.034 A 
ATOM     49  C   UNL A   1      42.776  33.371  29.777  1.00  0.00     0.034 A 
ATOM     50  C   UNL A   1      39.447  27.639  30.656  1.00  0.00     0.049 A 
ATOM     51  C   UNL A   1      43.107  31.987  30.183  1.00  0.00     0.074 A 
ATOM     52  C   UNL A   1      38.735  27.666  31.840  1.00  0.00     0.029 A 
ATOM     53  N   UNL A   1      40.754  27.889  31.001  1.00  0.00    -0.354 N 
ATOM     54  N   UNL A   1      43.049  31.565  31.415  1.00  0.00    -0.248 NA
ATOM     55  C   UNL A   1      43.106  30.949  29.166  1.00  0.00     0.031 C 
ATOM     56  C   UNL A   1      39.551  28.419  32.736  1.00  0.00     0.029 A 
ATOM     57  C   UNL A   1      40.736  28.740  32.070  1.00  0.00     0.049 A 
ATOM     58  H   UNL A   1      41.554  27.522  30.559  1.00  0.00     0.167 HD
ATOM     59  C   UNL A   1      42.527  30.284  31.312  1.00  0.00     0.074 A 
ATOM     60  C   UNL A   1      42.709  29.914  29.910  1.00  0.00     0.031 C 
ATOM     61  C   UNL A   1      41.728  29.767  32.293  1.00  0.00     0.034 A 
BRANCH  48  62
ATOM     62  C   UNL A   1      39.859  26.910  28.224  1.00  0.00     0.023 A 
ATOM     63  C   UNL A   1      39.703  25.505  28.278  1.00  0.00     0.012 A 
ATOM     64  C   UNL A   1      40.912  27.402  27.420  1.00  0.00     0.148 A 
ATOM     65  C   UNL A   1      40.596  24.638  27.638  1.00  0.00     0.002 A 
ATOM     66  C   UNL A   1      41.744  26.538  26.715  1.00  0.00     0.091 A 
ATOM     67  F   UNL A   1      41.217  28.701  27.430  1.00  0.00    -0.205 F 
ATOM     68  C   UNL A   1      41.615  25.156  26.851  1.00  0.00     0.022 A 
BRANCH  66  69
ATOM     69  S   UNL A   1      43.041  27.161  25.638  1.00  0.00     0.127 S 
ATOM     70  O   UNL A   1      43.894  27.867  26.589  1.00  0.00    -0.237 OA
ATOM     71  O   UNL A   1      43.602  25.923  25.098  1.00  0.00    -0.237 OA
ATOM     72  O   UNL A   1      42.359  27.986  24.647  1.00  0.00    -0.744 OA
ENDBRANCH  66  69
ENDBRANCH  48  62
BRANCH  49  73
ATOM     73  C   UNL A   1      43.740  34.238  29.060  1.00  0.00     0.023 A 
ATOM     74  C   UNL A   1      43.945  34.061  27.678  1.00  0.00     0.012 A 
ATOM     75  C   UNL A   1      44.262  35.405  29.663  1.00  0.00     0.148 A 
ATOM     76  C   UNL A   1      44.616  35.026  26.916  1.00  0.00     0.002 A 
ATOM     77  C   UNL A   1      44.944  36.354  28.907  1.00  0.00     0.091 A 
ATOM     78  F   UNL A   1      44.011  35.636  30.959  1.00  0.00    -0.205 F 
ATOM     79  C   UNL A   1      45.110  36.175  27.528  1.00  0.00     0.022 A 
BRANCH  77  80
ATOM     80  S   UNL A   1      45.603  37.854  29.648  1.00  0.00     0.127 S 
ATOM     81  O   UNL A   1      46.344  38.448  28.534  1.00  0.00    -0.237 OA
ATOM     82  O   UNL A   1      44.386  38.568  30.025  1.00  0.00    -0.237 OA
ATOM     83  O   UNL A   1      46.449  37.413  30.752  1.00  0.00    -0.744 OA
ENDBRANCH  77  80
ENDBRANCH  49  73
BRANCH  61  84
ATOM     84  C   UNL A   1      41.652  30.484  33.618  1.00  0.00     0.023 A 
ATOM     85  C   UNL A   1      42.606  30.293  34.639  1.00  0.00     0.012 A 
ATOM     86  C   UNL A   1      40.706  31.515  33.759  1.00  0.00     0.148 A 
ATOM     87  C   UNL A   1      42.601  31.092  35.784  1.00  0.00     0.002 A 
ATOM     88  C   UNL A   1      40.736  32.342  34.876  1.00  0.00     0.091 A 
ATOM     89  F   UNL A   1      39.806  31.689  32.780  1.00  0.00    -0.205 F 
ATOM     90  C   UNL A   1      41.676  32.127  35.896  1.00  0.00     0.022 A 
BRANCH  88  91
ATOM     91  S   UNL A   1      39.659  33.770  35.009  1.00  0.00     0.127 S 
ATOM     92  O   UNL A   1      38.340  33.149  35.117  1.00  0.00    -0.237 OA
ATOM     93  O   UNL A   1      40.135  34.412  36.236  1.00  0.00    -0.237 OA
ATOM     94  O   UNL A   1      39.888  34.555  33.803  1.00  0.00    -0.744 OA
ENDBRANCH  88  91
ENDBRANCH  61  84
ENDBRANCH  35  36
ENDBRANCH  27  30
ENDBRANCH  25  26
ENDBRANCH  24  25
ENDBRANCH   1  24
TORSDOF 19
ENDMDL
MODEL 3
REMARK VINA RESULT:     -10.8      2.987      7.924
REMARK SMILES Cc1csc(=O)n1CC(=O)N[C@@H](C(=O)NCCCCNC(=O)c1ccc(-c2c3nc(c(-c4cccc(S(=O)(=O)[O-])c4F)c4ccc([nH]4)c(-c4cccc(S(=O)(=O)[O-])c4F)c4nc(c(-c5cccc(S(=O)(=O)[O-])c5F)c5ccc2[nH]5)C=C4)C=C3)cc1)[C@@H](C)O
REMARK SMILES IDX 17 1 16 2 15 3 13 4 14 5 12 7 11 8 9 9 10 10 8 12 7 13 1 14
REMARK SMILES IDX 2 15 3 16 4 17 5 18 6 19 86 20 87 21 88 22 18 24 19 25 20 26
REMARK SMILES IDX 21 27 22 29 23 30 24 31 85 32 25 33 84 34 26 35 27 36 28 37
REMARK SMILES IDX 78 38 29 39 83 40 77 41 79 42 30 43 82 44 76 45 75 46 31 48
REMARK SMILES IDX 63 49 43 50 62 51 44 52 47 53 61 54 80 55 45 56 46 57 60 59
REMARK SMILES IDX 81 60 48 61 32 62 33 63 41 64 34 65 36 66 42 67 35 68 37 69
REMARK SMILES IDX 38 70 39 71 40 72 64 73 65 74 73 75 66 76 68 77 74 78 67 79
REMARK SMILES IDX 69 80 70 81 71 82 72 83 49 84 50 85 58 86 51 87 53 88 59 89
REMARK SMILES IDX 52 90 54 91 55 92 56 93 57 94
REMARK H PARENT 15 6 11 11 88 23 20 28 79 47 47 58
REMARK Flexibility Score: inf
ROOT
ATOM      1  C   UNL A   1      31.931  30.454  25.867  1.00  0.00     0.023 C 
ENDROOT
BRANCH   1   2
ATOM      2  C   UNL A   1      31.173  29.283  25.241  1.00  0.00     0.116 C 
BRANCH   2   3
ATOM      3  N   UNL A   1      30.766  29.535  23.872  1.00  0.00    -0.354 N 
ATOM      4  C   UNL A   1      30.647  28.655  22.828  1.00  0.00     0.245 C 
ATOM      5  O   UNL A   1      30.167  29.083  21.776  1.00  0.00    -0.273 OA
ATOM      6  H   UNL A   1      30.544  30.472  23.665  1.00  0.00     0.163 HD
BRANCH   4   7
ATOM      7  C   UNL A   1      31.021  27.158  23.012  1.00  0.00     0.200 C 
BRANCH   7   8
ATOM      8  N   UNL A   1      31.550  26.635  21.751  1.00  0.00    -0.340 N 
ATOM      9  C   UNL A   1      32.790  26.158  21.450  1.00  0.00     0.240 C 
ATOM     10  O   UNL A   1      32.947  25.713  20.309  1.00  0.00    -0.273 OA
ATOM     11  H   UNL A   1      30.909  26.629  21.005  1.00  0.00     0.164 HD
BRANCH   9  12
ATOM     12  C   UNL A   1      33.923  26.085  22.496  1.00  0.00     0.226 C 
BRANCH  12  13
ATOM     13  N   UNL A   1      33.824  25.019  23.479  1.00  0.00    -0.294 N 
ATOM     14  C   UNL A   1      33.556  26.514  25.518  1.00  0.00     0.065 C 
ATOM     15  C   UNL A   1      33.672  25.182  24.854  1.00  0.00     0.029 A 
ATOM     16  C   UNL A   1      33.569  24.020  25.517  1.00  0.00     0.091 A 
ATOM     17  S   UNL A   1      33.534  22.662  24.445  1.00  0.00    -0.082 S 
ATOM     18  C   UNL A   1      33.730  23.699  23.029  1.00  0.00     0.307 A 
ATOM     19  O   UNL A   1      33.795  23.287  21.895  1.00  0.00    -0.257 OA
ENDBRANCH  12  13
ENDBRANCH   9  12
ENDBRANCH   7   8
BRANCH   7  20
ATOM     20  C   UNL A   1      29.792  26.355  23.535  1.00  0.00     0.143 C 
ATOM     21  C   UNL A   1      29.906  25.890  24.987  1.00  0.00     0.041 C 
BRANCH  20  22
ATOM     22  O   UNL A   1      28.615  27.172  23.513  1.00  0.00    -0.391 OA
ATOM     23  H   UNL A   1      28.350  27.381  24.421  1.00  0.00     0.211 HD
ENDBRANCH  20  22
ENDBRANCH   7  20
ENDBRANCH   4   7
ENDBRANCH   2   3
ENDBRANCH   1   2
BRANCH   1  24
ATOM     24  C   UNL A   1      32.663  30.127  27.174  1.00  0.00     0.023 C 
BRANCH  24  25
ATOM     25  C   UNL A   1      33.980  30.874  27.370  1.00  0.00     0.116 C 
BRANCH  25  26
ATOM     26  N   UNL A   1      33.945  31.831  28.475  1.00  0.00    -0.352 N 
ATOM     27  C   UNL A   1      34.788  31.877  29.569  1.00  0.00     0.251 C 
ATOM     28  H   UNL A   1      33.243  32.520  28.435  1.00  0.00     0.163 HD
ATOM     29  O   UNL A   1      34.442  32.424  30.611  1.00  0.00    -0.269 OA
BRANCH  27  30
ATOM     30  C   UNL A   1      36.121  31.256  29.462  1.00  0.00     0.039 A 
ATOM     31  C   UNL A   1      37.258  32.020  29.191  1.00  0.00     0.014 A 
ATOM     32  C   UNL A   1      36.220  29.881  29.665  1.00  0.00     0.014 A 
ATOM     33  C   UNL A   1      38.506  31.399  29.217  1.00  0.00     0.010 A 
ATOM     34  C   UNL A   1      37.453  29.283  29.771  1.00  0.00     0.010 A 
ATOM     35  C   UNL A   1      38.599  30.034  29.529  1.00  0.00    -0.014 A 
BRANCH  35  36
ATOM     36  C   UNL A   1      39.901  29.424  29.786  1.00  0.00     0.031 A 
ATOM     37  C   UNL A   1      40.349  29.492  31.206  1.00  0.00     0.074 A 
ATOM     38  C   UNL A   1      40.534  28.628  28.897  1.00  0.00     0.049 A 
ATOM     39  N   UNL A   1      41.390  30.100  31.674  1.00  0.00    -0.248 NA
ATOM     40  C   UNL A   1      39.476  28.923  32.245  1.00  0.00     0.031 C 
ATOM     41  C   UNL A   1      40.047  28.197  27.582  1.00  0.00     0.029 A 
ATOM     42  N   UNL A   1      41.672  27.893  29.057  1.00  0.00    -0.354 N 
ATOM     43  C   UNL A   1      41.436  29.779  33.029  1.00  0.00     0.074 A 
ATOM     44  C   UNL A   1      40.143  29.239  33.357  1.00  0.00     0.031 C 
ATOM     45  C   UNL A   1      40.724  27.094  27.198  1.00  0.00     0.029 A 
ATOM     46  C   UNL A   1      41.786  26.840  28.154  1.00  0.00     0.049 A 
ATOM     47  H   UNL A   1      42.349  28.090  29.744  1.00  0.00     0.167 HD
ATOM     48  C   UNL A   1      42.618  29.736  33.704  1.00  0.00     0.034 A 
ATOM     49  C   UNL A   1      42.646  25.796  28.223  1.00  0.00     0.034 A 
ATOM     50  C   UNL A   1      43.670  30.394  32.968  1.00  0.00     0.049 A 
ATOM     51  C   UNL A   1      43.766  26.206  29.099  1.00  0.00     0.074 A 
ATOM     52  C   UNL A   1      43.837  31.644  32.405  1.00  0.00     0.029 A 
ATOM     53  N   UNL A   1      44.622  29.593  32.384  1.00  0.00    -0.354 N 
ATOM     54  N   UNL A   1      44.619  27.141  28.786  1.00  0.00    -0.248 NA
ATOM     55  C   UNL A   1      43.701  25.864  30.510  1.00  0.00     0.031 C 
ATOM     56  C   UNL A   1      44.522  31.401  31.178  1.00  0.00     0.029 A 
ATOM     57  C   UNL A   1      44.794  30.034  31.102  1.00  0.00     0.049 A 
ATOM     58  H   UNL A   1      45.093  28.840  32.811  1.00  0.00     0.167 HD
ATOM     59  C   UNL A   1      44.831  27.820  29.977  1.00  0.00     0.074 A 
ATOM     60  C   UNL A   1      44.350  26.914  31.018  1.00  0.00     0.031 C 
ATOM     61  C   UNL A   1      45.090  29.162  29.988  1.00  0.00     0.034 A 
BRANCH  48  62
ATOM     62  C   UNL A   1      42.944  28.777  34.832  1.00  0.00     0.023 A 
ATOM     63  C   UNL A   1      43.604  29.314  35.963  1.00  0.00     0.012 A 
ATOM     64  C   UNL A   1      42.913  27.368  34.724  1.00  0.00     0.148 A 
ATOM     65  C   UNL A   1      44.268  28.499  36.886  1.00  0.00     0.002 A 
ATOM     66  C   UNL A   1      43.501  26.559  35.691  1.00  0.00     0.091 A 
ATOM     67  F   UNL A   1      42.441  26.787  33.620  1.00  0.00    -0.205 F 
ATOM     68  C   UNL A   1      44.212  27.118  36.753  1.00  0.00     0.022 A 
BRANCH  66  69
ATOM     69  S   UNL A   1      43.405  24.766  35.593  1.00  0.00     0.127 S 
ATOM     70  O   UNL A   1      44.232  24.369  36.729  1.00  0.00    -0.237 OA
ATOM     71  O   UNL A   1      41.970  24.534  35.756  1.00  0.00    -0.237 OA
ATOM     72  O   UNL A   1      43.917  24.423  34.272  1.00  0.00    -0.744 OA
ENDBRANCH  66  69
ENDBRANCH  48  62
BRANCH  49  73
ATOM     73  C   UNL A   1      42.476  24.400  27.755  1.00  0.00     0.023 A 
ATOM     74  C   UNL A   1      41.265  23.723  28.002  1.00  0.00     0.012 A 
ATOM     75  C   UNL A   1      43.387  23.818  26.845  1.00  0.00     0.148 A 
ATOM     76  C   UNL A   1      40.956  22.528  27.339  1.00  0.00     0.002 A 
ATOM     77  C   UNL A   1      43.084  22.621  26.201  1.00  0.00     0.091 A 
ATOM     78  F   UNL A   1      44.508  24.481  26.532  1.00  0.00    -0.205 F 
ATOM     79  C   UNL A   1      41.862  21.980  26.435  1.00  0.00     0.022 A 
BRANCH  77  80
ATOM     80  S   UNL A   1      44.219  21.870  25.025  1.00  0.00     0.127 S 
ATOM     81  O   UNL A   1      43.714  20.499  24.944  1.00  0.00    -0.237 OA
ATOM     82  O   UNL A   1      43.998  22.678  23.830  1.00  0.00    -0.237 OA
ATOM     83  O   UNL A   1      45.544  21.977  25.628  1.00  0.00    -0.744 OA
ENDBRANCH  77  80
ENDBRANCH  49  73
BRANCH  61  84
ATOM     84  C   UNL A   1      45.430  29.843  28.686  1.00  0.00     0.023 A 
ATOM     85  C   UNL A   1      44.443  30.265  27.772  1.00  0.00     0.012 A 
ATOM     86  C   UNL A   1      46.763  30.235  28.472  1.00  0.00     0.148 A 
ATOM     87  C   UNL A   1      44.780  31.038  26.657  1.00  0.00     0.002 A 
ATOM     88  C   UNL A   1      47.087  31.047  27.392  1.00  0.00     0.091 A 
ATOM     89  F   UNL A   1      47.693  29.830  29.350  1.00  0.00    -0.205 F 
ATOM     90  C   UNL A   1      46.100  31.442  26.476  1.00  0.00     0.022 A 
BRANCH  88  91
ATOM     91  S   UNL A   1      48.742  31.707  27.183  1.00  0.00     0.127 S 
ATOM     92  O   UNL A   1      48.543  32.705  26.135  1.00  0.00    -0.237 OA
ATOM     93  O   UNL A   1      49.032  32.260  28.508  1.00  0.00    -0.237 OA
ATOM     94  O   UNL A   1      49.581  30.572  26.820  1.00  0.00    -0.744 OA
ENDBRANCH  88  91
ENDBRANCH  61  84
ENDBRANCH  35  36
ENDBRANCH  27  30
ENDBRANCH  25  26
ENDBRANCH  24  25
ENDBRANCH   1  24
TORSDOF 19
ENDMDL
