MODEL 1
REMARK VINA RESULT:     -11.9      0.000      0.000
REMARK SMILES O=C(NCCCCNC(=O)[C@@H]1C[N@@H+](CC(=O)c2ccc[nH]2)CC[NH2+]1)c1ccc(-c2c3nc(c(-c4cccc(S(=O)(=O)[O-])c4F)c4ccc([nH]4)c(-c4cccc(S(=O)(=O)[O-])c4F)c4nc(c(-c5cccc(S(=O)(=O)[O-])c5F)c5ccc2[nH]5)C=C4)C=C3)cc1
REMARK SMILES IDX 5 1 4 2 3 3 1 4 2 5 25 7 26 8 87 9 27 10 86 11 28 12 29 13
REMARK SMILES IDX 30 14 80 15 31 16 85 17 79 18 81 19 32 20 84 21 78 22 77 23
REMARK SMILES IDX 33 25 65 26 45 27 64 28 46 29 49 30 63 31 82 32 47 33 48 34
REMARK SMILES IDX 62 36 83 37 50 38 34 39 35 40 43 41 36 42 38 43 44 44 37 45
REMARK SMILES IDX 39 46 40 47 41 48 42 49 66 50 67 51 75 52 68 53 70 54 76 55
REMARK SMILES IDX 69 56 71 57 72 58 73 59 74 60 51 61 52 62 60 63 53 64 55 65
REMARK SMILES IDX 61 66 54 67 56 68 57 69 58 70 59 71 6 72 7 73 8 74 9 75
REMARK SMILES IDX 10 77 11 78 12 79 24 80 13 81 23 82 22 85 14 87 15 88 16 89
REMARK SMILES IDX 17 90 18 91 21 92 19 93 20 94
REMARK H PARENT 3 6 81 24 49 35 8 76 24 83 24 84 13 86 21 95
REMARK Flexibility Score: inf
ROOT
ATOM      1  C   UNL A   1      34.109  28.297  25.449  1.00  0.00     0.023 C 
ENDROOT
BRANCH   1   2
ATOM      2  C   UNL A   1      34.448  28.304  26.946  1.00  0.00     0.116 C 
BRANCH   2   3
ATOM      3  N   UNL A   1      34.585  29.598  27.589  1.00  0.00    -0.352 N 
ATOM      4  O   UNL A   1      35.485  31.541  28.203  1.00  0.00    -0.269 OA
ATOM      5  C   UNL A   1      35.679  30.352  27.947  1.00  0.00     0.251 C 
ATOM      6  H   UNL A   1      33.724  30.021  27.813  1.00  0.00     0.163 HD
BRANCH   5   7
ATOM      7  C   UNL A   1      37.027  29.764  28.136  1.00  0.00     0.039 A 
ATOM      8  C   UNL A   1      38.050  29.871  27.195  1.00  0.00     0.014 A 
ATOM      9  C   UNL A   1      37.251  29.038  29.318  1.00  0.00     0.014 A 
ATOM     10  C   UNL A   1      39.220  29.139  27.352  1.00  0.00     0.010 A 
ATOM     11  C   UNL A   1      38.445  28.341  29.506  1.00  0.00     0.010 A 
ATOM     12  C   UNL A   1      39.418  28.368  28.503  1.00  0.00    -0.014 A 
BRANCH  12  13
ATOM     13  C   UNL A   1      40.770  27.795  28.696  1.00  0.00     0.031 A 
ATOM     14  C   UNL A   1      40.811  26.331  28.234  1.00  0.00     0.074 A 
ATOM     15  C   UNL A   1      41.711  28.563  29.324  1.00  0.00     0.049 A 
ATOM     16  N   UNL A   1      41.375  25.298  28.787  1.00  0.00    -0.248 NA
ATOM     17  C   UNL A   1      39.955  25.925  27.086  1.00  0.00     0.031 C 
ATOM     18  C   UNL A   1      41.518  29.978  29.702  1.00  0.00     0.029 A 
ATOM     19  N   UNL A   1      42.998  28.332  29.779  1.00  0.00    -0.354 N 
ATOM     20  C   UNL A   1      41.152  24.201  27.919  1.00  0.00     0.074 A 
ATOM     21  C   UNL A   1      40.121  24.603  27.015  1.00  0.00     0.031 C 
ATOM     22  C   UNL A   1      42.594  30.449  30.370  1.00  0.00     0.029 A 
ATOM     23  C   UNL A   1      43.602  29.407  30.476  1.00  0.00     0.049 A 
ATOM     24  H   UNL A   1      43.463  27.478  29.626  1.00  0.00     0.167 HD
ATOM     25  C   UNL A   1      41.971  23.108  27.873  1.00  0.00     0.034 A 
ATOM     26  C   UNL A   1      44.811  29.461  31.124  1.00  0.00     0.034 A 
ATOM     27  C   UNL A   1      43.059  23.302  28.775  1.00  0.00     0.049 A 
ATOM     28  C   UNL A   1      45.491  28.190  30.838  1.00  0.00     0.074 A 
ATOM     29  C   UNL A   1      43.205  23.240  30.134  1.00  0.00     0.029 A 
ATOM     30  N   UNL A   1      44.160  23.909  28.220  1.00  0.00    -0.354 N 
ATOM     31  N   UNL A   1      46.034  27.884  29.698  1.00  0.00    -0.248 NA
ATOM     32  C   UNL A   1      45.519  27.148  31.874  1.00  0.00     0.031 C 
ATOM     33  C   UNL A   1      44.255  24.142  30.405  1.00  0.00     0.029 A 
ATOM     34  C   UNL A   1      44.776  24.634  29.202  1.00  0.00     0.049 A 
ATOM     35  H   UNL A   1      44.452  23.834  27.284  1.00  0.00     0.167 HD
ATOM     36  C   UNL A   1      46.115  26.516  29.782  1.00  0.00     0.074 A 
ATOM     37  C   UNL A   1      46.139  26.192  31.189  1.00  0.00     0.031 C 
ATOM     38  C   UNL A   1      45.576  25.765  28.789  1.00  0.00     0.034 A 
BRANCH  25  39
ATOM     39  C   UNL A   1      42.137  21.957  26.898  1.00  0.00     0.023 A 
ATOM     40  C   UNL A   1      41.122  20.955  26.970  1.00  0.00     0.012 A 
ATOM     41  C   UNL A   1      43.290  21.634  26.164  1.00  0.00     0.148 A 
ATOM     42  C   UNL A   1      41.299  19.664  26.480  1.00  0.00     0.002 A 
ATOM     43  C   UNL A   1      43.437  20.354  25.616  1.00  0.00     0.091 A 
ATOM     44  F   UNL A   1      44.285  22.519  26.062  1.00  0.00    -0.205 F 
ATOM     45  C   UNL A   1      42.469  19.358  25.813  1.00  0.00     0.022 A 
BRANCH  43  46
ATOM     46  S   UNL A   1      44.864  19.886  24.629  1.00  0.00     0.127 S 
ATOM     47  O   UNL A   1      44.671  18.461  24.458  1.00  0.00    -0.237 OA
ATOM     48  O   UNL A   1      44.670  20.682  23.412  1.00  0.00    -0.237 OA
ATOM     49  O   UNL A   1      46.026  20.308  25.418  1.00  0.00    -0.744 OA
ENDBRANCH  43  46
ENDBRANCH  25  39
BRANCH  26  50
ATOM     50  C   UNL A   1      45.527  30.411  32.066  1.00  0.00     0.023 A 
ATOM     51  C   UNL A   1      45.202  30.572  33.420  1.00  0.00     0.012 A 
ATOM     52  C   UNL A   1      46.655  31.165  31.612  1.00  0.00     0.148 A 
ATOM     53  C   UNL A   1      46.007  31.346  34.283  1.00  0.00     0.002 A 
ATOM     54  C   UNL A   1      47.515  31.826  32.481  1.00  0.00     0.091 A 
ATOM     55  F   UNL A   1      46.891  31.290  30.303  1.00  0.00    -0.205 F 
ATOM     56  C   UNL A   1      47.186  31.933  33.827  1.00  0.00     0.022 A 
BRANCH  54  57
ATOM     57  S   UNL A   1      49.129  32.432  31.946  1.00  0.00     0.127 S 
ATOM     58  O   UNL A   1      48.772  33.564  31.094  1.00  0.00    -0.237 OA
ATOM     59  O   UNL A   1      49.741  32.794  33.225  1.00  0.00    -0.237 OA
ATOM     60  O   UNL A   1      49.780  31.323  31.261  1.00  0.00    -0.744 OA
ENDBRANCH  54  57
ENDBRANCH  26  50
BRANCH  38  61
ATOM     61  C   UNL A   1      45.558  26.455  27.425  1.00  0.00     0.023 A 
ATOM     62  C   UNL A   1      44.310  26.864  26.918  1.00  0.00     0.012 A 
ATOM     63  C   UNL A   1      46.678  26.593  26.571  1.00  0.00     0.148 A 
ATOM     64  C   UNL A   1      44.175  27.369  25.621  1.00  0.00     0.002 A 
ATOM     65  C   UNL A   1      46.545  27.084  25.270  1.00  0.00     0.091 A 
ATOM     66  F   UNL A   1      47.872  26.233  27.034  1.00  0.00    -0.205 F 
ATOM     67  C   UNL A   1      45.289  27.477  24.796  1.00  0.00     0.022 A 
BRANCH  65  68
ATOM     68  S   UNL A   1      47.907  27.187  24.087  1.00  0.00     0.127 S 
ATOM     69  O   UNL A   1      48.141  25.782  23.752  1.00  0.00    -0.237 OA
ATOM     70  O   UNL A   1      47.317  27.971  23.008  1.00  0.00    -0.237 OA
ATOM     71  O   UNL A   1      49.020  27.823  24.787  1.00  0.00    -0.744 OA
ENDBRANCH  65  68
ENDBRANCH  38  61
ENDBRANCH  12  13
ENDBRANCH   5   7
ENDBRANCH   2   3
ENDBRANCH   1   2
BRANCH   1  72
ATOM     72  C   UNL A   1      32.932  29.177  25.003  1.00  0.00     0.023 C 
BRANCH  72  73
ATOM     73  C   UNL A   1      32.351  28.802  23.636  1.00  0.00     0.116 C 
BRANCH  73  74
ATOM     74  N   UNL A   1      33.232  27.988  22.815  1.00  0.00    -0.351 N 
ATOM     75  C   UNL A   1      33.085  26.684  22.423  1.00  0.00     0.284 C 
ATOM     76  H   UNL A   1      34.050  28.436  22.497  1.00  0.00     0.163 HD
ATOM     77  O   UNL A   1      33.618  26.327  21.367  1.00  0.00    -0.268 OA
BRANCH  75  78
ATOM     78  C   UNL A   1      32.407  25.674  23.363  1.00  0.00     0.328 C 
ATOM     79  C   UNL A   1      33.553  24.796  23.928  1.00  0.00     0.339 C 
ATOM     80  N   UNL A   1      31.384  24.869  22.642  1.00  0.00    -0.327 N 
ATOM     81  N   UNL A   1      33.138  23.621  24.688  1.00  0.00    -0.318 N 
ATOM     82  C   UNL A   1      30.892  23.808  23.544  1.00  0.00     0.323 C 
ATOM     83  H   UNL A   1      31.802  24.446  21.812  1.00  0.00     0.347 HD
ATOM     84  H   UNL A   1      30.610  25.467  22.354  1.00  0.00     0.347 HD
ATOM     85  C   UNL A   1      31.999  22.900  24.135  1.00  0.00     0.324 C 
ATOM     86  H   UNL A   1      33.880  22.948  24.495  1.00  0.00     0.348 HD
BRANCH  81  87
ATOM     87  C   UNL A   1      33.384  23.603  26.131  1.00  0.00     0.346 C 
BRANCH  87  88
ATOM     88  C   UNL A   1      34.320  22.499  26.632  1.00  0.00     0.232 C 
ATOM     89  O   UNL A   1      34.072  21.901  27.683  1.00  0.00    -0.286 OA
BRANCH  88  90
ATOM     90  C   UNL A   1      35.516  22.189  25.874  1.00  0.00     0.088 A 
ATOM     91  C   UNL A   1      35.685  21.602  24.638  1.00  0.00     0.031 A 
ATOM     92  N   UNL A   1      36.781  22.470  26.341  1.00  0.00    -0.359 N 
ATOM     93  C   UNL A   1      37.045  21.725  24.272  1.00  0.00     0.020 A 
ATOM     94  C   UNL A   1      37.703  22.264  25.351  1.00  0.00     0.083 A 
ATOM     95  H   UNL A   1      36.991  22.775  27.253  1.00  0.00     0.166 HD
ENDBRANCH  88  90
ENDBRANCH  87  88
ENDBRANCH  81  87
ENDBRANCH  75  78
ENDBRANCH  73  74
ENDBRANCH  72  73
ENDBRANCH   1  72
TORSDOF 17
ENDMDL
MODEL 2
REMARK VINA RESULT:     -11.5      4.692     11.087
REMARK SMILES O=C(NCCCCNC(=O)[C@@H]1C[N@@H+](CC(=O)c2ccc[nH]2)CC[NH2+]1)c1ccc(-c2c3nc(c(-c4cccc(S(=O)(=O)[O-])c4F)c4ccc([nH]4)c(-c4cccc(S(=O)(=O)[O-])c4F)c4nc(c(-c5cccc(S(=O)(=O)[O-])c5F)c5ccc2[nH]5)C=C4)C=C3)cc1
REMARK SMILES IDX 5 1 4 2 3 3 1 4 2 5 25 7 26 8 87 9 27 10 86 11 28 12 29 13
REMARK SMILES IDX 30 14 80 15 31 16 85 17 79 18 81 19 32 20 84 21 78 22 77 23
REMARK SMILES IDX 33 25 65 26 45 27 64 28 46 29 49 30 63 31 82 32 47 33 48 34
REMARK SMILES IDX 62 36 83 37 50 38 34 39 35 40 43 41 36 42 38 43 44 44 37 45
REMARK SMILES IDX 39 46 40 47 41 48 42 49 66 50 67 51 75 52 68 53 70 54 76 55
REMARK SMILES IDX 69 56 71 57 72 58 73 59 74 60 51 61 52 62 60 63 53 64 55 65
REMARK SMILES IDX 61 66 54 67 56 68 57 69 58 70 59 71 6 72 7 73 8 74 9 75
REMARK SMILES IDX 10 77 11 78 12 79 24 80 13 81 23 82 22 85 14 87 15 88 16 89
REMARK SMILES IDX 17 90 18 91 21 92 19 93 20 94
REMARK H PARENT 3 6 81 24 49 35 8 76 24 83 24 84 13 86 21 95
REMARK Flexibility Score: inf
ROOT
ATOM      1  C   UNL A   1      42.048  21.634  27.670  1.00  0.00     0.023 C 
ENDROOT
BRANCH   1   2
ATOM      2  C   UNL A   1      41.088  22.719  28.179  1.00  0.00     0.116 C 
BRANCH   2   3
ATOM      3  N   UNL A   1      39.917  23.001  27.371  1.00  0.00    -0.352 N 
ATOM      4  O   UNL A   1      38.510  24.109  26.046  1.00  0.00    -0.269 OA
ATOM      5  C   UNL A   1      39.313  24.173  26.977  1.00  0.00     0.251 C 
ATOM      6  H   UNL A   1      39.464  22.193  27.036  1.00  0.00     0.163 HD
BRANCH   5   7
ATOM      7  C   UNL A   1      39.513  25.455  27.696  1.00  0.00     0.039 A 
ATOM      8  C   UNL A   1      39.151  25.652  29.029  1.00  0.00     0.014 A 
ATOM      9  C   UNL A   1      40.066  26.521  26.968  1.00  0.00     0.014 A 
ATOM     10  C   UNL A   1      39.192  26.925  29.580  1.00  0.00     0.010 A 
ATOM     11  C   UNL A   1      40.157  27.793  27.533  1.00  0.00     0.010 A 
ATOM     12  C   UNL A   1      39.688  28.000  28.833  1.00  0.00    -0.014 A 
BRANCH  12  13
ATOM     13  C   UNL A   1      39.901  29.274  29.559  1.00  0.00     0.031 A 
ATOM     14  C   UNL A   1      38.723  30.232  29.330  1.00  0.00     0.074 A 
ATOM     15  C   UNL A   1      41.093  29.457  30.203  1.00  0.00     0.049 A 
ATOM     16  N   UNL A   1      38.722  31.512  29.099  1.00  0.00    -0.248 NA
ATOM     17  C   UNL A   1      37.361  29.656  29.162  1.00  0.00     0.031 C 
ATOM     18  C   UNL A   1      42.134  28.418  30.344  1.00  0.00     0.029 A 
ATOM     19  N   UNL A   1      41.683  30.525  30.855  1.00  0.00    -0.354 N 
ATOM     20  C   UNL A   1      37.365  31.909  29.019  1.00  0.00     0.074 A 
ATOM     21  C   UNL A   1      36.601  30.712  28.865  1.00  0.00     0.031 C 
ATOM     22  C   UNL A   1      43.228  28.914  30.965  1.00  0.00     0.029 A 
ATOM     23  C   UNL A   1      43.007  30.308  31.312  1.00  0.00     0.049 A 
ATOM     24  H   UNL A   1      41.213  31.379  30.995  1.00  0.00     0.167 HD
ATOM     25  C   UNL A   1      36.944  33.181  29.286  1.00  0.00     0.034 A 
ATOM     26  C   UNL A   1      43.885  31.184  31.899  1.00  0.00     0.034 A 
ATOM     27  C   UNL A   1      38.062  33.968  29.692  1.00  0.00     0.049 A 
ATOM     28  C   UNL A   1      43.137  32.427  32.129  1.00  0.00     0.074 A 
ATOM     29  C   UNL A   1      39.115  34.551  29.041  1.00  0.00     0.029 A 
ATOM     30  N   UNL A   1      38.299  33.969  31.046  1.00  0.00    -0.354 N 
ATOM     31  N   UNL A   1      42.242  32.590  33.058  1.00  0.00    -0.248 NA
ATOM     32  C   UNL A   1      43.348  33.565  31.223  1.00  0.00     0.031 C 
ATOM     33  C   UNL A   1      40.140  34.579  30.009  1.00  0.00     0.029 A 
ATOM     34  C   UNL A   1      39.645  34.113  31.234  1.00  0.00     0.049 A 
ATOM     35  H   UNL A   1      37.620  33.881  31.753  1.00  0.00     0.167 HD
ATOM     36  C   UNL A   1      41.551  33.682  32.596  1.00  0.00     0.074 A 
ATOM     37  C   UNL A   1      42.455  34.407  31.735  1.00  0.00     0.031 C 
ATOM     38  C   UNL A   1      40.203  33.597  32.464  1.00  0.00     0.034 A 
BRANCH  25  39
ATOM     39  C   UNL A   1      35.586  33.808  29.542  1.00  0.00     0.023 A 
ATOM     40  C   UNL A   1      34.957  34.374  28.391  1.00  0.00     0.012 A 
ATOM     41  C   UNL A   1      35.032  34.140  30.789  1.00  0.00     0.148 A 
ATOM     42  C   UNL A   1      33.945  35.327  28.476  1.00  0.00     0.002 A 
ATOM     43  C   UNL A   1      33.970  35.049  30.866  1.00  0.00     0.091 A 
ATOM     44  F   UNL A   1      35.574  33.654  31.910  1.00  0.00    -0.205 F 
ATOM     45  C   UNL A   1      33.460  35.677  29.720  1.00  0.00     0.022 A 
BRANCH  43  46
ATOM     46  S   UNL A   1      33.184  35.484  32.423  1.00  0.00     0.127 S 
ATOM     47  O   UNL A   1      32.106  36.352  31.996  1.00  0.00    -0.237 OA
ATOM     48  O   UNL A   1      32.757  34.175  32.928  1.00  0.00    -0.237 OA
ATOM     49  O   UNL A   1      34.248  36.096  33.226  1.00  0.00    -0.744 OA
ENDBRANCH  43  46
ENDBRANCH  25  39
BRANCH  26  50
ATOM     50  C   UNL A   1      45.357  31.206  32.264  1.00  0.00     0.023 A 
ATOM     51  C   UNL A   1      45.844  31.202  33.578  1.00  0.00     0.012 A 
ATOM     52  C   UNL A   1      46.356  31.162  31.240  1.00  0.00     0.148 A 
ATOM     53  C   UNL A   1      47.221  31.058  33.853  1.00  0.00     0.002 A 
ATOM     54  C   UNL A   1      47.694  30.899  31.508  1.00  0.00     0.091 A 
ATOM     55  F   UNL A   1      46.024  31.421  29.972  1.00  0.00    -0.205 F 
ATOM     56  C   UNL A   1      48.139  30.859  32.824  1.00  0.00     0.022 A 
BRANCH  54  57
ATOM     57  S   UNL A   1      48.858  30.458  30.200  1.00  0.00     0.127 S 
ATOM     58  O   UNL A   1      50.129  30.939  30.737  1.00  0.00    -0.237 OA
ATOM     59  O   UNL A   1      48.718  29.001  30.166  1.00  0.00    -0.237 OA
ATOM     60  O   UNL A   1      48.400  31.133  28.993  1.00  0.00    -0.744 OA
ENDBRANCH  54  57
ENDBRANCH  26  50
BRANCH  38  61
ATOM     61  C   UNL A   1      39.542  32.619  33.434  1.00  0.00     0.023 A 
ATOM     62  C   UNL A   1      39.111  31.381  32.919  1.00  0.00     0.012 A 
ATOM     63  C   UNL A   1      39.205  32.911  34.777  1.00  0.00     0.148 A 
ATOM     64  C   UNL A   1      38.367  30.483  33.692  1.00  0.00     0.002 A 
ATOM     65  C   UNL A   1      38.450  32.024  35.548  1.00  0.00     0.091 A 
ATOM     66  F   UNL A   1      39.618  34.065  35.294  1.00  0.00    -0.205 F 
ATOM     67  C   UNL A   1      38.034  30.804  35.003  1.00  0.00     0.022 A 
BRANCH  65  68
ATOM     68  S   UNL A   1      37.890  32.373  37.230  1.00  0.00     0.127 S 
ATOM     69  O   UNL A   1      37.509  31.047  37.717  1.00  0.00    -0.237 OA
ATOM     70  O   UNL A   1      39.095  32.915  37.848  1.00  0.00    -0.237 OA
ATOM     71  O   UNL A   1      36.773  33.305  37.113  1.00  0.00    -0.744 OA
ENDBRANCH  65  68
ENDBRANCH  38  61
ENDBRANCH  12  13
ENDBRANCH   5   7
ENDBRANCH   2   3
ENDBRANCH   1   2
BRANCH   1  72
ATOM     72  C   UNL A   1      41.414  20.314  27.208  1.00  0.00     0.023 C 
BRANCH  72  73
ATOM     73  C   UNL A   1      42.381  19.125  27.197  1.00  0.00     0.116 C 
BRANCH  73  74
ATOM     74  N   UNL A   1      42.841  18.740  25.872  1.00  0.00    -0.351 N 
ATOM     75  C   UNL A   1      43.959  19.149  25.195  1.00  0.00     0.284 C 
ATOM     76  H   UNL A   1      42.268  18.096  25.395  1.00  0.00     0.163 HD
ATOM     77  O   UNL A   1      44.449  18.383  24.360  1.00  0.00    -0.268 OA
BRANCH  75  78
ATOM     78  C   UNL A   1      44.478  20.586  25.371  1.00  0.00     0.328 C 
ATOM     79  C   UNL A   1      43.557  21.472  24.491  1.00  0.00     0.339 C 
ATOM     80  N   UNL A   1      45.908  20.694  24.976  1.00  0.00    -0.327 N 
ATOM     81  N   UNL A   1      43.981  22.858  24.325  1.00  0.00    -0.318 N 
ATOM     82  C   UNL A   1      46.301  22.117  25.002  1.00  0.00     0.323 C 
ATOM     83  H   UNL A   1      46.034  20.321  24.035  1.00  0.00     0.347 HD
ATOM     84  H   UNL A   1      46.489  20.162  25.624  1.00  0.00     0.347 HD
ATOM     85  C   UNL A   1      45.413  23.047  24.136  1.00  0.00     0.324 C 
ATOM     86  H   UNL A   1      43.650  23.088  23.388  1.00  0.00     0.348 HD
BRANCH  81  87
ATOM     87  C   UNL A   1      43.182  23.910  24.956  1.00  0.00     0.346 C 
BRANCH  87  88
ATOM     88  C   UNL A   1      43.973  24.983  25.712  1.00  0.00     0.232 C 
ATOM     89  O   UNL A   1      44.545  25.885  25.094  1.00  0.00    -0.286 OA
BRANCH  88  90
ATOM     90  C   UNL A   1      44.068  24.904  27.155  1.00  0.00     0.088 A 
ATOM     91  C   UNL A   1      43.448  25.630  28.151  1.00  0.00     0.031 A 
ATOM     92  N   UNL A   1      44.882  23.994  27.794  1.00  0.00    -0.359 N 
ATOM     93  C   UNL A   1      43.731  25.010  29.390  1.00  0.00     0.020 A 
ATOM     94  C   UNL A   1      44.627  24.000  29.139  1.00  0.00     0.083 A 
ATOM     95  H   UNL A   1      45.548  23.423  27.349  1.00  0.00     0.166 HD
ENDBRANCH  88  90
ENDBRANCH  87  88
ENDBRANCH  81  87
ENDBRANCH  75  78
ENDBRANCH  73  74
ENDBRANCH  72  73
ENDBRANCH   1  72
TORSDOF 17
ENDMDL
MODEL 3
REMARK VINA RESULT:     -11.5      2.066      2.516
REMARK SMILES O=C(NCCCCNC(=O)[C@@H]1C[N@@H+](CC(=O)c2ccc[nH]2)CC[NH2+]1)c1ccc(-c2c3nc(c(-c4cccc(S(=O)(=O)[O-])c4F)c4ccc([nH]4)c(-c4cccc(S(=O)(=O)[O-])c4F)c4nc(c(-c5cccc(S(=O)(=O)[O-])c5F)c5ccc2[nH]5)C=C4)C=C3)cc1
REMARK SMILES IDX 5 1 4 2 3 3 1 4 2 5 25 7 26 8 87 9 27 10 86 11 28 12 29 13
REMARK SMILES IDX 30 14 80 15 31 16 85 17 79 18 81 19 32 20 84 21 78 22 77 23
REMARK SMILES IDX 33 25 65 26 45 27 64 28 46 29 49 30 63 31 82 32 47 33 48 34
REMARK SMILES IDX 62 36 83 37 50 38 34 39 35 40 43 41 36 42 38 43 44 44 37 45
REMARK SMILES IDX 39 46 40 47 41 48 42 49 66 50 67 51 75 52 68 53 70 54 76 55
REMARK SMILES IDX 69 56 71 57 72 58 73 59 74 60 51 61 52 62 60 63 53 64 55 65
REMARK SMILES IDX 61 66 54 67 56 68 57 69 58 70 59 71 6 72 7 73 8 74 9 75
REMARK SMILES IDX 10 77 11 78 12 79 24 80 13 81 23 82 22 85 14 87 15 88 16 89
REMARK SMILES IDX 17 90 18 91 21 92 19 93 20 94
REMARK H PARENT 3 6 81 24 49 35 8 76 24 83 24 84 13 86 21 95
REMARK Flexibility Score: inf
ROOT
ATOM      1  C   UNL A   1      33.859  28.669  25.601  1.00  0.00     0.023 C 
ENDROOT
BRANCH   1   2
ATOM      2  C   UNL A   1      34.637  28.446  26.906  1.00  0.00     0.116 C 
BRANCH   2   3
ATOM      3  N   UNL A   1      34.658  29.538  27.860  1.00  0.00    -0.352 N 
ATOM      4  O   UNL A   1      35.403  31.299  29.004  1.00  0.00    -0.269 OA
ATOM      5  C   UNL A   1      35.682  30.225  28.473  1.00  0.00     0.251 C 
ATOM      6  H   UNL A   1      33.762  29.853  28.122  1.00  0.00     0.163 HD
BRANCH   5   7
ATOM      7  C   UNL A   1      37.051  29.667  28.604  1.00  0.00     0.039 A 
ATOM      8  C   UNL A   1      38.038  29.820  27.631  1.00  0.00     0.014 A 
ATOM      9  C   UNL A   1      37.333  28.922  29.761  1.00  0.00     0.014 A 
ATOM     10  C   UNL A   1      39.230  29.116  27.732  1.00  0.00     0.010 A 
ATOM     11  C   UNL A   1      38.550  28.253  29.892  1.00  0.00     0.010 A 
ATOM     12  C   UNL A   1      39.487  28.326  28.859  1.00  0.00    -0.014 A 
BRANCH  12  13
ATOM     13  C   UNL A   1      40.859  27.784  28.993  1.00  0.00     0.031 A 
ATOM     14  C   UNL A   1      40.916  26.326  28.513  1.00  0.00     0.074 A 
ATOM     15  C   UNL A   1      41.805  28.567  29.594  1.00  0.00     0.049 A 
ATOM     16  N   UNL A   1      41.526  25.301  29.031  1.00  0.00    -0.248 NA
ATOM     17  C   UNL A   1      40.028  25.912  27.393  1.00  0.00     0.031 C 
ATOM     18  C   UNL A   1      41.593  29.973  29.996  1.00  0.00     0.029 A 
ATOM     19  N   UNL A   1      43.113  28.363  29.997  1.00  0.00    -0.354 N 
ATOM     20  C   UNL A   1      41.296  24.208  28.159  1.00  0.00     0.074 A 
ATOM     21  C   UNL A   1      40.222  24.595  27.301  1.00  0.00     0.031 C 
ATOM     22  C   UNL A   1      42.682  30.463  30.628  1.00  0.00     0.029 A 
ATOM     23  C   UNL A   1      43.718  29.445  30.683  1.00  0.00     0.049 A 
ATOM     24  H   UNL A   1      43.592  27.522  29.816  1.00  0.00     0.167 HD
ATOM     25  C   UNL A   1      42.139  23.136  28.070  1.00  0.00     0.034 A 
ATOM     26  C   UNL A   1      44.949  29.521  31.285  1.00  0.00     0.034 A 
ATOM     27  C   UNL A   1      43.255  23.347  28.932  1.00  0.00     0.049 A 
ATOM     28  C   UNL A   1      45.647  28.270  30.959  1.00  0.00     0.074 A 
ATOM     29  C   UNL A   1      43.455  23.274  30.283  1.00  0.00     0.029 A 
ATOM     30  N   UNL A   1      44.320  23.986  28.343  1.00  0.00    -0.354 N 
ATOM     31  N   UNL A   1      46.154  27.989  29.795  1.00  0.00    -0.248 NA
ATOM     32  C   UNL A   1      45.740  27.218  31.980  1.00  0.00     0.031 C 
ATOM     33  C   UNL A   1      44.493  24.198  30.525  1.00  0.00     0.029 A 
ATOM     34  C   UNL A   1      44.956  24.716  29.308  1.00  0.00     0.049 A 
ATOM     35  H   UNL A   1      44.578  23.929  27.395  1.00  0.00     0.167 HD
ATOM     36  C   UNL A   1      46.270  26.623  29.860  1.00  0.00     0.074 A 
ATOM     37  C   UNL A   1      46.356  26.284  31.260  1.00  0.00     0.031 C 
ATOM     38  C   UNL A   1      45.711  25.870  28.879  1.00  0.00     0.034 A 
BRANCH  25  39
ATOM     39  C   UNL A   1      42.295  22.001  27.075  1.00  0.00     0.023 A 
ATOM     40  C   UNL A   1      41.389  20.912  27.257  1.00  0.00     0.012 A 
ATOM     41  C   UNL A   1      43.381  21.779  26.213  1.00  0.00     0.148 A 
ATOM     42  C   UNL A   1      41.624  19.640  26.743  1.00  0.00     0.002 A 
ATOM     43  C   UNL A   1      43.578  20.515  25.644  1.00  0.00     0.091 A 
ATOM     44  F   UNL A   1      44.274  22.749  26.002  1.00  0.00    -0.205 F 
ATOM     45  C   UNL A   1      42.732  19.437  25.945  1.00  0.00     0.022 A 
BRANCH  43  46
ATOM     46  S   UNL A   1      44.919  20.172  24.498  1.00  0.00     0.127 S 
ATOM     47  O   UNL A   1      44.636  21.083  23.407  1.00  0.00    -0.237 OA
ATOM     48  O   UNL A   1      46.101  20.516  25.295  1.00  0.00    -0.237 OA
ATOM     49  O   UNL A   1      44.812  18.739  24.208  1.00  0.00    -0.744 OA
ENDBRANCH  43  46
ENDBRANCH  25  39
BRANCH  26  50
ATOM     50  C   UNL A   1      45.677  30.477  32.210  1.00  0.00     0.023 A 
ATOM     51  C   UNL A   1      46.937  31.029  31.940  1.00  0.00     0.012 A 
ATOM     52  C   UNL A   1      45.056  30.930  33.417  1.00  0.00     0.148 A 
ATOM     53  C   UNL A   1      47.491  32.037  32.758  1.00  0.00     0.002 A 
ATOM     54  C   UNL A   1      45.541  32.004  34.153  1.00  0.00     0.091 A 
ATOM     55  F   UNL A   1      43.990  30.286  33.900  1.00  0.00    -0.205 F 
ATOM     56  C   UNL A   1      46.775  32.558  33.834  1.00  0.00     0.022 A 
BRANCH  54  57
ATOM     57  S   UNL A   1      44.549  32.808  35.430  1.00  0.00     0.127 S 
ATOM     58  O   UNL A   1      43.290  33.064  34.734  1.00  0.00    -0.237 OA
ATOM     59  O   UNL A   1      44.486  31.761  36.450  1.00  0.00    -0.237 OA
ATOM     60  O   UNL A   1      45.284  33.999  35.836  1.00  0.00    -0.744 OA
ENDBRANCH  54  57
ENDBRANCH  26  50
BRANCH  38  61
ATOM     61  C   UNL A   1      45.626  26.574  27.525  1.00  0.00     0.023 A 
ATOM     62  C   UNL A   1      44.359  27.024  27.104  1.00  0.00     0.012 A 
ATOM     63  C   UNL A   1      46.691  26.689  26.601  1.00  0.00     0.148 A 
ATOM     64  C   UNL A   1      44.154  27.546  25.823  1.00  0.00     0.002 A 
ATOM     65  C   UNL A   1      46.488  27.197  25.315  1.00  0.00     0.091 A 
ATOM     66  F   UNL A   1      47.901  26.291  26.982  1.00  0.00    -0.205 F 
ATOM     67  C   UNL A   1      45.216  27.630  24.928  1.00  0.00     0.022 A 
BRANCH  65  68
ATOM     68  S   UNL A   1      47.772  27.274  24.047  1.00  0.00     0.127 S 
ATOM     69  O   UNL A   1      48.867  27.946  24.748  1.00  0.00    -0.237 OA
ATOM     70  O   UNL A   1      48.014  25.863  23.769  1.00  0.00    -0.237 OA
ATOM     71  O   UNL A   1      47.218  28.045  22.938  1.00  0.00    -0.744 OA
ENDBRANCH  65  68
ENDBRANCH  38  61
ENDBRANCH  12  13
ENDBRANCH   5   7
ENDBRANCH   2   3
ENDBRANCH   1   2
BRANCH   1  72
ATOM     72  C   UNL A   1      32.467  28.029  25.510  1.00  0.00     0.023 C 
BRANCH  72  73
ATOM     73  C   UNL A   1      32.483  26.545  25.128  1.00  0.00     0.116 C 
BRANCH  73  74
ATOM     74  N   UNL A   1      32.730  26.293  23.718  1.00  0.00    -0.351 N 
ATOM     75  C   UNL A   1      33.145  25.138  23.109  1.00  0.00     0.284 C 
ATOM     76  H   UNL A   1      32.581  27.059  23.118  1.00  0.00     0.163 HD
ATOM     77  O   UNL A   1      32.821  24.949  21.932  1.00  0.00    -0.268 OA
BRANCH  75  78
ATOM     78  C   UNL A   1      34.116  24.194  23.837  1.00  0.00     0.328 C 
ATOM     79  C   UNL A   1      33.232  23.066  24.432  1.00  0.00     0.339 C 
ATOM     80  N   UNL A   1      34.888  24.916  24.883  1.00  0.00    -0.327 N 
ATOM     81  N   UNL A   1      33.903  22.154  25.353  1.00  0.00    -0.318 N 
ATOM     82  C   UNL A   1      35.671  23.934  25.658  1.00  0.00     0.323 C 
ATOM     83  H   UNL A   1      34.245  25.409  25.505  1.00  0.00     0.347 HD
ATOM     84  H   UNL A   1      35.513  25.594  24.449  1.00  0.00     0.347 HD
ATOM     85  C   UNL A   1      34.835  22.785  26.277  1.00  0.00     0.324 C 
ATOM     86  H   UNL A   1      33.160  21.897  26.003  1.00  0.00     0.348 HD
BRANCH  81  87
ATOM     87  C   UNL A   1      34.121  20.770  24.926  1.00  0.00     0.346 C 
BRANCH  87  88
ATOM     88  C   UNL A   1      32.901  19.848  25.014  1.00  0.00     0.232 C 
ATOM     89  O   UNL A   1      31.781  20.316  25.242  1.00  0.00    -0.286 OA
BRANCH  88  90
ATOM     90  C   UNL A   1      33.083  18.419  24.859  1.00  0.00     0.088 A 
ATOM     91  C   UNL A   1      33.159  17.626  23.733  1.00  0.00     0.031 A 
ATOM     92  N   UNL A   1      33.218  17.570  25.935  1.00  0.00    -0.359 N 
ATOM     93  C   UNL A   1      33.553  16.328  24.133  1.00  0.00     0.020 A 
ATOM     94  C   UNL A   1      33.577  16.320  25.506  1.00  0.00     0.083 A 
ATOM     95  H   UNL A   1      33.077  17.823  26.876  1.00  0.00     0.166 HD
ENDBRANCH  88  90
ENDBRANCH  87  88
ENDBRANCH  81  87
ENDBRANCH  75  78
ENDBRANCH  73  74
ENDBRANCH  72  73
ENDBRANCH   1  72
TORSDOF 17
ENDMDL
