MODEL 1
REMARK VINA RESULT:     -12.6      0.000      0.000
REMARK SMILES Cc1ccc(S(=O)(=O)Nc2ccccc2/C=C/C(=O)NCCCCNC(=O)c2ccc(-c3c4nc(c(-c5cccc(S(=O)(=O)[O-])c5F)c5ccc([nH]5)c(-c5cccc(S(=O)(=O)[O-])c5F)c5nc(c(-c6cccc(S(=O)(=O)[O-])c6F)c6ccc3[nH]6)C=C5)C=C4)cc2)cc1
REMARK SMILES IDX 22 1 21 2 20 3 18 4 19 5 17 7 16 8 15 9 10 10 11 11 12 12
REMARK SMILES IDX 14 13 13 14 9 15 6 17 7 18 8 19 5 20 1 21 2 22 3 23 92 24
REMARK SMILES IDX 4 25 91 26 23 27 24 28 25 29 26 30 27 32 28 33 29 34 90 35
REMARK SMILES IDX 30 36 89 37 31 38 32 39 33 40 83 41 34 42 88 43 82 44 84 45
REMARK SMILES IDX 35 46 87 47 81 48 80 49 36 51 68 52 48 53 67 54 49 55 52 56
REMARK SMILES IDX 66 57 85 58 50 59 51 60 65 62 86 63 53 64 37 65 38 66 46 67
REMARK SMILES IDX 39 68 41 69 47 70 40 71 42 72 43 73 44 74 45 75 69 76 70 77
REMARK SMILES IDX 78 78 71 79 73 80 79 81 72 82 74 83 75 84 76 85 77 86 54 87
REMARK SMILES IDX 55 88 63 89 56 90 58 91 64 92 57 93 59 94 60 95 61 96 62 97
REMARK H PARENT 20 6 9 16 25 31 84 50 52 61
REMARK Flexibility Score: inf
ROOT
ATOM      1  C   UNL A   1      34.056  28.439  26.431  1.00  0.00     0.023 C 
ENDROOT
BRANCH   1   2
ATOM      2  C   UNL A   1      33.052  27.362  25.992  1.00  0.00     0.116 C 
BRANCH   2   3
ATOM      3  N   UNL A   1      33.075  27.143  24.554  1.00  0.00    -0.353 N 
ATOM      4  C   UNL A   1      33.662  26.176  23.804  1.00  0.00     0.244 C 
ATOM      5  O   UNL A   1      33.448  26.127  22.594  1.00  0.00    -0.270 OA
ATOM      6  H   UNL A   1      32.579  27.814  24.033  1.00  0.00     0.163 HD
BRANCH   4   7
ATOM      7  C   UNL A   1      34.561  25.160  24.396  1.00  0.00     0.072 C 
ATOM      8  C   UNL A   1      34.939  24.055  23.742  1.00  0.00     0.016 C 
BRANCH   8   9
ATOM      9  C   UNL A   1      35.591  22.882  24.332  1.00  0.00    -0.001 A 
ATOM     10  C   UNL A   1      34.910  21.662  24.513  1.00  0.00     0.056 A 
ATOM     11  C   UNL A   1      35.621  20.515  24.875  1.00  0.00     0.027 A 
ATOM     12  C   UNL A   1      37.006  20.577  25.057  1.00  0.00     0.002 A 
ATOM     13  C   UNL A   1      36.981  22.929  24.509  1.00  0.00     0.010 A 
ATOM     14  C   UNL A   1      37.684  21.781  24.873  1.00  0.00     0.001 A 
BRANCH  10  15
ATOM     15  N   UNL A   1      33.517  21.558  24.220  1.00  0.00    -0.279 N 
ATOM     16  H   UNL A   1      33.234  21.328  23.305  1.00  0.00     0.180 HD
BRANCH  15  17
ATOM     17  S   UNL A   1      32.343  21.816  25.408  1.00  0.00     0.261 S 
ATOM     18  O   UNL A   1      33.102  22.199  26.588  1.00  0.00    -0.201 OA
ATOM     19  O   UNL A   1      31.460  20.674  25.442  1.00  0.00    -0.201 OA
BRANCH  17  20
ATOM     20  C   UNL A   1      31.352  23.224  24.935  1.00  0.00     0.087 A 
ATOM     21  C   UNL A   1      29.017  26.688  23.869  1.00  0.00     0.044 C 
ATOM     22  C   UNL A   1      29.843  25.487  24.230  1.00  0.00    -0.051 A 
ATOM     23  C   UNL A   1      30.323  24.615  23.240  1.00  0.00     0.005 A 
ATOM     24  C   UNL A   1      30.167  25.240  25.568  1.00  0.00     0.005 A 
ATOM     25  C   UNL A   1      31.054  23.471  23.590  1.00  0.00     0.022 A 
ATOM     26  C   UNL A   1      30.950  24.138  25.913  1.00  0.00     0.022 A 
ENDBRANCH  17  20
ENDBRANCH  15  17
ENDBRANCH  10  15
ENDBRANCH   8   9
ENDBRANCH   4   7
ENDBRANCH   2   3
ENDBRANCH   1   2
BRANCH   1  27
ATOM     27  C   UNL A   1      33.577  29.888  26.310  1.00  0.00     0.023 C 
BRANCH  27  28
ATOM     28  C   UNL A   1      33.521  30.618  27.634  1.00  0.00     0.116 C 
BRANCH  28  29
ATOM     29  N   UNL A   1      34.455  31.711  27.796  1.00  0.00    -0.352 N 
ATOM     30  C   UNL A   1      35.716  31.675  28.377  1.00  0.00     0.251 C 
ATOM     31  H   UNL A   1      34.161  32.586  27.453  1.00  0.00     0.163 HD
ATOM     32  O   UNL A   1      36.237  32.738  28.702  1.00  0.00    -0.269 OA
BRANCH  30  33
ATOM     33  C   UNL A   1      36.477  30.392  28.432  1.00  0.00     0.039 A 
ATOM     34  C   UNL A   1      36.714  29.859  29.702  1.00  0.00     0.014 A 
ATOM     35  C   UNL A   1      37.247  29.960  27.359  1.00  0.00     0.014 A 
ATOM     36  C   UNL A   1      37.925  29.227  29.954  1.00  0.00     0.010 A 
ATOM     37  C   UNL A   1      38.504  29.474  27.622  1.00  0.00     0.010 A 
ATOM     38  C   UNL A   1      38.867  29.202  28.939  1.00  0.00    -0.014 A 
BRANCH  38  39
ATOM     39  C   UNL A   1      40.235  28.767  29.086  1.00  0.00     0.031 A 
ATOM     40  C   UNL A   1      40.506  27.338  28.928  1.00  0.00     0.074 A 
ATOM     41  C   UNL A   1      41.214  29.693  29.122  1.00  0.00     0.049 A 
ATOM     42  N   UNL A   1      41.640  26.793  29.170  1.00  0.00    -0.248 NA
ATOM     43  C   UNL A   1      39.478  26.395  28.504  1.00  0.00     0.031 C 
ATOM     44  C   UNL A   1      42.624  29.545  28.786  1.00  0.00     0.029 A 
ATOM     45  N   UNL A   1      41.146  30.987  29.597  1.00  0.00    -0.354 N 
ATOM     46  C   UNL A   1      41.595  25.525  28.637  1.00  0.00     0.074 A 
ATOM     47  C   UNL A   1      40.199  25.280  28.385  1.00  0.00     0.031 C 
ATOM     48  C   UNL A   1      43.307  30.599  29.267  1.00  0.00     0.029 A 
ATOM     49  C   UNL A   1      42.395  31.353  30.109  1.00  0.00     0.049 A 
ATOM     50  H   UNL A   1      40.346  31.560  29.578  1.00  0.00     0.167 HD
ATOM     51  C   UNL A   1      42.781  24.936  28.317  1.00  0.00     0.034 A 
ATOM     52  C   UNL A   1      42.545  31.528  31.464  1.00  0.00     0.034 A 
ATOM     53  C   UNL A   1      43.902  25.741  28.857  1.00  0.00     0.049 A 
ATOM     54  C   UNL A   1      43.400  30.440  32.121  1.00  0.00     0.074 A 
ATOM     55  C   UNL A   1      44.805  26.643  28.316  1.00  0.00     0.029 A 
ATOM     56  N   UNL A   1      43.961  25.938  30.233  1.00  0.00    -0.354 N 
ATOM     57  N   UNL A   1      44.006  29.471  31.485  1.00  0.00    -0.248 NA
ATOM     58  C   UNL A   1      43.556  30.321  33.569  1.00  0.00     0.031 C 
ATOM     59  C   UNL A   1      45.359  27.420  29.387  1.00  0.00     0.029 A 
ATOM     60  C   UNL A   1      44.832  26.962  30.583  1.00  0.00     0.049 A 
ATOM     61  H   UNL A   1      43.445  25.411  30.885  1.00  0.00     0.167 HD
ATOM     62  C   UNL A   1      44.451  28.528  32.379  1.00  0.00     0.074 A 
ATOM     63  C   UNL A   1      44.158  29.125  33.676  1.00  0.00     0.031 C 
ATOM     64  C   UNL A   1      44.960  27.308  32.000  1.00  0.00     0.034 A 
BRANCH  51  65
ATOM     65  C   UNL A   1      42.954  23.800  27.314  1.00  0.00     0.023 A 
ATOM     66  C   UNL A   1      43.635  24.110  26.116  1.00  0.00     0.012 A 
ATOM     67  C   UNL A   1      42.448  22.477  27.400  1.00  0.00     0.148 A 
ATOM     68  C   UNL A   1      43.750  23.202  25.054  1.00  0.00     0.002 A 
ATOM     69  C   UNL A   1      42.542  21.573  26.334  1.00  0.00     0.091 A 
ATOM     70  F   UNL A   1      41.886  22.038  28.521  1.00  0.00    -0.205 F 
ATOM     71  C   UNL A   1      43.189  21.938  25.156  1.00  0.00     0.022 A 
BRANCH  69  72
ATOM     72  S   UNL A   1      41.819  19.919  26.389  1.00  0.00     0.127 S 
ATOM     73  O   UNL A   1      42.292  19.337  25.131  1.00  0.00    -0.237 OA
ATOM     74  O   UNL A   1      42.430  19.350  27.588  1.00  0.00    -0.237 OA
ATOM     75  O   UNL A   1      40.374  20.095  26.458  1.00  0.00    -0.744 OA
ENDBRANCH  69  72
ENDBRANCH  51  65
BRANCH  52  76
ATOM     76  C   UNL A   1      41.305  32.141  32.070  1.00  0.00     0.023 A 
ATOM     77  C   UNL A   1      40.802  33.298  31.420  1.00  0.00     0.012 A 
ATOM     78  C   UNL A   1      40.417  31.365  32.831  1.00  0.00     0.148 A 
ATOM     79  C   UNL A   1      39.424  33.475  31.265  1.00  0.00     0.002 A 
ATOM     80  C   UNL A   1      39.048  31.586  32.723  1.00  0.00     0.091 A 
ATOM     81  F   UNL A   1      40.895  30.381  33.603  1.00  0.00    -0.205 F 
ATOM     82  C   UNL A   1      38.546  32.578  31.867  1.00  0.00     0.022 A 
BRANCH  80  83
ATOM     83  S   UNL A   1      37.910  30.535  33.629  1.00  0.00     0.127 S 
ATOM     84  O   UNL A   1      36.626  30.933  33.062  1.00  0.00    -0.237 OA
ATOM     85  O   UNL A   1      38.340  29.186  33.266  1.00  0.00    -0.237 OA
ATOM     86  O   UNL A   1      38.136  30.881  35.026  1.00  0.00    -0.744 OA
ENDBRANCH  80  83
ENDBRANCH  52  76
BRANCH  64  87
ATOM     87  C   UNL A   1      45.556  26.280  32.966  1.00  0.00     0.023 A 
ATOM     88  C   UNL A   1      46.928  25.970  32.967  1.00  0.00     0.012 A 
ATOM     89  C   UNL A   1      44.753  25.507  33.849  1.00  0.00     0.148 A 
ATOM     90  C   UNL A   1      47.498  25.090  33.897  1.00  0.00     0.002 A 
ATOM     91  C   UNL A   1      45.311  24.615  34.758  1.00  0.00     0.091 A 
ATOM     92  F   UNL A   1      43.420  25.569  33.776  1.00  0.00    -0.205 F 
ATOM     93  C   UNL A   1      46.691  24.432  34.812  1.00  0.00     0.022 A 
BRANCH  91  94
ATOM     94  S   UNL A   1      44.306  23.619  35.870  1.00  0.00     0.127 S 
ATOM     95  O   UNL A   1      45.302  22.696  36.414  1.00  0.00    -0.237 OA
ATOM     96  O   UNL A   1      43.822  24.623  36.817  1.00  0.00    -0.237 OA
ATOM     97  O   UNL A   1      43.271  23.004  35.052  1.00  0.00    -0.744 OA
ENDBRANCH  91  94
ENDBRANCH  64  87
ENDBRANCH  38  39
ENDBRANCH  30  33
ENDBRANCH  28  29
ENDBRANCH  27  28
ENDBRANCH   1  27
TORSDOF 18
ENDMDL
MODEL 2
REMARK VINA RESULT:     -12.2      3.800      9.118
REMARK SMILES Cc1ccc(S(=O)(=O)Nc2ccccc2/C=C/C(=O)NCCCCNC(=O)c2ccc(-c3c4nc(c(-c5cccc(S(=O)(=O)[O-])c5F)c5ccc([nH]5)c(-c5cccc(S(=O)(=O)[O-])c5F)c5nc(c(-c6cccc(S(=O)(=O)[O-])c6F)c6ccc3[nH]6)C=C5)C=C4)cc2)cc1
REMARK SMILES IDX 22 1 21 2 20 3 18 4 19 5 17 7 16 8 15 9 10 10 11 11 12 12
REMARK SMILES IDX 14 13 13 14 9 15 6 17 7 18 8 19 5 20 1 21 2 22 3 23 92 24
REMARK SMILES IDX 4 25 91 26 23 27 24 28 25 29 26 30 27 32 28 33 29 34 90 35
REMARK SMILES IDX 30 36 89 37 31 38 32 39 33 40 83 41 34 42 88 43 82 44 84 45
REMARK SMILES IDX 35 46 87 47 81 48 80 49 36 51 68 52 48 53 67 54 49 55 52 56
REMARK SMILES IDX 66 57 85 58 50 59 51 60 65 62 86 63 53 64 37 65 38 66 46 67
REMARK SMILES IDX 39 68 41 69 47 70 40 71 42 72 43 73 44 74 45 75 69 76 70 77
REMARK SMILES IDX 78 78 71 79 73 80 79 81 72 82 74 83 75 84 76 85 77 86 54 87
REMARK SMILES IDX 55 88 63 89 56 90 58 91 64 92 57 93 59 94 60 95 61 96 62 97
REMARK H PARENT 20 6 9 16 25 31 84 50 52 61
REMARK Flexibility Score: inf
ROOT
ATOM      1  C   UNL A   1      36.106  20.916  25.417  1.00  0.00     0.023 C 
ENDROOT
BRANCH   1   2
ATOM      2  C   UNL A   1      35.186  22.146  25.386  1.00  0.00     0.116 C 
BRANCH   2   3
ATOM      3  N   UNL A   1      34.908  22.590  24.029  1.00  0.00    -0.353 N 
ATOM      4  C   UNL A   1      34.516  23.795  23.542  1.00  0.00     0.244 C 
ATOM      5  O   UNL A   1      34.451  23.971  22.327  1.00  0.00    -0.270 OA
ATOM      6  H   UNL A   1      35.023  21.894  23.343  1.00  0.00     0.163 HD
BRANCH   4   7
ATOM      7  C   UNL A   1      34.163  24.923  24.432  1.00  0.00     0.072 C 
ATOM      8  C   UNL A   1      33.853  26.141  23.971  1.00  0.00     0.016 C 
BRANCH   8   9
ATOM      9  C   UNL A   1      33.759  27.368  24.768  1.00  0.00    -0.001 A 
ATOM     10  C   UNL A   1      32.934  28.444  24.388  1.00  0.00     0.056 A 
ATOM     11  C   UNL A   1      32.707  29.497  25.278  1.00  0.00     0.027 A 
ATOM     12  C   UNL A   1      33.299  29.483  26.545  1.00  0.00     0.002 A 
ATOM     13  C   UNL A   1      34.339  27.362  26.045  1.00  0.00     0.010 A 
ATOM     14  C   UNL A   1      34.111  28.417  26.928  1.00  0.00     0.001 A 
BRANCH  10  15
ATOM     15  N   UNL A   1      32.233  28.417  23.144  1.00  0.00    -0.279 N 
ATOM     16  H   UNL A   1      32.673  28.763  22.335  1.00  0.00     0.180 HD
BRANCH  15  17
ATOM     17  S   UNL A   1      30.663  27.801  23.031  1.00  0.00     0.261 S 
ATOM     18  O   UNL A   1      30.519  27.434  21.631  1.00  0.00    -0.201 OA
ATOM     19  O   UNL A   1      29.752  28.741  23.640  1.00  0.00    -0.201 OA
BRANCH  17  20
ATOM     20  C   UNL A   1      30.570  26.295  23.986  1.00  0.00     0.087 A 
ATOM     21  C   UNL A   1      30.429  22.614  26.227  1.00  0.00     0.044 C 
ATOM     22  C   UNL A   1      30.492  23.901  25.455  1.00  0.00    -0.051 A 
ATOM     23  C   UNL A   1      30.442  25.141  26.111  1.00  0.00     0.005 A 
ATOM     24  C   UNL A   1      30.629  23.874  24.064  1.00  0.00     0.005 A 
ATOM     25  C   UNL A   1      30.455  26.337  25.380  1.00  0.00     0.022 A 
ATOM     26  C   UNL A   1      30.708  25.064  23.339  1.00  0.00     0.022 A 
ENDBRANCH  17  20
ENDBRANCH  15  17
ENDBRANCH  10  15
ENDBRANCH   8   9
ENDBRANCH   4   7
ENDBRANCH   2   3
ENDBRANCH   1   2
BRANCH   1  27
ATOM     27  C   UNL A   1      37.563  21.161  25.015  1.00  0.00     0.023 C 
BRANCH  27  28
ATOM     28  C   UNL A   1      38.146  22.428  25.601  1.00  0.00     0.116 C 
BRANCH  28  29
ATOM     29  N   UNL A   1      39.367  22.272  26.362  1.00  0.00    -0.352 N 
ATOM     30  C   UNL A   1      40.234  23.266  26.795  1.00  0.00     0.251 C 
ATOM     31  H   UNL A   1      39.613  21.349  26.600  1.00  0.00     0.163 HD
ATOM     32  O   UNL A   1      41.361  22.939  27.155  1.00  0.00    -0.269 OA
BRANCH  30  33
ATOM     33  C   UNL A   1      39.737  24.661  26.982  1.00  0.00     0.039 A 
ATOM     34  C   UNL A   1      40.432  25.669  26.309  1.00  0.00     0.014 A 
ATOM     35  C   UNL A   1      38.915  25.000  28.050  1.00  0.00     0.014 A 
ATOM     36  C   UNL A   1      40.605  26.900  26.928  1.00  0.00     0.010 A 
ATOM     37  C   UNL A   1      39.198  26.151  28.743  1.00  0.00     0.010 A 
ATOM     38  C   UNL A   1      40.122  27.052  28.217  1.00  0.00    -0.014 A 
BRANCH  38  39
ATOM     39  C   UNL A   1      40.385  28.182  29.075  1.00  0.00     0.031 A 
ATOM     40  C   UNL A   1      39.516  29.350  28.931  1.00  0.00     0.074 A 
ATOM     41  C   UNL A   1      41.237  28.032  30.109  1.00  0.00     0.049 A 
ATOM     42  N   UNL A   1      39.717  30.469  29.520  1.00  0.00    -0.248 NA
ATOM     43  C   UNL A   1      38.345  29.344  28.062  1.00  0.00     0.031 C 
ATOM     44  C   UNL A   1      41.310  28.794  31.349  1.00  0.00     0.029 A 
ATOM     45  N   UNL A   1      42.328  27.192  30.201  1.00  0.00    -0.354 N 
ATOM     46  C   UNL A   1      38.565  31.207  29.381  1.00  0.00     0.074 A 
ATOM     47  C   UNL A   1      37.821  30.537  28.347  1.00  0.00     0.031 C 
ATOM     48  C   UNL A   1      42.488  28.547  31.951  1.00  0.00     0.029 A 
ATOM     49  C   UNL A   1      43.296  27.786  31.015  1.00  0.00     0.049 A 
ATOM     50  H   UNL A   1      42.410  26.315  29.761  1.00  0.00     0.167 HD
ATOM     51  C   UNL A   1      38.329  32.184  30.299  1.00  0.00     0.034 A 
ATOM     52  C   UNL A   1      44.472  28.228  30.457  1.00  0.00     0.034 A 
ATOM     53  C   UNL A   1      39.535  32.387  31.135  1.00  0.00     0.049 A 
ATOM     54  C   UNL A   1      44.592  29.755  30.436  1.00  0.00     0.074 A 
ATOM     55  C   UNL A   1      39.913  32.005  32.413  1.00  0.00     0.029 A 
ATOM     56  N   UNL A   1      40.713  32.770  30.502  1.00  0.00    -0.354 N 
ATOM     57  N   UNL A   1      43.725  30.586  30.955  1.00  0.00    -0.248 NA
ATOM     58  C   UNL A   1      45.669  30.456  29.741  1.00  0.00     0.031 C 
ATOM     59  C   UNL A   1      41.340  32.111  32.511  1.00  0.00     0.029 A 
ATOM     60  C   UNL A   1      41.828  32.602  31.312  1.00  0.00     0.049 A 
ATOM     61  H   UNL A   1      40.751  33.122  29.583  1.00  0.00     0.167 HD
ATOM     62  C   UNL A   1      43.989  31.865  30.529  1.00  0.00     0.074 A 
ATOM     63  C   UNL A   1      45.234  31.726  29.785  1.00  0.00     0.031 C 
ATOM     64  C   UNL A   1      43.143  32.926  30.755  1.00  0.00     0.034 A 
BRANCH  51  65
ATOM     65  C   UNL A   1      36.959  32.772  30.625  1.00  0.00     0.023 A 
ATOM     66  C   UNL A   1      36.451  32.518  31.918  1.00  0.00     0.012 A 
ATOM     67  C   UNL A   1      36.089  33.485  29.759  1.00  0.00     0.148 A 
ATOM     68  C   UNL A   1      35.155  32.882  32.306  1.00  0.00     0.002 A 
ATOM     69  C   UNL A   1      34.786  33.833  30.136  1.00  0.00     0.091 A 
ATOM     70  F   UNL A   1      36.500  33.876  28.558  1.00  0.00    -0.205 F 
ATOM     71  C   UNL A   1      34.315  33.526  31.410  1.00  0.00     0.022 A 
BRANCH  69  72
ATOM     72  S   UNL A   1      33.631  34.655  29.016  1.00  0.00     0.127 S 
ATOM     73  O   UNL A   1      32.526  34.997  29.914  1.00  0.00    -0.237 OA
ATOM     74  O   UNL A   1      34.410  35.799  28.548  1.00  0.00    -0.237 OA
ATOM     75  O   UNL A   1      33.284  33.683  27.985  1.00  0.00    -0.744 OA
ENDBRANCH  69  72
ENDBRANCH  51  65
BRANCH  52  76
ATOM     76  C   UNL A   1      44.923  27.307  29.348  1.00  0.00     0.023 A 
ATOM     77  C   UNL A   1      45.023  25.931  29.685  1.00  0.00     0.012 A 
ATOM     78  C   UNL A   1      44.726  27.652  28.002  1.00  0.00     0.148 A 
ATOM     79  C   UNL A   1      44.610  24.953  28.775  1.00  0.00     0.002 A 
ATOM     80  C   UNL A   1      44.377  26.664  27.085  1.00  0.00     0.091 A 
ATOM     81  F   UNL A   1      44.815  28.934  27.629  1.00  0.00    -0.205 F 
ATOM     82  C   UNL A   1      44.227  25.330  27.490  1.00  0.00     0.022 A 
BRANCH  80  83
ATOM     83  S   UNL A   1      44.041  27.120  25.383  1.00  0.00     0.127 S 
ATOM     84  O   UNL A   1      43.110  28.230  25.553  1.00  0.00    -0.237 OA
ATOM     85  O   UNL A   1      45.357  27.506  24.875  1.00  0.00    -0.237 OA
ATOM     86  O   UNL A   1      43.500  25.907  24.786  1.00  0.00    -0.744 OA
ENDBRANCH  80  83
ENDBRANCH  52  76
BRANCH  64  87
ATOM     87  C   UNL A   1      43.457  34.378  30.383  1.00  0.00     0.023 A 
ATOM     88  C   UNL A   1      43.640  35.373  31.362  1.00  0.00     0.012 A 
ATOM     89  C   UNL A   1      43.486  34.832  29.036  1.00  0.00     0.148 A 
ATOM     90  C   UNL A   1      44.004  36.686  31.037  1.00  0.00     0.002 A 
ATOM     91  C   UNL A   1      43.824  36.141  28.709  1.00  0.00     0.091 A 
ATOM     92  F   UNL A   1      43.116  34.019  28.043  1.00  0.00    -0.205 F 
ATOM     93  C   UNL A   1      44.123  37.064  29.709  1.00  0.00     0.022 A 
BRANCH  91  94
ATOM     94  S   UNL A   1      43.850  36.733  27.010  1.00  0.00     0.127 S 
ATOM     95  O   UNL A   1      44.446  38.058  27.173  1.00  0.00    -0.237 OA
ATOM     96  O   UNL A   1      44.717  35.749  26.363  1.00  0.00    -0.237 OA
ATOM     97  O   UNL A   1      42.469  36.725  26.549  1.00  0.00    -0.744 OA
ENDBRANCH  91  94
ENDBRANCH  64  87
ENDBRANCH  38  39
ENDBRANCH  30  33
ENDBRANCH  28  29
ENDBRANCH  27  28
ENDBRANCH   1  27
TORSDOF 18
ENDMDL
MODEL 3
REMARK VINA RESULT:     -12.1      1.321      2.440
REMARK SMILES Cc1ccc(S(=O)(=O)Nc2ccccc2/C=C/C(=O)NCCCCNC(=O)c2ccc(-c3c4nc(c(-c5cccc(S(=O)(=O)[O-])c5F)c5ccc([nH]5)c(-c5cccc(S(=O)(=O)[O-])c5F)c5nc(c(-c6cccc(S(=O)(=O)[O-])c6F)c6ccc3[nH]6)C=C5)C=C4)cc2)cc1
REMARK SMILES IDX 22 1 21 2 20 3 18 4 19 5 17 7 16 8 15 9 10 10 11 11 12 12
REMARK SMILES IDX 14 13 13 14 9 15 6 17 7 18 8 19 5 20 1 21 2 22 3 23 92 24
REMARK SMILES IDX 4 25 91 26 23 27 24 28 25 29 26 30 27 32 28 33 29 34 90 35
REMARK SMILES IDX 30 36 89 37 31 38 32 39 33 40 83 41 34 42 88 43 82 44 84 45
REMARK SMILES IDX 35 46 87 47 81 48 80 49 36 51 68 52 48 53 67 54 49 55 52 56
REMARK SMILES IDX 66 57 85 58 50 59 51 60 65 62 86 63 53 64 37 65 38 66 46 67
REMARK SMILES IDX 39 68 41 69 47 70 40 71 42 72 43 73 44 74 45 75 69 76 70 77
REMARK SMILES IDX 78 78 71 79 73 80 79 81 72 82 74 83 75 84 76 85 77 86 54 87
REMARK SMILES IDX 55 88 63 89 56 90 58 91 64 92 57 93 59 94 60 95 61 96 62 97
REMARK H PARENT 20 6 9 16 25 31 84 50 52 61
REMARK Flexibility Score: inf
ROOT
ATOM      1  C   UNL A   1      32.728  29.192  25.589  1.00  0.00     0.023 C 
ENDROOT
BRANCH   1   2
ATOM      2  C   UNL A   1      32.870  28.900  24.086  1.00  0.00     0.116 C 
BRANCH   2   3
ATOM      3  N   UNL A   1      31.661  29.227  23.347  1.00  0.00    -0.353 N 
ATOM      4  C   UNL A   1      30.859  28.467  22.559  1.00  0.00     0.244 C 
ATOM      5  O   UNL A   1      29.809  28.937  22.122  1.00  0.00    -0.270 OA
ATOM      6  H   UNL A   1      31.374  30.164  23.433  1.00  0.00     0.163 HD
BRANCH   4   7
ATOM      7  C   UNL A   1      31.202  27.072  22.203  1.00  0.00     0.072 C 
ATOM      8  C   UNL A   1      31.251  26.084  23.104  1.00  0.00     0.016 C 
BRANCH   8   9
ATOM      9  C   UNL A   1      31.836  24.756  22.898  1.00  0.00    -0.001 A 
ATOM     10  C   UNL A   1      31.520  23.664  23.730  1.00  0.00     0.056 A 
ATOM     11  C   UNL A   1      31.926  22.375  23.373  1.00  0.00     0.027 A 
ATOM     12  C   UNL A   1      32.645  22.169  22.191  1.00  0.00     0.002 A 
ATOM     13  C   UNL A   1      32.549  24.534  21.711  1.00  0.00     0.010 A 
ATOM     14  C   UNL A   1      32.953  23.247  21.361  1.00  0.00     0.001 A 
BRANCH  10  15
ATOM     15  N   UNL A   1      30.690  23.842  24.878  1.00  0.00    -0.279 N 
ATOM     16  H   UNL A   1      29.712  23.789  24.778  1.00  0.00     0.180 HD
BRANCH  15  17
ATOM     17  S   UNL A   1      31.349  24.138  26.406  1.00  0.00     0.261 S 
ATOM     18  O   UNL A   1      30.833  23.062  27.237  1.00  0.00    -0.201 OA
ATOM     19  O   UNL A   1      31.104  25.517  26.755  1.00  0.00    -0.201 OA
BRANCH  17  20
ATOM     20  C   UNL A   1      33.120  23.933  26.313  1.00  0.00     0.087 A 
ATOM     21  C   UNL A   1      37.410  23.549  26.116  1.00  0.00     0.044 C 
ATOM     22  C   UNL A   1      35.917  23.682  26.202  1.00  0.00    -0.051 A 
ATOM     23  C   UNL A   1      35.140  22.707  26.847  1.00  0.00     0.005 A 
ATOM     24  C   UNL A   1      35.284  24.803  25.656  1.00  0.00     0.005 A 
ATOM     25  C   UNL A   1      33.743  22.817  26.883  1.00  0.00     0.022 A 
ATOM     26  C   UNL A   1      33.899  24.946  25.748  1.00  0.00     0.022 A 
ENDBRANCH  17  20
ENDBRANCH  15  17
ENDBRANCH  10  15
ENDBRANCH   8   9
ENDBRANCH   4   7
ENDBRANCH   2   3
ENDBRANCH   1   2
BRANCH   1  27
ATOM     27  C   UNL A   1      33.863  30.001  26.222  1.00  0.00     0.023 C 
BRANCH  27  28
ATOM     28  C   UNL A   1      33.489  30.632  27.545  1.00  0.00     0.116 C 
BRANCH  28  29
ATOM     29  N   UNL A   1      34.363  31.686  28.014  1.00  0.00    -0.352 N 
ATOM     30  C   UNL A   1      35.561  31.556  28.704  1.00  0.00     0.251 C 
ATOM     31  H   UNL A   1      34.072  32.608  27.823  1.00  0.00     0.163 HD
ATOM     32  O   UNL A   1      36.008  32.541  29.284  1.00  0.00    -0.269 OA
BRANCH  30  33
ATOM     33  C   UNL A   1      36.360  30.301  28.583  1.00  0.00     0.039 A 
ATOM     34  C   UNL A   1      36.590  29.589  29.764  1.00  0.00     0.014 A 
ATOM     35  C   UNL A   1      37.163  30.057  27.476  1.00  0.00     0.014 A 
ATOM     36  C   UNL A   1      37.814  28.959  29.945  1.00  0.00     0.010 A 
ATOM     37  C   UNL A   1      38.428  29.572  27.691  1.00  0.00     0.010 A 
ATOM     38  C   UNL A   1      38.775  29.114  28.960  1.00  0.00    -0.014 A 
BRANCH  38  39
ATOM     39  C   UNL A   1      40.153  28.699  29.072  1.00  0.00     0.031 A 
ATOM     40  C   UNL A   1      40.442  27.275  28.902  1.00  0.00     0.074 A 
ATOM     41  C   UNL A   1      41.118  29.640  29.086  1.00  0.00     0.049 A 
ATOM     42  N   UNL A   1      41.589  26.747  29.114  1.00  0.00    -0.248 NA
ATOM     43  C   UNL A   1      39.417  26.318  28.501  1.00  0.00     0.031 C 
ATOM     44  C   UNL A   1      42.521  29.514  28.715  1.00  0.00     0.029 A 
ATOM     45  N   UNL A   1      41.043  30.932  29.566  1.00  0.00    -0.354 N 
ATOM     46  C   UNL A   1      41.550  25.480  28.579  1.00  0.00     0.074 A 
ATOM     47  C   UNL A   1      40.152  25.214  28.361  1.00  0.00     0.031 C 
ATOM     48  C   UNL A   1      43.200  30.577  29.182  1.00  0.00     0.029 A 
ATOM     49  C   UNL A   1      42.299  31.315  30.049  1.00  0.00     0.049 A 
ATOM     50  H   UNL A   1      40.234  31.493  29.570  1.00  0.00     0.167 HD
ATOM     51  C   UNL A   1      42.736  24.910  28.228  1.00  0.00     0.034 A 
ATOM     52  C   UNL A   1      42.480  31.489  31.400  1.00  0.00     0.034 A 
ATOM     53  C   UNL A   1      43.858  25.729  28.742  1.00  0.00     0.049 A 
ATOM     54  C   UNL A   1      43.368  30.412  32.032  1.00  0.00     0.074 A 
ATOM     55  C   UNL A   1      44.733  26.647  28.182  1.00  0.00     0.029 A 
ATOM     56  N   UNL A   1      43.949  25.924  30.116  1.00  0.00    -0.354 N 
ATOM     57  N   UNL A   1      43.972  29.454  31.378  1.00  0.00    -0.248 NA
ATOM     58  C   UNL A   1      43.561  30.291  33.475  1.00  0.00     0.031 C 
ATOM     59  C   UNL A   1      45.302  27.429  29.240  1.00  0.00     0.029 A 
ATOM     60  C   UNL A   1      44.812  26.960  30.447  1.00  0.00     0.049 A 
ATOM     61  H   UNL A   1      43.458  25.388  30.779  1.00  0.00     0.167 HD
ATOM     62  C   UNL A   1      44.453  28.515  32.258  1.00  0.00     0.074 A 
ATOM     63  C   UNL A   1      44.183  29.104  33.563  1.00  0.00     0.031 C 
ATOM     64  C   UNL A   1      44.971  27.304  31.862  1.00  0.00     0.034 A 
BRANCH  51  65
ATOM     65  C   UNL A   1      42.902  23.779  27.217  1.00  0.00     0.023 A 
ATOM     66  C   UNL A   1      43.560  24.099  26.009  1.00  0.00     0.012 A 
ATOM     67  C   UNL A   1      42.406  22.452  27.305  1.00  0.00     0.148 A 
ATOM     68  C   UNL A   1      43.664  23.197  24.942  1.00  0.00     0.002 A 
ATOM     69  C   UNL A   1      42.490  21.553  26.235  1.00  0.00     0.091 A 
ATOM     70  F   UNL A   1      41.867  22.004  28.434  1.00  0.00    -0.205 F 
ATOM     71  C   UNL A   1      43.115  21.928  25.047  1.00  0.00     0.022 A 
BRANCH  69  72
ATOM     72  S   UNL A   1      41.781  19.893  26.294  1.00  0.00     0.127 S 
ATOM     73  O   UNL A   1      42.197  19.430  27.619  1.00  0.00    -0.237 OA
ATOM     74  O   UNL A   1      40.349  20.160  26.166  1.00  0.00    -0.237 OA
ATOM     75  O   UNL A   1      42.369  19.146  25.189  1.00  0.00    -0.744 OA
ENDBRANCH  69  72
ENDBRANCH  51  65
BRANCH  52  76
ATOM     76  C   UNL A   1      41.246  32.081  32.039  1.00  0.00     0.023 A 
ATOM     77  C   UNL A   1      40.728  33.250  31.423  1.00  0.00     0.012 A 
ATOM     78  C   UNL A   1      40.374  31.283  32.795  1.00  0.00     0.148 A 
ATOM     79  C   UNL A   1      39.346  33.423  31.293  1.00  0.00     0.002 A 
ATOM     80  C   UNL A   1      39.002  31.499  32.713  1.00  0.00     0.091 A 
ATOM     81  F   UNL A   1      40.868  30.285  33.537  1.00  0.00    -0.205 F 
ATOM     82  C   UNL A   1      38.482  32.508  31.888  1.00  0.00     0.022 A 
BRANCH  80  83
ATOM     83  S   UNL A   1      37.883  30.422  33.612  1.00  0.00     0.127 S 
ATOM     84  O   UNL A   1      36.598  30.763  33.010  1.00  0.00    -0.237 OA
ATOM     85  O   UNL A   1      38.371  29.084  33.282  1.00  0.00    -0.237 OA
ATOM     86  O   UNL A   1      38.065  30.799  35.007  1.00  0.00    -0.744 OA
ENDBRANCH  80  83
ENDBRANCH  52  76
BRANCH  64  87
ATOM     87  C   UNL A   1      45.606  26.283  32.810  1.00  0.00     0.023 A 
ATOM     88  C   UNL A   1      46.989  26.025  32.806  1.00  0.00     0.012 A 
ATOM     89  C   UNL A   1      44.833  25.464  33.679  1.00  0.00     0.148 A 
ATOM     90  C   UNL A   1      47.593  25.152  33.720  1.00  0.00     0.002 A 
ATOM     91  C   UNL A   1      45.426  24.577  34.572  1.00  0.00     0.091 A 
ATOM     92  F   UNL A   1      43.500  25.475  33.606  1.00  0.00    -0.205 F 
ATOM     93  C   UNL A   1      46.812  24.447  34.623  1.00  0.00     0.022 A 
BRANCH  91  94
ATOM     94  S   UNL A   1      44.460  23.524  35.665  1.00  0.00     0.127 S 
ATOM     95  O   UNL A   1      45.455  23.165  36.676  1.00  0.00    -0.237 OA
ATOM     96  O   UNL A   1      43.423  24.444  36.129  1.00  0.00    -0.237 OA
ATOM     97  O   UNL A   1      43.975  22.418  34.851  1.00  0.00    -0.744 OA
ENDBRANCH  91  94
ENDBRANCH  64  87
ENDBRANCH  38  39
ENDBRANCH  30  33
ENDBRANCH  28  29
ENDBRANCH  27  28
ENDBRANCH   1  27
TORSDOF 18
ENDMDL
