MODEL 1
REMARK VINA RESULT:     -12.0      0.000      0.000
REMARK SMILES Cc1nsc(NC(=O)c2ccc(N)cc2)c1C(=O)NCCCCNC(=O)c1ccc(-c2c3nc(c(-c4cccc(S(=O)(=O)[O-])c4F)c4ccc([nH]4)c(-c4cccc(S(=O)(=O)[O-])c4F)c4nc(c(-c5cccc(S(=O)(=O)[O-])c5F)c5ccc2[nH]5)C=C4)C=C3)cc1
REMARK SMILES IDX 21 1 20 2 19 3 17 4 18 5 16 7 1 8 2 9 3 10 4 11 5 12 6 13
REMARK SMILES IDX 7 14 8 16 9 17 10 18 15 19 11 20 14 21 12 22 13 23 22 26
REMARK SMILES IDX 23 27 24 28 25 29 26 31 27 32 28 33 89 34 29 35 88 36 30 37
REMARK SMILES IDX 31 38 32 39 82 40 33 41 87 42 81 43 83 44 34 45 86 46 80 47
REMARK SMILES IDX 79 48 35 50 67 51 47 52 66 53 48 54 51 55 65 56 84 57 49 58
REMARK SMILES IDX 50 59 64 61 85 62 52 63 36 64 37 65 45 66 38 67 40 68 46 69
REMARK SMILES IDX 39 70 41 71 42 72 43 73 44 74 68 75 69 76 77 77 70 78 72 79
REMARK SMILES IDX 78 80 71 81 73 82 74 83 75 84 76 85 53 86 54 87 62 88 55 89
REMARK SMILES IDX 57 90 63 91 56 92 58 93 59 94 60 95 61 96
REMARK H PARENT 19 6 6 15 13 24 13 25 24 30 83 49 51 60
REMARK Flexibility Score: inf
ROOT
ATOM      1  C   UNL A   1      36.281  21.937  24.268  1.00  0.00     0.023 C 
ENDROOT
BRANCH   1   2
ATOM      2  C   UNL A   1      36.479  23.299  24.931  1.00  0.00     0.116 C 
BRANCH   2   3
ATOM      3  N   UNL A   1      35.330  23.803  25.641  1.00  0.00    -0.352 N 
ATOM      4  C   UNL A   1      34.169  24.446  25.307  1.00  0.00     0.256 C 
ATOM      5  O   UNL A   1      33.402  24.606  26.265  1.00  0.00    -0.269 OA
ATOM      6  H   UNL A   1      35.397  23.643  26.610  1.00  0.00     0.163 HD
BRANCH   4   7
ATOM      7  C   UNL A   1      33.839  25.055  24.008  1.00  0.00     0.097 A 
ATOM      8  C   UNL A   1      33.336  23.185  22.158  1.00  0.00     0.069 C 
ATOM      9  C   UNL A   1      33.617  24.558  22.656  1.00  0.00     0.066 A 
ATOM     10  N   UNL A   1      33.608  25.480  21.686  1.00  0.00    -0.195 NA
ATOM     11  S   UNL A   1      33.636  26.969  22.366  1.00  0.00    -0.017 S 
ATOM     12  C   UNL A   1      33.535  26.427  23.970  1.00  0.00     0.129 A 
BRANCH  12  13
ATOM     13  N   UNL A   1      33.324  27.296  25.032  1.00  0.00    -0.312 N 
ATOM     14  C   UNL A   1      32.354  28.257  25.236  1.00  0.00     0.256 C 
ATOM     15  H   UNL A   1      33.977  27.214  25.764  1.00  0.00     0.171 HD
ATOM     16  O   UNL A   1      32.496  29.123  26.099  1.00  0.00    -0.269 OA
BRANCH  14  17
ATOM     17  C   UNL A   1      31.092  28.267  24.464  1.00  0.00     0.040 A 
ATOM     18  C   UNL A   1      30.675  29.398  23.755  1.00  0.00     0.016 A 
ATOM     19  C   UNL A   1      30.301  27.116  24.471  1.00  0.00     0.016 A 
ATOM     20  C   UNL A   1      29.408  29.412  23.163  1.00  0.00     0.026 A 
ATOM     21  C   UNL A   1      29.045  27.135  23.860  1.00  0.00     0.026 A 
ATOM     22  C   UNL A   1      28.580  28.286  23.217  1.00  0.00     0.031 A 
BRANCH  22  23
ATOM     23  N   UNL A   1      27.284  28.343  22.735  1.00  0.00    -0.399 N 
ATOM     24  H   UNL A   1      26.560  28.688  23.308  1.00  0.00     0.156 HD
ATOM     25  H   UNL A   1      27.085  28.040  21.821  1.00  0.00     0.156 HD
ENDBRANCH  22  23
ENDBRANCH  14  17
ENDBRANCH  12  13
ENDBRANCH   4   7
ENDBRANCH   2   3
ENDBRANCH   1   2
BRANCH   1  26
ATOM     26  C   UNL A   1      37.011  20.767  24.944  1.00  0.00     0.023 C 
BRANCH  26  27
ATOM     27  C   UNL A   1      38.474  21.022  25.313  1.00  0.00     0.116 C 
BRANCH  27  28
ATOM     28  N   UNL A   1      39.248  19.798  25.497  1.00  0.00    -0.352 N 
ATOM     29  C   UNL A   1      40.586  19.697  25.841  1.00  0.00     0.251 C 
ATOM     30  H   UNL A   1      38.765  18.950  25.363  1.00  0.00     0.163 HD
ATOM     31  O   UNL A   1      41.226  18.689  25.602  1.00  0.00    -0.269 OA
BRANCH  29  32
ATOM     32  C   UNL A   1      41.219  20.850  26.509  1.00  0.00     0.039 A 
ATOM     33  C   UNL A   1      41.760  21.893  25.760  1.00  0.00     0.014 A 
ATOM     34  C   UNL A   1      41.185  20.903  27.903  1.00  0.00     0.014 A 
ATOM     35  C   UNL A   1      42.172  23.047  26.422  1.00  0.00     0.010 A 
ATOM     36  C   UNL A   1      41.509  22.079  28.548  1.00  0.00     0.010 A 
ATOM     37  C   UNL A   1      42.007  23.156  27.813  1.00  0.00    -0.014 A 
BRANCH  37  38
ATOM     38  C   UNL A   1      42.167  24.465  28.455  1.00  0.00     0.031 A 
ATOM     39  C   UNL A   1      41.013  25.385  28.252  1.00  0.00     0.074 A 
ATOM     40  C   UNL A   1      43.142  24.775  29.338  1.00  0.00     0.049 A 
ATOM     41  N   UNL A   1      40.979  26.456  27.529  1.00  0.00    -0.248 NA
ATOM     42  C   UNL A   1      39.699  24.992  28.790  1.00  0.00     0.031 C 
ATOM     43  C   UNL A   1      44.151  23.861  29.888  1.00  0.00     0.029 A 
ATOM     44  N   UNL A   1      43.357  25.927  30.047  1.00  0.00    -0.354 N 
ATOM     45  C   UNL A   1      39.725  27.020  27.767  1.00  0.00     0.074 A 
ATOM     46  C   UNL A   1      38.918  25.976  28.337  1.00  0.00     0.031 C 
ATOM     47  C   UNL A   1      44.675  24.394  31.010  1.00  0.00     0.029 A 
ATOM     48  C   UNL A   1      44.184  25.752  31.152  1.00  0.00     0.049 A 
ATOM     49  H   UNL A   1      42.963  26.794  29.798  1.00  0.00     0.167 HD
ATOM     50  C   UNL A   1      39.572  28.373  27.795  1.00  0.00     0.034 A 
ATOM     51  C   UNL A   1      44.450  26.642  32.137  1.00  0.00     0.034 A 
ATOM     52  C   UNL A   1      40.747  29.034  27.289  1.00  0.00     0.049 A 
ATOM     53  C   UNL A   1      44.201  27.995  31.604  1.00  0.00     0.074 A 
ATOM     54  C   UNL A   1      41.360  29.247  26.078  1.00  0.00     0.029 A 
ATOM     55  N   UNL A   1      41.658  29.316  28.270  1.00  0.00    -0.354 N 
ATOM     56  N   UNL A   1      44.922  28.531  30.660  1.00  0.00    -0.248 NA
ATOM     57  C   UNL A   1      42.953  28.682  31.912  1.00  0.00     0.031 C 
ATOM     58  C   UNL A   1      42.730  29.520  26.372  1.00  0.00     0.029 A 
ATOM     59  C   UNL A   1      42.907  29.494  27.754  1.00  0.00     0.049 A 
ATOM     60  H   UNL A   1      41.439  29.381  29.228  1.00  0.00     0.167 HD
ATOM     61  C   UNL A   1      44.017  29.307  29.962  1.00  0.00     0.074 A 
ATOM     62  C   UNL A   1      42.908  29.527  30.878  1.00  0.00     0.031 C 
ATOM     63  C   UNL A   1      44.076  29.388  28.601  1.00  0.00     0.034 A 
BRANCH  50  64
ATOM     64  C   UNL A   1      38.651  29.148  28.729  1.00  0.00     0.023 A 
ATOM     65  C   UNL A   1      38.007  30.287  28.183  1.00  0.00     0.012 A 
ATOM     66  C   UNL A   1      38.650  29.039  30.137  1.00  0.00     0.148 A 
ATOM     67  C   UNL A   1      37.456  31.288  28.993  1.00  0.00     0.002 A 
ATOM     68  C   UNL A   1      38.038  30.000  30.937  1.00  0.00     0.091 A 
ATOM     69  F   UNL A   1      39.362  28.082  30.736  1.00  0.00    -0.205 F 
ATOM     70  C   UNL A   1      37.469  31.143  30.373  1.00  0.00     0.022 A 
BRANCH  68  71
ATOM     71  S   UNL A   1      38.003  29.848  32.728  1.00  0.00     0.127 S 
ATOM     72  O   UNL A   1      39.418  29.988  33.058  1.00  0.00    -0.237 OA
ATOM     73  O   UNL A   1      37.159  30.982  33.105  1.00  0.00    -0.237 OA
ATOM     74  O   UNL A   1      37.405  28.545  32.995  1.00  0.00    -0.744 OA
ENDBRANCH  68  71
ENDBRANCH  50  64
BRANCH  51  75
ATOM     75  C   UNL A   1      44.826  26.417  33.549  1.00  0.00     0.023 A 
ATOM     76  C   UNL A   1      46.171  26.549  33.948  1.00  0.00     0.012 A 
ATOM     77  C   UNL A   1      43.834  26.343  34.550  1.00  0.00     0.148 A 
ATOM     78  C   UNL A   1      46.513  26.645  35.301  1.00  0.00     0.002 A 
ATOM     79  C   UNL A   1      44.179  26.435  35.895  1.00  0.00     0.091 A 
ATOM     80  F   UNL A   1      42.549  26.263  34.176  1.00  0.00    -0.205 F 
ATOM     81  C   UNL A   1      45.518  26.602  36.273  1.00  0.00     0.022 A 
BRANCH  79  82
ATOM     82  S   UNL A   1      42.952  26.408  37.208  1.00  0.00     0.127 S 
ATOM     83  O   UNL A   1      42.138  27.578  36.880  1.00  0.00    -0.237 OA
ATOM     84  O   UNL A   1      42.298  25.122  36.982  1.00  0.00    -0.237 OA
ATOM     85  O   UNL A   1      43.701  26.526  38.454  1.00  0.00    -0.744 OA
ENDBRANCH  79  82
ENDBRANCH  51  75
BRANCH  63  86
ATOM     86  C   UNL A   1      45.398  29.151  27.939  1.00  0.00     0.023 A 
ATOM     87  C   UNL A   1      46.426  30.111  27.906  1.00  0.00     0.012 A 
ATOM     88  C   UNL A   1      45.640  27.868  27.421  1.00  0.00     0.148 A 
ATOM     89  C   UNL A   1      47.668  29.799  27.345  1.00  0.00     0.002 A 
ATOM     90  C   UNL A   1      46.888  27.546  26.912  1.00  0.00     0.091 A 
ATOM     91  F   UNL A   1      44.640  26.973  27.453  1.00  0.00    -0.205 F 
ATOM     92  C   UNL A   1      47.903  28.513  26.860  1.00  0.00     0.022 A 
BRANCH  90  93
ATOM     93  S   UNL A   1      47.277  25.875  26.390  1.00  0.00     0.127 S 
ATOM     94  O   UNL A   1      46.986  25.102  27.595  1.00  0.00    -0.237 OA
ATOM     95  O   UNL A   1      46.342  25.665  25.285  1.00  0.00    -0.237 OA
ATOM     96  O   UNL A   1      48.678  25.902  25.984  1.00  0.00    -0.744 OA
ENDBRANCH  90  93
ENDBRANCH  63  86
ENDBRANCH  37  38
ENDBRANCH  29  32
ENDBRANCH  27  28
ENDBRANCH  26  27
ENDBRANCH   1  26
TORSDOF 17
ENDMDL
MODEL 2
REMARK VINA RESULT:     -11.9      2.061      2.720
REMARK SMILES Cc1nsc(NC(=O)c2ccc(N)cc2)c1C(=O)NCCCCNC(=O)c1ccc(-c2c3nc(c(-c4cccc(S(=O)(=O)[O-])c4F)c4ccc([nH]4)c(-c4cccc(S(=O)(=O)[O-])c4F)c4nc(c(-c5cccc(S(=O)(=O)[O-])c5F)c5ccc2[nH]5)C=C4)C=C3)cc1
REMARK SMILES IDX 21 1 20 2 19 3 17 4 18 5 16 7 1 8 2 9 3 10 4 11 5 12 6 13
REMARK SMILES IDX 7 14 8 16 9 17 10 18 15 19 11 20 14 21 12 22 13 23 22 26
REMARK SMILES IDX 23 27 24 28 25 29 26 31 27 32 28 33 89 34 29 35 88 36 30 37
REMARK SMILES IDX 31 38 32 39 82 40 33 41 87 42 81 43 83 44 34 45 86 46 80 47
REMARK SMILES IDX 79 48 35 50 67 51 47 52 66 53 48 54 51 55 65 56 84 57 49 58
REMARK SMILES IDX 50 59 64 61 85 62 52 63 36 64 37 65 45 66 38 67 40 68 46 69
REMARK SMILES IDX 39 70 41 71 42 72 43 73 44 74 68 75 69 76 77 77 70 78 72 79
REMARK SMILES IDX 78 80 71 81 73 82 74 83 75 84 76 85 53 86 54 87 62 88 55 89
REMARK SMILES IDX 57 90 63 91 56 92 58 93 59 94 60 95 61 96
REMARK H PARENT 19 6 6 15 13 24 13 25 24 30 83 49 51 60
REMARK Flexibility Score: inf
ROOT
ATOM      1  C   UNL A   1      36.278  21.060  25.479  1.00  0.00     0.023 C 
ENDROOT
BRANCH   1   2
ATOM      2  C   UNL A   1      35.103  21.164  24.508  1.00  0.00     0.116 C 
BRANCH   2   3
ATOM      3  N   UNL A   1      34.810  22.499  24.050  1.00  0.00    -0.352 N 
ATOM      4  C   UNL A   1      34.042  23.545  24.485  1.00  0.00     0.256 C 
ATOM      5  O   UNL A   1      34.171  24.569  23.802  1.00  0.00    -0.269 OA
ATOM      6  H   UNL A   1      35.282  22.712  23.212  1.00  0.00     0.163 HD
BRANCH   4   7
ATOM      7  C   UNL A   1      33.026  23.510  25.550  1.00  0.00     0.097 A 
ATOM      8  C   UNL A   1      34.045  22.556  27.835  1.00  0.00     0.069 C 
ATOM      9  C   UNL A   1      32.965  22.986  26.909  1.00  0.00     0.066 A 
ATOM     10  N   UNL A   1      31.746  22.918  27.456  1.00  0.00    -0.195 NA
ATOM     11  S   UNL A   1      30.676  23.675  26.474  1.00  0.00    -0.017 S 
ATOM     12  C   UNL A   1      31.829  24.221  25.355  1.00  0.00     0.129 A 
BRANCH  12  13
ATOM     13  N   UNL A   1      31.512  25.124  24.349  1.00  0.00    -0.312 N 
ATOM     14  C   UNL A   1      31.467  26.504  24.352  1.00  0.00     0.256 C 
ATOM     15  H   UNL A   1      31.280  24.710  23.487  1.00  0.00     0.171 HD
ATOM     16  O   UNL A   1      30.888  27.117  23.455  1.00  0.00    -0.269 OA
BRANCH  14  17
ATOM     17  C   UNL A   1      32.140  27.303  25.399  1.00  0.00     0.040 A 
ATOM     18  C   UNL A   1      31.498  27.633  26.596  1.00  0.00     0.016 A 
ATOM     19  C   UNL A   1      33.442  27.748  25.159  1.00  0.00     0.016 A 
ATOM     20  C   UNL A   1      32.116  28.512  27.491  1.00  0.00     0.026 A 
ATOM     21  C   UNL A   1      34.058  28.612  26.069  1.00  0.00     0.026 A 
ATOM     22  C   UNL A   1      33.395  29.015  27.232  1.00  0.00     0.031 A 
BRANCH  22  23
ATOM     23  N   UNL A   1      33.954  29.976  28.058  1.00  0.00    -0.399 N 
ATOM     24  H   UNL A   1      34.562  30.654  27.683  1.00  0.00     0.156 HD
ATOM     25  H   UNL A   1      33.743  29.981  29.019  1.00  0.00     0.156 HD
ENDBRANCH  22  23
ENDBRANCH  14  17
ENDBRANCH  12  13
ENDBRANCH   4   7
ENDBRANCH   2   3
ENDBRANCH   1   2
BRANCH   1  26
ATOM     26  C   UNL A   1      37.530  20.367  24.920  1.00  0.00     0.023 C 
BRANCH  26  27
ATOM     27  C   UNL A   1      38.844  20.703  25.628  1.00  0.00     0.116 C 
BRANCH  27  28
ATOM     28  N   UNL A   1      39.768  19.574  25.702  1.00  0.00    -0.352 N 
ATOM     29  C   UNL A   1      41.136  19.624  25.920  1.00  0.00     0.251 C 
ATOM     30  H   UNL A   1      39.376  18.679  25.586  1.00  0.00     0.163 HD
ATOM     31  O   UNL A   1      41.862  18.704  25.592  1.00  0.00    -0.269 OA
BRANCH  29  32
ATOM     32  C   UNL A   1      41.691  20.829  26.565  1.00  0.00     0.039 A 
ATOM     33  C   UNL A   1      42.079  21.928  25.799  1.00  0.00     0.014 A 
ATOM     34  C   UNL A   1      41.739  20.868  27.958  1.00  0.00     0.014 A 
ATOM     35  C   UNL A   1      42.415  23.112  26.450  1.00  0.00     0.010 A 
ATOM     36  C   UNL A   1      41.984  22.065  28.599  1.00  0.00     0.010 A 
ATOM     37  C   UNL A   1      42.327  23.192  27.851  1.00  0.00    -0.014 A 
BRANCH  37  38
ATOM     38  C   UNL A   1      42.396  24.505  28.500  1.00  0.00     0.031 A 
ATOM     39  C   UNL A   1      41.212  25.372  28.241  1.00  0.00     0.074 A 
ATOM     40  C   UNL A   1      43.312  24.857  29.430  1.00  0.00     0.049 A 
ATOM     41  N   UNL A   1      41.165  26.443  27.518  1.00  0.00    -0.248 NA
ATOM     42  C   UNL A   1      39.893  24.919  28.715  1.00  0.00     0.031 C 
ATOM     43  C   UNL A   1      44.333  23.988  30.027  1.00  0.00     0.029 A 
ATOM     44  N   UNL A   1      43.439  26.015  30.148  1.00  0.00    -0.354 N 
ATOM     45  C   UNL A   1      39.876  26.948  27.695  1.00  0.00     0.074 A 
ATOM     46  C   UNL A   1      39.091  25.868  28.225  1.00  0.00     0.031 C 
ATOM     47  C   UNL A   1      44.777  24.542  31.173  1.00  0.00     0.029 A 
ATOM     48  C   UNL A   1      44.219  25.876  31.292  1.00  0.00     0.049 A 
ATOM     49  H   UNL A   1      43.019  26.864  29.881  1.00  0.00     0.167 HD
ATOM     50  C   UNL A   1      39.661  28.293  27.717  1.00  0.00     0.034 A 
ATOM     51  C   UNL A   1      44.396  26.774  32.289  1.00  0.00     0.034 A 
ATOM     52  C   UNL A   1      40.827  29.008  27.268  1.00  0.00     0.049 A 
ATOM     53  C   UNL A   1      44.112  28.116  31.745  1.00  0.00     0.074 A 
ATOM     54  C   UNL A   1      41.488  29.252  26.088  1.00  0.00     0.029 A 
ATOM     55  N   UNL A   1      41.676  29.329  28.292  1.00  0.00    -0.354 N 
ATOM     56  N   UNL A   1      44.852  28.687  30.837  1.00  0.00    -0.248 NA
ATOM     57  C   UNL A   1      42.821  28.745  31.992  1.00  0.00     0.031 C 
ATOM     58  C   UNL A   1      42.828  29.586  26.448  1.00  0.00     0.029 A 
ATOM     59  C   UNL A   1      42.939  29.565  27.838  1.00  0.00     0.049 A 
ATOM     60  H   UNL A   1      41.408  29.381  29.239  1.00  0.00     0.167 HD
ATOM     61  C   UNL A   1      43.948  29.422  30.096  1.00  0.00     0.074 A 
ATOM     62  C   UNL A   1      42.787  29.590  30.958  1.00  0.00     0.031 C 
ATOM     63  C   UNL A   1      44.069  29.509  28.740  1.00  0.00     0.034 A 
BRANCH  50  64
ATOM     64  C   UNL A   1      38.661  29.024  28.604  1.00  0.00     0.023 A 
ATOM     65  C   UNL A   1      37.939  30.087  28.006  1.00  0.00     0.012 A 
ATOM     66  C   UNL A   1      38.640  28.964  30.016  1.00  0.00     0.148 A 
ATOM     67  C   UNL A   1      37.292  31.067  28.769  1.00  0.00     0.002 A 
ATOM     68  C   UNL A   1      37.936  29.900  30.769  1.00  0.00     0.091 A 
ATOM     69  F   UNL A   1      39.415  28.091  30.662  1.00  0.00    -0.205 F 
ATOM     70  C   UNL A   1      37.289  30.972  30.153  1.00  0.00     0.022 A 
BRANCH  68  71
ATOM     71  S   UNL A   1      37.877  29.809  32.563  1.00  0.00     0.127 S 
ATOM     72  O   UNL A   1      39.258  30.125  32.914  1.00  0.00    -0.237 OA
ATOM     73  O   UNL A   1      36.899  30.850  32.880  1.00  0.00    -0.237 OA
ATOM     74  O   UNL A   1      37.428  28.456  32.868  1.00  0.00    -0.744 OA
ENDBRANCH  68  71
ENDBRANCH  50  64
BRANCH  51  75
ATOM     75  C   UNL A   1      44.713  26.563  33.717  1.00  0.00     0.023 A 
ATOM     76  C   UNL A   1      46.000  26.866  34.204  1.00  0.00     0.012 A 
ATOM     77  C   UNL A   1      43.682  26.326  34.651  1.00  0.00     0.148 A 
ATOM     78  C   UNL A   1      46.243  26.970  35.578  1.00  0.00     0.002 A 
ATOM     79  C   UNL A   1      43.929  26.426  36.017  1.00  0.00     0.091 A 
ATOM     80  F   UNL A   1      42.446  26.082  34.194  1.00  0.00    -0.205 F 
ATOM     81  C   UNL A   1      45.206  26.763  36.483  1.00  0.00     0.022 A 
BRANCH  79  82
ATOM     82  S   UNL A   1      42.640  26.194  37.248  1.00  0.00     0.127 S 
ATOM     83  O   UNL A   1      42.428  24.747  37.190  1.00  0.00    -0.237 OA
ATOM     84  O   UNL A   1      43.296  26.669  38.463  1.00  0.00    -0.237 OA
ATOM     85  O   UNL A   1      41.506  26.986  36.790  1.00  0.00    -0.744 OA
ENDBRANCH  79  82
ENDBRANCH  51  75
BRANCH  63  86
ATOM     86  C   UNL A   1      45.431  29.334  28.143  1.00  0.00     0.023 A 
ATOM     87  C   UNL A   1      45.885  28.117  27.602  1.00  0.00     0.012 A 
ATOM     88  C   UNL A   1      46.241  30.477  28.038  1.00  0.00     0.148 A 
ATOM     89  C   UNL A   1      47.137  28.041  26.984  1.00  0.00     0.002 A 
ATOM     90  C   UNL A   1      47.459  30.409  27.381  1.00  0.00     0.091 A 
ATOM     91  F   UNL A   1      45.793  31.624  28.574  1.00  0.00    -0.205 F 
ATOM     92  C   UNL A   1      47.918  29.189  26.861  1.00  0.00     0.022 A 
BRANCH  90  93
ATOM     93  S   UNL A   1      48.443  31.881  27.090  1.00  0.00     0.127 S 
ATOM     94  O   UNL A   1      49.639  31.330  26.457  1.00  0.00    -0.237 OA
ATOM     95  O   UNL A   1      47.583  32.663  26.201  1.00  0.00    -0.237 OA
ATOM     96  O   UNL A   1      48.647  32.487  28.401  1.00  0.00    -0.744 OA
ENDBRANCH  90  93
ENDBRANCH  63  86
ENDBRANCH  37  38
ENDBRANCH  29  32
ENDBRANCH  27  28
ENDBRANCH  26  27
ENDBRANCH   1  26
TORSDOF 17
ENDMDL
MODEL 3
REMARK VINA RESULT:     -11.9      2.962      7.815
REMARK SMILES Cc1nsc(NC(=O)c2ccc(N)cc2)c1C(=O)NCCCCNC(=O)c1ccc(-c2c3nc(c(-c4cccc(S(=O)(=O)[O-])c4F)c4ccc([nH]4)c(-c4cccc(S(=O)(=O)[O-])c4F)c4nc(c(-c5cccc(S(=O)(=O)[O-])c5F)c5ccc2[nH]5)C=C4)C=C3)cc1
REMARK SMILES IDX 21 1 20 2 19 3 17 4 18 5 16 7 1 8 2 9 3 10 4 11 5 12 6 13
REMARK SMILES IDX 7 14 8 16 9 17 10 18 15 19 11 20 14 21 12 22 13 23 22 26
REMARK SMILES IDX 23 27 24 28 25 29 26 31 27 32 28 33 89 34 29 35 88 36 30 37
REMARK SMILES IDX 31 38 32 39 82 40 33 41 87 42 81 43 83 44 34 45 86 46 80 47
REMARK SMILES IDX 79 48 35 50 67 51 47 52 66 53 48 54 51 55 65 56 84 57 49 58
REMARK SMILES IDX 50 59 64 61 85 62 52 63 36 64 37 65 45 66 38 67 40 68 46 69
REMARK SMILES IDX 39 70 41 71 42 72 43 73 44 74 68 75 69 76 77 77 70 78 72 79
REMARK SMILES IDX 78 80 71 81 73 82 74 83 75 84 76 85 53 86 54 87 62 88 55 89
REMARK SMILES IDX 57 90 63 91 56 92 58 93 59 94 60 95 61 96
REMARK H PARENT 19 6 6 15 13 24 13 25 24 30 83 49 51 60
REMARK Flexibility Score: inf
ROOT
ATOM      1  C   UNL A   1      34.828  30.296  27.251  1.00  0.00     0.023 C 
ENDROOT
BRANCH   1   2
ATOM      2  C   UNL A   1      34.256  28.920  26.916  1.00  0.00     0.116 C 
BRANCH   2   3
ATOM      3  N   UNL A   1      32.994  28.617  27.544  1.00  0.00    -0.352 N 
ATOM      4  C   UNL A   1      31.878  27.896  27.217  1.00  0.00     0.256 C 
ATOM      5  O   UNL A   1      31.048  27.830  28.133  1.00  0.00    -0.269 OA
ATOM      6  H   UNL A   1      32.917  29.033  28.433  1.00  0.00     0.163 HD
BRANCH   4   7
ATOM      7  C   UNL A   1      31.540  27.344  25.895  1.00  0.00     0.097 A 
ATOM      8  C   UNL A   1      32.318  28.987  23.927  1.00  0.00     0.069 C 
ATOM      9  C   UNL A   1      31.593  27.832  24.522  1.00  0.00     0.066 A 
ATOM     10  N   UNL A   1      30.928  27.108  23.616  1.00  0.00    -0.195 NA
ATOM     11  S   UNL A   1      30.414  25.719  24.316  1.00  0.00    -0.017 S 
ATOM     12  C   UNL A   1      31.171  25.990  25.809  1.00  0.00     0.129 A 
BRANCH  12  13
ATOM     13  N   UNL A   1      31.243  25.010  26.790  1.00  0.00    -0.312 N 
ATOM     14  C   UNL A   1      32.036  23.885  26.889  1.00  0.00     0.256 C 
ATOM     15  H   UNL A   1      30.622  25.140  27.543  1.00  0.00     0.171 HD
ATOM     16  O   UNL A   1      31.757  22.985  27.682  1.00  0.00    -0.269 OA
BRANCH  14  17
ATOM     17  C   UNL A   1      33.268  23.727  26.086  1.00  0.00     0.040 A 
ATOM     18  C   UNL A   1      33.618  22.500  25.513  1.00  0.00     0.016 A 
ATOM     19  C   UNL A   1      34.101  24.836  25.924  1.00  0.00     0.016 A 
ATOM     20  C   UNL A   1      34.862  22.360  24.889  1.00  0.00     0.026 A 
ATOM     21  C   UNL A   1      35.333  24.690  25.282  1.00  0.00     0.026 A 
ATOM     22  C   UNL A   1      35.732  23.449  24.776  1.00  0.00     0.031 A 
BRANCH  22  23
ATOM     23  N   UNL A   1      37.008  23.279  24.265  1.00  0.00    -0.399 N 
ATOM     24  H   UNL A   1      37.780  23.238  24.875  1.00  0.00     0.156 HD
ATOM     25  H   UNL A   1      37.143  23.199  23.294  1.00  0.00     0.156 HD
ENDBRANCH  22  23
ENDBRANCH  14  17
ENDBRANCH  12  13
ENDBRANCH   4   7
ENDBRANCH   2   3
ENDBRANCH   1   2
BRANCH   1  26
ATOM     26  C   UNL A   1      33.826  31.291  27.857  1.00  0.00     0.023 C 
BRANCH  26  27
ATOM     27  C   UNL A   1      34.399  32.659  28.238  1.00  0.00     0.116 C 
BRANCH  27  28
ATOM     28  N   UNL A   1      34.418  32.899  29.678  1.00  0.00    -0.352 N 
ATOM     29  C   UNL A   1      35.154  32.214  30.632  1.00  0.00     0.251 C 
ATOM     30  H   UNL A   1      33.845  33.628  30.009  1.00  0.00     0.163 HD
ATOM     31  O   UNL A   1      34.830  32.220  31.805  1.00  0.00    -0.269 OA
BRANCH  29  32
ATOM     32  C   UNL A   1      36.350  31.475  30.185  1.00  0.00     0.039 A 
ATOM     33  C   UNL A   1      37.478  32.159  29.734  1.00  0.00     0.014 A 
ATOM     34  C   UNL A   1      36.348  30.085  30.306  1.00  0.00     0.014 A 
ATOM     35  C   UNL A   1      38.648  31.439  29.505  1.00  0.00     0.010 A 
ATOM     36  C   UNL A   1      37.531  29.388  30.166  1.00  0.00     0.010 A 
ATOM     37  C   UNL A   1      38.685  30.058  29.762  1.00  0.00    -0.014 A 
BRANCH  37  38
ATOM     38  C   UNL A   1      39.980  29.370  29.801  1.00  0.00     0.031 A 
ATOM     39  C   UNL A   1      40.521  29.173  31.176  1.00  0.00     0.074 A 
ATOM     40  C   UNL A   1      40.558  28.757  28.744  1.00  0.00     0.049 A 
ATOM     41  N   UNL A   1      41.539  29.763  31.712  1.00  0.00    -0.248 NA
ATOM     42  C   UNL A   1      39.756  28.339  32.118  1.00  0.00     0.031 C 
ATOM     43  C   UNL A   1      39.978  28.582  27.407  1.00  0.00     0.029 A 
ATOM     44  N   UNL A   1      41.718  28.034  28.670  1.00  0.00    -0.354 N 
ATOM     45  C   UNL A   1      41.707  29.148  32.952  1.00  0.00     0.074 A 
ATOM     46  C   UNL A   1      40.469  28.476  33.239  1.00  0.00     0.031 C 
ATOM     47  C   UNL A   1      40.636  27.599  26.759  1.00  0.00     0.029 A 
ATOM     48  C   UNL A   1      41.788  27.211  27.550  1.00  0.00     0.049 A 
ATOM     49  H   UNL A   1      42.432  28.089  29.345  1.00  0.00     0.167 HD
ATOM     50  C   UNL A   1      42.956  28.959  33.464  1.00  0.00     0.034 A 
ATOM     51  C   UNL A   1      42.711  26.259  27.277  1.00  0.00     0.034 A 
ATOM     52  C   UNL A   1      43.935  29.702  32.716  1.00  0.00     0.049 A 
ATOM     53  C   UNL A   1      43.934  26.583  28.036  1.00  0.00     0.074 A 
ATOM     54  C   UNL A   1      44.326  31.010  32.555  1.00  0.00     0.029 A 
ATOM     55  N   UNL A   1      44.467  28.981  31.682  1.00  0.00    -0.354 N 
ATOM     56  N   UNL A   1      44.664  27.636  27.792  1.00  0.00    -0.248 NA
ATOM     57  C   UNL A   1      44.222  25.893  29.286  1.00  0.00     0.031 C 
ATOM     58  C   UNL A   1      44.989  31.072  31.293  1.00  0.00     0.029 A 
ATOM     59  C   UNL A   1      45.008  29.796  30.732  1.00  0.00     0.049 A 
ATOM     60  H   UNL A   1      44.459  27.998  31.630  1.00  0.00     0.167 HD
ATOM     61  C   UNL A   1      45.143  27.994  29.037  1.00  0.00     0.074 A 
ATOM     62  C   UNL A   1      45.022  26.797  29.857  1.00  0.00     0.031 C 
ATOM     63  C   UNL A   1      45.245  29.307  29.391  1.00  0.00     0.034 A 
BRANCH  50  64
ATOM     64  C   UNL A   1      43.420  27.748  34.263  1.00  0.00     0.023 A 
ATOM     65  C   UNL A   1      44.058  28.010  35.501  1.00  0.00     0.012 A 
ATOM     66  C   UNL A   1      43.577  26.446  33.737  1.00  0.00     0.148 A 
ATOM     67  C   UNL A   1      44.857  27.056  36.142  1.00  0.00     0.002 A 
ATOM     68  C   UNL A   1      44.314  25.477  34.413  1.00  0.00     0.091 A 
ATOM     69  F   UNL A   1      43.140  26.161  32.509  1.00  0.00    -0.205 F 
ATOM     70  C   UNL A   1      44.984  25.786  35.598  1.00  0.00     0.022 A 
BRANCH  68  71
ATOM     71  S   UNL A   1      44.488  23.809  33.766  1.00  0.00     0.127 S 
ATOM     72  O   UNL A   1      43.138  23.286  33.945  1.00  0.00    -0.237 OA
ATOM     73  O   UNL A   1      44.879  24.069  32.380  1.00  0.00    -0.237 OA
ATOM     74  O   UNL A   1      45.532  23.188  34.572  1.00  0.00    -0.744 OA
ENDBRANCH  68  71
ENDBRANCH  50  64
BRANCH  51  75
ATOM     75  C   UNL A   1      42.599  25.026  26.469  1.00  0.00     0.023 A 
ATOM     76  C   UNL A   1      43.604  24.703  25.536  1.00  0.00     0.012 A 
ATOM     77  C   UNL A   1      41.652  24.035  26.805  1.00  0.00     0.148 A 
ATOM     78  C   UNL A   1      43.688  23.419  24.986  1.00  0.00     0.002 A 
ATOM     79  C   UNL A   1      41.737  22.761  26.253  1.00  0.00     0.091 A 
ATOM     80  F   UNL A   1      40.721  24.322  27.726  1.00  0.00    -0.205 F 
ATOM     81  C   UNL A   1      42.764  22.445  25.354  1.00  0.00     0.022 A 
BRANCH  79  82
ATOM     82  S   UNL A   1      40.596  21.443  26.691  1.00  0.00     0.127 S 
ATOM     83  O   UNL A   1      40.728  21.406  28.148  1.00  0.00    -0.237 OA
ATOM     84  O   UNL A   1      39.324  21.971  26.204  1.00  0.00    -0.237 OA
ATOM     85  O   UNL A   1      41.087  20.250  26.013  1.00  0.00    -0.744 OA
ENDBRANCH  79  82
ENDBRANCH  51  75
BRANCH  63  86
ATOM     86  C   UNL A   1      45.412  30.319  28.299  1.00  0.00     0.023 A 
ATOM     87  C   UNL A   1      44.328  30.900  27.615  1.00  0.00     0.012 A 
ATOM     88  C   UNL A   1      46.715  30.768  28.029  1.00  0.00     0.148 A 
ATOM     89  C   UNL A   1      44.546  31.899  26.663  1.00  0.00     0.002 A 
ATOM     90  C   UNL A   1      46.923  31.794  27.121  1.00  0.00     0.091 A 
ATOM     91  F   UNL A   1      47.734  30.189  28.684  1.00  0.00    -0.205 F 
ATOM     92  C   UNL A   1      45.842  32.356  26.425  1.00  0.00     0.022 A 
BRANCH  90  93
ATOM     93  S   UNL A   1      48.554  32.498  26.871  1.00  0.00     0.127 S 
ATOM     94  O   UNL A   1      48.308  33.473  25.811  1.00  0.00    -0.237 OA
ATOM     95  O   UNL A   1      48.849  33.078  28.182  1.00  0.00    -0.237 OA
ATOM     96  O   UNL A   1      49.418  31.380  26.510  1.00  0.00    -0.744 OA
ENDBRANCH  90  93
ENDBRANCH  63  86
ENDBRANCH  37  38
ENDBRANCH  29  32
ENDBRANCH  27  28
ENDBRANCH  26  27
ENDBRANCH   1  26
TORSDOF 17
ENDMDL
