MODEL 1
REMARK VINA RESULT:     -12.6      0.000      0.000
REMARK SMILES O=C(NCCCCNC(=O)[C@]1(C2CCCC2)CCOc2ccccc21)c1ccc(-c2c3nc(c(-c4cccc(S(=O)(=O)[O-])c4F)c4ccc([nH]4)c(-c4cccc(S(=O)(=O)[O-])c4F)c4nc(c(-c5cccc(S(=O)(=O)[O-])c5F)c5ccc2[nH]5)C=C4)C=C3)cc1
REMARK SMILES IDX 4 1 3 2 1 3 2 4 26 6 27 7 88 8 28 9 87 10 29 11 30 12 31 13
REMARK SMILES IDX 81 14 32 15 86 16 80 17 82 18 33 19 85 20 79 21 78 22 34 24
REMARK SMILES IDX 66 25 46 26 65 27 47 28 50 29 64 30 83 31 48 32 49 33 63 35
REMARK SMILES IDX 84 36 51 37 35 38 36 39 44 40 37 41 39 42 45 43 38 44 40 45
REMARK SMILES IDX 41 46 42 47 43 48 67 49 68 50 76 51 69 52 71 53 77 54 70 55
REMARK SMILES IDX 72 56 73 57 74 58 75 59 52 60 53 61 61 62 54 63 56 64 62 65
REMARK SMILES IDX 55 66 57 67 58 68 59 69 60 70 5 71 6 72 7 73 8 74 9 75 10 77
REMARK SMILES IDX 11 78 17 79 25 80 18 81 20 82 24 83 19 84 21 85 23 86 22 87
REMARK SMILES IDX 12 88 13 89 16 90 14 91 15 92
REMARK H PARENT 3 5 82 23 50 34 8 76
REMARK Flexibility Score: inf
ROOT
ATOM      1  C   UNL A   1      32.640  29.580  26.006  1.00  0.00     0.116 C 
ENDROOT
BRANCH   1   2
ATOM      2  N   UNL A   1      32.269  30.926  26.423  1.00  0.00    -0.352 N 
ATOM      3  O   UNL A   1      32.543  32.892  27.515  1.00  0.00    -0.269 OA
ATOM      4  C   UNL A   1      33.012  31.812  27.173  1.00  0.00     0.251 C 
ATOM      5  H   UNL A   1      31.380  31.240  26.137  1.00  0.00     0.163 HD
BRANCH   4   6
ATOM      6  C   UNL A   1      34.367  31.398  27.594  1.00  0.00     0.039 A 
ATOM      7  C   UNL A   1      34.601  30.066  27.933  1.00  0.00     0.014 A 
ATOM      8  C   UNL A   1      35.352  32.368  27.787  1.00  0.00     0.014 A 
ATOM      9  C   UNL A   1      35.737  29.744  28.659  1.00  0.00     0.010 A 
ATOM     10  C   UNL A   1      36.548  32.013  28.415  1.00  0.00     0.010 A 
ATOM     11  C   UNL A   1      36.727  30.711  28.909  1.00  0.00    -0.014 A 
BRANCH  11  12
ATOM     12  C   UNL A   1      37.945  30.310  29.661  1.00  0.00     0.031 A 
ATOM     13  C   UNL A   1      38.157  30.711  31.097  1.00  0.00     0.074 A 
ATOM     14  C   UNL A   1      38.848  29.529  29.037  1.00  0.00     0.049 A 
ATOM     15  N   UNL A   1      39.139  30.391  31.899  1.00  0.00    -0.248 NA
ATOM     16  C   UNL A   1      37.150  31.592  31.713  1.00  0.00     0.031 C 
ATOM     17  C   UNL A   1      38.766  29.111  27.635  1.00  0.00     0.029 A 
ATOM     18  N   UNL A   1      39.991  28.927  29.495  1.00  0.00    -0.354 N 
ATOM     19  C   UNL A   1      38.909  31.077  33.085  1.00  0.00     0.074 A 
ATOM     20  C   UNL A   1      37.684  31.826  32.906  1.00  0.00     0.031 C 
ATOM     21  C   UNL A   1      39.769  28.266  27.367  1.00  0.00     0.029 A 
ATOM     22  C   UNL A   1      40.607  28.136  28.553  1.00  0.00     0.049 A 
ATOM     23  H   UNL A   1      40.337  29.048  30.409  1.00  0.00     0.167 HD
ATOM     24  C   UNL A   1      39.645  31.072  34.224  1.00  0.00     0.034 A 
ATOM     25  C   UNL A   1      41.722  27.388  28.631  1.00  0.00     0.034 A 
ATOM     26  C   UNL A   1      40.823  30.267  34.420  1.00  0.00     0.049 A 
ATOM     27  C   UNL A   1      42.475  27.347  29.927  1.00  0.00     0.074 A 
ATOM     28  C   UNL A   1      41.596  30.137  35.561  1.00  0.00     0.029 A 
ATOM     29  N   UNL A   1      41.394  29.450  33.456  1.00  0.00    -0.354 N 
ATOM     30  N   UNL A   1      42.178  27.919  31.068  1.00  0.00    -0.248 NA
ATOM     31  C   UNL A   1      43.706  26.548  29.952  1.00  0.00     0.031 C 
ATOM     32  C   UNL A   1      42.639  29.247  35.284  1.00  0.00     0.029 A 
ATOM     33  C   UNL A   1      42.512  28.817  33.974  1.00  0.00     0.049 A 
ATOM     34  H   UNL A   1      41.056  29.338  32.539  1.00  0.00     0.167 HD
ATOM     35  C   UNL A   1      43.178  27.540  31.953  1.00  0.00     0.074 A 
ATOM     36  C   UNL A   1      44.070  26.661  31.223  1.00  0.00     0.031 C 
ATOM     37  C   UNL A   1      43.359  27.908  33.245  1.00  0.00     0.034 A 
BRANCH  24  38
ATOM     38  C   UNL A   1      39.181  31.934  35.370  1.00  0.00     0.023 A 
ATOM     39  C   UNL A   1      38.306  31.399  36.336  1.00  0.00     0.012 A 
ATOM     40  C   UNL A   1      39.671  33.246  35.533  1.00  0.00     0.148 A 
ATOM     41  C   UNL A   1      37.906  32.163  37.433  1.00  0.00     0.002 A 
ATOM     42  C   UNL A   1      39.295  33.989  36.648  1.00  0.00     0.091 A 
ATOM     43  F   UNL A   1      40.482  33.749  34.592  1.00  0.00    -0.205 F 
ATOM     44  C   UNL A   1      38.409  33.452  37.595  1.00  0.00     0.022 A 
BRANCH  42  45
ATOM     45  S   UNL A   1      39.952  35.631  36.971  1.00  0.00     0.127 S 
ATOM     46  O   UNL A   1      39.295  35.970  38.232  1.00  0.00    -0.237 OA
ATOM     47  O   UNL A   1      41.390  35.378  37.083  1.00  0.00    -0.237 OA
ATOM     48  O   UNL A   1      39.572  36.440  35.821  1.00  0.00    -0.744 OA
ENDBRANCH  42  45
ENDBRANCH  24  38
BRANCH  25  49
ATOM     49  C   UNL A   1      42.139  26.570  27.457  1.00  0.00     0.023 A 
ATOM     50  C   UNL A   1      42.961  27.150  26.473  1.00  0.00     0.012 A 
ATOM     51  C   UNL A   1      41.800  25.209  27.355  1.00  0.00     0.148 A 
ATOM     52  C   UNL A   1      43.430  26.388  25.401  1.00  0.00     0.002 A 
ATOM     53  C   UNL A   1      42.322  24.440  26.321  1.00  0.00     0.091 A 
ATOM     54  F   UNL A   1      40.997  24.679  28.288  1.00  0.00    -0.205 F 
ATOM     55  C   UNL A   1      43.125  25.031  25.335  1.00  0.00     0.022 A 
BRANCH  53  56
ATOM     56  S   UNL A   1      42.110  22.656  26.273  1.00  0.00     0.127 S 
ATOM     57  O   UNL A   1      42.774  22.241  27.505  1.00  0.00    -0.237 OA
ATOM     58  O   UNL A   1      40.654  22.516  26.277  1.00  0.00    -0.237 OA
ATOM     59  O   UNL A   1      42.742  22.233  25.028  1.00  0.00    -0.744 OA
ENDBRANCH  53  56
ENDBRANCH  25  49
BRANCH  37  60
ATOM     60  C   UNL A   1      44.564  27.353  33.952  1.00  0.00     0.023 A 
ATOM     61  C   UNL A   1      45.786  28.052  33.887  1.00  0.00     0.012 A 
ATOM     62  C   UNL A   1      44.479  26.175  34.718  1.00  0.00     0.148 A 
ATOM     63  C   UNL A   1      46.913  27.570  34.548  1.00  0.00     0.002 A 
ATOM     64  C   UNL A   1      45.597  25.722  35.407  1.00  0.00     0.091 A 
ATOM     65  F   UNL A   1      43.315  25.510  34.745  1.00  0.00    -0.205 F 
ATOM     66  C   UNL A   1      46.817  26.412  35.317  1.00  0.00     0.022 A 
BRANCH  64  67
ATOM     67  S   UNL A   1      45.526  24.285  36.483  1.00  0.00     0.127 S 
ATOM     68  O   UNL A   1      44.520  24.693  37.462  1.00  0.00    -0.237 OA
ATOM     69  O   UNL A   1      45.095  23.225  35.571  1.00  0.00    -0.237 OA
ATOM     70  O   UNL A   1      46.880  24.117  36.996  1.00  0.00    -0.744 OA
ENDBRANCH  64  67
ENDBRANCH  37  60
ENDBRANCH  11  12
ENDBRANCH   4   6
ENDBRANCH   1   2
BRANCH   1  71
ATOM     71  C   UNL A   1      31.605  28.892  25.133  1.00  0.00     0.023 C 
BRANCH  71  72
ATOM     72  C   UNL A   1      31.063  27.580  25.685  1.00  0.00     0.023 C 
BRANCH  72  73
ATOM     73  C   UNL A   1      32.030  26.824  26.596  1.00  0.00     0.116 C 
BRANCH  73  74
ATOM     74  N   UNL A   1      31.501  25.524  26.967  1.00  0.00    -0.355 N 
ATOM     75  C   UNL A   1      31.628  24.235  26.571  1.00  0.00     0.231 C 
ATOM     76  H   UNL A   1      30.872  25.602  27.720  1.00  0.00     0.163 HD
ATOM     77  O   UNL A   1      30.875  23.480  27.209  1.00  0.00    -0.274 OA
BRANCH  75  78
ATOM     78  C   UNL A   1      32.651  23.625  25.518  1.00  0.00     0.084 C 
ATOM     79  C   UNL A   1      34.047  23.910  26.147  1.00  0.00     0.064 C 
ATOM     80  C   UNL A   1      32.549  24.458  24.231  1.00  0.00     0.010 A 
ATOM     81  C   UNL A   1      35.171  23.951  25.136  1.00  0.00     0.231 C 
ATOM     82  C   UNL A   1      33.684  25.032  23.639  1.00  0.00     0.123 A 
ATOM     83  C   UNL A   1      31.298  24.689  23.622  1.00  0.00     0.009 A 
ATOM     84  O   UNL A   1      34.962  24.909  24.106  1.00  0.00    -0.493 OA
ATOM     85  C   UNL A   1      33.564  25.835  22.501  1.00  0.00     0.047 A 
ATOM     86  C   UNL A   1      31.184  25.492  22.485  1.00  0.00     0.001 A 
ATOM     87  C   UNL A   1      32.319  26.069  21.925  1.00  0.00     0.004 A 
BRANCH  78  88
ATOM     88  C   UNL A   1      32.436  22.122  25.173  1.00  0.00     0.009 C 
ATOM     89  C   UNL A   1      32.682  21.570  23.759  1.00  0.00     0.005 C 
ATOM     90  C   UNL A   1      33.252  21.114  25.984  1.00  0.00     0.005 C 
ATOM     91  C   UNL A   1      32.514  20.052  23.940  1.00  0.00     0.000 C 
ATOM     92  C   UNL A   1      32.795  19.774  25.419  1.00  0.00     0.000 C 
ENDBRANCH  78  88
ENDBRANCH  75  78
ENDBRANCH  73  74
ENDBRANCH  72  73
ENDBRANCH  71  72
ENDBRANCH   1  71
TORSDOF 15
ENDMDL
MODEL 2
REMARK VINA RESULT:     -12.6      0.733      2.029
REMARK SMILES O=C(NCCCCNC(=O)[C@]1(C2CCCC2)CCOc2ccccc21)c1ccc(-c2c3nc(c(-c4cccc(S(=O)(=O)[O-])c4F)c4ccc([nH]4)c(-c4cccc(S(=O)(=O)[O-])c4F)c4nc(c(-c5cccc(S(=O)(=O)[O-])c5F)c5ccc2[nH]5)C=C4)C=C3)cc1
REMARK SMILES IDX 4 1 3 2 1 3 2 4 26 6 27 7 88 8 28 9 87 10 29 11 30 12 31 13
REMARK SMILES IDX 81 14 32 15 86 16 80 17 82 18 33 19 85 20 79 21 78 22 34 24
REMARK SMILES IDX 66 25 46 26 65 27 47 28 50 29 64 30 83 31 48 32 49 33 63 35
REMARK SMILES IDX 84 36 51 37 35 38 36 39 44 40 37 41 39 42 45 43 38 44 40 45
REMARK SMILES IDX 41 46 42 47 43 48 67 49 68 50 76 51 69 52 71 53 77 54 70 55
REMARK SMILES IDX 72 56 73 57 74 58 75 59 52 60 53 61 61 62 54 63 56 64 62 65
REMARK SMILES IDX 55 66 57 67 58 68 59 69 60 70 5 71 6 72 7 73 8 74 9 75 10 77
REMARK SMILES IDX 11 78 17 79 25 80 18 81 20 82 24 83 19 84 21 85 23 86 22 87
REMARK SMILES IDX 12 88 13 89 16 90 14 91 15 92
REMARK H PARENT 3 5 82 23 50 34 8 76
REMARK Flexibility Score: inf
ROOT
ATOM      1  C   UNL A   1      33.092  29.668  25.406  1.00  0.00     0.116 C 
ENDROOT
BRANCH   1   2
ATOM      2  N   UNL A   1      32.555  30.841  26.085  1.00  0.00    -0.352 N 
ATOM      3  O   UNL A   1      32.536  32.496  27.632  1.00  0.00    -0.269 OA
ATOM      4  C   UNL A   1      33.138  31.570  27.100  1.00  0.00     0.251 C 
ATOM      5  H   UNL A   1      31.669  31.149  25.783  1.00  0.00     0.163 HD
BRANCH   4   6
ATOM      6  C   UNL A   1      34.483  31.165  27.559  1.00  0.00     0.039 A 
ATOM      7  C   UNL A   1      34.702  29.849  27.963  1.00  0.00     0.014 A 
ATOM      8  C   UNL A   1      35.473  32.136  27.720  1.00  0.00     0.014 A 
ATOM      9  C   UNL A   1      35.825  29.552  28.719  1.00  0.00     0.010 A 
ATOM     10  C   UNL A   1      36.658  31.801  28.381  1.00  0.00     0.010 A 
ATOM     11  C   UNL A   1      36.819  30.523  28.939  1.00  0.00    -0.014 A 
BRANCH  11  12
ATOM     12  C   UNL A   1      38.023  30.148  29.726  1.00  0.00     0.031 A 
ATOM     13  C   UNL A   1      38.206  30.594  31.152  1.00  0.00     0.074 A 
ATOM     14  C   UNL A   1      38.940  29.351  29.142  1.00  0.00     0.049 A 
ATOM     15  N   UNL A   1      39.174  30.301  31.983  1.00  0.00    -0.248 NA
ATOM     16  C   UNL A   1      37.186  31.490  31.722  1.00  0.00     0.031 C 
ATOM     17  C   UNL A   1      38.886  28.891  27.753  1.00  0.00     0.029 A 
ATOM     18  N   UNL A   1      40.075  28.767  29.641  1.00  0.00    -0.354 N 
ATOM     19  C   UNL A   1      38.919  31.022  33.143  1.00  0.00     0.074 A 
ATOM     20  C   UNL A   1      37.696  31.761  32.917  1.00  0.00     0.031 C 
ATOM     21  C   UNL A   1      39.896  28.041  27.530  1.00  0.00     0.029 A 
ATOM     22  C   UNL A   1      40.711  27.950  28.736  1.00  0.00     0.049 A 
ATOM     23  H   UNL A   1      40.403  28.917  30.557  1.00  0.00     0.167 HD
ATOM     24  C   UNL A   1      39.632  31.053  34.295  1.00  0.00     0.034 A 
ATOM     25  C   UNL A   1      41.827  27.208  28.858  1.00  0.00     0.034 A 
ATOM     26  C   UNL A   1      40.808  30.259  34.539  1.00  0.00     0.049 A 
ATOM     27  C   UNL A   1      42.554  27.208  30.168  1.00  0.00     0.074 A 
ATOM     28  C   UNL A   1      41.559  30.165  35.698  1.00  0.00     0.029 A 
ATOM     29  N   UNL A   1      41.400  29.414  33.611  1.00  0.00    -0.354 N 
ATOM     30  N   UNL A   1      42.234  27.814  31.286  1.00  0.00    -0.248 NA
ATOM     31  C   UNL A   1      43.786  26.414  30.242  1.00  0.00     0.031 C 
ATOM     32  C   UNL A   1      42.610  29.270  35.468  1.00  0.00     0.029 A 
ATOM     33  C   UNL A   1      42.509  28.800  34.169  1.00  0.00     0.049 A 
ATOM     34  H   UNL A   1      41.080  29.273  32.692  1.00  0.00     0.167 HD
ATOM     35  C   UNL A   1      43.217  27.465  32.201  1.00  0.00     0.074 A 
ATOM     36  C   UNL A   1      44.125  26.567  31.516  1.00  0.00     0.031 C 
ATOM     37  C   UNL A   1      43.372  27.872  33.485  1.00  0.00     0.034 A 
BRANCH  24  38
ATOM     38  C   UNL A   1      39.145  31.949  35.405  1.00  0.00     0.023 A 
ATOM     39  C   UNL A   1      38.202  31.460  36.333  1.00  0.00     0.012 A 
ATOM     40  C   UNL A   1      39.673  33.244  35.576  1.00  0.00     0.148 A 
ATOM     41  C   UNL A   1      37.778  32.254  37.399  1.00  0.00     0.002 A 
ATOM     42  C   UNL A   1      39.271  34.016  36.661  1.00  0.00     0.091 A 
ATOM     43  F   UNL A   1      40.549  33.703  34.670  1.00  0.00    -0.205 F 
ATOM     44  C   UNL A   1      38.319  33.525  37.569  1.00  0.00     0.022 A 
BRANCH  42  45
ATOM     45  S   UNL A   1      39.971  35.637  36.996  1.00  0.00     0.127 S 
ATOM     46  O   UNL A   1      39.289  36.005  38.235  1.00  0.00    -0.237 OA
ATOM     47  O   UNL A   1      41.396  35.339  37.152  1.00  0.00    -0.237 OA
ATOM     48  O   UNL A   1      39.653  36.452  35.831  1.00  0.00    -0.744 OA
ENDBRANCH  42  45
ENDBRANCH  24  38
BRANCH  25  49
ATOM     49  C   UNL A   1      42.268  26.356  27.718  1.00  0.00     0.023 A 
ATOM     50  C   UNL A   1      43.239  26.850  26.826  1.00  0.00     0.012 A 
ATOM     51  C   UNL A   1      41.798  25.039  27.562  1.00  0.00     0.148 A 
ATOM     52  C   UNL A   1      43.728  26.047  25.794  1.00  0.00     0.002 A 
ATOM     53  C   UNL A   1      42.336  24.224  26.572  1.00  0.00     0.091 A 
ATOM     54  F   UNL A   1      40.856  24.593  28.405  1.00  0.00    -0.205 F 
ATOM     55  C   UNL A   1      43.289  24.731  25.678  1.00  0.00     0.022 A 
BRANCH  53  56
ATOM     56  S   UNL A   1      41.943  22.473  26.476  1.00  0.00     0.127 S 
ATOM     57  O   UNL A   1      42.431  21.985  27.762  1.00  0.00    -0.237 OA
ATOM     58  O   UNL A   1      40.487  22.489  26.332  1.00  0.00    -0.237 OA
ATOM     59  O   UNL A   1      42.649  21.990  25.295  1.00  0.00    -0.744 OA
ENDBRANCH  53  56
ENDBRANCH  25  49
BRANCH  37  60
ATOM     60  C   UNL A   1      44.565  27.342  34.231  1.00  0.00     0.023 A 
ATOM     61  C   UNL A   1      45.783  28.048  34.176  1.00  0.00     0.012 A 
ATOM     62  C   UNL A   1      44.469  26.183  35.023  1.00  0.00     0.148 A 
ATOM     63  C   UNL A   1      46.899  27.589  34.874  1.00  0.00     0.002 A 
ATOM     64  C   UNL A   1      45.575  25.754  35.748  1.00  0.00     0.091 A 
ATOM     65  F   UNL A   1      43.309  25.511  35.042  1.00  0.00    -0.205 F 
ATOM     66  C   UNL A   1      46.792  26.450  35.668  1.00  0.00     0.022 A 
BRANCH  64  67
ATOM     67  S   UNL A   1      45.489  24.343  36.857  1.00  0.00     0.127 S 
ATOM     68  O   UNL A   1      44.985  23.296  35.971  1.00  0.00    -0.237 OA
ATOM     69  O   UNL A   1      46.883  24.175  37.268  1.00  0.00    -0.237 OA
ATOM     70  O   UNL A   1      44.593  24.748  37.933  1.00  0.00    -0.744 OA
ENDBRANCH  64  67
ENDBRANCH  37  60
ENDBRANCH  11  12
ENDBRANCH   4   6
ENDBRANCH   1   2
BRANCH   1  71
ATOM     71  C   UNL A   1      32.097  28.532  25.248  1.00  0.00     0.023 C 
BRANCH  71  72
ATOM     72  C   UNL A   1      31.945  27.632  26.467  1.00  0.00     0.023 C 
BRANCH  72  73
ATOM     73  C   UNL A   1      30.910  26.518  26.312  1.00  0.00     0.116 C 
BRANCH  73  74
ATOM     74  N   UNL A   1      31.389  25.267  26.872  1.00  0.00    -0.355 N 
ATOM     75  C   UNL A   1      31.963  24.122  26.432  1.00  0.00     0.231 C 
ATOM     76  H   UNL A   1      31.262  25.246  27.847  1.00  0.00     0.163 HD
ATOM     77  O   UNL A   1      32.127  23.305  27.353  1.00  0.00    -0.274 OA
BRANCH  75  78
ATOM     78  C   UNL A   1      32.506  23.789  24.975  1.00  0.00     0.084 C 
ATOM     79  C   UNL A   1      31.674  22.544  24.544  1.00  0.00     0.064 C 
ATOM     80  C   UNL A   1      33.969  23.337  25.114  1.00  0.00     0.010 A 
ATOM     81  C   UNL A   1      32.349  21.701  23.485  1.00  0.00     0.231 C 
ATOM     82  C   UNL A   1      34.412  22.121  24.573  1.00  0.00     0.123 A 
ATOM     83  C   UNL A   1      34.901  24.128  25.815  1.00  0.00     0.009 A 
ATOM     84  O   UNL A   1      33.636  21.240  23.875  1.00  0.00    -0.493 OA
ATOM     85  C   UNL A   1      35.733  21.700  24.760  1.00  0.00     0.047 A 
ATOM     86  C   UNL A   1      36.219  23.702  25.998  1.00  0.00     0.001 A 
ATOM     87  C   UNL A   1      36.635  22.484  25.473  1.00  0.00     0.004 A 
BRANCH  78  88
ATOM     88  C   UNL A   1      32.428  24.957  23.950  1.00  0.00     0.009 C 
ATOM     89  C   UNL A   1      33.474  25.134  22.837  1.00  0.00     0.005 C 
ATOM     90  C   UNL A   1      31.151  25.043  23.112  1.00  0.00     0.005 C 
ATOM     91  C   UNL A   1      32.899  26.283  21.992  1.00  0.00     0.000 C 
ATOM     92  C   UNL A   1      31.390  26.278  22.252  1.00  0.00     0.000 C 
ENDBRANCH  78  88
ENDBRANCH  75  78
ENDBRANCH  73  74
ENDBRANCH  72  73
ENDBRANCH  71  72
ENDBRANCH   1  71
TORSDOF 15
ENDMDL
MODEL 3
REMARK VINA RESULT:     -12.4      4.804      9.888
REMARK SMILES O=C(NCCCCNC(=O)[C@]1(C2CCCC2)CCOc2ccccc21)c1ccc(-c2c3nc(c(-c4cccc(S(=O)(=O)[O-])c4F)c4ccc([nH]4)c(-c4cccc(S(=O)(=O)[O-])c4F)c4nc(c(-c5cccc(S(=O)(=O)[O-])c5F)c5ccc2[nH]5)C=C4)C=C3)cc1
REMARK SMILES IDX 4 1 3 2 1 3 2 4 26 6 27 7 88 8 28 9 87 10 29 11 30 12 31 13
REMARK SMILES IDX 81 14 32 15 86 16 80 17 82 18 33 19 85 20 79 21 78 22 34 24
REMARK SMILES IDX 66 25 46 26 65 27 47 28 50 29 64 30 83 31 48 32 49 33 63 35
REMARK SMILES IDX 84 36 51 37 35 38 36 39 44 40 37 41 39 42 45 43 38 44 40 45
REMARK SMILES IDX 41 46 42 47 43 48 67 49 68 50 76 51 69 52 71 53 77 54 70 55
REMARK SMILES IDX 72 56 73 57 74 58 75 59 52 60 53 61 61 62 54 63 56 64 62 65
REMARK SMILES IDX 55 66 57 67 58 68 59 69 60 70 5 71 6 72 7 73 8 74 9 75 10 77
REMARK SMILES IDX 11 78 17 79 25 80 18 81 20 82 24 83 19 84 21 85 23 86 22 87
REMARK SMILES IDX 12 88 13 89 16 90 14 91 15 92
REMARK H PARENT 3 5 82 23 50 34 8 76
REMARK Flexibility Score: inf
ROOT
ATOM      1  C   UNL A   1      36.717  21.848  25.331  1.00  0.00     0.116 C 
ENDROOT
BRANCH   1   2
ATOM      2  N   UNL A   1      37.695  20.767  25.358  1.00  0.00    -0.352 N 
ATOM      3  O   UNL A   1      39.716  19.829  25.766  1.00  0.00    -0.269 OA
ATOM      4  C   UNL A   1      38.970  20.795  25.879  1.00  0.00     0.251 C 
ATOM      5  H   UNL A   1      37.410  19.914  24.954  1.00  0.00     0.163 HD
BRANCH   4   6
ATOM      6  C   UNL A   1      39.426  22.042  26.528  1.00  0.00     0.039 A 
ATOM      7  C   UNL A   1      38.933  23.267  26.080  1.00  0.00     0.014 A 
ATOM      8  C   UNL A   1      40.448  21.988  27.478  1.00  0.00     0.014 A 
ATOM      9  C   UNL A   1      39.605  24.431  26.420  1.00  0.00     0.010 A 
ATOM     10  C   UNL A   1      41.045  23.176  27.908  1.00  0.00     0.010 A 
ATOM     11  C   UNL A   1      40.669  24.402  27.339  1.00  0.00    -0.014 A 
BRANCH  11  12
ATOM     12  C   UNL A   1      41.336  25.681  27.701  1.00  0.00     0.031 A 
ATOM     13  C   UNL A   1      42.720  26.018  27.212  1.00  0.00     0.074 A 
ATOM     14  C   UNL A   1      40.649  26.566  28.449  1.00  0.00     0.049 A 
ATOM     15  N   UNL A   1      43.408  27.114  27.396  1.00  0.00    -0.248 NA
ATOM     16  C   UNL A   1      43.431  24.996  26.425  1.00  0.00     0.031 C 
ATOM     17  C   UNL A   1      39.317  26.330  29.012  1.00  0.00     0.029 A 
ATOM     18  N   UNL A   1      40.954  27.842  28.845  1.00  0.00    -0.354 N 
ATOM     19  C   UNL A   1      44.650  26.895  26.812  1.00  0.00     0.074 A 
ATOM     20  C   UNL A   1      44.620  25.561  26.253  1.00  0.00     0.031 C 
ATOM     21  C   UNL A   1      38.890  27.446  29.617  1.00  0.00     0.029 A 
ATOM     22  C   UNL A   1      39.942  28.453  29.548  1.00  0.00     0.049 A 
ATOM     23  H   UNL A   1      41.813  28.279  28.645  1.00  0.00     0.167 HD
ATOM     24  C   UNL A   1      45.711  27.734  26.737  1.00  0.00     0.034 A 
ATOM     25  C   UNL A   1      39.865  29.686  30.081  1.00  0.00     0.034 A 
ATOM     26  C   UNL A   1      45.708  29.087  27.232  1.00  0.00     0.049 A 
ATOM     27  C   UNL A   1      41.029  30.616  29.920  1.00  0.00     0.074 A 
ATOM     28  C   UNL A   1      46.708  30.039  27.139  1.00  0.00     0.029 A 
ATOM     29  N   UNL A   1      44.651  29.682  27.904  1.00  0.00    -0.354 N 
ATOM     30  N   UNL A   1      42.151  30.423  29.269  1.00  0.00    -0.248 NA
ATOM     31  C   UNL A   1      40.914  31.936  30.550  1.00  0.00     0.031 C 
ATOM     32  C   UNL A   1      46.258  31.208  27.763  1.00  0.00     0.029 A 
ATOM     33  C   UNL A   1      44.976  30.987  28.237  1.00  0.00     0.049 A 
ATOM     34  H   UNL A   1      43.797  29.241  28.115  1.00  0.00     0.167 HD
ATOM     35  C   UNL A   1      42.872  31.602  29.401  1.00  0.00     0.074 A 
ATOM     36  C   UNL A   1      42.044  32.514  30.164  1.00  0.00     0.031 C 
ATOM     37  C   UNL A   1      44.118  31.895  28.955  1.00  0.00     0.034 A 
BRANCH  24  38
ATOM     38  C   UNL A   1      46.963  27.234  26.062  1.00  0.00     0.023 A 
ATOM     39  C   UNL A   1      47.144  27.449  24.681  1.00  0.00     0.012 A 
ATOM     40  C   UNL A   1      47.991  26.621  26.805  1.00  0.00     0.148 A 
ATOM     41  C   UNL A   1      48.317  27.042  24.046  1.00  0.00     0.002 A 
ATOM     42  C   UNL A   1      49.173  26.249  26.172  1.00  0.00     0.091 A 
ATOM     43  F   UNL A   1      47.793  26.400  28.112  1.00  0.00    -0.205 F 
ATOM     44  C   UNL A   1      49.335  26.453  24.792  1.00  0.00     0.022 A 
BRANCH  42  45
ATOM     45  S   UNL A   1      50.563  25.549  27.071  1.00  0.00     0.127 S 
ATOM     46  O   UNL A   1      51.542  25.358  26.003  1.00  0.00    -0.237 OA
ATOM     47  O   UNL A   1      50.895  26.616  28.018  1.00  0.00    -0.237 OA
ATOM     48  O   UNL A   1      50.057  24.332  27.692  1.00  0.00    -0.744 OA
ENDBRANCH  42  45
ENDBRANCH  24  38
BRANCH  25  49
ATOM     49  C   UNL A   1      38.606  30.116  30.752  1.00  0.00     0.023 A 
ATOM     50  C   UNL A   1      38.452  29.890  32.133  1.00  0.00     0.012 A 
ATOM     51  C   UNL A   1      37.606  30.818  30.054  1.00  0.00     0.148 A 
ATOM     52  C   UNL A   1      37.317  30.349  32.804  1.00  0.00     0.002 A 
ATOM     53  C   UNL A   1      36.511  31.328  30.741  1.00  0.00     0.091 A 
ATOM     54  F   UNL A   1      37.759  31.004  28.735  1.00  0.00    -0.205 F 
ATOM     55  C   UNL A   1      36.357  31.082  32.113  1.00  0.00     0.022 A 
BRANCH  53  56
ATOM     56  S   UNL A   1      35.328  32.424  29.947  1.00  0.00     0.127 S 
ATOM     57  O   UNL A   1      34.795  31.574  28.887  1.00  0.00    -0.237 OA
ATOM     58  O   UNL A   1      34.394  32.714  31.036  1.00  0.00    -0.237 OA
ATOM     59  O   UNL A   1      36.109  33.577  29.516  1.00  0.00    -0.744 OA
ENDBRANCH  53  56
ENDBRANCH  25  49
BRANCH  37  60
ATOM     60  C   UNL A   1      44.657  33.261  29.277  1.00  0.00     0.023 A 
ATOM     61  C   UNL A   1      45.303  33.475  30.511  1.00  0.00     0.012 A 
ATOM     62  C   UNL A   1      44.571  34.313  28.347  1.00  0.00     0.148 A 
ATOM     63  C   UNL A   1      45.827  34.727  30.827  1.00  0.00     0.002 A 
ATOM     64  C   UNL A   1      45.132  35.547  28.653  1.00  0.00     0.091 A 
ATOM     65  F   UNL A   1      43.929  34.097  27.189  1.00  0.00    -0.205 F 
ATOM     66  C   UNL A   1      45.752  35.759  29.895  1.00  0.00     0.022 A 
BRANCH  64  67
ATOM     67  S   UNL A   1      45.146  36.898  27.469  1.00  0.00     0.127 S 
ATOM     68  O   UNL A   1      45.976  36.350  26.398  1.00  0.00    -0.237 OA
ATOM     69  O   UNL A   1      43.730  37.041  27.131  1.00  0.00    -0.237 OA
ATOM     70  O   UNL A   1      45.707  38.037  28.185  1.00  0.00    -0.744 OA
ENDBRANCH  64  67
ENDBRANCH  37  60
ENDBRANCH  11  12
ENDBRANCH   4   6
ENDBRANCH   1   2
BRANCH   1  71
ATOM     71  C   UNL A   1      35.329  21.418  24.888  1.00  0.00     0.023 C 
BRANCH  71  72
ATOM     72  C   UNL A   1      34.561  22.454  24.077  1.00  0.00     0.023 C 
BRANCH  72  73
ATOM     73  C   UNL A   1      34.979  23.902  24.331  1.00  0.00     0.116 C 
BRANCH  73  74
ATOM     74  N   UNL A   1      34.567  24.771  23.244  1.00  0.00    -0.355 N 
ATOM     75  C   UNL A   1      33.493  25.526  22.911  1.00  0.00     0.231 C 
ATOM     76  H   UNL A   1      35.267  24.828  22.554  1.00  0.00     0.163 HD
ATOM     77  O   UNL A   1      33.627  26.050  21.792  1.00  0.00    -0.274 OA
BRANCH  75  78
ATOM     78  C   UNL A   1      32.217  25.868  23.795  1.00  0.00     0.084 C 
ATOM     79  C   UNL A   1      31.108  26.177  22.745  1.00  0.00     0.064 C 
ATOM     80  C   UNL A   1      32.509  27.174  24.551  1.00  0.00     0.010 A 
ATOM     81  C   UNL A   1      29.996  27.053  23.277  1.00  0.00     0.231 C 
ATOM     82  C   UNL A   1      31.633  28.268  24.486  1.00  0.00     0.123 A 
ATOM     83  C   UNL A   1      33.686  27.314  25.314  1.00  0.00     0.009 A 
ATOM     84  O   UNL A   1      30.460  28.296  23.788  1.00  0.00    -0.493 OA
ATOM     85  C   UNL A   1      31.945  29.467  25.134  1.00  0.00     0.047 A 
ATOM     86  C   UNL A   1      33.992  28.515  25.960  1.00  0.00     0.001 A 
ATOM     87  C   UNL A   1      33.122  29.595  25.866  1.00  0.00     0.004 A 
BRANCH  78  88
ATOM     88  C   UNL A   1      31.798  24.769  24.816  1.00  0.00     0.009 C 
ATOM     89  C   UNL A   1      30.870  25.074  26.002  1.00  0.00     0.005 C 
ATOM     90  C   UNL A   1      31.083  23.545  24.242  1.00  0.00     0.005 C 
ATOM     91  C   UNL A   1      30.606  23.685  26.609  1.00  0.00     0.000 C 
ATOM     92  C   UNL A   1      30.842  22.683  25.476  1.00  0.00     0.000 C 
ENDBRANCH  78  88
ENDBRANCH  75  78
ENDBRANCH  73  74
ENDBRANCH  72  73
ENDBRANCH  71  72
ENDBRANCH   1  71
TORSDOF 15
ENDMDL
