MODEL 1
REMARK VINA RESULT:     -11.2      0.000      0.000
REMARK SMILES C[C@@H](CC(=O)NCCCCNC(=O)c1ccc(-c2c3nc(c(-c4cccc(S(=O)(=O)[O-])c4F)c4ccc([nH]4)c(-c4cccc(S(=O)(=O)[O-])c4F)c4nc(c(-c5cccc(S(=O)(=O)[O-])c5F)c5ccc2[nH]5)C=C4)C=C3)cc1)NC(=O)/C=C/c1cccnc1
REMARK SMILES IDX 8 1 7 2 6 3 4 4 5 5 3 7 2 8 1 9 77 10 78 11 79 13 80 14
REMARK SMILES IDX 81 15 82 16 83 17 87 18 84 19 86 20 85 21 9 22 10 23 11 24
REMARK SMILES IDX 12 25 13 27 14 28 15 29 76 30 16 31 75 32 17 33 18 34 19 35
REMARK SMILES IDX 69 36 20 37 74 38 68 39 70 40 21 41 73 42 67 43 66 44 22 46
REMARK SMILES IDX 54 47 34 48 53 49 35 50 38 51 52 52 71 53 36 54 37 55 51 57
REMARK SMILES IDX 72 58 39 59 23 60 24 61 32 62 25 63 27 64 33 65 26 66 28 67
REMARK SMILES IDX 29 68 30 69 31 70 55 71 56 72 64 73 57 74 59 75 65 76 58 77
REMARK SMILES IDX 60 78 61 79 62 80 63 81 40 82 41 83 49 84 42 85 44 86 50 87
REMARK SMILES IDX 43 88 45 89 46 90 47 91 48 92
REMARK H PARENT 6 6 77 12 11 26 70 45 38 56
REMARK Flexibility Score: inf
ROOT
ATOM      1  C   UNL A   1      37.206  20.712  24.675  1.00  0.00     0.023 C 
ENDROOT
BRANCH   1   2
ATOM      2  C   UNL A   1      37.265  21.920  25.614  1.00  0.00     0.116 C 
BRANCH   2   3
ATOM      3  N   UNL A   1      36.056  21.987  26.409  1.00  0.00    -0.356 N 
ATOM      4  C   UNL A   1      35.156  23.000  26.531  1.00  0.00     0.222 C 
ATOM      5  O   UNL A   1      34.348  22.962  27.459  1.00  0.00    -0.275 OA
ATOM      6  H   UNL A   1      35.857  21.181  26.940  1.00  0.00     0.163 HD
BRANCH   4   7
ATOM      7  C   UNL A   1      35.112  24.123  25.518  1.00  0.00     0.124 C 
BRANCH   7   8
ATOM      8  C   UNL A   1      33.950  24.124  24.514  1.00  0.00     0.088 C 
ATOM      9  C   UNL A   1      33.862  25.402  23.686  1.00  0.00     0.031 C 
BRANCH   8  10
ATOM     10  N   UNL A   1      32.646  23.849  25.109  1.00  0.00    -0.350 N 
ATOM     11  C   UNL A   1      31.809  22.783  24.987  1.00  0.00     0.244 C 
ATOM     12  H   UNL A   1      32.313  24.562  25.701  1.00  0.00     0.164 HD
ATOM     13  O   UNL A   1      30.689  22.835  25.493  1.00  0.00    -0.270 OA
BRANCH  11  14
ATOM     14  C   UNL A   1      32.226  21.504  24.346  1.00  0.00     0.072 C 
ATOM     15  C   UNL A   1      33.034  20.563  24.849  1.00  0.00     0.015 C 
BRANCH  15  16
ATOM     16  C   UNL A   1      33.372  19.301  24.208  1.00  0.00    -0.007 A 
ATOM     17  C   UNL A   1      34.453  18.531  24.624  1.00  0.00     0.011 A 
ATOM     18  C   UNL A   1      32.511  18.763  23.253  1.00  0.00     0.119 A 
ATOM     19  C   UNL A   1      34.623  17.259  24.086  1.00  0.00     0.021 A 
ATOM     20  N   UNL A   1      32.656  17.536  22.708  1.00  0.00    -0.264 NA
ATOM     21  C   UNL A   1      33.707  16.809  23.146  1.00  0.00     0.111 A 
ENDBRANCH  15  16
ENDBRANCH  11  14
ENDBRANCH   8  10
ENDBRANCH   7   8
ENDBRANCH   4   7
ENDBRANCH   2   3
ENDBRANCH   1   2
BRANCH   1  22
ATOM     22  C   UNL A   1      38.201  19.606  24.986  1.00  0.00     0.023 C 
BRANCH  22  23
ATOM     23  C   UNL A   1      39.325  20.023  25.908  1.00  0.00     0.116 C 
BRANCH  23  24
ATOM     24  N   UNL A   1      40.442  19.087  25.917  1.00  0.00    -0.352 N 
ATOM     25  C   UNL A   1      41.776  19.379  26.092  1.00  0.00     0.251 C 
ATOM     26  H   UNL A   1      40.216  18.138  25.783  1.00  0.00     0.163 HD
ATOM     27  O   UNL A   1      42.630  18.516  25.971  1.00  0.00    -0.269 OA
BRANCH  25  28
ATOM     28  C   UNL A   1      42.140  20.779  26.394  1.00  0.00     0.039 A 
ATOM     29  C   UNL A   1      42.336  21.161  27.722  1.00  0.00     0.014 A 
ATOM     30  C   UNL A   1      42.388  21.671  25.349  1.00  0.00     0.014 A 
ATOM     31  C   UNL A   1      42.833  22.436  27.997  1.00  0.00     0.010 A 
ATOM     32  C   UNL A   1      42.989  22.890  25.619  1.00  0.00     0.010 A 
ATOM     33  C   UNL A   1      43.186  23.300  26.946  1.00  0.00    -0.014 A 
BRANCH  33  34
ATOM     34  C   UNL A   1      43.706  24.664  27.202  1.00  0.00     0.031 A 
ATOM     35  C   UNL A   1      42.771  25.718  27.737  1.00  0.00     0.074 A 
ATOM     36  C   UNL A   1      44.976  24.978  26.879  1.00  0.00     0.049 A 
ATOM     37  N   UNL A   1      43.000  26.983  27.968  1.00  0.00    -0.248 NA
ATOM     38  C   UNL A   1      41.382  25.305  28.005  1.00  0.00     0.031 C 
ATOM     39  C   UNL A   1      45.947  24.071  26.262  1.00  0.00     0.029 A 
ATOM     40  N   UNL A   1      45.661  26.159  27.007  1.00  0.00    -0.354 N 
ATOM     41  C   UNL A   1      41.779  27.522  28.358  1.00  0.00     0.074 A 
ATOM     42  C   UNL A   1      40.801  26.462  28.278  1.00  0.00     0.031 C 
ATOM     43  C   UNL A   1      47.106  24.724  26.081  1.00  0.00     0.029 A 
ATOM     44  C   UNL A   1      46.957  26.098  26.550  1.00  0.00     0.049 A 
ATOM     45  H   UNL A   1      45.263  26.974  27.390  1.00  0.00     0.167 HD
ATOM     46  C   UNL A   1      41.501  28.774  28.790  1.00  0.00     0.034 A 
ATOM     47  C   UNL A   1      47.915  27.046  26.527  1.00  0.00     0.034 A 
ATOM     48  C   UNL A   1      42.496  29.799  28.946  1.00  0.00     0.049 A 
ATOM     49  C   UNL A   1      47.608  28.401  27.104  1.00  0.00     0.074 A 
ATOM     50  C   UNL A   1      42.347  31.070  29.468  1.00  0.00     0.029 A 
ATOM     51  N   UNL A   1      43.828  29.662  28.590  1.00  0.00    -0.354 N 
ATOM     52  N   UNL A   1      46.487  28.845  27.620  1.00  0.00    -0.248 NA
ATOM     53  C   UNL A   1      48.710  29.373  27.138  1.00  0.00     0.031 C 
ATOM     54  C   UNL A   1      43.594  31.705  29.424  1.00  0.00     0.029 A 
ATOM     55  C   UNL A   1      44.518  30.823  28.887  1.00  0.00     0.049 A 
ATOM     56  H   UNL A   1      44.224  28.857  28.185  1.00  0.00     0.167 HD
ATOM     57  C   UNL A   1      46.758  30.130  28.076  1.00  0.00     0.074 A 
ATOM     58  C   UNL A   1      48.157  30.384  27.795  1.00  0.00     0.031 C 
ATOM     59  C   UNL A   1      45.924  31.028  28.657  1.00  0.00     0.034 A 
BRANCH  46  60
ATOM     60  C   UNL A   1      40.083  29.070  29.198  1.00  0.00     0.023 A 
ATOM     61  C   UNL A   1      39.121  29.355  28.207  1.00  0.00     0.012 A 
ATOM     62  C   UNL A   1      39.692  29.039  30.550  1.00  0.00     0.148 A 
ATOM     63  C   UNL A   1      37.804  29.648  28.555  1.00  0.00     0.002 A 
ATOM     64  C   UNL A   1      38.365  29.284  30.886  1.00  0.00     0.091 A 
ATOM     65  F   UNL A   1      40.624  28.791  31.481  1.00  0.00    -0.205 F 
ATOM     66  C   UNL A   1      37.424  29.603  29.893  1.00  0.00     0.022 A 
BRANCH  64  67
ATOM     67  S   UNL A   1      37.757  29.173  32.573  1.00  0.00     0.127 S 
ATOM     68  O   UNL A   1      36.408  29.722  32.438  1.00  0.00    -0.237 OA
ATOM     69  O   UNL A   1      37.807  27.733  32.824  1.00  0.00    -0.237 OA
ATOM     70  O   UNL A   1      38.676  29.961  33.382  1.00  0.00    -0.744 OA
ENDBRANCH  64  67
ENDBRANCH  46  60
BRANCH  47  71
ATOM     71  C   UNL A   1      49.282  26.714  26.033  1.00  0.00     0.023 A 
ATOM     72  C   UNL A   1      50.134  25.934  26.841  1.00  0.00     0.012 A 
ATOM     73  C   UNL A   1      49.737  27.141  24.771  1.00  0.00     0.148 A 
ATOM     74  C   UNL A   1      51.425  25.617  26.418  1.00  0.00     0.002 A 
ATOM     75  C   UNL A   1      51.005  26.778  24.333  1.00  0.00     0.091 A 
ATOM     76  F   UNL A   1      48.916  27.890  24.020  1.00  0.00    -0.205 F 
ATOM     77  C   UNL A   1      51.858  26.030  25.162  1.00  0.00     0.022 A 
BRANCH  75  78
ATOM     78  S   UNL A   1      51.598  27.158  22.681  1.00  0.00     0.127 S 
ATOM     79  O   UNL A   1      50.494  26.685  21.850  1.00  0.00    -0.237 OA
ATOM     80  O   UNL A   1      51.748  28.613  22.739  1.00  0.00    -0.237 OA
ATOM     81  O   UNL A   1      52.854  26.434  22.543  1.00  0.00    -0.744 OA
ENDBRANCH  75  78
ENDBRANCH  47  71
BRANCH  59  82
ATOM     82  C   UNL A   1      46.507  32.354  29.067  1.00  0.00     0.023 A 
ATOM     83  C   UNL A   1      47.100  32.493  30.337  1.00  0.00     0.012 A 
ATOM     84  C   UNL A   1      46.529  33.438  28.169  1.00  0.00     0.148 A 
ATOM     85  C   UNL A   1      47.673  33.705  30.721  1.00  0.00     0.002 A 
ATOM     86  C   UNL A   1      47.147  34.626  28.539  1.00  0.00     0.091 A 
ATOM     87  F   UNL A   1      45.941  33.293  26.972  1.00  0.00    -0.205 F 
ATOM     88  C   UNL A   1      47.708  34.766  29.819  1.00  0.00     0.022 A 
BRANCH  86  89
ATOM     89  S   UNL A   1      47.320  36.004  27.401  1.00  0.00     0.127 S 
ATOM     90  O   UNL A   1      45.926  36.371  27.161  1.00  0.00    -0.237 OA
ATOM     91  O   UNL A   1      48.079  36.973  28.193  1.00  0.00    -0.237 OA
ATOM     92  O   UNL A   1      48.042  35.476  26.250  1.00  0.00    -0.744 OA
ENDBRANCH  86  89
ENDBRANCH  59  82
ENDBRANCH  33  34
ENDBRANCH  25  28
ENDBRANCH  23  24
ENDBRANCH  22  23
ENDBRANCH   1  22
TORSDOF 18
ENDMDL
MODEL 2
REMARK VINA RESULT:     -11.0      6.009     11.946
REMARK SMILES C[C@@H](CC(=O)NCCCCNC(=O)c1ccc(-c2c3nc(c(-c4cccc(S(=O)(=O)[O-])c4F)c4ccc([nH]4)c(-c4cccc(S(=O)(=O)[O-])c4F)c4nc(c(-c5cccc(S(=O)(=O)[O-])c5F)c5ccc2[nH]5)C=C4)C=C3)cc1)NC(=O)/C=C/c1cccnc1
REMARK SMILES IDX 8 1 7 2 6 3 4 4 5 5 3 7 2 8 1 9 77 10 78 11 79 13 80 14
REMARK SMILES IDX 81 15 82 16 83 17 87 18 84 19 86 20 85 21 9 22 10 23 11 24
REMARK SMILES IDX 12 25 13 27 14 28 15 29 76 30 16 31 75 32 17 33 18 34 19 35
REMARK SMILES IDX 69 36 20 37 74 38 68 39 70 40 21 41 73 42 67 43 66 44 22 46
REMARK SMILES IDX 54 47 34 48 53 49 35 50 38 51 52 52 71 53 36 54 37 55 51 57
REMARK SMILES IDX 72 58 39 59 23 60 24 61 32 62 25 63 27 64 33 65 26 66 28 67
REMARK SMILES IDX 29 68 30 69 31 70 55 71 56 72 64 73 57 74 59 75 65 76 58 77
REMARK SMILES IDX 60 78 61 79 62 80 63 81 40 82 41 83 49 84 42 85 44 86 50 87
REMARK SMILES IDX 43 88 45 89 46 90 47 91 48 92
REMARK H PARENT 6 6 77 12 11 26 70 45 38 56
REMARK Flexibility Score: inf
ROOT
ATOM      1  C   UNL A   1      32.007  30.587  26.754  1.00  0.00     0.023 C 
ENDROOT
BRANCH   1   2
ATOM      2  C   UNL A   1      33.488  30.198  26.750  1.00  0.00     0.116 C 
BRANCH   2   3
ATOM      3  N   UNL A   1      33.761  29.303  25.645  1.00  0.00    -0.356 N 
ATOM      4  C   UNL A   1      33.346  28.023  25.446  1.00  0.00     0.222 C 
ATOM      5  O   UNL A   1      33.907  27.349  24.581  1.00  0.00    -0.275 OA
ATOM      6  H   UNL A   1      34.331  29.676  24.933  1.00  0.00     0.163 HD
BRANCH   4   7
ATOM      7  C   UNL A   1      32.187  27.453  26.233  1.00  0.00     0.124 C 
BRANCH   7   8
ATOM      8  C   UNL A   1      31.473  26.225  25.650  1.00  0.00     0.088 C 
ATOM      9  C   UNL A   1      30.178  26.564  24.917  1.00  0.00     0.031 C 
BRANCH   8  10
ATOM     10  N   UNL A   1      31.208  25.169  26.622  1.00  0.00    -0.350 N 
ATOM     11  C   UNL A   1      31.824  23.977  26.845  1.00  0.00     0.244 C 
ATOM     12  H   UNL A   1      30.449  25.353  27.222  1.00  0.00     0.164 HD
ATOM     13  O   UNL A   1      31.335  23.186  27.651  1.00  0.00    -0.270 OA
BRANCH  11  14
ATOM     14  C   UNL A   1      33.131  23.620  26.223  1.00  0.00     0.072 C 
ATOM     15  C   UNL A   1      34.204  23.093  26.821  1.00  0.00     0.015 C 
BRANCH  15  16
ATOM     16  C   UNL A   1      35.444  22.709  26.162  1.00  0.00    -0.007 A 
ATOM     17  C   UNL A   1      36.519  23.584  26.050  1.00  0.00     0.011 A 
ATOM     18  C   UNL A   1      35.628  21.387  25.762  1.00  0.00     0.119 A 
ATOM     19  C   UNL A   1      37.731  23.106  25.562  1.00  0.00     0.021 A 
ATOM     20  N   UNL A   1      36.790  20.897  25.277  1.00  0.00    -0.264 NA
ATOM     21  C   UNL A   1      37.818  21.770  25.197  1.00  0.00     0.111 A 
ENDBRANCH  15  16
ENDBRANCH  11  14
ENDBRANCH   8  10
ENDBRANCH   7   8
ENDBRANCH   4   7
ENDBRANCH   2   3
ENDBRANCH   1   2
BRANCH   1  22
ATOM     22  C   UNL A   1      31.733  32.073  26.909  1.00  0.00     0.023 C 
BRANCH  22  23
ATOM     23  C   UNL A   1      32.870  32.853  27.531  1.00  0.00     0.116 C 
BRANCH  23  24
ATOM     24  N   UNL A   1      32.554  34.258  27.751  1.00  0.00    -0.352 N 
ATOM     25  C   UNL A   1      33.114  35.106  28.682  1.00  0.00     0.251 C 
ATOM     26  H   UNL A   1      31.863  34.646  27.168  1.00  0.00     0.163 HD
ATOM     27  O   UNL A   1      32.686  36.237  28.840  1.00  0.00    -0.269 OA
BRANCH  25  28
ATOM     28  C   UNL A   1      34.224  34.584  29.507  1.00  0.00     0.039 A 
ATOM     29  C   UNL A   1      33.932  33.898  30.686  1.00  0.00     0.014 A 
ATOM     30  C   UNL A   1      35.537  34.688  29.046  1.00  0.00     0.014 A 
ATOM     31  C   UNL A   1      34.967  33.270  31.381  1.00  0.00     0.010 A 
ATOM     32  C   UNL A   1      36.541  33.968  29.673  1.00  0.00     0.010 A 
ATOM     33  C   UNL A   1      36.274  33.280  30.865  1.00  0.00    -0.014 A 
BRANCH  33  34
ATOM     34  C   UNL A   1      37.397  32.632  31.583  1.00  0.00     0.031 A 
ATOM     35  C   UNL A   1      38.128  31.490  30.927  1.00  0.00     0.074 A 
ATOM     36  C   UNL A   1      37.703  33.006  32.841  1.00  0.00     0.049 A 
ATOM     37  N   UNL A   1      39.090  30.743  31.402  1.00  0.00    -0.248 NA
ATOM     38  C   UNL A   1      37.689  31.105  29.574  1.00  0.00     0.031 C 
ATOM     39  C   UNL A   1      37.002  34.030  33.620  1.00  0.00     0.029 A 
ATOM     40  N   UNL A   1      38.672  32.547  33.696  1.00  0.00    -0.354 N 
ATOM     41  C   UNL A   1      39.332  29.779  30.432  1.00  0.00     0.074 A 
ATOM     42  C   UNL A   1      38.382  29.997  29.367  1.00  0.00     0.031 C 
ATOM     43  C   UNL A   1      37.576  34.133  34.829  1.00  0.00     0.029 A 
ATOM     44  C   UNL A   1      38.670  33.172  34.921  1.00  0.00     0.049 A 
ATOM     45  H   UNL A   1      39.310  31.837  33.455  1.00  0.00     0.167 HD
ATOM     46  C   UNL A   1      40.291  28.824  30.404  1.00  0.00     0.034 A 
ATOM     47  C   UNL A   1      39.472  32.992  35.989  1.00  0.00     0.034 A 
ATOM     48  C   UNL A   1      41.286  28.667  31.428  1.00  0.00     0.049 A 
ATOM     49  C   UNL A   1      40.593  31.991  35.894  1.00  0.00     0.074 A 
ATOM     50  C   UNL A   1      42.363  27.801  31.457  1.00  0.00     0.029 A 
ATOM     51  N   UNL A   1      41.329  29.403  32.601  1.00  0.00    -0.354 N 
ATOM     52  N   UNL A   1      40.909  31.197  34.900  1.00  0.00    -0.248 NA
ATOM     53  C   UNL A   1      41.496  31.895  37.050  1.00  0.00     0.031 C 
ATOM     54  C   UNL A   1      43.057  28.013  32.653  1.00  0.00     0.029 A 
ATOM     55  C   UNL A   1      42.419  29.020  33.360  1.00  0.00     0.049 A 
ATOM     56  H   UNL A   1      40.680  30.098  32.856  1.00  0.00     0.167 HD
ATOM     57  C   UNL A   1      42.067  30.536  35.292  1.00  0.00     0.074 A 
ATOM     58  C   UNL A   1      42.409  31.042  36.607  1.00  0.00     0.031 C 
ATOM     59  C   UNL A   1      42.775  29.583  34.636  1.00  0.00     0.034 A 
BRANCH  46  60
ATOM     60  C   UNL A   1      40.352  27.936  29.190  1.00  0.00     0.023 A 
ATOM     61  C   UNL A   1      39.455  26.853  29.076  1.00  0.00     0.012 A 
ATOM     62  C   UNL A   1      41.270  28.182  28.152  1.00  0.00     0.148 A 
ATOM     63  C   UNL A   1      39.498  26.005  27.972  1.00  0.00     0.002 A 
ATOM     64  C   UNL A   1      41.275  27.361  27.030  1.00  0.00     0.091 A 
ATOM     65  F   UNL A   1      42.133  29.199  28.287  1.00  0.00    -0.205 F 
ATOM     66  C   UNL A   1      40.400  26.264  26.944  1.00  0.00     0.022 A 
BRANCH  64  67
ATOM     67  S   UNL A   1      42.345  27.656  25.617  1.00  0.00     0.127 S 
ATOM     68  O   UNL A   1      43.665  27.679  26.246  1.00  0.00    -0.237 OA
ATOM     69  O   UNL A   1      42.087  26.480  24.785  1.00  0.00    -0.237 OA
ATOM     70  O   UNL A   1      41.904  28.917  25.038  1.00  0.00    -0.744 OA
ENDBRANCH  64  67
ENDBRANCH  46  60
BRANCH  47  71
ATOM     71  C   UNL A   1      39.310  33.849  37.198  1.00  0.00     0.023 A 
ATOM     72  C   UNL A   1      39.773  35.181  37.164  1.00  0.00     0.012 A 
ATOM     73  C   UNL A   1      38.686  33.371  38.366  1.00  0.00     0.148 A 
ATOM     74  C   UNL A   1      39.651  36.007  38.281  1.00  0.00     0.002 A 
ATOM     75  C   UNL A   1      38.522  34.215  39.458  1.00  0.00     0.091 A 
ATOM     76  F   UNL A   1      38.261  32.100  38.384  1.00  0.00    -0.205 F 
ATOM     77  C   UNL A   1      39.019  35.528  39.424  1.00  0.00     0.022 A 
BRANCH  75  78
ATOM     78  S   UNL A   1      37.607  33.724  40.924  1.00  0.00     0.127 S 
ATOM     79  O   UNL A   1      37.472  34.994  41.632  1.00  0.00    -0.237 OA
ATOM     80  O   UNL A   1      36.366  33.203  40.348  1.00  0.00    -0.237 OA
ATOM     81  O   UNL A   1      38.432  32.717  41.577  1.00  0.00    -0.744 OA
ENDBRANCH  75  78
ENDBRANCH  47  71
BRANCH  59  82
ATOM     82  C   UNL A   1      44.013  29.052  35.307  1.00  0.00     0.023 A 
ATOM     83  C   UNL A   1      45.257  29.670  35.069  1.00  0.00     0.012 A 
ATOM     84  C   UNL A   1      43.933  27.987  36.225  1.00  0.00     0.148 A 
ATOM     85  C   UNL A   1      46.408  29.212  35.707  1.00  0.00     0.002 A 
ATOM     86  C   UNL A   1      45.076  27.568  36.894  1.00  0.00     0.091 A 
ATOM     87  F   UNL A   1      42.745  27.397  36.422  1.00  0.00    -0.205 F 
ATOM     88  C   UNL A   1      46.316  28.170  36.628  1.00  0.00     0.022 A 
BRANCH  86  89
ATOM     89  S   UNL A   1      45.024  26.301  38.166  1.00  0.00     0.127 S 
ATOM     90  O   UNL A   1      46.426  26.225  38.570  1.00  0.00    -0.237 OA
ATOM     91  O   UNL A   1      44.133  26.894  39.164  1.00  0.00    -0.237 OA
ATOM     92  O   UNL A   1      44.487  25.113  37.517  1.00  0.00    -0.744 OA
ENDBRANCH  86  89
ENDBRANCH  59  82
ENDBRANCH  33  34
ENDBRANCH  25  28
ENDBRANCH  23  24
ENDBRANCH  22  23
ENDBRANCH   1  22
TORSDOF 18
ENDMDL
MODEL 3
REMARK VINA RESULT:     -11.0      5.791      8.685
REMARK SMILES C[C@@H](CC(=O)NCCCCNC(=O)c1ccc(-c2c3nc(c(-c4cccc(S(=O)(=O)[O-])c4F)c4ccc([nH]4)c(-c4cccc(S(=O)(=O)[O-])c4F)c4nc(c(-c5cccc(S(=O)(=O)[O-])c5F)c5ccc2[nH]5)C=C4)C=C3)cc1)NC(=O)/C=C/c1cccnc1
REMARK SMILES IDX 8 1 7 2 6 3 4 4 5 5 3 7 2 8 1 9 77 10 78 11 79 13 80 14
REMARK SMILES IDX 81 15 82 16 83 17 87 18 84 19 86 20 85 21 9 22 10 23 11 24
REMARK SMILES IDX 12 25 13 27 14 28 15 29 76 30 16 31 75 32 17 33 18 34 19 35
REMARK SMILES IDX 69 36 20 37 74 38 68 39 70 40 21 41 73 42 67 43 66 44 22 46
REMARK SMILES IDX 54 47 34 48 53 49 35 50 38 51 52 52 71 53 36 54 37 55 51 57
REMARK SMILES IDX 72 58 39 59 23 60 24 61 32 62 25 63 27 64 33 65 26 66 28 67
REMARK SMILES IDX 29 68 30 69 31 70 55 71 56 72 64 73 57 74 59 75 65 76 58 77
REMARK SMILES IDX 60 78 61 79 62 80 63 81 40 82 41 83 49 84 42 85 44 86 50 87
REMARK SMILES IDX 43 88 45 89 46 90 47 91 48 92
REMARK H PARENT 6 6 77 12 11 26 70 45 38 56
REMARK Flexibility Score: inf
ROOT
ATOM      1  C   UNL A   1      32.402  29.143  23.693  1.00  0.00     0.023 C 
ENDROOT
BRANCH   1   2
ATOM      2  C   UNL A   1      33.690  28.560  23.106  1.00  0.00     0.116 C 
BRANCH   2   3
ATOM      3  N   UNL A   1      33.375  27.673  22.005  1.00  0.00    -0.356 N 
ATOM      4  C   UNL A   1      33.288  26.316  21.985  1.00  0.00     0.222 C 
ATOM      5  O   UNL A   1      33.275  25.742  20.896  1.00  0.00    -0.275 OA
ATOM      6  H   UNL A   1      33.198  28.119  21.144  1.00  0.00     0.163 HD
BRANCH   4   7
ATOM      7  C   UNL A   1      33.157  25.529  23.271  1.00  0.00     0.124 C 
BRANCH   7   8
ATOM      8  C   UNL A   1      31.747  25.081  23.684  1.00  0.00     0.088 C 
ATOM      9  C   UNL A   1      30.632  25.857  22.988  1.00  0.00     0.031 C 
BRANCH   8  10
ATOM     10  N   UNL A   1      31.513  25.098  25.124  1.00  0.00    -0.350 N 
ATOM     11  C   UNL A   1      31.948  24.273  26.116  1.00  0.00     0.244 C 
ATOM     12  H   UNL A   1      30.939  25.836  25.433  1.00  0.00     0.164 HD
ATOM     13  O   UNL A   1      31.508  24.417  27.256  1.00  0.00    -0.270 OA
BRANCH  11  14
ATOM     14  C   UNL A   1      33.015  23.255  25.903  1.00  0.00     0.072 C 
ATOM     15  C   UNL A   1      34.335  23.459  25.826  1.00  0.00     0.015 C 
BRANCH  15  16
ATOM     16  C   UNL A   1      35.347  22.425  25.671  1.00  0.00    -0.007 A 
ATOM     17  C   UNL A   1      35.021  21.126  25.296  1.00  0.00     0.011 A 
ATOM     18  C   UNL A   1      36.696  22.767  25.748  1.00  0.00     0.119 A 
ATOM     19  C   UNL A   1      36.044  20.230  25.001  1.00  0.00     0.021 A 
ATOM     20  N   UNL A   1      37.710  21.917  25.475  1.00  0.00    -0.264 NA
ATOM     21  C   UNL A   1      37.357  20.669  25.099  1.00  0.00     0.111 A 
ENDBRANCH  15  16
ENDBRANCH  11  14
ENDBRANCH   8  10
ENDBRANCH   7   8
ENDBRANCH   4   7
ENDBRANCH   2   3
ENDBRANCH   1   2
BRANCH   1  22
ATOM     22  C   UNL A   1      32.229  28.944  25.189  1.00  0.00     0.023 C 
BRANCH  22  23
ATOM     23  C   UNL A   1      33.310  29.583  26.031  1.00  0.00     0.116 C 
BRANCH  23  24
ATOM     24  N   UNL A   1      32.966  30.920  26.497  1.00  0.00    -0.352 N 
ATOM     25  C   UNL A   1      33.650  31.689  27.412  1.00  0.00     0.251 C 
ATOM     26  H   UNL A   1      32.152  31.319  26.113  1.00  0.00     0.163 HD
ATOM     27  O   UNL A   1      33.199  32.753  27.801  1.00  0.00    -0.269 OA
BRANCH  25  28
ATOM     28  C   UNL A   1      34.928  31.162  27.934  1.00  0.00     0.039 A 
ATOM     29  C   UNL A   1      36.044  32.000  27.977  1.00  0.00     0.014 A 
ATOM     30  C   UNL A   1      34.978  29.876  28.475  1.00  0.00     0.014 A 
ATOM     31  C   UNL A   1      37.203  31.556  28.614  1.00  0.00     0.010 A 
ATOM     32  C   UNL A   1      36.088  29.485  29.205  1.00  0.00     0.010 A 
ATOM     33  C   UNL A   1      37.225  30.305  29.254  1.00  0.00    -0.014 A 
BRANCH  33  34
ATOM     34  C   UNL A   1      38.443  29.798  29.929  1.00  0.00     0.031 A 
ATOM     35  C   UNL A   1      38.776  30.292  31.313  1.00  0.00     0.074 A 
ATOM     36  C   UNL A   1      39.286  28.973  29.278  1.00  0.00     0.049 A 
ATOM     37  N   UNL A   1      39.820  30.031  32.054  1.00  0.00    -0.248 NA
ATOM     38  C   UNL A   1      37.831  31.241  31.930  1.00  0.00     0.031 C 
ATOM     39  C   UNL A   1      39.124  28.506  27.899  1.00  0.00     0.029 A 
ATOM     40  N   UNL A   1      40.463  28.399  29.686  1.00  0.00    -0.354 N 
ATOM     41  C   UNL A   1      39.680  30.817  33.192  1.00  0.00     0.074 A 
ATOM     42  C   UNL A   1      38.483  31.606  33.021  1.00  0.00     0.031 C 
ATOM     43  C   UNL A   1      40.153  27.703  27.583  1.00  0.00     0.029 A 
ATOM     44  C   UNL A   1      41.057  27.614  28.725  1.00  0.00     0.049 A 
ATOM     45  H   UNL A   1      40.846  28.536  30.582  1.00  0.00     0.167 HD
ATOM     46  C   UNL A   1      40.452  30.848  34.303  1.00  0.00     0.034 A 
ATOM     47  C   UNL A   1      42.197  26.897  28.772  1.00  0.00     0.034 A 
ATOM     48  C   UNL A   1      41.595  30.000  34.501  1.00  0.00     0.049 A 
ATOM     49  C   UNL A   1      42.984  26.872  30.055  1.00  0.00     0.074 A 
ATOM     50  C   UNL A   1      42.390  29.875  35.624  1.00  0.00     0.029 A 
ATOM     51  N   UNL A   1      42.096  29.123  33.552  1.00  0.00    -0.354 N 
ATOM     52  N   UNL A   1      42.748  27.498  31.182  1.00  0.00    -0.248 NA
ATOM     53  C   UNL A   1      44.171  26.004  30.088  1.00  0.00     0.031 C 
ATOM     54  C   UNL A   1      43.377  28.921  35.351  1.00  0.00     0.029 A 
ATOM     55  C   UNL A   1      43.186  28.445  34.064  1.00  0.00     0.049 A 
ATOM     56  H   UNL A   1      41.729  29.001  32.646  1.00  0.00     0.167 HD
ATOM     57  C   UNL A   1      43.730  27.072  32.070  1.00  0.00     0.074 A 
ATOM     58  C   UNL A   1      44.550  26.116  31.354  1.00  0.00     0.031 C 
ATOM     59  C   UNL A   1      43.947  27.451  33.354  1.00  0.00     0.034 A 
BRANCH  46  60
ATOM     60  C   UNL A   1      40.033  31.772  35.415  1.00  0.00     0.023 A 
ATOM     61  C   UNL A   1      40.602  33.060  35.499  1.00  0.00     0.012 A 
ATOM     62  C   UNL A   1      39.062  31.385  36.357  1.00  0.00     0.148 A 
ATOM     63  C   UNL A   1      40.244  33.932  36.525  1.00  0.00     0.002 A 
ATOM     64  C   UNL A   1      38.675  32.277  37.351  1.00  0.00     0.091 A 
ATOM     65  F   UNL A   1      38.550  30.148  36.279  1.00  0.00    -0.205 F 
ATOM     66  C   UNL A   1      39.274  33.545  37.445  1.00  0.00     0.022 A 
BRANCH  64  67
ATOM     67  S   UNL A   1      37.378  31.904  38.537  1.00  0.00     0.127 S 
ATOM     68  O   UNL A   1      38.041  32.206  39.805  1.00  0.00    -0.237 OA
ATOM     69  O   UNL A   1      36.331  32.853  38.156  1.00  0.00    -0.237 OA
ATOM     70  O   UNL A   1      37.034  30.505  38.326  1.00  0.00    -0.744 OA
ENDBRANCH  64  67
ENDBRANCH  46  60
BRANCH  47  71
ATOM     71  C   UNL A   1      42.604  26.063  27.606  1.00  0.00     0.023 A 
ATOM     72  C   UNL A   1      43.423  26.629  26.609  1.00  0.00     0.012 A 
ATOM     73  C   UNL A   1      42.210  24.717  27.485  1.00  0.00     0.148 A 
ATOM     74  C   UNL A   1      43.811  25.884  25.495  1.00  0.00     0.002 A 
ATOM     75  C   UNL A   1      42.642  23.964  26.399  1.00  0.00     0.091 A 
ATOM     76  F   UNL A   1      41.422  24.197  28.438  1.00  0.00    -0.205 F 
ATOM     77  C   UNL A   1      43.429  24.550  25.394  1.00  0.00     0.022 A 
BRANCH  75  78
ATOM     78  S   UNL A   1      42.304  22.206  26.252  1.00  0.00     0.127 S 
ATOM     79  O   UNL A   1      40.851  22.191  26.111  1.00  0.00    -0.237 OA
ATOM     80  O   UNL A   1      43.046  21.854  25.039  1.00  0.00    -0.237 OA
ATOM     81  O   UNL A   1      42.832  21.606  27.469  1.00  0.00    -0.744 OA
ENDBRANCH  75  78
ENDBRANCH  47  71
BRANCH  59  82
ATOM     82  C   UNL A   1      45.092  26.801  34.085  1.00  0.00     0.023 A 
ATOM     83  C   UNL A   1      46.379  27.370  34.015  1.00  0.00     0.012 A 
ATOM     84  C   UNL A   1      44.877  25.670  34.896  1.00  0.00     0.148 A 
ATOM     85  C   UNL A   1      47.443  26.800  34.712  1.00  0.00     0.002 A 
ATOM     86  C   UNL A   1      45.931  25.138  35.627  1.00  0.00     0.091 A 
ATOM     87  F   UNL A   1      43.650  25.131  34.934  1.00  0.00    -0.205 F 
ATOM     88  C   UNL A   1      47.217  25.693  35.528  1.00  0.00     0.022 A 
BRANCH  86  89
ATOM     89  S   UNL A   1      45.701  23.776  36.775  1.00  0.00     0.127 S 
ATOM     90  O   UNL A   1      44.781  24.357  37.750  1.00  0.00    -0.237 OA
ATOM     91  O   UNL A   1      45.113  22.742  35.922  1.00  0.00    -0.237 OA
ATOM     92  O   UNL A   1      47.031  23.452  37.275  1.00  0.00    -0.744 OA
ENDBRANCH  86  89
ENDBRANCH  59  82
ENDBRANCH  33  34
ENDBRANCH  25  28
ENDBRANCH  23  24
ENDBRANCH  22  23
ENDBRANCH   1  22
TORSDOF 18
ENDMDL
