MODEL 1
REMARK VINA RESULT:     -12.4      0.000      0.000
REMARK SMILES CCC1(C(=O)NCCCCNC(=O)c2ccc(-c3c4nc(c(-c5cccc(S(=O)(=O)[O-])c5F)c5ccc([nH]5)c(-c5cccc(S(=O)(=O)[O-])c5F)c5nc(c(-c6cccc(S(=O)(=O)[O-])c6F)c6ccc3[nH]6)C=C5)C=C4)cc2)CCN(C(=O)C[C@H]2CSCC[NH2+]2)CC1
REMARK SMILES IDX 9 1 8 2 7 3 6 4 4 5 5 6 3 8 77 9 90 10 78 11 89 12 79 13
REMARK SMILES IDX 80 14 81 15 2 16 1 17 82 18 83 19 84 20 88 21 85 22 87 23
REMARK SMILES IDX 86 26 10 27 11 28 12 29 13 31 14 32 15 33 76 34 16 35 75 36
REMARK SMILES IDX 17 37 18 38 19 39 69 40 20 41 74 42 68 43 70 44 21 45 73 46
REMARK SMILES IDX 67 47 66 48 22 50 54 51 34 52 53 53 35 54 38 55 52 56 71 57
REMARK SMILES IDX 36 58 37 59 51 61 72 62 39 63 23 64 24 65 32 66 25 67 27 68
REMARK SMILES IDX 33 69 26 70 28 71 29 72 30 73 31 74 55 75 56 76 64 77 57 78
REMARK SMILES IDX 59 79 65 80 58 81 60 82 61 83 62 84 63 85 40 86 41 87 49 88
REMARK SMILES IDX 42 89 44 90 50 91 43 92 45 93 46 94 47 95 48 96
REMARK H PARENT 6 7 88 24 88 25 11 30 70 49 38 60
REMARK Flexibility Score: inf
ROOT
ATOM      1  C   UNL A   1      35.943  22.152  24.110  1.00  0.00     0.023 C 
ENDROOT
BRANCH   1   2
ATOM      2  C   UNL A   1      36.015  23.605  23.651  1.00  0.00     0.023 C 
BRANCH   2   3
ATOM      3  C   UNL A   1      34.681  24.230  23.237  1.00  0.00     0.116 C 
BRANCH   3   4
ATOM      4  N   UNL A   1      34.463  25.557  23.796  1.00  0.00    -0.356 N 
ATOM      5  C   UNL A   1      33.659  26.021  24.798  1.00  0.00     0.226 C 
ATOM      6  O   UNL A   1      33.804  27.208  25.102  1.00  0.00    -0.274 OA
ATOM      7  H   UNL A   1      35.003  26.260  23.367  1.00  0.00     0.163 HD
BRANCH   5   8
ATOM      8  C   UNL A   1      32.655  25.119  25.566  1.00  0.00     0.052 C 
ATOM      9  C   UNL A   1      31.588  24.554  24.576  1.00  0.00     0.038 C 
ATOM     10  C   UNL A   1      33.458  24.005  26.286  1.00  0.00     0.038 C 
ATOM     11  C   UNL A   1      30.920  23.246  25.012  1.00  0.00     0.120 C 
ATOM     12  C   UNL A   1      32.554  22.883  26.776  1.00  0.00     0.120 C 
ATOM     13  N   UNL A   1      31.873  22.325  25.621  1.00  0.00    -0.342 N 
ATOM     14  C   UNL A   1      32.230  21.152  24.973  1.00  0.00     0.228 C 
ATOM     15  O   UNL A   1      31.808  20.880  23.845  1.00  0.00    -0.275 OA
BRANCH   8  16
ATOM     16  C   UNL A   1      31.861  25.992  26.607  1.00  0.00     0.013 C 
ATOM     17  C   UNL A   1      30.644  26.754  26.086  1.00  0.00     0.005 C 
ENDBRANCH   8  16
BRANCH  14  18
ATOM     18  C   UNL A   1      33.126  20.142  25.685  1.00  0.00     0.166 C 
BRANCH  18  19
ATOM     19  C   UNL A   1      33.064  18.682  25.182  1.00  0.00     0.201 C 
ATOM     20  C   UNL A   1      34.351  18.297  24.421  1.00  0.00     0.135 C 
ATOM     21  N   UNL A   1      32.688  17.775  26.287  1.00  0.00    -0.342 N 
ATOM     22  S   UNL A   1      34.290  16.609  23.744  1.00  0.00    -0.150 SA
ATOM     23  C   UNL A   1      32.573  16.365  25.892  1.00  0.00     0.271 C 
ATOM     24  H   UNL A   1      31.787  18.078  26.658  1.00  0.00     0.346 HD
ATOM     25  H   UNL A   1      33.436  17.828  26.978  1.00  0.00     0.346 HD
ATOM     26  C   UNL A   1      33.836  15.758  25.281  1.00  0.00     0.131 C 
ENDBRANCH  18  19
ENDBRANCH  14  18
ENDBRANCH   5   8
ENDBRANCH   3   4
ENDBRANCH   2   3
ENDBRANCH   1   2
BRANCH   1  27
ATOM     27  C   UNL A   1      36.584  21.855  25.460  1.00  0.00     0.116 C 
BRANCH  27  28
ATOM     28  N   UNL A   1      37.555  20.769  25.422  1.00  0.00    -0.352 N 
ATOM     29  C   UNL A   1      38.875  20.789  25.813  1.00  0.00     0.251 C 
ATOM     30  H   UNL A   1      37.224  19.909  25.072  1.00  0.00     0.163 HD
ATOM     31  O   UNL A   1      39.602  19.820  25.619  1.00  0.00    -0.269 OA
BRANCH  29  32
ATOM     32  C   UNL A   1      39.420  22.014  26.432  1.00  0.00     0.039 A 
ATOM     33  C   UNL A   1      40.445  21.902  27.376  1.00  0.00     0.014 A 
ATOM     34  C   UNL A   1      38.965  23.271  26.025  1.00  0.00     0.014 A 
ATOM     35  C   UNL A   1      41.079  23.055  27.847  1.00  0.00     0.010 A 
ATOM     36  C   UNL A   1      39.642  24.410  26.442  1.00  0.00     0.010 A 
ATOM     37  C   UNL A   1      40.711  24.314  27.347  1.00  0.00    -0.014 A 
BRANCH  37  38
ATOM     38  C   UNL A   1      41.430  25.556  27.727  1.00  0.00     0.031 A 
ATOM     39  C   UNL A   1      40.701  26.635  28.480  1.00  0.00     0.074 A 
ATOM     40  C   UNL A   1      42.681  25.772  27.273  1.00  0.00     0.049 A 
ATOM     41  N   UNL A   1      41.079  27.857  28.743  1.00  0.00    -0.248 NA
ATOM     42  C   UNL A   1      39.352  26.302  28.968  1.00  0.00     0.031 C 
ATOM     43  C   UNL A   1      43.469  24.829  26.476  1.00  0.00     0.029 A 
ATOM     44  N   UNL A   1      43.494  26.873  27.380  1.00  0.00    -0.354 N 
ATOM     45  C   UNL A   1      39.999  28.457  29.376  1.00  0.00     0.074 A 
ATOM     46  C   UNL A   1      38.943  27.470  29.443  1.00  0.00     0.031 C 
ATOM     47  C   UNL A   1      44.644  25.395  26.158  1.00  0.00     0.029 A 
ATOM     48  C   UNL A   1      44.681  26.751  26.695  1.00  0.00     0.049 A 
ATOM     49  H   UNL A   1      43.251  27.674  27.897  1.00  0.00     0.167 HD
ATOM     50  C   UNL A   1      39.902  29.710  29.880  1.00  0.00     0.034 A 
ATOM     51  C   UNL A   1      45.680  27.638  26.507  1.00  0.00     0.034 A 
ATOM     52  C   UNL A   1      40.977  30.664  29.872  1.00  0.00     0.049 A 
ATOM     53  C   UNL A   1      45.571  29.004  27.130  1.00  0.00     0.074 A 
ATOM     54  C   UNL A   1      41.011  31.926  30.436  1.00  0.00     0.029 A 
ATOM     55  N   UNL A   1      42.212  30.455  29.277  1.00  0.00    -0.354 N 
ATOM     56  N   UNL A   1      44.596  29.506  27.848  1.00  0.00    -0.248 NA
ATOM     57  C   UNL A   1      46.712  29.915  26.947  1.00  0.00     0.031 C 
ATOM     58  C   UNL A   1      42.266  32.484  30.180  1.00  0.00     0.029 A 
ATOM     59  C   UNL A   1      43.018  31.564  29.464  1.00  0.00     0.049 A 
ATOM     60  H   UNL A   1      42.477  29.640  28.794  1.00  0.00     0.167 HD
ATOM     61  C   UNL A   1      45.020  30.771  28.237  1.00  0.00     0.074 A 
ATOM     62  C   UNL A   1      46.346  30.957  27.683  1.00  0.00     0.031 C 
ATOM     63  C   UNL A   1      44.365  31.700  28.974  1.00  0.00     0.034 A 
BRANCH  50  64
ATOM     64  C   UNL A   1      38.609  30.100  30.541  1.00  0.00     0.023 A 
ATOM     65  C   UNL A   1      38.382  29.733  31.884  1.00  0.00     0.012 A 
ATOM     66  C   UNL A   1      37.645  30.870  29.862  1.00  0.00     0.148 A 
ATOM     67  C   UNL A   1      37.204  30.100  32.530  1.00  0.00     0.002 A 
ATOM     68  C   UNL A   1      36.490  31.266  30.527  1.00  0.00     0.091 A 
ATOM     69  F   UNL A   1      37.866  31.187  28.579  1.00  0.00    -0.205 F 
ATOM     70  C   UNL A   1      36.263  30.874  31.857  1.00  0.00     0.022 A 
BRANCH  68  71
ATOM     71  S   UNL A   1      35.257  32.326  29.763  1.00  0.00     0.127 S 
ATOM     72  O   UNL A   1      34.737  31.461  28.705  1.00  0.00    -0.237 OA
ATOM     73  O   UNL A   1      34.325  32.565  30.867  1.00  0.00    -0.237 OA
ATOM     74  O   UNL A   1      35.974  33.510  29.314  1.00  0.00    -0.744 OA
ENDBRANCH  68  71
ENDBRANCH  50  64
BRANCH  51  75
ATOM     75  C   UNL A   1      46.903  27.232  25.757  1.00  0.00     0.023 A 
ATOM     76  C   UNL A   1      47.861  26.422  26.398  1.00  0.00     0.012 A 
ATOM     77  C   UNL A   1      47.107  27.605  24.415  1.00  0.00     0.148 A 
ATOM     78  C   UNL A   1      49.012  26.012  25.726  1.00  0.00     0.002 A 
ATOM     79  C   UNL A   1      48.234  27.152  23.735  1.00  0.00     0.091 A 
ATOM     80  F   UNL A   1      46.194  28.390  23.825  1.00  0.00    -0.205 F 
ATOM     81  C   UNL A   1      49.194  26.367  24.393  1.00  0.00     0.022 A 
BRANCH  79  82
ATOM     82  S   UNL A   1      48.482  27.455  21.981  1.00  0.00     0.127 S 
ATOM     83  O   UNL A   1      47.216  28.077  21.603  1.00  0.00    -0.237 OA
ATOM     84  O   UNL A   1      49.635  28.356  21.985  1.00  0.00    -0.237 OA
ATOM     85  O   UNL A   1      48.749  26.148  21.396  1.00  0.00    -0.744 OA
ENDBRANCH  79  82
ENDBRANCH  51  75
BRANCH  63  86
ATOM     86  C   UNL A   1      45.075  32.991  29.281  1.00  0.00     0.023 A 
ATOM     87  C   UNL A   1      45.889  33.083  30.425  1.00  0.00     0.012 A 
ATOM     88  C   UNL A   1      45.029  34.064  28.370  1.00  0.00     0.148 A 
ATOM     89  C   UNL A   1      46.642  34.232  30.665  1.00  0.00     0.002 A 
ATOM     90  C   UNL A   1      45.814  35.189  28.593  1.00  0.00     0.091 A 
ATOM     91  F   UNL A   1      44.233  33.958  27.297  1.00  0.00    -0.205 F 
ATOM     92  C   UNL A   1      46.615  35.278  29.744  1.00  0.00     0.022 A 
BRANCH  90  93
ATOM     93  S   UNL A   1      45.918  36.543  27.417  1.00  0.00     0.127 S 
ATOM     94  O   UNL A   1      44.546  37.046  27.420  1.00  0.00    -0.237 OA
ATOM     95  O   UNL A   1      46.895  37.429  28.048  1.00  0.00    -0.237 OA
ATOM     96  O   UNL A   1      46.362  35.951  26.161  1.00  0.00    -0.744 OA
ENDBRANCH  90  93
ENDBRANCH  63  86
ENDBRANCH  37  38
ENDBRANCH  29  32
ENDBRANCH  27  28
ENDBRANCH   1  27
TORSDOF 17
ENDMDL
MODEL 2
REMARK VINA RESULT:     -12.2      5.508     10.638
REMARK SMILES CCC1(C(=O)NCCCCNC(=O)c2ccc(-c3c4nc(c(-c5cccc(S(=O)(=O)[O-])c5F)c5ccc([nH]5)c(-c5cccc(S(=O)(=O)[O-])c5F)c5nc(c(-c6cccc(S(=O)(=O)[O-])c6F)c6ccc3[nH]6)C=C5)C=C4)cc2)CCN(C(=O)C[C@H]2CSCC[NH2+]2)CC1
REMARK SMILES IDX 9 1 8 2 7 3 6 4 4 5 5 6 3 8 77 9 90 10 78 11 89 12 79 13
REMARK SMILES IDX 80 14 81 15 2 16 1 17 82 18 83 19 84 20 88 21 85 22 87 23
REMARK SMILES IDX 86 26 10 27 11 28 12 29 13 31 14 32 15 33 76 34 16 35 75 36
REMARK SMILES IDX 17 37 18 38 19 39 69 40 20 41 74 42 68 43 70 44 21 45 73 46
REMARK SMILES IDX 67 47 66 48 22 50 54 51 34 52 53 53 35 54 38 55 52 56 71 57
REMARK SMILES IDX 36 58 37 59 51 61 72 62 39 63 23 64 24 65 32 66 25 67 27 68
REMARK SMILES IDX 33 69 26 70 28 71 29 72 30 73 31 74 55 75 56 76 64 77 57 78
REMARK SMILES IDX 59 79 65 80 58 81 60 82 61 83 62 84 63 85 40 86 41 87 49 88
REMARK SMILES IDX 42 89 44 90 50 91 43 92 45 93 46 94 47 95 48 96
REMARK H PARENT 6 7 88 24 88 25 11 30 70 49 38 60
REMARK Flexibility Score: inf
ROOT
ATOM      1  C   UNL A   1      31.949  28.140  26.604  1.00  0.00     0.023 C 
ENDROOT
BRANCH   1   2
ATOM      2  C   UNL A   1      32.440  26.715  26.369  1.00  0.00     0.023 C 
BRANCH   2   3
ATOM      3  C   UNL A   1      33.842  26.594  25.770  1.00  0.00     0.116 C 
BRANCH   3   4
ATOM      4  N   UNL A   1      34.307  25.219  25.654  1.00  0.00    -0.356 N 
ATOM      5  C   UNL A   1      34.103  24.246  24.718  1.00  0.00     0.226 C 
ATOM      6  O   UNL A   1      34.751  23.206  24.868  1.00  0.00    -0.274 OA
ATOM      7  H   UNL A   1      34.885  24.934  26.399  1.00  0.00     0.163 HD
BRANCH   5   8
ATOM      8  C   UNL A   1      33.163  24.429  23.496  1.00  0.00     0.052 C 
ATOM      9  C   UNL A   1      31.673  24.371  23.961  1.00  0.00     0.038 C 
ATOM     10  C   UNL A   1      33.525  25.768  22.803  1.00  0.00     0.038 C 
ATOM     11  C   UNL A   1      30.676  25.091  23.049  1.00  0.00     0.120 C 
ATOM     12  C   UNL A   1      32.452  26.202  21.815  1.00  0.00     0.120 C 
ATOM     13  N   UNL A   1      31.208  26.354  22.549  1.00  0.00    -0.342 N 
ATOM     14  C   UNL A   1      30.675  27.560  22.976  1.00  0.00     0.228 C 
ATOM     15  O   UNL A   1      29.784  27.610  23.830  1.00  0.00    -0.275 OA
BRANCH   8  16
ATOM     16  C   UNL A   1      33.354  23.221  22.506  1.00  0.00     0.013 C 
ATOM     17  C   UNL A   1      32.424  22.024  22.685  1.00  0.00     0.005 C 
ENDBRANCH   8  16
BRANCH  14  18
ATOM     18  C   UNL A   1      31.157  28.863  22.342  1.00  0.00     0.166 C 
BRANCH  18  19
ATOM     19  C   UNL A   1      30.199  30.072  22.423  1.00  0.00     0.201 C 
ATOM     20  C   UNL A   1      28.944  29.850  21.553  1.00  0.00     0.135 C 
ATOM     21  N   UNL A   1      29.936  30.424  23.835  1.00  0.00    -0.342 N 
ATOM     22  S   UNL A   1      27.822  31.284  21.558  1.00  0.00    -0.150 SA
ATOM     23  C   UNL A   1      29.056  31.587  24.008  1.00  0.00     0.271 C 
ATOM     24  H   UNL A   1      30.828  30.627  24.286  1.00  0.00     0.346 HD
ATOM     25  H   UNL A   1      29.456  29.626  24.251  1.00  0.00     0.346 HD
ATOM     26  C   UNL A   1      27.679  31.461  23.358  1.00  0.00     0.131 C 
ENDBRANCH  18  19
ENDBRANCH  14  18
ENDBRANCH   5   8
ENDBRANCH   3   4
ENDBRANCH   2   3
ENDBRANCH   1   2
BRANCH   1  27
ATOM     27  C   UNL A   1      32.813  29.243  26.005  1.00  0.00     0.116 C 
BRANCH  27  28
ATOM     28  N   UNL A   1      32.388  30.587  26.374  1.00  0.00    -0.352 N 
ATOM     29  C   UNL A   1      33.054  31.511  27.147  1.00  0.00     0.251 C 
ATOM     30  H   UNL A   1      31.512  30.871  26.025  1.00  0.00     0.163 HD
ATOM     31  O   UNL A   1      32.519  32.569  27.463  1.00  0.00    -0.269 OA
BRANCH  29  32
ATOM     32  C   UNL A   1      34.413  31.193  27.632  1.00  0.00     0.039 A 
ATOM     33  C   UNL A   1      35.363  32.215  27.713  1.00  0.00     0.014 A 
ATOM     34  C   UNL A   1      34.720  29.903  28.071  1.00  0.00     0.014 A 
ATOM     35  C   UNL A   1      36.597  31.964  28.320  1.00  0.00     0.010 A 
ATOM     36  C   UNL A   1      35.919  29.674  28.734  1.00  0.00     0.010 A 
ATOM     37  C   UNL A   1      36.864  30.704  28.876  1.00  0.00    -0.014 A 
BRANCH  37  38
ATOM     38  C   UNL A   1      38.110  30.421  29.632  1.00  0.00     0.031 A 
ATOM     39  C   UNL A   1      39.119  29.462  29.067  1.00  0.00     0.074 A 
ATOM     40  C   UNL A   1      38.262  30.909  30.879  1.00  0.00     0.049 A 
ATOM     41  N   UNL A   1      40.170  28.937  29.638  1.00  0.00    -0.248 NA
ATOM     42  C   UNL A   1      38.894  29.004  27.685  1.00  0.00     0.031 C 
ATOM     43  C   UNL A   1      37.319  31.798  31.564  1.00  0.00     0.029 A 
ATOM     44  N   UNL A   1      39.247  30.693  31.811  1.00  0.00    -0.354 N 
ATOM     45  C   UNL A   1      40.700  28.048  28.711  1.00  0.00     0.074 A 
ATOM     46  C   UNL A   1      39.844  28.090  27.545  1.00  0.00     0.031 C 
ATOM     47  C   UNL A   1      37.765  32.039  32.807  1.00  0.00     0.029 A 
ATOM     48  C   UNL A   1      39.004  31.298  33.023  1.00  0.00     0.049 A 
ATOM     49  H   UNL A   1      40.051  30.155  31.630  1.00  0.00     0.167 HD
ATOM     50  C   UNL A   1      41.812  27.283  28.812  1.00  0.00     0.034 A 
ATOM     51  C   UNL A   1      39.692  31.249  34.181  1.00  0.00     0.034 A 
ATOM     52  C   UNL A   1      42.696  27.297  29.945  1.00  0.00     0.049 A 
ATOM     53  C   UNL A   1      40.958  30.438  34.245  1.00  0.00     0.074 A 
ATOM     54  C   UNL A   1      43.895  26.628  30.107  1.00  0.00     0.029 A 
ATOM     55  N   UNL A   1      42.480  28.023  31.105  1.00  0.00    -0.354 N 
ATOM     56  N   UNL A   1      41.519  29.713  33.308  1.00  0.00    -0.248 NA
ATOM     57  C   UNL A   1      41.706  30.463  35.512  1.00  0.00     0.031 C 
ATOM     58  C   UNL A   1      44.405  26.947  31.369  1.00  0.00     0.029 A 
ATOM     59  C   UNL A   1      43.526  27.823  31.988  1.00  0.00     0.049 A 
ATOM     60  H   UNL A   1      41.698  28.596  31.277  1.00  0.00     0.167 HD
ATOM     61  C   UNL A   1      42.702  29.230  33.855  1.00  0.00     0.074 A 
ATOM     62  C   UNL A   1      42.784  29.753  35.203  1.00  0.00     0.031 C 
ATOM     63  C   UNL A   1      43.630  28.416  33.296  1.00  0.00     0.034 A 
BRANCH  50  64
ATOM     64  C   UNL A   1      42.172  26.416  27.637  1.00  0.00     0.023 A 
ATOM     65  C   UNL A   1      42.961  26.952  26.599  1.00  0.00     0.012 A 
ATOM     66  C   UNL A   1      41.782  25.064  27.582  1.00  0.00     0.148 A 
ATOM     67  C   UNL A   1      43.330  26.166  25.509  1.00  0.00     0.002 A 
ATOM     68  C   UNL A   1      42.188  24.276  26.511  1.00  0.00     0.091 A 
ATOM     69  F   UNL A   1      41.011  24.578  28.565  1.00  0.00    -0.205 F 
ATOM     70  C   UNL A   1      42.953  24.827  25.469  1.00  0.00     0.022 A 
BRANCH  68  71
ATOM     71  S   UNL A   1      41.812  22.521  26.412  1.00  0.00     0.127 S 
ATOM     72  O   UNL A   1      40.351  22.534  26.352  1.00  0.00    -0.237 OA
ATOM     73  O   UNL A   1      42.469  22.132  25.162  1.00  0.00    -0.237 OA
ATOM     74  O   UNL A   1      42.390  21.923  27.607  1.00  0.00    -0.744 OA
ENDBRANCH  68  71
ENDBRANCH  50  64
BRANCH  51  75
ATOM     75  C   UNL A   1      39.237  32.053  35.351  1.00  0.00     0.023 A 
ATOM     76  C   UNL A   1      39.456  33.445  35.351  1.00  0.00     0.012 A 
ATOM     77  C   UNL A   1      38.561  31.465  36.437  1.00  0.00     0.148 A 
ATOM     78  C   UNL A   1      39.035  34.233  36.422  1.00  0.00     0.002 A 
ATOM     79  C   UNL A   1      38.099  32.264  37.479  1.00  0.00     0.091 A 
ATOM     80  F   UNL A   1      38.376  30.138  36.429  1.00  0.00    -0.205 F 
ATOM     81  C   UNL A   1      38.347  33.646  37.480  1.00  0.00     0.022 A 
BRANCH  79  82
ATOM     82  S   UNL A   1      37.094  31.609  38.817  1.00  0.00     0.127 S 
ATOM     83  O   UNL A   1      36.889  30.228  38.388  1.00  0.00    -0.237 OA
ATOM     84  O   UNL A   1      37.978  31.771  39.972  1.00  0.00    -0.237 OA
ATOM     85  O   UNL A   1      35.904  32.449  38.855  1.00  0.00    -0.744 OA
ENDBRANCH  79  82
ENDBRANCH  51  75
BRANCH  63  86
ATOM     86  C   UNL A   1      44.849  28.069  34.106  1.00  0.00     0.023 A 
ATOM     87  C   UNL A   1      45.967  28.924  34.085  1.00  0.00     0.012 A 
ATOM     88  C   UNL A   1      44.835  26.964  34.980  1.00  0.00     0.148 A 
ATOM     89  C   UNL A   1      47.060  28.678  34.914  1.00  0.00     0.002 A 
ATOM     90  C   UNL A   1      45.909  26.748  35.834  1.00  0.00     0.091 A 
ATOM     91  F   UNL A   1      43.765  26.155  34.969  1.00  0.00    -0.205 F 
ATOM     92  C   UNL A   1      47.026  27.600  35.797  1.00  0.00     0.022 A 
BRANCH  90  93
ATOM     93  S   UNL A   1      45.914  25.444  37.070  1.00  0.00     0.127 S 
ATOM     94  O   UNL A   1      47.215  25.642  37.705  1.00  0.00    -0.237 OA
ATOM     95  O   UNL A   1      44.766  25.802  37.903  1.00  0.00    -0.237 OA
ATOM     96  O   UNL A   1      45.761  24.195  36.336  1.00  0.00    -0.744 OA
ENDBRANCH  90  93
ENDBRANCH  63  86
ENDBRANCH  37  38
ENDBRANCH  29  32
ENDBRANCH  27  28
ENDBRANCH   1  27
TORSDOF 17
ENDMDL
MODEL 3
REMARK VINA RESULT:     -12.1      5.115      7.423
REMARK SMILES CCC1(C(=O)NCCCCNC(=O)c2ccc(-c3c4nc(c(-c5cccc(S(=O)(=O)[O-])c5F)c5ccc([nH]5)c(-c5cccc(S(=O)(=O)[O-])c5F)c5nc(c(-c6cccc(S(=O)(=O)[O-])c6F)c6ccc3[nH]6)C=C5)C=C4)cc2)CCN(C(=O)C[C@H]2CSCC[NH2+]2)CC1
REMARK SMILES IDX 9 1 8 2 7 3 6 4 4 5 5 6 3 8 77 9 90 10 78 11 89 12 79 13
REMARK SMILES IDX 80 14 81 15 2 16 1 17 82 18 83 19 84 20 88 21 85 22 87 23
REMARK SMILES IDX 86 26 10 27 11 28 12 29 13 31 14 32 15 33 76 34 16 35 75 36
REMARK SMILES IDX 17 37 18 38 19 39 69 40 20 41 74 42 68 43 70 44 21 45 73 46
REMARK SMILES IDX 67 47 66 48 22 50 54 51 34 52 53 53 35 54 38 55 52 56 71 57
REMARK SMILES IDX 36 58 37 59 51 61 72 62 39 63 23 64 24 65 32 66 25 67 27 68
REMARK SMILES IDX 33 69 26 70 28 71 29 72 30 73 31 74 55 75 56 76 64 77 57 78
REMARK SMILES IDX 59 79 65 80 58 81 60 82 61 83 62 84 63 85 40 86 41 87 49 88
REMARK SMILES IDX 42 89 44 90 50 91 43 92 45 93 46 94 47 95 48 96
REMARK H PARENT 6 7 88 24 88 25 11 30 70 49 38 60
REMARK Flexibility Score: inf
ROOT
ATOM      1  C   UNL A   1      31.347  29.808  24.980  1.00  0.00     0.023 C 
ENDROOT
BRANCH   1   2
ATOM      2  C   UNL A   1      31.773  29.144  23.674  1.00  0.00     0.023 C 
BRANCH   2   3
ATOM      3  C   UNL A   1      31.478  27.646  23.572  1.00  0.00     0.116 C 
BRANCH   3   4
ATOM      4  N   UNL A   1      32.461  26.913  22.787  1.00  0.00    -0.356 N 
ATOM      5  C   UNL A   1      33.307  25.884  23.085  1.00  0.00     0.226 C 
ATOM      6  O   UNL A   1      33.940  25.411  22.137  1.00  0.00    -0.274 OA
ATOM      7  H   UNL A   1      32.530  27.221  21.853  1.00  0.00     0.163 HD
BRANCH   5   8
ATOM      8  C   UNL A   1      33.442  25.283  24.511  1.00  0.00     0.052 C 
ATOM      9  C   UNL A   1      32.046  24.793  25.012  1.00  0.00     0.038 C 
ATOM     10  C   UNL A   1      34.495  24.147  24.460  1.00  0.00     0.038 C 
ATOM     11  C   UNL A   1      32.083  23.694  26.077  1.00  0.00     0.120 C 
ATOM     12  C   UNL A   1      34.450  23.278  25.709  1.00  0.00     0.120 C 
ATOM     13  N   UNL A   1      33.119  22.704  25.803  1.00  0.00    -0.342 N 
ATOM     14  C   UNL A   1      32.777  21.413  25.431  1.00  0.00     0.228 C 
ATOM     15  O   UNL A   1      31.602  21.076  25.262  1.00  0.00    -0.275 OA
BRANCH   8  16
ATOM     16  C   UNL A   1      33.889  26.412  25.512  1.00  0.00     0.013 C 
ATOM     17  C   UNL A   1      32.856  26.880  26.535  1.00  0.00     0.005 C 
ENDBRANCH   8  16
BRANCH  14  18
ATOM     18  C   UNL A   1      33.872  20.360  25.277  1.00  0.00     0.166 C 
BRANCH  18  19
ATOM     19  C   UNL A   1      33.412  18.919  24.963  1.00  0.00     0.201 C 
ATOM     20  C   UNL A   1      34.521  18.122  24.243  1.00  0.00     0.135 C 
ATOM     21  N   UNL A   1      32.863  18.280  26.178  1.00  0.00    -0.342 N 
ATOM     22  S   UNL A   1      33.995  16.441  23.784  1.00  0.00    -0.150 SA
ATOM     23  C   UNL A   1      32.369  16.913  25.966  1.00  0.00     0.271 C 
ATOM     24  H   UNL A   1      32.088  18.851  26.518  1.00  0.00     0.346 HD
ATOM     25  H   UNL A   1      33.629  18.217  26.849  1.00  0.00     0.346 HD
ATOM     26  C   UNL A   1      33.404  15.928  25.422  1.00  0.00     0.131 C 
ENDBRANCH  18  19
ENDBRANCH  14  18
ENDBRANCH   5   8
ENDBRANCH   3   4
ENDBRANCH   2   3
ENDBRANCH   1   2
BRANCH   1  27
ATOM     27  C   UNL A   1      32.482  30.295  25.873  1.00  0.00     0.116 C 
BRANCH  27  28
ATOM     28  N   UNL A   1      32.295  31.653  26.369  1.00  0.00    -0.352 N 
ATOM     29  C   UNL A   1      33.083  32.354  27.254  1.00  0.00     0.251 C 
ATOM     30  H   UNL A   1      31.505  32.131  26.025  1.00  0.00     0.163 HD
ATOM     31  O   UNL A   1      32.737  33.459  27.663  1.00  0.00    -0.269 OA
BRANCH  29  32
ATOM     32  C   UNL A   1      34.333  31.740  27.744  1.00  0.00     0.039 A 
ATOM     33  C   UNL A   1      35.446  32.553  27.976  1.00  0.00     0.014 A 
ATOM     34  C   UNL A   1      34.379  30.375  28.037  1.00  0.00     0.014 A 
ATOM     35  C   UNL A   1      36.580  32.013  28.590  1.00  0.00     0.010 A 
ATOM     36  C   UNL A   1      35.479  29.857  28.709  1.00  0.00     0.010 A 
ATOM     37  C   UNL A   1      36.585  30.672  29.002  1.00  0.00    -0.014 A 
BRANCH  37  38
ATOM     38  C   UNL A   1      37.717  30.082  29.761  1.00  0.00     0.031 A 
ATOM     39  C   UNL A   1      38.004  30.561  31.156  1.00  0.00     0.074 A 
ATOM     40  C   UNL A   1      38.564  29.232  29.147  1.00  0.00     0.049 A 
ATOM     41  N   UNL A   1      39.040  30.319  31.915  1.00  0.00    -0.248 NA
ATOM     42  C   UNL A   1      37.010  31.461  31.764  1.00  0.00     0.031 C 
ATOM     43  C   UNL A   1      38.429  28.745  27.772  1.00  0.00     0.029 A 
ATOM     44  N   UNL A   1      39.733  28.660  29.586  1.00  0.00    -0.354 N 
ATOM     45  C   UNL A   1      38.851  31.078  33.063  1.00  0.00     0.074 A 
ATOM     46  C   UNL A   1      37.610  31.802  32.895  1.00  0.00     0.031 C 
ATOM     47  C   UNL A   1      39.477  27.959  27.478  1.00  0.00     0.029 A 
ATOM     48  C   UNL A   1      40.377  27.914  28.626  1.00  0.00     0.049 A 
ATOM     49  H   UNL A   1      40.077  28.774  30.501  1.00  0.00     0.167 HD
ATOM     50  C   UNL A   1      39.629  31.147  34.169  1.00  0.00     0.034 A 
ATOM     51  C   UNL A   1      41.565  27.277  28.662  1.00  0.00     0.034 A 
ATOM     52  C   UNL A   1      40.825  30.373  34.359  1.00  0.00     0.049 A 
ATOM     53  C   UNL A   1      42.380  27.322  29.927  1.00  0.00     0.074 A 
ATOM     54  C   UNL A   1      41.634  30.303  35.479  1.00  0.00     0.029 A 
ATOM     55  N   UNL A   1      41.378  29.529  33.409  1.00  0.00    -0.354 N 
ATOM     56  N   UNL A   1      42.115  27.933  31.055  1.00  0.00    -0.248 NA
ATOM     57  C   UNL A   1      43.640  26.563  29.937  1.00  0.00     0.031 C 
ATOM     58  C   UNL A   1      42.680  29.416  35.205  1.00  0.00     0.029 A 
ATOM     59  C   UNL A   1      42.516  28.928  33.917  1.00  0.00     0.049 A 
ATOM     60  H   UNL A   1      41.015  29.379  32.506  1.00  0.00     0.167 HD
ATOM     61  C   UNL A   1      43.150  27.602  31.922  1.00  0.00     0.074 A 
ATOM     62  C   UNL A   1      44.043  26.726  31.192  1.00  0.00     0.031 C 
ATOM     63  C   UNL A   1      43.349  27.997  33.203  1.00  0.00     0.034 A 
BRANCH  50  64
ATOM     64  C   UNL A   1      39.174  32.043  35.288  1.00  0.00     0.023 A 
ATOM     65  C   UNL A   1      38.237  31.558  36.224  1.00  0.00     0.012 A 
ATOM     66  C   UNL A   1      39.709  33.336  35.451  1.00  0.00     0.148 A 
ATOM     67  C   UNL A   1      37.814  32.357  37.284  1.00  0.00     0.002 A 
ATOM     68  C   UNL A   1      39.312  34.111  36.534  1.00  0.00     0.091 A 
ATOM     69  F   UNL A   1      40.579  33.789  34.537  1.00  0.00    -0.205 F 
ATOM     70  C   UNL A   1      38.358  33.628  37.446  1.00  0.00     0.022 A 
BRANCH  68  71
ATOM     71  S   UNL A   1      40.013  35.732  36.865  1.00  0.00     0.127 S 
ATOM     72  O   UNL A   1      39.593  36.484  35.683  1.00  0.00    -0.237 OA
ATOM     73  O   UNL A   1      39.337  36.118  38.104  1.00  0.00    -0.237 OA
ATOM     74  O   UNL A   1      41.448  35.523  37.001  1.00  0.00    -0.744 OA
ENDBRANCH  68  71
ENDBRANCH  50  64
BRANCH  51  75
ATOM     75  C   UNL A   1      42.017  26.480  27.486  1.00  0.00     0.023 A 
ATOM     76  C   UNL A   1      42.751  27.120  26.468  1.00  0.00     0.012 A 
ATOM     77  C   UNL A   1      41.764  25.099  27.385  1.00  0.00     0.148 A 
ATOM     78  C   UNL A   1      43.201  26.407  25.358  1.00  0.00     0.002 A 
ATOM     79  C   UNL A   1      42.259  24.383  26.299  1.00  0.00     0.091 A 
ATOM     80  F   UNL A   1      41.050  24.509  28.354  1.00  0.00    -0.205 F 
ATOM     81  C   UNL A   1      42.966  25.037  25.278  1.00  0.00     0.022 A 
BRANCH  79  82
ATOM     82  S   UNL A   1      42.112  22.596  26.181  1.00  0.00     0.127 S 
ATOM     83  O   UNL A   1      42.885  22.311  24.976  1.00  0.00    -0.237 OA
ATOM     84  O   UNL A   1      42.732  22.154  27.430  1.00  0.00    -0.237 OA
ATOM     85  O   UNL A   1      40.682  22.329  26.099  1.00  0.00    -0.744 OA
ENDBRANCH  79  82
ENDBRANCH  51  75
BRANCH  63  86
ATOM     86  C   UNL A   1      44.549  27.457  33.933  1.00  0.00     0.023 A 
ATOM     87  C   UNL A   1      45.761  28.171  33.905  1.00  0.00     0.012 A 
ATOM     88  C   UNL A   1      44.434  26.309  34.742  1.00  0.00     0.148 A 
ATOM     89  C   UNL A   1      46.849  27.745  34.666  1.00  0.00     0.002 A 
ATOM     90  C   UNL A   1      45.508  25.914  35.530  1.00  0.00     0.091 A 
ATOM     91  F   UNL A   1      43.274  25.638  34.738  1.00  0.00    -0.205 F 
ATOM     92  C   UNL A   1      46.718  26.626  35.487  1.00  0.00     0.022 A 
BRANCH  90  93
ATOM     93  S   UNL A   1      45.403  24.545  36.689  1.00  0.00     0.127 S 
ATOM     94  O   UNL A   1      45.128  23.421  35.797  1.00  0.00    -0.237 OA
ATOM     95  O   UNL A   1      46.739  24.540  37.285  1.00  0.00    -0.237 OA
ATOM     96  O   UNL A   1      44.330  24.884  37.614  1.00  0.00    -0.744 OA
ENDBRANCH  90  93
ENDBRANCH  63  86
ENDBRANCH  37  38
ENDBRANCH  29  32
ENDBRANCH  27  28
ENDBRANCH   1  27
TORSDOF 17
ENDMDL
