MODEL 1
REMARK VINA RESULT:     -13.3      0.000      0.000
REMARK SMILES C[NH+]1CCC2(CC1)OC[C@H](C(=O)NCCCCNC(=O)c1ccc(-c3c4nc(c(-c5cccc(S(=O)(=O)[O-])c5F)c5ccc([nH]5)c(-c5cccc(S(=O)(=O)[O-])c5F)c5nc(c(-c6cccc(S(=O)(=O)[O-])c6F)c6ccc3[nH]6)C=C5)C=C4)cc1)N2C(=O)c1cc(C(F)(F)F)cc(C(F)(F)F)c1
REMARK SMILES IDX 15 1 14 2 13 3 11 4 12 5 10 7 1 8 2 9 3 10 7 11 4 13 6 14
REMARK SMILES IDX 5 15 8 16 84 17 9 18 85 19 86 20 87 21 88 22 100 23 89 24
REMARK SMILES IDX 95 25 94 26 90 27 91 28 92 29 93 30 96 31 97 32 98 33 99 34
REMARK SMILES IDX 16 35 17 36 18 37 19 38 20 40 21 41 22 42 83 43 23 44 82 45
REMARK SMILES IDX 24 46 25 47 26 48 76 49 27 50 81 51 75 52 77 53 28 54 80 55
REMARK SMILES IDX 74 56 73 57 29 59 61 60 41 61 60 62 42 63 45 64 59 65 78 66
REMARK SMILES IDX 43 67 44 68 58 70 79 71 46 72 30 73 31 74 39 75 32 76 34 77
REMARK SMILES IDX 40 78 33 79 35 80 36 81 37 82 38 83 62 84 63 85 71 86 64 87
REMARK SMILES IDX 66 88 72 89 65 90 67 91 68 92 69 93 70 94 47 95 48 96 56 97
REMARK SMILES IDX 49 98 51 99 57 100 50 101 52 102 53 103 54 104 55 105
REMARK H PARENT 13 6 2 12 18 39 77 58 45 69
REMARK Flexibility Score: inf
ROOT
ATOM      1  C   UNL A   1      31.357  27.342  26.476  1.00  0.00     0.023 C 
ENDROOT
BRANCH   1   2
ATOM      2  C   UNL A   1      31.016  26.396  25.325  1.00  0.00     0.116 C 
BRANCH   2   3
ATOM      3  N   UNL A   1      30.646  27.123  24.132  1.00  0.00    -0.354 N 
ATOM      4  C   UNL A   1      30.838  26.894  22.810  1.00  0.00     0.245 C 
ATOM      5  O   UNL A   1      30.349  27.744  22.050  1.00  0.00    -0.273 OA
ATOM      6  H   UNL A   1      30.154  27.955  24.318  1.00  0.00     0.163 HD
BRANCH   4   7
ATOM      7  C   UNL A   1      31.569  25.677  22.183  1.00  0.00     0.203 C 
ATOM      8  C   UNL A   1      36.885  23.969  25.291  1.00  0.00     0.332 C 
ATOM      9  N   UNL A   1      35.487  23.709  24.971  1.00  0.00    -0.337 N 
ATOM     10  C   UNL A   1      34.643  24.873  25.198  1.00  0.00     0.267 C 
ATOM     11  C   UNL A   1      35.293  22.983  23.720  1.00  0.00     0.267 C 
ATOM     12  H   UNL A   1      35.139  23.032  25.650  1.00  0.00     0.347 HD
ATOM     13  C   UNL A   1      34.356  25.693  23.961  1.00  0.00     0.120 C 
ATOM     14  C   UNL A   1      34.666  23.696  22.520  1.00  0.00     0.120 C 
ATOM     15  C   UNL A   1      33.740  24.871  22.833  1.00  0.00     0.155 C 
ATOM     16  O   UNL A   1      33.887  25.745  21.673  1.00  0.00    -0.352 OA
ATOM     17  N   UNL A   1      32.280  24.637  22.915  1.00  0.00    -0.295 N 
ATOM     18  C   UNL A   1      32.610  26.195  21.215  1.00  0.00     0.198 C 
BRANCH  17  19
ATOM     19  C   UNL A   1      31.493  23.572  23.346  1.00  0.00     0.256 C 
ATOM     20  O   UNL A   1      30.285  23.501  23.113  1.00  0.00    -0.269 OA
BRANCH  19  21
ATOM     21  C   UNL A   1      32.022  22.461  24.138  1.00  0.00     0.041 A 
ATOM     22  C   UNL A   1      32.061  21.164  23.617  1.00  0.00     0.027 A 
ATOM     23  C   UNL A   1      32.331  22.683  25.478  1.00  0.00     0.027 A 
ATOM     24  C   UNL A   1      32.539  20.102  24.409  1.00  0.00     0.057 A 
ATOM     25  C   UNL A   1      32.882  21.662  26.262  1.00  0.00     0.057 A 
ATOM     26  C   UNL A   1      32.969  20.369  25.724  1.00  0.00     0.026 A 
BRANCH  24  27
ATOM     27  C   UNL A   1      32.607  18.705  23.842  1.00  0.00     0.416 C 
ATOM     28  F   UNL A   1      31.987  17.788  24.634  1.00  0.00    -0.166 F 
ATOM     29  F   UNL A   1      32.010  18.613  22.622  1.00  0.00    -0.166 F 
ATOM     30  F   UNL A   1      33.879  18.250  23.668  1.00  0.00    -0.166 F 
ENDBRANCH  24  27
BRANCH  25  31
ATOM     31  C   UNL A   1      33.408  21.980  27.643  1.00  0.00     0.416 C 
ATOM     32  F   UNL A   1      32.454  21.860  28.600  1.00  0.00    -0.166 F 
ATOM     33  F   UNL A   1      34.425  21.153  28.009  1.00  0.00    -0.166 F 
ATOM     34  F   UNL A   1      33.896  23.247  27.724  1.00  0.00    -0.166 F 
ENDBRANCH  25  31
ENDBRANCH  19  21
ENDBRANCH  17  19
ENDBRANCH   4   7
ENDBRANCH   2   3
ENDBRANCH   1   2
BRANCH   1  35
ATOM     35  C   UNL A   1      32.789  27.841  26.524  1.00  0.00     0.023 C 
BRANCH  35  36
ATOM     36  C   UNL A   1      33.053  29.135  25.768  1.00  0.00     0.116 C 
BRANCH  36  37
ATOM     37  N   UNL A   1      32.558  30.353  26.406  1.00  0.00    -0.352 N 
ATOM     38  C   UNL A   1      33.256  31.232  27.220  1.00  0.00     0.251 C 
ATOM     39  H   UNL A   1      31.615  30.578  26.237  1.00  0.00     0.163 HD
ATOM     40  O   UNL A   1      32.723  32.209  27.710  1.00  0.00    -0.269 OA
BRANCH  38  41
ATOM     41  C   UNL A   1      34.663  30.910  27.542  1.00  0.00     0.039 A 
ATOM     42  C   UNL A   1      35.565  31.962  27.709  1.00  0.00     0.014 A 
ATOM     43  C   UNL A   1      35.024  29.599  27.845  1.00  0.00     0.014 A 
ATOM     44  C   UNL A   1      36.797  31.711  28.314  1.00  0.00     0.010 A 
ATOM     45  C   UNL A   1      36.194  29.376  28.555  1.00  0.00     0.010 A 
ATOM     46  C   UNL A   1      37.087  30.430  28.811  1.00  0.00    -0.014 A 
BRANCH  46  47
ATOM     47  C   UNL A   1      38.297  30.157  29.626  1.00  0.00     0.031 A 
ATOM     48  C   UNL A   1      39.357  29.233  29.090  1.00  0.00     0.074 A 
ATOM     49  C   UNL A   1      38.380  30.623  30.889  1.00  0.00     0.049 A 
ATOM     50  N   UNL A   1      40.402  28.735  29.697  1.00  0.00    -0.248 NA
ATOM     51  C   UNL A   1      39.189  28.763  27.704  1.00  0.00     0.031 C 
ATOM     52  C   UNL A   1      37.373  31.450  31.562  1.00  0.00     0.029 A 
ATOM     53  N   UNL A   1      39.349  30.448  31.845  1.00  0.00    -0.354 N 
ATOM     54  C   UNL A   1      40.972  27.847  28.794  1.00  0.00     0.074 A 
ATOM     55  C   UNL A   1      40.133  27.840  27.617  1.00  0.00     0.031 C 
ATOM     56  C   UNL A   1      37.791  31.732  32.806  1.00  0.00     0.029 A 
ATOM     57  C   UNL A   1      39.075  31.079  33.037  1.00  0.00     0.049 A 
ATOM     58  H   UNL A   1      40.166  29.920  31.693  1.00  0.00     0.167 HD
ATOM     59  C   UNL A   1      42.117  27.134  28.911  1.00  0.00     0.034 A 
ATOM     60  C   UNL A   1      39.783  31.130  34.182  1.00  0.00     0.034 A 
ATOM     61  C   UNL A   1      42.998  27.224  30.041  1.00  0.00     0.049 A 
ATOM     62  C   UNL A   1      41.103  30.411  34.252  1.00  0.00     0.074 A 
ATOM     63  C   UNL A   1      44.232  26.628  30.219  1.00  0.00     0.029 A 
ATOM     64  N   UNL A   1      42.746  27.978  31.177  1.00  0.00    -0.354 N 
ATOM     65  N   UNL A   1      41.696  29.687  33.333  1.00  0.00    -0.248 NA
ATOM     66  C   UNL A   1      41.868  30.541  35.501  1.00  0.00     0.031 C 
ATOM     67  C   UNL A   1      44.733  27.030  31.463  1.00  0.00     0.029 A 
ATOM     68  C   UNL A   1      43.809  27.876  32.056  1.00  0.00     0.049 A 
ATOM     69  H   UNL A   1      41.931  28.507  31.335  1.00  0.00     0.167 HD
ATOM     70  C   UNL A   1      42.918  29.308  33.876  1.00  0.00     0.074 A 
ATOM     71  C   UNL A   1      42.987  29.895  35.199  1.00  0.00     0.031 C 
ATOM     72  C   UNL A   1      43.888  28.531  33.336  1.00  0.00     0.034 A 
BRANCH  59  73
ATOM     73  C   UNL A   1      42.512  26.269  27.745  1.00  0.00     0.023 A 
ATOM     74  C   UNL A   1      43.322  26.813  26.728  1.00  0.00     0.012 A 
ATOM     75  C   UNL A   1      42.099  24.926  27.656  1.00  0.00     0.148 A 
ATOM     76  C   UNL A   1      43.675  26.051  25.615  1.00  0.00     0.002 A 
ATOM     77  C   UNL A   1      42.493  24.158  26.565  1.00  0.00     0.091 A 
ATOM     78  F   UNL A   1      41.306  24.432  28.617  1.00  0.00    -0.205 F 
ATOM     79  C   UNL A   1      43.268  24.722  25.539  1.00  0.00     0.022 A 
BRANCH  77  80
ATOM     80  S   UNL A   1      42.079  22.416  26.422  1.00  0.00     0.127 S 
ATOM     81  O   UNL A   1      42.594  21.884  27.681  1.00  0.00    -0.237 OA
ATOM     82  O   UNL A   1      40.618  22.449  26.326  1.00  0.00    -0.237 OA
ATOM     83  O   UNL A   1      42.749  21.951  25.215  1.00  0.00    -0.744 OA
ENDBRANCH  77  80
ENDBRANCH  59  73
BRANCH  60  84
ATOM     84  C   UNL A   1      39.314  31.983  35.313  1.00  0.00     0.023 A 
ATOM     85  C   UNL A   1      38.407  31.435  36.242  1.00  0.00     0.012 A 
ATOM     86  C   UNL A   1      39.776  33.299  35.499  1.00  0.00     0.148 A 
ATOM     87  C   UNL A   1      37.947  32.190  37.321  1.00  0.00     0.002 A 
ATOM     88  C   UNL A   1      39.350  34.031  36.604  1.00  0.00     0.091 A 
ATOM     89  F   UNL A   1      40.630  33.806  34.599  1.00  0.00    -0.205 F 
ATOM     90  C   UNL A   1      38.425  33.484  37.508  1.00  0.00     0.022 A 
BRANCH  88  91
ATOM     91  S   UNL A   1      40.008  35.658  36.993  1.00  0.00     0.127 S 
ATOM     92  O   UNL A   1      39.337  35.958  38.255  1.00  0.00    -0.237 OA
ATOM     93  O   UNL A   1      41.441  35.389  37.105  1.00  0.00    -0.237 OA
ATOM     94  O   UNL A   1      39.645  36.505  35.864  1.00  0.00    -0.744 OA
ENDBRANCH  88  91
ENDBRANCH  60  84
BRANCH  72  95
ATOM     95  C   UNL A   1      45.131  28.296  34.150  1.00  0.00     0.023 A 
ATOM     96  C   UNL A   1      46.203  29.204  34.057  1.00  0.00     0.012 A 
ATOM     97  C   UNL A   1      45.193  27.239  35.078  1.00  0.00     0.148 A 
ATOM     98  C   UNL A   1      47.328  29.052  34.864  1.00  0.00     0.002 A 
ATOM     99  C   UNL A   1      46.301  27.118  35.908  1.00  0.00     0.091 A 
ATOM    100  F   UNL A   1      44.170  26.374  35.133  1.00  0.00    -0.205 F 
ATOM    101  C   UNL A   1      47.372  28.019  35.798  1.00  0.00     0.022 A 
BRANCH  99 102
ATOM    102  S   UNL A   1      46.396  25.873  37.200  1.00  0.00     0.127 S 
ATOM    103  O   UNL A   1      47.526  26.352  37.993  1.00  0.00    -0.237 OA
ATOM    104  O   UNL A   1      45.093  26.001  37.855  1.00  0.00    -0.237 OA
ATOM    105  O   UNL A   1      46.601  24.603  36.515  1.00  0.00    -0.744 OA
ENDBRANCH  99 102
ENDBRANCH  72  95
ENDBRANCH  46  47
ENDBRANCH  38  41
ENDBRANCH  36  37
ENDBRANCH  35  36
ENDBRANCH   1  35
TORSDOF 18
ENDMDL
MODEL 2
REMARK VINA RESULT:     -13.1      0.612      7.569
REMARK SMILES C[NH+]1CCC2(CC1)OC[C@H](C(=O)NCCCCNC(=O)c1ccc(-c3c4nc(c(-c5cccc(S(=O)(=O)[O-])c5F)c5ccc([nH]5)c(-c5cccc(S(=O)(=O)[O-])c5F)c5nc(c(-c6cccc(S(=O)(=O)[O-])c6F)c6ccc3[nH]6)C=C5)C=C4)cc1)N2C(=O)c1cc(C(F)(F)F)cc(C(F)(F)F)c1
REMARK SMILES IDX 15 1 14 2 13 3 11 4 12 5 10 7 1 8 2 9 3 10 7 11 4 13 6 14
REMARK SMILES IDX 5 15 8 16 84 17 9 18 85 19 86 20 87 21 88 22 100 23 89 24
REMARK SMILES IDX 95 25 94 26 90 27 91 28 92 29 93 30 96 31 97 32 98 33 99 34
REMARK SMILES IDX 16 35 17 36 18 37 19 38 20 40 21 41 22 42 83 43 23 44 82 45
REMARK SMILES IDX 24 46 25 47 26 48 76 49 27 50 81 51 75 52 77 53 28 54 80 55
REMARK SMILES IDX 74 56 73 57 29 59 61 60 41 61 60 62 42 63 45 64 59 65 78 66
REMARK SMILES IDX 43 67 44 68 58 70 79 71 46 72 30 73 31 74 39 75 32 76 34 77
REMARK SMILES IDX 40 78 33 79 35 80 36 81 37 82 38 83 62 84 63 85 71 86 64 87
REMARK SMILES IDX 66 88 72 89 65 90 67 91 68 92 69 93 70 94 47 95 48 96 56 97
REMARK SMILES IDX 49 98 51 99 57 100 50 101 52 102 53 103 54 104 55 105
REMARK H PARENT 13 6 2 12 18 39 77 58 45 69
REMARK Flexibility Score: inf
ROOT
ATOM      1  C   UNL A   1      31.345  27.137  26.713  1.00  0.00     0.023 C 
ENDROOT
BRANCH   1   2
ATOM      2  C   UNL A   1      32.006  26.955  25.347  1.00  0.00     0.116 C 
BRANCH   2   3
ATOM      3  N   UNL A   1      31.177  27.470  24.282  1.00  0.00    -0.354 N 
ATOM      4  C   UNL A   1      30.947  27.068  23.008  1.00  0.00     0.245 C 
ATOM      5  O   UNL A   1      30.133  27.758  22.374  1.00  0.00    -0.273 OA
ATOM      6  H   UNL A   1      30.675  28.279  24.534  1.00  0.00     0.163 HD
BRANCH   4   7
ATOM      7  C   UNL A   1      31.572  25.833  22.305  1.00  0.00     0.203 C 
ATOM      8  C   UNL A   1      37.017  23.821  24.978  1.00  0.00     0.332 C 
ATOM      9  N   UNL A   1      35.589  23.631  24.758  1.00  0.00    -0.337 N 
ATOM     10  C   UNL A   1      34.818  24.825  25.069  1.00  0.00     0.267 C 
ATOM     11  C   UNL A   1      35.271  22.942  23.511  1.00  0.00     0.267 C 
ATOM     12  H   UNL A   1      35.261  22.955  25.447  1.00  0.00     0.347 HD
ATOM     13  C   UNL A   1      34.480  25.685  23.873  1.00  0.00     0.120 C 
ATOM     14  C   UNL A   1      34.592  23.709  22.374  1.00  0.00     0.120 C 
ATOM     15  C   UNL A   1      33.746  24.917  22.777  1.00  0.00     0.155 C 
ATOM     16  O   UNL A   1      33.849  25.809  21.627  1.00  0.00    -0.352 OA
ATOM     17  N   UNL A   1      32.287  24.746  22.963  1.00  0.00    -0.295 N 
ATOM     18  C   UNL A   1      32.564  26.326  21.273  1.00  0.00     0.198 C 
BRANCH  17  19
ATOM     19  C   UNL A   1      31.485  23.709  23.430  1.00  0.00     0.256 C 
ATOM     20  O   UNL A   1      30.272  23.657  23.218  1.00  0.00    -0.269 OA
BRANCH  19  21
ATOM     21  C   UNL A   1      32.004  22.605  24.241  1.00  0.00     0.041 A 
ATOM     22  C   UNL A   1      32.485  22.830  25.534  1.00  0.00     0.027 A 
ATOM     23  C   UNL A   1      32.165  21.357  23.645  1.00  0.00     0.027 A 
ATOM     24  C   UNL A   1      33.015  21.762  26.283  1.00  0.00     0.057 A 
ATOM     25  C   UNL A   1      32.615  20.262  24.392  1.00  0.00     0.057 A 
ATOM     26  C   UNL A   1      33.053  20.476  25.708  1.00  0.00     0.026 A 
BRANCH  24  27
ATOM     27  C   UNL A   1      33.513  21.996  27.688  1.00  0.00     0.416 C 
ATOM     28  F   UNL A   1      34.455  21.090  28.067  1.00  0.00    -0.166 F 
ATOM     29  F   UNL A   1      34.089  23.221  27.836  1.00  0.00    -0.166 F 
ATOM     30  F   UNL A   1      32.532  21.931  28.631  1.00  0.00    -0.166 F 
ENDBRANCH  24  27
BRANCH  25  31
ATOM     31  C   UNL A   1      32.579  18.877  23.788  1.00  0.00     0.416 C 
ATOM     32  F   UNL A   1      31.776  18.031  24.483  1.00  0.00    -0.166 F 
ATOM     33  F   UNL A   1      32.113  18.885  22.510  1.00  0.00    -0.166 F 
ATOM     34  F   UNL A   1      33.813  18.307  23.743  1.00  0.00    -0.166 F 
ENDBRANCH  25  31
ENDBRANCH  19  21
ENDBRANCH  17  19
ENDBRANCH   4   7
ENDBRANCH   2   3
ENDBRANCH   1   2
BRANCH   1  35
ATOM     35  C   UNL A   1      31.564  28.482  27.382  1.00  0.00     0.023 C 
BRANCH  35  36
ATOM     36  C   UNL A   1      32.530  29.415  26.667  1.00  0.00     0.116 C 
BRANCH  36  37
ATOM     37  N   UNL A   1      32.379  30.836  26.969  1.00  0.00    -0.352 N 
ATOM     38  C   UNL A   1      33.345  31.717  27.431  1.00  0.00     0.251 C 
ATOM     39  H   UNL A   1      31.481  31.216  26.827  1.00  0.00     0.163 HD
ATOM     40  O   UNL A   1      33.087  32.882  27.665  1.00  0.00    -0.269 OA
BRANCH  38  41
ATOM     41  C   UNL A   1      34.696  31.182  27.705  1.00  0.00     0.039 A 
ATOM     42  C   UNL A   1      35.730  32.084  27.961  1.00  0.00     0.014 A 
ATOM     43  C   UNL A   1      34.879  29.811  27.878  1.00  0.00     0.014 A 
ATOM     44  C   UNL A   1      36.916  31.614  28.526  1.00  0.00     0.010 A 
ATOM     45  C   UNL A   1      36.007  29.368  28.551  1.00  0.00     0.010 A 
ATOM     46  C   UNL A   1      37.032  30.265  28.896  1.00  0.00    -0.014 A 
BRANCH  46  47
ATOM     47  C   UNL A   1      38.194  29.757  29.668  1.00  0.00     0.031 A 
ATOM     48  C   UNL A   1      38.416  30.240  31.075  1.00  0.00     0.074 A 
ATOM     49  C   UNL A   1      39.116  28.978  29.065  1.00  0.00     0.049 A 
ATOM     50  N   UNL A   1      39.445  30.054  31.859  1.00  0.00    -0.248 NA
ATOM     51  C   UNL A   1      37.364  31.092  31.658  1.00  0.00     0.031 C 
ATOM     52  C   UNL A   1      39.068  28.519  27.674  1.00  0.00     0.029 A 
ATOM     53  N   UNL A   1      40.291  28.453  29.541  1.00  0.00    -0.354 N 
ATOM     54  C   UNL A   1      39.194  30.817  32.992  1.00  0.00     0.074 A 
ATOM     55  C   UNL A   1      37.941  31.504  32.776  1.00  0.00     0.031 C 
ATOM     56  C   UNL A   1      40.146  27.759  27.420  1.00  0.00     0.029 A 
ATOM     57  C   UNL A   1      40.982  27.705  28.614  1.00  0.00     0.049 A 
ATOM     58  H   UNL A   1      40.611  28.597  30.461  1.00  0.00     0.167 HD
ATOM     59  C   UNL A   1      39.918  30.906  34.134  1.00  0.00     0.034 A 
ATOM     60  C   UNL A   1      42.153  27.047  28.720  1.00  0.00     0.034 A 
ATOM     61  C   UNL A   1      41.108  30.143  34.383  1.00  0.00     0.049 A 
ATOM     62  C   UNL A   1      42.888  27.078  30.033  1.00  0.00     0.074 A 
ATOM     63  C   UNL A   1      41.860  30.076  35.540  1.00  0.00     0.029 A 
ATOM     64  N   UNL A   1      41.706  29.295  33.462  1.00  0.00    -0.354 N 
ATOM     65  N   UNL A   1      42.562  27.694  31.144  1.00  0.00    -0.248 NA
ATOM     66  C   UNL A   1      44.131  26.299  30.120  1.00  0.00     0.031 C 
ATOM     67  C   UNL A   1      42.912  29.178  35.322  1.00  0.00     0.029 A 
ATOM     68  C   UNL A   1      42.810  28.687  34.030  1.00  0.00     0.049 A 
ATOM     69  H   UNL A   1      41.390  29.148  32.542  1.00  0.00     0.167 HD
ATOM     70  C   UNL A   1      43.536  27.346  32.072  1.00  0.00     0.074 A 
ATOM     71  C   UNL A   1      44.456  26.453  31.397  1.00  0.00     0.031 C 
ATOM     72  C   UNL A   1      43.669  27.743  33.361  1.00  0.00     0.034 A 
BRANCH  59  73
ATOM     73  C   UNL A   1      39.381  31.796  35.222  1.00  0.00     0.023 A 
ATOM     74  C   UNL A   1      38.382  31.301  36.086  1.00  0.00     0.012 A 
ATOM     75  C   UNL A   1      39.864  33.106  35.402  1.00  0.00     0.148 A 
ATOM     76  C   UNL A   1      37.836  32.111  37.079  1.00  0.00     0.002 A 
ATOM     77  C   UNL A   1      39.346  33.893  36.426  1.00  0.00     0.091 A 
ATOM     78  F   UNL A   1      40.793  33.571  34.556  1.00  0.00    -0.205 F 
ATOM     79  C   UNL A   1      38.324  33.403  37.255  1.00  0.00     0.022 A 
BRANCH  77  80
ATOM     80  S   UNL A   1      39.969  35.541  36.774  1.00  0.00     0.127 S 
ATOM     81  O   UNL A   1      39.282  35.861  38.023  1.00  0.00    -0.237 OA
ATOM     82  O   UNL A   1      41.408  35.308  36.912  1.00  0.00    -0.237 OA
ATOM     83  O   UNL A   1      39.601  36.351  35.620  1.00  0.00    -0.744 OA
ENDBRANCH  77  80
ENDBRANCH  59  73
BRANCH  60  84
ATOM     84  C   UNL A   1      42.643  26.209  27.587  1.00  0.00     0.023 A 
ATOM     85  C   UNL A   1      43.573  26.766  26.687  1.00  0.00     0.012 A 
ATOM     86  C   UNL A   1      42.235  24.874  27.412  1.00  0.00     0.148 A 
ATOM     87  C   UNL A   1      44.067  26.019  25.618  1.00  0.00     0.002 A 
ATOM     88  C   UNL A   1      42.768  24.119  26.372  1.00  0.00     0.091 A 
ATOM     89  F   UNL A   1      41.342  24.364  28.272  1.00  0.00    -0.205 F 
ATOM     90  C   UNL A   1      43.672  24.693  25.465  1.00  0.00     0.022 A 
BRANCH  88  91
ATOM     91  S   UNL A   1      42.412  22.368  26.172  1.00  0.00     0.127 S 
ATOM     92  O   UNL A   1      42.894  21.819  27.437  1.00  0.00    -0.237 OA
ATOM     93  O   UNL A   1      40.958  22.368  26.013  1.00  0.00    -0.237 OA
ATOM     94  O   UNL A   1      43.143  21.956  24.981  1.00  0.00    -0.744 OA
ENDBRANCH  88  91
ENDBRANCH  60  84
BRANCH  72  95
ATOM     95  C   UNL A   1      44.823  27.189  34.149  1.00  0.00     0.023 A 
ATOM     96  C   UNL A   1      46.062  27.860  34.132  1.00  0.00     0.012 A 
ATOM     97  C   UNL A   1      44.651  26.068  34.983  1.00  0.00     0.148 A 
ATOM     98  C   UNL A   1      47.118  27.411  34.921  1.00  0.00     0.002 A 
ATOM     99  C   UNL A   1      45.696  25.652  35.799  1.00  0.00     0.091 A 
ATOM    100  F   UNL A   1      43.470  25.433  34.967  1.00  0.00    -0.205 F 
ATOM    101  C   UNL A   1      46.932  26.317  35.763  1.00  0.00     0.022 A 
BRANCH  99 102
ATOM    102  S   UNL A   1      45.512  24.310  36.980  1.00  0.00     0.127 S 
ATOM    103  O   UNL A   1      45.177  23.188  36.107  1.00  0.00    -0.237 OA
ATOM    104  O   UNL A   1      46.844  24.240  37.584  1.00  0.00    -0.237 OA
ATOM    105  O   UNL A   1      44.459  24.731  37.897  1.00  0.00    -0.744 OA
ENDBRANCH  99 102
ENDBRANCH  72  95
ENDBRANCH  46  47
ENDBRANCH  38  41
ENDBRANCH  36  37
ENDBRANCH  35  36
ENDBRANCH   1  35
TORSDOF 18
ENDMDL
MODEL 3
REMARK VINA RESULT:     -12.7      4.926      7.776
REMARK SMILES C[NH+]1CCC2(CC1)OC[C@H](C(=O)NCCCCNC(=O)c1ccc(-c3c4nc(c(-c5cccc(S(=O)(=O)[O-])c5F)c5ccc([nH]5)c(-c5cccc(S(=O)(=O)[O-])c5F)c5nc(c(-c6cccc(S(=O)(=O)[O-])c6F)c6ccc3[nH]6)C=C5)C=C4)cc1)N2C(=O)c1cc(C(F)(F)F)cc(C(F)(F)F)c1
REMARK SMILES IDX 15 1 14 2 13 3 11 4 12 5 10 7 1 8 2 9 3 10 7 11 4 13 6 14
REMARK SMILES IDX 5 15 8 16 84 17 9 18 85 19 86 20 87 21 88 22 100 23 89 24
REMARK SMILES IDX 95 25 94 26 90 27 91 28 92 29 93 30 96 31 97 32 98 33 99 34
REMARK SMILES IDX 16 35 17 36 18 37 19 38 20 40 21 41 22 42 83 43 23 44 82 45
REMARK SMILES IDX 24 46 25 47 26 48 76 49 27 50 81 51 75 52 77 53 28 54 80 55
REMARK SMILES IDX 74 56 73 57 29 59 61 60 41 61 60 62 42 63 45 64 59 65 78 66
REMARK SMILES IDX 43 67 44 68 58 70 79 71 46 72 30 73 31 74 39 75 32 76 34 77
REMARK SMILES IDX 40 78 33 79 35 80 36 81 37 82 38 83 62 84 63 85 71 86 64 87
REMARK SMILES IDX 66 88 72 89 65 90 67 91 68 92 69 93 70 94 47 95 48 96 56 97
REMARK SMILES IDX 49 98 51 99 57 100 50 101 52 102 53 103 54 104 55 105
REMARK H PARENT 13 6 2 12 18 39 77 58 45 69
REMARK Flexibility Score: inf
ROOT
ATOM      1  C   UNL A   1      35.627  23.427  23.786  1.00  0.00     0.023 C 
ENDROOT
BRANCH   1   2
ATOM      2  C   UNL A   1      34.176  23.785  23.468  1.00  0.00     0.116 C 
BRANCH   2   3
ATOM      3  N   UNL A   1      34.088  24.731  22.380  1.00  0.00    -0.354 N 
ATOM      4  C   UNL A   1      33.437  25.910  22.226  1.00  0.00     0.245 C 
ATOM      5  O   UNL A   1      33.614  26.474  21.135  1.00  0.00    -0.273 OA
ATOM      6  H   UNL A   1      34.608  24.465  21.587  1.00  0.00     0.163 HD
BRANCH   4   7
ATOM      7  C   UNL A   1      32.540  26.611  23.281  1.00  0.00     0.203 C 
ATOM      8  C   UNL A   1      29.162  22.568  26.898  1.00  0.00     0.332 C 
ATOM      9  N   UNL A   1      30.287  23.486  26.767  1.00  0.00    -0.337 N 
ATOM     10  C   UNL A   1      31.113  23.184  25.608  1.00  0.00     0.267 C 
ATOM     11  C   UNL A   1      29.935  24.885  26.986  1.00  0.00     0.267 C 
ATOM     12  H   UNL A   1      30.914  23.313  27.553  1.00  0.00     0.347 HD
ATOM     13  C   UNL A   1      30.809  24.019  24.385  1.00  0.00     0.120 C 
ATOM     14  C   UNL A   1      29.956  25.864  25.810  1.00  0.00     0.120 C 
ATOM     15  C   UNL A   1      30.893  25.519  24.653  1.00  0.00     0.155 C 
ATOM     16  O   UNL A   1      30.230  26.097  23.488  1.00  0.00    -0.352 OA
ATOM     17  N   UNL A   1      32.248  26.115  24.620  1.00  0.00    -0.295 N 
ATOM     18  C   UNL A   1      31.166  26.813  22.678  1.00  0.00     0.198 C 
BRANCH  17  19
ATOM     19  C   UNL A   1      33.174  26.471  25.597  1.00  0.00     0.256 C 
ATOM     20  O   UNL A   1      33.885  25.646  26.173  1.00  0.00    -0.269 OA
BRANCH  19  21
ATOM     21  C   UNL A   1      33.362  27.851  26.050  1.00  0.00     0.041 A 
ATOM     22  C   UNL A   1      34.546  28.243  26.681  1.00  0.00     0.027 A 
ATOM     23  C   UNL A   1      32.280  28.726  25.993  1.00  0.00     0.027 A 
ATOM     24  C   UNL A   1      34.692  29.565  27.142  1.00  0.00     0.057 A 
ATOM     25  C   UNL A   1      32.426  30.066  26.372  1.00  0.00     0.057 A 
ATOM     26  C   UNL A   1      33.632  30.475  26.960  1.00  0.00     0.026 A 
BRANCH  24  27
ATOM     27  C   UNL A   1      35.979  30.000  27.802  1.00  0.00     0.416 C 
ATOM     28  F   UNL A   1      36.008  29.714  29.132  1.00  0.00    -0.166 F 
ATOM     29  F   UNL A   1      37.069  29.387  27.262  1.00  0.00    -0.166 F 
ATOM     30  F   UNL A   1      36.217  31.337  27.700  1.00  0.00    -0.166 F 
ENDBRANCH  24  27
BRANCH  25  31
ATOM     31  C   UNL A   1      31.308  31.046  26.101  1.00  0.00     0.416 C 
ATOM     32  F   UNL A   1      31.764  32.309  25.900  1.00  0.00    -0.166 F 
ATOM     33  F   UNL A   1      30.591  30.717  24.993  1.00  0.00    -0.166 F 
ATOM     34  F   UNL A   1      30.419  31.104  27.129  1.00  0.00    -0.166 F 
ENDBRANCH  25  31
ENDBRANCH  19  21
ENDBRANCH  17  19
ENDBRANCH   4   7
ENDBRANCH   2   3
ENDBRANCH   1   2
BRANCH   1  35
ATOM     35  C   UNL A   1      35.859  22.039  24.352  1.00  0.00     0.023 C 
BRANCH  35  36
ATOM     36  C   UNL A   1      36.750  21.980  25.584  1.00  0.00     0.116 C 
BRANCH  36  37
ATOM     37  N   UNL A   1      37.902  21.085  25.491  1.00  0.00    -0.352 N 
ATOM     38  C   UNL A   1      39.182  21.290  25.984  1.00  0.00     0.251 C 
ATOM     39  H   UNL A   1      37.752  20.233  25.022  1.00  0.00     0.163 HD
ATOM     40  O   UNL A   1      40.067  20.471  25.823  1.00  0.00    -0.269 OA
BRANCH  38  41
ATOM     41  C   UNL A   1      39.469  22.577  26.653  1.00  0.00     0.039 A 
ATOM     42  C   UNL A   1      40.466  22.611  27.629  1.00  0.00     0.014 A 
ATOM     43  C   UNL A   1      38.879  23.750  26.187  1.00  0.00     0.014 A 
ATOM     44  C   UNL A   1      40.969  23.845  28.043  1.00  0.00     0.010 A 
ATOM     45  C   UNL A   1      39.465  24.965  26.508  1.00  0.00     0.010 A 
ATOM     46  C   UNL A   1      40.526  25.026  27.427  1.00  0.00    -0.014 A 
BRANCH  46  47
ATOM     47  C   UNL A   1      41.162  26.341  27.695  1.00  0.00     0.031 A 
ATOM     48  C   UNL A   1      42.568  26.593  27.224  1.00  0.00     0.074 A 
ATOM     49  C   UNL A   1      40.535  27.247  28.473  1.00  0.00     0.049 A 
ATOM     50  N   UNL A   1      43.361  27.596  27.492  1.00  0.00    -0.248 NA
ATOM     51  C   UNL A   1      43.183  25.550  26.384  1.00  0.00     0.031 C 
ATOM     52  C   UNL A   1      39.207  27.085  29.075  1.00  0.00     0.029 A 
ATOM     53  N   UNL A   1      40.943  28.482  28.914  1.00  0.00    -0.354 N 
ATOM     54  C   UNL A   1      44.582  27.273  26.913  1.00  0.00     0.074 A 
ATOM     55  C   UNL A   1      44.439  25.962  26.320  1.00  0.00     0.031 C 
ATOM     56  C   UNL A   1      38.901  28.187  29.778  1.00  0.00     0.029 A 
ATOM     57  C   UNL A   1      40.021  29.120  29.712  1.00  0.00     0.049 A 
ATOM     58  H   UNL A   1      41.815  28.875  28.680  1.00  0.00     0.167 HD
ATOM     59  C   UNL A   1      45.710  28.018  26.840  1.00  0.00     0.034 A 
ATOM     60  C   UNL A   1      40.071  30.324  30.315  1.00  0.00     0.034 A 
ATOM     61  C   UNL A   1      45.814  29.358  27.342  1.00  0.00     0.049 A 
ATOM     62  C   UNL A   1      41.298  31.176  30.134  1.00  0.00     0.074 A 
ATOM     63  C   UNL A   1      46.872  30.241  27.229  1.00  0.00     0.029 A 
ATOM     64  N   UNL A   1      44.809  30.019  28.033  1.00  0.00    -0.354 N 
ATOM     65  N   UNL A   1      42.393  30.910  29.462  1.00  0.00    -0.248 NA
ATOM     66  C   UNL A   1      41.287  32.505  30.762  1.00  0.00     0.031 C 
ATOM     67  C   UNL A   1      46.503  31.442  27.846  1.00  0.00     0.029 A 
ATOM     68  C   UNL A   1      45.215  31.304  28.341  1.00  0.00     0.049 A 
ATOM     69  H   UNL A   1      43.936  29.630  28.269  1.00  0.00     0.167 HD
ATOM     70  C   UNL A   1      43.183  32.050  29.553  1.00  0.00     0.074 A 
ATOM     71  C   UNL A   1      42.434  33.015  30.333  1.00  0.00     0.031 C 
ATOM     72  C   UNL A   1      44.422  32.273  29.053  1.00  0.00     0.034 A 
BRANCH  59  73
ATOM     73  C   UNL A   1      46.884  27.419  26.113  1.00  0.00     0.023 A 
ATOM     74  C   UNL A   1      46.945  27.513  24.708  1.00  0.00     0.012 A 
ATOM     75  C   UNL A   1      47.927  26.778  26.809  1.00  0.00     0.148 A 
ATOM     76  C   UNL A   1      47.998  26.937  24.000  1.00  0.00     0.002 A 
ATOM     77  C   UNL A   1      48.998  26.245  26.098  1.00  0.00     0.091 A 
ATOM     78  F   UNL A   1      47.841  26.671  28.141  1.00  0.00    -0.205 F 
ATOM     79  C   UNL A   1      49.029  26.311  24.696  1.00  0.00     0.022 A 
BRANCH  77  80
ATOM     80  S   UNL A   1      50.407  25.488  26.918  1.00  0.00     0.127 S 
ATOM     81  O   UNL A   1      50.858  26.569  27.791  1.00  0.00    -0.237 OA
ATOM     82  O   UNL A   1      49.792  24.357  27.616  1.00  0.00    -0.237 OA
ATOM     83  O   UNL A   1      51.324  25.108  25.852  1.00  0.00    -0.744 OA
ENDBRANCH  77  80
ENDBRANCH  59  73
BRANCH  60  84
ATOM     84  C   UNL A   1      38.880  30.841  31.049  1.00  0.00     0.023 A 
ATOM     85  C   UNL A   1      38.681  30.438  32.385  1.00  0.00     0.012 A 
ATOM     86  C   UNL A   1      37.975  31.746  30.464  1.00  0.00     0.148 A 
ATOM     87  C   UNL A   1      37.588  30.903  33.115  1.00  0.00     0.002 A 
ATOM     88  C   UNL A   1      36.912  32.243  31.213  1.00  0.00     0.091 A 
ATOM     89  F   UNL A   1      38.175  32.109  29.189  1.00  0.00    -0.205 F 
ATOM     90  C   UNL A   1      36.709  31.812  32.533  1.00  0.00     0.022 A 
BRANCH  88  91
ATOM     91  S   UNL A   1      35.803  33.511  30.587  1.00  0.00     0.127 S 
ATOM     92  O   UNL A   1      34.602  32.735  30.286  1.00  0.00    -0.237 OA
ATOM     93  O   UNL A   1      35.685  34.408  31.737  1.00  0.00    -0.237 OA
ATOM     94  O   UNL A   1      36.486  34.095  29.441  1.00  0.00    -0.744 OA
ENDBRANCH  88  91
ENDBRANCH  60  84
BRANCH  72  95
ATOM     95  C   UNL A   1      45.041  33.623  29.291  1.00  0.00     0.023 A 
ATOM     96  C   UNL A   1      45.860  33.822  30.420  1.00  0.00     0.012 A 
ATOM     97  C   UNL A   1      44.894  34.657  28.347  1.00  0.00     0.148 A 
ATOM     98  C   UNL A   1      46.510  35.039  30.613  1.00  0.00     0.002 A 
ATOM     99  C   UNL A   1      45.579  35.853  28.526  1.00  0.00     0.091 A 
ATOM    100  F   UNL A   1      44.091  34.452  27.292  1.00  0.00    -0.205 F 
ATOM    101  C   UNL A   1      46.381  36.048  29.661  1.00  0.00     0.022 A 
BRANCH  99 102
ATOM    102  S   UNL A   1      45.541  37.168  27.302  1.00  0.00     0.127 S 
ATOM    103  O   UNL A   1      46.410  36.629  26.259  1.00  0.00    -0.237 OA
ATOM    104  O   UNL A   1      44.122  37.225  26.947  1.00  0.00    -0.237 OA
ATOM    105  O   UNL A   1      46.038  38.358  27.983  1.00  0.00    -0.744 OA
ENDBRANCH  99 102
ENDBRANCH  72  95
ENDBRANCH  46  47
ENDBRANCH  38  41
ENDBRANCH  36  37
ENDBRANCH  35  36
ENDBRANCH   1  35
TORSDOF 18
ENDMDL
