MODEL 1
REMARK VINA RESULT:     -12.8      0.000      0.000
REMARK SMILES CC1=C[C@H](C)[C@@H](C(=O)NCCCCNC(=O)c2ccc(-c3c4nc(c(-c5cccc(S(=O)(=O)[O-])c5F)c5ccc([nH]5)c(-c5cccc(S(=O)(=O)[O-])c5F)c5nc(c(-c6cccc(S(=O)(=O)[O-])c6F)c6ccc3[nH]6)C=C5)C=C4)cc2)[C@H](C(=O)Nc2cccnc2)C1
REMARK SMILES IDX 12 1 11 2 10 3 9 4 7 5 8 6 6 8 1 9 2 10 3 11 90 12 4 13
REMARK SMILES IDX 80 14 5 15 81 16 82 17 83 18 84 20 85 21 89 22 86 23 88 24
REMARK SMILES IDX 87 25 13 26 14 27 15 28 16 30 17 31 18 32 79 33 19 34 78 35
REMARK SMILES IDX 20 36 21 37 22 38 72 39 23 40 77 41 71 42 73 43 24 44 76 45
REMARK SMILES IDX 70 46 69 47 25 49 57 50 37 51 56 52 38 53 41 54 55 55 74 56
REMARK SMILES IDX 39 57 40 58 54 60 75 61 42 62 26 63 27 64 35 65 28 66 30 67
REMARK SMILES IDX 36 68 29 69 31 70 32 71 33 72 34 73 58 74 59 75 67 76 60 77
REMARK SMILES IDX 62 78 68 79 61 80 63 81 64 82 65 83 66 84 43 85 44 86 52 87
REMARK SMILES IDX 45 88 47 89 53 90 46 91 48 92 49 93 50 94 51 95
REMARK H PARENT 9 7 83 19 14 29 73 48 41 59
REMARK Flexibility Score: inf
ROOT
ATOM      1  C   UNL A   1      32.329  29.192  24.407  1.00  0.00     0.023 C 
ENDROOT
BRANCH   1   2
ATOM      2  C   UNL A   1      31.029  28.395  24.422  1.00  0.00     0.023 C 
BRANCH   2   3
ATOM      3  C   UNL A   1      31.067  27.135  23.570  1.00  0.00     0.116 C 
BRANCH   3   4
ATOM      4  N   UNL A   1      32.231  27.051  22.708  1.00  0.00    -0.356 N 
ATOM      5  C   UNL A   1      33.201  26.093  22.623  1.00  0.00     0.224 C 
ATOM      6  O   UNL A   1      33.996  26.163  21.683  1.00  0.00    -0.275 OA
ATOM      7  H   UNL A   1      32.337  27.803  22.083  1.00  0.00     0.163 HD
BRANCH   5   8
ATOM      8  C   UNL A   1      33.334  24.964  23.661  1.00  0.00     0.098 C 
ATOM      9  C   UNL A   1      37.157  23.165  25.108  1.00  0.00     0.039 C 
ATOM     10  C   UNL A   1      35.855  23.776  24.672  1.00  0.00    -0.076 C 
ATOM     11  C   UNL A   1      35.228  24.716  25.402  1.00  0.00    -0.024 C 
ATOM     12  C   UNL A   1      35.358  23.316  23.328  1.00  0.00     0.044 C 
ATOM     13  C   UNL A   1      34.037  25.511  24.932  1.00  0.00     0.022 C 
ATOM     14  C   UNL A   1      33.916  23.703  22.980  1.00  0.00     0.096 C 
ATOM     15  C   UNL A   1      33.036  25.823  26.056  1.00  0.00     0.013 C 
BRANCH  14  16
ATOM     16  C   UNL A   1      32.948  22.494  22.928  1.00  0.00     0.228 C 
ATOM     17  O   UNL A   1      32.361  22.222  21.876  1.00  0.00    -0.274 OA
ATOM     18  N   UNL A   1      32.819  21.606  23.962  1.00  0.00    -0.324 N 
ATOM     19  H   UNL A   1      32.584  20.686  23.699  1.00  0.00     0.169 HD
BRANCH  18  20
ATOM     20  C   UNL A   1      32.970  21.817  25.333  1.00  0.00     0.059 A 
ATOM     21  C   UNL A   1      32.030  22.536  26.054  1.00  0.00     0.029 A 
ATOM     22  C   UNL A   1      34.032  21.261  26.036  1.00  0.00     0.137 A 
ATOM     23  C   UNL A   1      32.239  22.789  27.406  1.00  0.00     0.022 A 
ATOM     24  N   UNL A   1      34.267  21.486  27.352  1.00  0.00    -0.263 NA
ATOM     25  C   UNL A   1      33.377  22.272  27.999  1.00  0.00     0.111 A 
ENDBRANCH  18  20
ENDBRANCH  14  16
ENDBRANCH   5   8
ENDBRANCH   3   4
ENDBRANCH   2   3
ENDBRANCH   1   2
BRANCH   1  26
ATOM     26  C   UNL A   1      32.916  29.507  25.779  1.00  0.00     0.116 C 
BRANCH  26  27
ATOM     27  N   UNL A   1      32.566  30.828  26.290  1.00  0.00    -0.352 N 
ATOM     28  C   UNL A   1      33.284  31.613  27.164  1.00  0.00     0.251 C 
ATOM     29  H   UNL A   1      31.713  31.203  25.971  1.00  0.00     0.163 HD
ATOM     30  O   UNL A   1      32.826  32.675  27.576  1.00  0.00    -0.269 OA
BRANCH  28  31
ATOM     31  C   UNL A   1      34.601  31.132  27.629  1.00  0.00     0.039 A 
ATOM     32  C   UNL A   1      35.621  32.058  27.857  1.00  0.00     0.014 A 
ATOM     33  C   UNL A   1      34.788  29.780  27.929  1.00  0.00     0.014 A 
ATOM     34  C   UNL A   1      36.805  31.637  28.466  1.00  0.00     0.010 A 
ATOM     35  C   UNL A   1      35.934  29.380  28.607  1.00  0.00     0.010 A 
ATOM     36  C   UNL A   1      36.954  30.304  28.884  1.00  0.00    -0.014 A 
BRANCH  36  37
ATOM     37  C   UNL A   1      38.158  29.865  29.636  1.00  0.00     0.031 A 
ATOM     38  C   UNL A   1      38.424  30.392  31.020  1.00  0.00     0.074 A 
ATOM     39  C   UNL A   1      39.061  29.062  29.037  1.00  0.00     0.049 A 
ATOM     40  N   UNL A   1      39.430  30.142  31.817  1.00  0.00    -0.248 NA
ATOM     41  C   UNL A   1      37.452  31.353  31.570  1.00  0.00     0.031 C 
ATOM     42  C   UNL A   1      38.977  28.572  27.658  1.00  0.00     0.029 A 
ATOM     43  N   UNL A   1      40.242  28.539  29.500  1.00  0.00    -0.354 N 
ATOM     44  C   UNL A   1      39.235  30.937  32.939  1.00  0.00     0.074 A 
ATOM     45  C   UNL A   1      38.033  31.707  32.707  1.00  0.00     0.031 C 
ATOM     46  C   UNL A   1      40.053  27.816  27.392  1.00  0.00     0.029 A 
ATOM     47  C   UNL A   1      40.914  27.780  28.570  1.00  0.00     0.049 A 
ATOM     48  H   UNL A   1      40.577  28.691  30.413  1.00  0.00     0.167 HD
ATOM     49  C   UNL A   1      39.968  30.996  34.076  1.00  0.00     0.034 A 
ATOM     50  C   UNL A   1      42.089  27.126  28.656  1.00  0.00     0.034 A 
ATOM     51  C   UNL A   1      41.126  30.184  34.328  1.00  0.00     0.049 A 
ATOM     52  C   UNL A   1      42.839  27.141  29.962  1.00  0.00     0.074 A 
ATOM     53  C   UNL A   1      41.869  30.085  35.492  1.00  0.00     0.029 A 
ATOM     54  N   UNL A   1      41.716  29.337  33.404  1.00  0.00    -0.354 N 
ATOM     55  N   UNL A   1      42.530  27.747  31.082  1.00  0.00    -0.248 NA
ATOM     56  C   UNL A   1      44.075  26.347  30.030  1.00  0.00     0.031 C 
ATOM     57  C   UNL A   1      42.918  29.188  35.264  1.00  0.00     0.029 A 
ATOM     58  C   UNL A   1      42.816  28.715  33.966  1.00  0.00     0.049 A 
ATOM     59  H   UNL A   1      41.397  29.197  32.483  1.00  0.00     0.167 HD
ATOM     60  C   UNL A   1      43.513  27.384  31.996  1.00  0.00     0.074 A 
ATOM     61  C   UNL A   1      44.411  26.481  31.306  1.00  0.00     0.031 C 
ATOM     62  C   UNL A   1      43.671  27.777  33.284  1.00  0.00     0.034 A 
BRANCH  49  63
ATOM     63  C   UNL A   1      39.498  31.924  35.165  1.00  0.00     0.023 A 
ATOM     64  C   UNL A   1      39.752  33.307  35.054  1.00  0.00     0.012 A 
ATOM     65  C   UNL A   1      38.753  31.444  36.258  1.00  0.00     0.148 A 
ATOM     66  C   UNL A   1      39.299  34.194  36.029  1.00  0.00     0.002 A 
ATOM     67  C   UNL A   1      38.267  32.339  37.204  1.00  0.00     0.091 A 
ATOM     68  F   UNL A   1      38.541  30.124  36.358  1.00  0.00    -0.205 F 
ATOM     69  C   UNL A   1      38.547  33.712  37.096  1.00  0.00     0.022 A 
BRANCH  67  70
ATOM     70  S   UNL A   1      37.223  31.830  38.575  1.00  0.00     0.127 S 
ATOM     71  O   UNL A   1      38.105  32.062  39.717  1.00  0.00    -0.237 OA
ATOM     72  O   UNL A   1      36.102  32.764  38.471  1.00  0.00    -0.237 OA
ATOM     73  O   UNL A   1      36.880  30.437  38.323  1.00  0.00    -0.744 OA
ENDBRANCH  67  70
ENDBRANCH  49  63
BRANCH  50  74
ATOM     74  C   UNL A   1      42.592  26.335  27.497  1.00  0.00     0.023 A 
ATOM     75  C   UNL A   1      43.456  26.943  26.566  1.00  0.00     0.012 A 
ATOM     76  C   UNL A   1      42.242  24.982  27.325  1.00  0.00     0.148 A 
ATOM     77  C   UNL A   1      43.933  26.231  25.464  1.00  0.00     0.002 A 
ATOM     78  C   UNL A   1      42.766  24.261  26.256  1.00  0.00     0.091 A 
ATOM     79  F   UNL A   1      41.408  24.423  28.212  1.00  0.00    -0.205 F 
ATOM     80  C   UNL A   1      43.597  24.889  25.315  1.00  0.00     0.022 A 
BRANCH  78  81
ATOM     81  S   UNL A   1      42.494  22.496  26.067  1.00  0.00     0.127 S 
ATOM     82  O   UNL A   1      43.039  21.974  27.317  1.00  0.00    -0.237 OA
ATOM     83  O   UNL A   1      41.037  22.422  25.951  1.00  0.00    -0.237 OA
ATOM     84  O   UNL A   1      43.208  22.122  24.853  1.00  0.00    -0.744 OA
ENDBRANCH  78  81
ENDBRANCH  50  74
BRANCH  62  85
ATOM     85  C   UNL A   1      44.841  27.215  34.046  1.00  0.00     0.023 A 
ATOM     86  C   UNL A   1      46.081  27.885  34.014  1.00  0.00     0.012 A 
ATOM     87  C   UNL A   1      44.696  26.067  34.848  1.00  0.00     0.148 A 
ATOM     88  C   UNL A   1      47.168  27.398  34.740  1.00  0.00     0.002 A 
ATOM     89  C   UNL A   1      45.770  25.615  35.606  1.00  0.00     0.091 A 
ATOM     90  F   UNL A   1      43.515  25.431  34.851  1.00  0.00    -0.205 F 
ATOM     91  C   UNL A   1      47.009  26.273  35.544  1.00  0.00     0.022 A 
BRANCH  89  92
ATOM     92  S   UNL A   1      45.625  24.231  36.741  1.00  0.00     0.127 S 
ATOM     93  O   UNL A   1      46.937  24.234  37.385  1.00  0.00    -0.237 OA
ATOM     94  O   UNL A   1      44.520  24.648  37.606  1.00  0.00    -0.237 OA
ATOM     95  O   UNL A   1      45.333  23.068  35.914  1.00  0.00    -0.744 OA
ENDBRANCH  89  92
ENDBRANCH  62  85
ENDBRANCH  36  37
ENDBRANCH  28  31
ENDBRANCH  26  27
ENDBRANCH   1  26
TORSDOF 16
ENDMDL
MODEL 2
REMARK VINA RESULT:     -12.7      4.945     10.019
REMARK SMILES CC1=C[C@H](C)[C@@H](C(=O)NCCCCNC(=O)c2ccc(-c3c4nc(c(-c5cccc(S(=O)(=O)[O-])c5F)c5ccc([nH]5)c(-c5cccc(S(=O)(=O)[O-])c5F)c5nc(c(-c6cccc(S(=O)(=O)[O-])c6F)c6ccc3[nH]6)C=C5)C=C4)cc2)[C@H](C(=O)Nc2cccnc2)C1
REMARK SMILES IDX 12 1 11 2 10 3 9 4 7 5 8 6 6 8 1 9 2 10 3 11 90 12 4 13
REMARK SMILES IDX 80 14 5 15 81 16 82 17 83 18 84 20 85 21 89 22 86 23 88 24
REMARK SMILES IDX 87 25 13 26 14 27 15 28 16 30 17 31 18 32 79 33 19 34 78 35
REMARK SMILES IDX 20 36 21 37 22 38 72 39 23 40 77 41 71 42 73 43 24 44 76 45
REMARK SMILES IDX 70 46 69 47 25 49 57 50 37 51 56 52 38 53 41 54 55 55 74 56
REMARK SMILES IDX 39 57 40 58 54 60 75 61 42 62 26 63 27 64 35 65 28 66 30 67
REMARK SMILES IDX 36 68 29 69 31 70 32 71 33 72 34 73 58 74 59 75 67 76 60 77
REMARK SMILES IDX 62 78 68 79 61 80 63 81 64 82 65 83 66 84 43 85 44 86 52 87
REMARK SMILES IDX 45 88 47 89 53 90 46 91 48 92 49 93 50 94 51 95
REMARK H PARENT 9 7 83 19 14 29 73 48 41 59
REMARK Flexibility Score: inf
ROOT
ATOM      1  C   UNL A   1      35.322  21.400  24.696  1.00  0.00     0.023 C 
ENDROOT
BRANCH   1   2
ATOM      2  C   UNL A   1      34.168  20.526  25.172  1.00  0.00     0.023 C 
BRANCH   2   3
ATOM      3  C   UNL A   1      32.801  21.185  25.046  1.00  0.00     0.116 C 
BRANCH   3   4
ATOM      4  N   UNL A   1      32.341  21.806  26.273  1.00  0.00    -0.356 N 
ATOM      5  C   UNL A   1      32.029  23.109  26.542  1.00  0.00     0.224 C 
ATOM      6  O   UNL A   1      31.489  23.360  27.622  1.00  0.00    -0.275 OA
ATOM      7  H   UNL A   1      32.235  21.191  27.033  1.00  0.00     0.163 HD
BRANCH   5   8
ATOM      8  C   UNL A   1      32.345  24.249  25.556  1.00  0.00     0.098 C 
ATOM      9  C   UNL A   1      31.592  28.596  26.244  1.00  0.00     0.039 C 
ATOM     10  C   UNL A   1      31.895  27.145  25.997  1.00  0.00    -0.076 C 
ATOM     11  C   UNL A   1      33.124  26.631  26.188  1.00  0.00    -0.024 C 
ATOM     12  C   UNL A   1      30.708  26.309  25.604  1.00  0.00     0.044 C 
ATOM     13  C   UNL A   1      33.449  25.159  26.157  1.00  0.00     0.022 C 
ATOM     14  C   UNL A   1      31.025  24.902  25.083  1.00  0.00     0.096 C 
ATOM     15  C   UNL A   1      34.833  24.858  25.560  1.00  0.00     0.013 C 
BRANCH  14  16
ATOM     16  C   UNL A   1      30.721  24.720  23.575  1.00  0.00     0.228 C 
ATOM     17  O   UNL A   1      30.196  23.675  23.176  1.00  0.00    -0.274 OA
ATOM     18  N   UNL A   1      30.868  25.731  22.663  1.00  0.00    -0.324 N 
ATOM     19  H   UNL A   1      30.253  25.697  21.895  1.00  0.00     0.169 HD
BRANCH  18  20
ATOM     20  C   UNL A   1      31.765  26.801  22.666  1.00  0.00     0.059 A 
ATOM     21  C   UNL A   1      33.133  26.586  22.641  1.00  0.00     0.029 A 
ATOM     22  C   UNL A   1      31.318  28.115  22.630  1.00  0.00     0.137 A 
ATOM     23  C   UNL A   1      34.005  27.668  22.713  1.00  0.00     0.022 A 
ATOM     24  N   UNL A   1      32.138  29.193  22.698  1.00  0.00    -0.263 NA
ATOM     25  C   UNL A   1      33.464  28.940  22.769  1.00  0.00     0.111 A 
ENDBRANCH  18  20
ENDBRANCH  14  16
ENDBRANCH   5   8
ENDBRANCH   3   4
ENDBRANCH   2   3
ENDBRANCH   1   2
BRANCH   1  26
ATOM     26  C   UNL A   1      36.460  21.577  25.697  1.00  0.00     0.116 C 
BRANCH  26  27
ATOM     27  N   UNL A   1      37.531  20.595  25.565  1.00  0.00    -0.352 N 
ATOM     28  C   UNL A   1      38.866  20.757  25.857  1.00  0.00     0.251 C 
ATOM     29  H   UNL A   1      37.266  19.710  25.225  1.00  0.00     0.163 HD
ATOM     30  O   UNL A   1      39.675  19.865  25.617  1.00  0.00    -0.269 OA
BRANCH  28  31
ATOM     31  C   UNL A   1      39.315  22.044  26.429  1.00  0.00     0.039 A 
ATOM     32  C   UNL A   1      40.356  22.048  27.359  1.00  0.00     0.014 A 
ATOM     33  C   UNL A   1      38.769  23.245  25.967  1.00  0.00     0.014 A 
ATOM     34  C   UNL A   1      40.905  23.265  27.767  1.00  0.00     0.010 A 
ATOM     35  C   UNL A   1      39.370  24.449  26.314  1.00  0.00     0.010 A 
ATOM     36  C   UNL A   1      40.446  24.473  27.215  1.00  0.00    -0.014 A 
BRANCH  36  37
ATOM     37  C   UNL A   1      41.096  25.767  27.550  1.00  0.00     0.031 A 
ATOM     38  C   UNL A   1      42.523  26.026  27.151  1.00  0.00     0.074 A 
ATOM     39  C   UNL A   1      40.429  26.673  28.294  1.00  0.00     0.049 A 
ATOM     40  N   UNL A   1      43.261  27.081  27.376  1.00  0.00    -0.248 NA
ATOM     41  C   UNL A   1      43.226  24.946  26.436  1.00  0.00     0.031 C 
ATOM     42  C   UNL A   1      39.081  26.496  28.839  1.00  0.00     0.029 A 
ATOM     43  N   UNL A   1      40.806  27.913  28.745  1.00  0.00    -0.354 N 
ATOM     44  C   UNL A   1      44.519  26.782  26.868  1.00  0.00     0.074 A 
ATOM     45  C   UNL A   1      44.457  25.430  26.355  1.00  0.00     0.031 C 
ATOM     46  C   UNL A   1      38.742  27.588  29.542  1.00  0.00     0.029 A 
ATOM     47  C   UNL A   1      39.852  28.536  29.516  1.00  0.00     0.049 A 
ATOM     48  H   UNL A   1      41.678  28.321  28.535  1.00  0.00     0.167 HD
ATOM     49  C   UNL A   1      45.618  27.569  26.801  1.00  0.00     0.034 A 
ATOM     50  C   UNL A   1      39.867  29.735  30.130  1.00  0.00     0.034 A 
ATOM     51  C   UNL A   1      45.658  28.932  27.254  1.00  0.00     0.049 A 
ATOM     52  C   UNL A   1      41.070  30.625  29.965  1.00  0.00     0.074 A 
ATOM     53  C   UNL A   1      46.685  29.851  27.126  1.00  0.00     0.029 A 
ATOM     54  N   UNL A   1      44.631  29.572  27.930  1.00  0.00    -0.354 N 
ATOM     55  N   UNL A   1      42.181  30.395  29.309  1.00  0.00    -0.248 NA
ATOM     56  C   UNL A   1      41.005  31.956  30.587  1.00  0.00     0.031 C 
ATOM     57  C   UNL A   1      46.283  31.043  27.738  1.00  0.00     0.029 A 
ATOM     58  C   UNL A   1      45.000  30.871  28.231  1.00  0.00     0.049 A 
ATOM     59  H   UNL A   1      43.767  29.163  28.161  1.00  0.00     0.167 HD
ATOM     60  C   UNL A   1      42.933  31.560  29.412  1.00  0.00     0.074 A 
ATOM     61  C   UNL A   1      42.138  32.504  30.169  1.00  0.00     0.031 C 
ATOM     62  C   UNL A   1      44.177  31.819  28.939  1.00  0.00     0.034 A 
BRANCH  49  63
ATOM     63  C   UNL A   1      46.851  26.999  26.150  1.00  0.00     0.023 A 
ATOM     64  C   UNL A   1      47.005  27.099  24.752  1.00  0.00     0.012 A 
ATOM     65  C   UNL A   1      47.881  26.428  26.921  1.00  0.00     0.148 A 
ATOM     66  C   UNL A   1      48.152  26.612  24.126  1.00  0.00     0.002 A 
ATOM     67  C   UNL A   1      49.040  25.984  26.295  1.00  0.00     0.091 A 
ATOM     68  F   UNL A   1      47.706  26.322  28.246  1.00  0.00    -0.205 F 
ATOM     69  C   UNL A   1      49.172  26.066  24.898  1.00  0.00     0.022 A 
BRANCH  67  70
ATOM     70  S   UNL A   1      50.447  25.335  27.206  1.00  0.00     0.127 S 
ATOM     71  O   UNL A   1      50.786  26.467  28.067  1.00  0.00    -0.237 OA
ATOM     72  O   UNL A   1      49.860  24.191  27.904  1.00  0.00    -0.237 OA
ATOM     73  O   UNL A   1      51.447  24.989  26.206  1.00  0.00    -0.744 OA
ENDBRANCH  67  70
ENDBRANCH  49  63
BRANCH  50  74
ATOM     74  C   UNL A   1      38.672  30.200  30.891  1.00  0.00     0.023 A 
ATOM     75  C   UNL A   1      38.562  29.894  32.262  1.00  0.00     0.012 A 
ATOM     76  C   UNL A   1      37.661  30.963  30.276  1.00  0.00     0.148 A 
ATOM     77  C   UNL A   1      37.451  30.307  32.998  1.00  0.00     0.002 A 
ATOM     78  C   UNL A   1      36.583  31.419  31.028  1.00  0.00     0.091 A 
ATOM     79  F   UNL A   1      37.775  31.233  28.969  1.00  0.00    -0.205 F 
ATOM     80  C   UNL A   1      36.467  31.077  32.384  1.00  0.00     0.022 A 
BRANCH  78  81
ATOM     81  S   UNL A   1      35.345  32.529  30.350  1.00  0.00     0.127 S 
ATOM     82  O   UNL A   1      34.859  31.771  29.201  1.00  0.00    -0.237 OA
ATOM     83  O   UNL A   1      34.397  32.643  31.459  1.00  0.00    -0.237 OA
ATOM     84  O   UNL A   1      36.057  33.764  30.045  1.00  0.00    -0.744 OA
ENDBRANCH  78  81
ENDBRANCH  50  74
BRANCH  62  85
ATOM     85  C   UNL A   1      44.752  33.185  29.201  1.00  0.00     0.023 A 
ATOM     86  C   UNL A   1      45.431  33.437  30.410  1.00  0.00     0.012 A 
ATOM     87  C   UNL A   1      44.682  34.197  28.224  1.00  0.00     0.148 A 
ATOM     88  C   UNL A   1      45.998  34.687  30.657  1.00  0.00     0.002 A 
ATOM     89  C   UNL A   1      45.291  35.424  28.457  1.00  0.00     0.091 A 
ATOM     90  F   UNL A   1      44.015  33.946  27.087  1.00  0.00    -0.205 F 
ATOM     91  C   UNL A   1      45.939  35.675  29.677  1.00  0.00     0.022 A 
BRANCH  89  92
ATOM     92  S   UNL A   1      45.345  36.718  27.212  1.00  0.00     0.127 S 
ATOM     93  O   UNL A   1      43.927  37.020  27.033  1.00  0.00    -0.237 OA
ATOM     94  O   UNL A   1      46.114  37.767  27.883  1.00  0.00    -0.237 OA
ATOM     95  O   UNL A   1      46.014  36.130  26.058  1.00  0.00    -0.744 OA
ENDBRANCH  89  92
ENDBRANCH  62  85
ENDBRANCH  36  37
ENDBRANCH  28  31
ENDBRANCH  26  27
ENDBRANCH   1  26
TORSDOF 16
ENDMDL
MODEL 3
REMARK VINA RESULT:     -12.6      2.325      8.138
REMARK SMILES CC1=C[C@H](C)[C@@H](C(=O)NCCCCNC(=O)c2ccc(-c3c4nc(c(-c5cccc(S(=O)(=O)[O-])c5F)c5ccc([nH]5)c(-c5cccc(S(=O)(=O)[O-])c5F)c5nc(c(-c6cccc(S(=O)(=O)[O-])c6F)c6ccc3[nH]6)C=C5)C=C4)cc2)[C@H](C(=O)Nc2cccnc2)C1
REMARK SMILES IDX 12 1 11 2 10 3 9 4 7 5 8 6 6 8 1 9 2 10 3 11 90 12 4 13
REMARK SMILES IDX 80 14 5 15 81 16 82 17 83 18 84 20 85 21 89 22 86 23 88 24
REMARK SMILES IDX 87 25 13 26 14 27 15 28 16 30 17 31 18 32 79 33 19 34 78 35
REMARK SMILES IDX 20 36 21 37 22 38 72 39 23 40 77 41 71 42 73 43 24 44 76 45
REMARK SMILES IDX 70 46 69 47 25 49 57 50 37 51 56 52 38 53 41 54 55 55 74 56
REMARK SMILES IDX 39 57 40 58 54 60 75 61 42 62 26 63 27 64 35 65 28 66 30 67
REMARK SMILES IDX 36 68 29 69 31 70 32 71 33 72 34 73 58 74 59 75 67 76 60 77
REMARK SMILES IDX 62 78 68 79 61 80 63 81 64 82 65 83 66 84 43 85 44 86 52 87
REMARK SMILES IDX 45 88 47 89 53 90 46 91 48 92 49 93 50 94 51 95
REMARK H PARENT 9 7 83 19 14 29 73 48 41 59
REMARK Flexibility Score: inf
ROOT
ATOM      1  C   UNL A   1      31.975  31.649  26.920  1.00  0.00     0.023 C 
ENDROOT
BRANCH   1   2
ATOM      2  C   UNL A   1      32.416  30.220  26.626  1.00  0.00     0.023 C 
BRANCH   2   3
ATOM      3  C   UNL A   1      32.046  29.734  25.232  1.00  0.00     0.116 C 
BRANCH   3   4
ATOM      4  N   UNL A   1      33.189  29.555  24.357  1.00  0.00    -0.356 N 
ATOM      5  C   UNL A   1      33.640  28.441  23.708  1.00  0.00     0.224 C 
ATOM      6  O   UNL A   1      34.540  28.585  22.876  1.00  0.00    -0.275 OA
ATOM      7  H   UNL A   1      33.725  30.367  24.205  1.00  0.00     0.163 HD
BRANCH   5   8
ATOM      8  C   UNL A   1      33.076  27.037  23.996  1.00  0.00     0.098 C 
ATOM      9  C   UNL A   1      35.402  23.225  24.006  1.00  0.00     0.039 C 
ATOM     10  C   UNL A   1      34.598  24.494  24.049  1.00  0.00    -0.076 C 
ATOM     11  C   UNL A   1      34.317  25.121  25.207  1.00  0.00    -0.024 C 
ATOM     12  C   UNL A   1      34.210  25.045  22.704  1.00  0.00     0.044 C 
ATOM     13  C   UNL A   1      33.697  26.491  25.309  1.00  0.00     0.022 C 
ATOM     14  C   UNL A   1      33.170  26.171  22.717  1.00  0.00     0.096 C 
ATOM     15  C   UNL A   1      32.740  26.635  26.503  1.00  0.00     0.013 C 
BRANCH  14  16
ATOM     16  C   UNL A   1      31.803  25.756  22.119  1.00  0.00     0.228 C 
ATOM     17  O   UNL A   1      31.250  26.482  21.286  1.00  0.00    -0.274 OA
ATOM     18  N   UNL A   1      31.233  24.533  22.356  1.00  0.00    -0.324 N 
ATOM     19  H   UNL A   1      30.669  24.184  21.628  1.00  0.00     0.169 HD
BRANCH  18  20
ATOM     20  C   UNL A   1      31.336  23.712  23.480  1.00  0.00     0.059 A 
ATOM     21  C   UNL A   1      30.852  24.123  24.712  1.00  0.00     0.029 A 
ATOM     22  C   UNL A   1      31.868  22.432  23.392  1.00  0.00     0.137 A 
ATOM     23  C   UNL A   1      31.028  23.314  25.830  1.00  0.00     0.022 A 
ATOM     24  N   UNL A   1      32.055  21.617  24.459  1.00  0.00    -0.263 NA
ATOM     25  C   UNL A   1      31.656  22.093  25.660  1.00  0.00     0.111 A 
ENDBRANCH  18  20
ENDBRANCH  14  16
ENDBRANCH   5   8
ENDBRANCH   3   4
ENDBRANCH   2   3
ENDBRANCH   1   2
BRANCH   1  26
ATOM     26  C   UNL A   1      33.066  32.571  27.456  1.00  0.00     0.116 C 
BRANCH  26  27
ATOM     27  N   UNL A   1      32.633  33.947  27.672  1.00  0.00    -0.352 N 
ATOM     28  C   UNL A   1      33.127  34.855  28.581  1.00  0.00     0.251 C 
ATOM     29  H   UNL A   1      31.898  34.264  27.098  1.00  0.00     0.163 HD
ATOM     30  O   UNL A   1      32.608  35.960  28.712  1.00  0.00    -0.269 OA
BRANCH  28  31
ATOM     31  C   UNL A   1      34.272  34.458  29.427  1.00  0.00     0.039 A 
ATOM     32  C   UNL A   1      34.027  33.861  30.665  1.00  0.00     0.014 A 
ATOM     33  C   UNL A   1      35.578  34.592  28.948  1.00  0.00     0.014 A 
ATOM     34  C   UNL A   1      35.093  33.322  31.388  1.00  0.00     0.010 A 
ATOM     35  C   UNL A   1      36.624  33.984  29.631  1.00  0.00     0.010 A 
ATOM     36  C   UNL A   1      36.394  33.341  30.858  1.00  0.00    -0.014 A 
BRANCH  36  37
ATOM     37  C   UNL A   1      37.519  32.670  31.558  1.00  0.00     0.031 A 
ATOM     38  C   UNL A   1      38.236  31.515  30.914  1.00  0.00     0.074 A 
ATOM     39  C   UNL A   1      37.836  33.042  32.816  1.00  0.00     0.049 A 
ATOM     40  N   UNL A   1      39.221  30.794  31.382  1.00  0.00    -0.248 NA
ATOM     41  C   UNL A   1      37.764  31.091  29.585  1.00  0.00     0.031 C 
ATOM     42  C   UNL A   1      37.144  34.072  33.595  1.00  0.00     0.029 A 
ATOM     43  N   UNL A   1      38.803  32.576  33.671  1.00  0.00    -0.354 N 
ATOM     44  C   UNL A   1      39.462  29.812  30.428  1.00  0.00     0.074 A 
ATOM     45  C   UNL A   1      38.494  30.005  29.370  1.00  0.00     0.031 C 
ATOM     46  C   UNL A   1      37.713  34.165  34.808  1.00  0.00     0.029 A 
ATOM     47  C   UNL A   1      38.797  33.191  34.902  1.00  0.00     0.049 A 
ATOM     48  H   UNL A   1      39.443  31.869  33.427  1.00  0.00     0.167 HD
ATOM     49  C   UNL A   1      40.421  28.858  30.415  1.00  0.00     0.034 A 
ATOM     50  C   UNL A   1      39.577  32.997  35.983  1.00  0.00     0.034 A 
ATOM     51  C   UNL A   1      41.419  28.708  31.437  1.00  0.00     0.049 A 
ATOM     52  C   UNL A   1      40.691  31.987  35.907  1.00  0.00     0.074 A 
ATOM     53  C   UNL A   1      42.504  27.849  31.460  1.00  0.00     0.029 A 
ATOM     54  N   UNL A   1      41.453  29.427  32.622  1.00  0.00    -0.354 N 
ATOM     55  N   UNL A   1      41.024  31.201  34.913  1.00  0.00    -0.248 NA
ATOM     56  C   UNL A   1      41.564  31.868  37.084  1.00  0.00     0.031 C 
ATOM     57  C   UNL A   1      43.186  28.039  32.667  1.00  0.00     0.029 A 
ATOM     58  C   UNL A   1      42.536  29.029  33.386  1.00  0.00     0.049 A 
ATOM     59  H   UNL A   1      40.804  30.120  32.880  1.00  0.00     0.167 HD
ATOM     60  C   UNL A   1      42.161  30.519  35.331  1.00  0.00     0.074 A 
ATOM     61  C   UNL A   1      42.476  31.006  36.657  1.00  0.00     0.031 C 
ATOM     62  C   UNL A   1      42.869  29.561  34.683  1.00  0.00     0.034 A 
BRANCH  49  63
ATOM     63  C   UNL A   1      40.482  27.942  29.221  1.00  0.00     0.023 A 
ATOM     64  C   UNL A   1      39.566  26.874  29.119  1.00  0.00     0.012 A 
ATOM     65  C   UNL A   1      41.395  28.173  28.174  1.00  0.00     0.148 A 
ATOM     66  C   UNL A   1      39.577  26.032  28.009  1.00  0.00     0.002 A 
ATOM     67  C   UNL A   1      41.370  27.356  27.049  1.00  0.00     0.091 A 
ATOM     68  F   UNL A   1      42.272  29.179  28.299  1.00  0.00    -0.205 F 
ATOM     69  C   UNL A   1      40.470  26.279  26.970  1.00  0.00     0.022 A 
BRANCH  67  70
ATOM     70  S   UNL A   1      42.426  27.636  25.623  1.00  0.00     0.127 S 
ATOM     71  O   UNL A   1      43.751  27.666  26.239  1.00  0.00    -0.237 OA
ATOM     72  O   UNL A   1      42.159  26.452  24.806  1.00  0.00    -0.237 OA
ATOM     73  O   UNL A   1      41.981  28.893  25.036  1.00  0.00    -0.744 OA
ENDBRANCH  67  70
ENDBRANCH  49  63
BRANCH  50  74
ATOM     74  C   UNL A   1      39.384  33.830  37.204  1.00  0.00     0.023 A 
ATOM     75  C   UNL A   1      39.845  35.161  37.214  1.00  0.00     0.012 A 
ATOM     76  C   UNL A   1      38.726  33.324  38.341  1.00  0.00     0.148 A 
ATOM     77  C   UNL A   1      39.688  35.962  38.347  1.00  0.00     0.002 A 
ATOM     78  C   UNL A   1      38.523  34.144  39.447  1.00  0.00     0.091 A 
ATOM     79  F   UNL A   1      38.306  32.052  38.320  1.00  0.00    -0.205 F 
ATOM     80  C   UNL A   1      39.019  35.458  39.458  1.00  0.00     0.022 A 
BRANCH  78  81
ATOM     81  S   UNL A   1      37.553  33.619  40.863  1.00  0.00     0.127 S 
ATOM     82  O   UNL A   1      36.356  33.080  40.223  1.00  0.00    -0.237 OA
ATOM     83  O   UNL A   1      38.426  32.620  41.479  1.00  0.00    -0.237 OA
ATOM     84  O   UNL A   1      37.361  34.819  41.668  1.00  0.00    -0.744 OA
ENDBRANCH  78  81
ENDBRANCH  50  74
BRANCH  62  85
ATOM     85  C   UNL A   1      44.073  28.990  35.384  1.00  0.00     0.023 A 
ATOM     86  C   UNL A   1      45.334  29.596  35.211  1.00  0.00     0.012 A 
ATOM     87  C   UNL A   1      43.945  27.901  36.267  1.00  0.00     0.148 A 
ATOM     88  C   UNL A   1      46.455  29.102  35.878  1.00  0.00     0.002 A 
ATOM     89  C   UNL A   1      45.056  27.444  36.965  1.00  0.00     0.091 A 
ATOM     90  F   UNL A   1      42.741  27.325  36.405  1.00  0.00    -0.205 F 
ATOM     91  C   UNL A   1      46.314  28.036  36.763  1.00  0.00     0.022 A 
BRANCH  89  92
ATOM     92  S   UNL A   1      44.946  26.140  38.195  1.00  0.00     0.127 S 
ATOM     93  O   UNL A   1      46.323  26.066  38.677  1.00  0.00    -0.237 OA
ATOM     94  O   UNL A   1      43.991  26.695  39.156  1.00  0.00    -0.237 OA
ATOM     95  O   UNL A   1      44.464  24.963  37.484  1.00  0.00    -0.744 OA
ENDBRANCH  89  92
ENDBRANCH  62  85
ENDBRANCH  36  37
ENDBRANCH  28  31
ENDBRANCH  26  27
ENDBRANCH   1  26
TORSDOF 16
ENDMDL
