MODEL 1
REMARK VINA RESULT:     -11.6      0.000      0.000
REMARK SMILES CC[C@@H](C)[C@H](NC(=O)NCc1ccc(C)cc1)C(=O)NCCCCNC(=O)c1ccc(-c2c3nc(c(-c4cccc(S(=O)(=O)[O-])c4F)c4ccc([nH]4)c(-c4cccc(S(=O)(=O)[O-])c4F)c4nc(c(-c5cccc(S(=O)(=O)[O-])c5F)c5ccc2[nH]5)C=C4)C=C3)cc1
REMARK SMILES IDX 22 1 21 2 20 3 18 4 19 5 5 7 3 8 4 9 2 10 1 11 6 12 7 13
REMARK SMILES IDX 8 15 9 16 10 18 11 19 12 20 17 21 13 22 16 23 14 24 15 25
REMARK SMILES IDX 23 26 24 27 25 28 26 29 27 31 28 32 29 33 90 34 30 35 89 36
REMARK SMILES IDX 31 37 32 38 33 39 83 40 34 41 88 42 82 43 84 44 35 45 87 46
REMARK SMILES IDX 81 47 80 48 36 50 68 51 48 52 67 53 49 54 52 55 66 56 85 57
REMARK SMILES IDX 50 58 51 59 65 61 86 62 53 63 37 64 38 65 46 66 39 67 41 68
REMARK SMILES IDX 47 69 40 70 42 71 43 72 44 73 45 74 69 75 70 76 78 77 71 78
REMARK SMILES IDX 73 79 79 80 72 81 74 82 75 83 76 84 77 85 54 86 55 87 63 88
REMARK SMILES IDX 56 89 58 90 64 91 57 92 59 93 60 94 61 95 62 96
REMARK H PARENT 20 6 6 14 9 17 25 30 84 49 52 60
REMARK Flexibility Score: inf
ROOT
ATOM      1  C   UNL A   1      36.630  23.742  25.952  1.00  0.00     0.023 C 
ENDROOT
BRANCH   1   2
ATOM      2  C   UNL A   1      35.223  24.211  25.569  1.00  0.00     0.116 C 
BRANCH   2   3
ATOM      3  N   UNL A   1      35.010  24.336  24.137  1.00  0.00    -0.354 N 
ATOM      4  C   UNL A   1      33.965  24.004  23.328  1.00  0.00     0.242 C 
ATOM      5  O   UNL A   1      34.024  24.395  22.155  1.00  0.00    -0.273 OA
ATOM      6  H   UNL A   1      35.769  24.741  23.657  1.00  0.00     0.163 HD
BRANCH   4   7
ATOM      7  C   UNL A   1      32.675  23.301  23.829  1.00  0.00     0.175 C 
BRANCH   7   8
ATOM      8  C   UNL A   1      32.709  21.756  23.615  1.00  0.00     0.018 C 
ATOM      9  C   UNL A   1      31.968  21.268  22.368  1.00  0.00     0.010 C 
BRANCH   8  10
ATOM     10  C   UNL A   1      32.211  21.038  24.893  1.00  0.00     0.002 C 
ATOM     11  C   UNL A   1      32.584  21.744  26.192  1.00  0.00     0.004 C 
ENDBRANCH   8  10
ENDBRANCH   7   8
BRANCH   7  12
ATOM     12  N   UNL A   1      31.451  23.943  23.348  1.00  0.00    -0.326 N 
ATOM     13  C   UNL A   1      30.577  24.849  23.769  1.00  0.00     0.315 C 
ATOM     14  H   UNL A   1      31.205  23.605  22.457  1.00  0.00     0.166 HD
ATOM     15  O   UNL A   1      29.688  25.171  22.974  1.00  0.00    -0.249 OA
ATOM     16  N   UNL A   1      30.547  25.421  24.965  1.00  0.00    -0.334 N 
ATOM     17  H   UNL A   1      29.751  25.989  25.085  1.00  0.00     0.165 HD
BRANCH  16  18
ATOM     18  C   UNL A   1      31.391  25.418  26.136  1.00  0.00     0.153 C 
BRANCH  18  19
ATOM     19  C   UNL A   1      32.134  26.720  26.356  1.00  0.00    -0.029 A 
ATOM     20  C   UNL A   1      31.601  27.641  27.272  1.00  0.00     0.006 A 
ATOM     21  C   UNL A   1      33.372  27.013  25.765  1.00  0.00     0.006 A 
ATOM     22  C   UNL A   1      32.283  28.818  27.585  1.00  0.00     0.004 A 
ATOM     23  C   UNL A   1      34.048  28.199  26.069  1.00  0.00     0.004 A 
ATOM     24  C   UNL A   1      33.512  29.107  26.985  1.00  0.00    -0.051 A 
ATOM     25  C   UNL A   1      34.247  30.361  27.350  1.00  0.00     0.044 C 
ENDBRANCH  18  19
ENDBRANCH  16  18
ENDBRANCH   7  12
ENDBRANCH   4   7
ENDBRANCH   2   3
ENDBRANCH   1   2
BRANCH   1  26
ATOM     26  C   UNL A   1      36.962  22.260  25.721  1.00  0.00     0.023 C 
BRANCH  26  27
ATOM     27  C   UNL A   1      38.427  22.000  25.446  1.00  0.00     0.116 C 
BRANCH  27  28
ATOM     28  N   UNL A   1      39.218  21.857  26.660  1.00  0.00    -0.352 N 
ATOM     29  C   UNL A   1      40.212  22.690  27.133  1.00  0.00     0.251 C 
ATOM     30  H   UNL A   1      39.020  21.067  27.213  1.00  0.00     0.163 HD
ATOM     31  O   UNL A   1      41.228  22.153  27.595  1.00  0.00    -0.269 OA
BRANCH  29  32
ATOM     32  C   UNL A   1      40.018  24.155  27.211  1.00  0.00     0.039 A 
ATOM     33  C   UNL A   1      40.722  25.013  26.351  1.00  0.00     0.014 A 
ATOM     34  C   UNL A   1      39.325  24.709  28.277  1.00  0.00     0.014 A 
ATOM     35  C   UNL A   1      40.937  26.337  26.733  1.00  0.00     0.010 A 
ATOM     36  C   UNL A   1      39.375  26.032  28.551  1.00  0.00     0.010 A 
ATOM     37  C   UNL A   1      40.345  26.771  27.906  1.00  0.00    -0.014 A 
BRANCH  37  38
ATOM     38  C   UNL A   1      40.636  27.961  28.663  1.00  0.00     0.031 A 
ATOM     39  C   UNL A   1      39.723  29.084  28.515  1.00  0.00     0.074 A 
ATOM     40  C   UNL A   1      41.434  27.757  29.738  1.00  0.00     0.049 A 
ATOM     41  N   UNL A   1      39.930  30.240  29.026  1.00  0.00    -0.248 NA
ATOM     42  C   UNL A   1      38.495  28.997  27.722  1.00  0.00     0.031 C 
ATOM     43  C   UNL A   1      41.408  28.405  31.042  1.00  0.00     0.029 A 
ATOM     44  N   UNL A   1      42.456  26.833  29.887  1.00  0.00    -0.354 N 
ATOM     45  C   UNL A   1      38.717  30.883  28.972  1.00  0.00     0.074 A 
ATOM     46  C   UNL A   1      37.975  30.205  27.946  1.00  0.00     0.031 C 
ATOM     47  C   UNL A   1      42.511  28.047  31.733  1.00  0.00     0.029 A 
ATOM     48  C   UNL A   1      43.369  27.297  30.827  1.00  0.00     0.049 A 
ATOM     49  H   UNL A   1      42.524  25.979  29.401  1.00  0.00     0.167 HD
ATOM     50  C   UNL A   1      38.408  31.741  29.982  1.00  0.00     0.034 A 
ATOM     51  C   UNL A   1      44.596  27.729  30.387  1.00  0.00     0.034 A 
ATOM     52  C   UNL A   1      39.590  31.946  30.850  1.00  0.00     0.049 A 
ATOM     53  C   UNL A   1      44.720  29.247  30.412  1.00  0.00     0.074 A 
ATOM     54  C   UNL A   1      39.918  31.515  32.123  1.00  0.00     0.029 A 
ATOM     55  N   UNL A   1      40.784  32.390  30.277  1.00  0.00    -0.354 N 
ATOM     56  N   UNL A   1      43.738  30.060  30.702  1.00  0.00    -0.248 NA
ATOM     57  C   UNL A   1      45.961  29.971  30.157  1.00  0.00     0.031 C 
ATOM     58  C   UNL A   1      41.341  31.577  32.253  1.00  0.00     0.029 A 
ATOM     59  C   UNL A   1      41.876  32.089  31.081  1.00  0.00     0.049 A 
ATOM     60  H   UNL A   1      40.844  32.857  29.412  1.00  0.00     0.167 HD
ATOM     61  C   UNL A   1      44.128  31.361  30.560  1.00  0.00     0.074 A 
ATOM     62  C   UNL A   1      45.557  31.248  30.302  1.00  0.00     0.031 C 
ATOM     63  C   UNL A   1      43.236  32.403  30.625  1.00  0.00     0.034 A 
BRANCH  50  64
ATOM     64  C   UNL A   1      37.004  32.213  30.337  1.00  0.00     0.023 A 
ATOM     65  C   UNL A   1      36.506  31.812  31.594  1.00  0.00     0.012 A 
ATOM     66  C   UNL A   1      36.102  32.957  29.528  1.00  0.00     0.148 A 
ATOM     67  C   UNL A   1      35.210  32.127  32.025  1.00  0.00     0.002 A 
ATOM     68  C   UNL A   1      34.835  33.334  29.985  1.00  0.00     0.091 A 
ATOM     69  F   UNL A   1      36.399  33.242  28.261  1.00  0.00    -0.205 F 
ATOM     70  C   UNL A   1      34.379  32.906  31.230  1.00  0.00     0.022 A 
BRANCH  68  71
ATOM     71  S   UNL A   1      33.729  34.389  29.023  1.00  0.00     0.127 S 
ATOM     72  O   UNL A   1      34.648  35.393  28.488  1.00  0.00    -0.237 OA
ATOM     73  O   UNL A   1      33.199  33.457  28.026  1.00  0.00    -0.237 OA
ATOM     74  O   UNL A   1      32.730  34.900  29.954  1.00  0.00    -0.744 OA
ENDBRANCH  68  71
ENDBRANCH  50  64
BRANCH  51  75
ATOM     75  C   UNL A   1      45.147  26.803  29.334  1.00  0.00     0.023 A 
ATOM     76  C   UNL A   1      45.251  25.438  29.712  1.00  0.00     0.012 A 
ATOM     77  C   UNL A   1      45.050  27.115  27.966  1.00  0.00     0.148 A 
ATOM     78  C   UNL A   1      45.032  24.418  28.782  1.00  0.00     0.002 A 
ATOM     79  C   UNL A   1      44.845  26.089  27.041  1.00  0.00     0.091 A 
ATOM     80  F   UNL A   1      45.087  28.402  27.595  1.00  0.00    -0.205 F 
ATOM     81  C   UNL A   1      44.772  24.749  27.457  1.00  0.00     0.022 A 
BRANCH  79  82
ATOM     82  S   UNL A   1      44.543  26.446  25.303  1.00  0.00     0.127 S 
ATOM     83  O   UNL A   1      45.904  26.621  24.799  1.00  0.00    -0.237 OA
ATOM     84  O   UNL A   1      43.879  25.231  24.832  1.00  0.00    -0.237 OA
ATOM     85  O   UNL A   1      43.701  27.629  25.299  1.00  0.00    -0.744 OA
ENDBRANCH  79  82
ENDBRANCH  51  75
BRANCH  63  86
ATOM     86  C   UNL A   1      43.560  33.844  30.254  1.00  0.00     0.023 A 
ATOM     87  C   UNL A   1      43.967  34.801  31.203  1.00  0.00     0.012 A 
ATOM     88  C   UNL A   1      43.589  34.258  28.895  1.00  0.00     0.148 A 
ATOM     89  C   UNL A   1      44.294  36.113  30.845  1.00  0.00     0.002 A 
ATOM     90  C   UNL A   1      44.053  35.518  28.533  1.00  0.00     0.091 A 
ATOM     91  F   UNL A   1      43.138  33.440  27.932  1.00  0.00    -0.205 F 
ATOM     92  C   UNL A   1      44.361  36.466  29.507  1.00  0.00     0.022 A 
BRANCH  90  93
ATOM     93  S   UNL A   1      44.432  35.917  26.821  1.00  0.00     0.127 S 
ATOM     94  O   UNL A   1      43.104  35.922  26.211  1.00  0.00    -0.237 OA
ATOM     95  O   UNL A   1      45.053  37.237  26.942  1.00  0.00    -0.237 OA
ATOM     96  O   UNL A   1      45.339  34.870  26.370  1.00  0.00    -0.744 OA
ENDBRANCH  90  93
ENDBRANCH  63  86
ENDBRANCH  37  38
ENDBRANCH  29  32
ENDBRANCH  27  28
ENDBRANCH  26  27
ENDBRANCH   1  26
TORSDOF 19
ENDMDL
MODEL 2
REMARK VINA RESULT:     -11.5      3.903      8.854
REMARK SMILES CC[C@@H](C)[C@H](NC(=O)NCc1ccc(C)cc1)C(=O)NCCCCNC(=O)c1ccc(-c2c3nc(c(-c4cccc(S(=O)(=O)[O-])c4F)c4ccc([nH]4)c(-c4cccc(S(=O)(=O)[O-])c4F)c4nc(c(-c5cccc(S(=O)(=O)[O-])c5F)c5ccc2[nH]5)C=C4)C=C3)cc1
REMARK SMILES IDX 22 1 21 2 20 3 18 4 19 5 5 7 3 8 4 9 2 10 1 11 6 12 7 13
REMARK SMILES IDX 8 15 9 16 10 18 11 19 12 20 17 21 13 22 16 23 14 24 15 25
REMARK SMILES IDX 23 26 24 27 25 28 26 29 27 31 28 32 29 33 90 34 30 35 89 36
REMARK SMILES IDX 31 37 32 38 33 39 83 40 34 41 88 42 82 43 84 44 35 45 87 46
REMARK SMILES IDX 81 47 80 48 36 50 68 51 48 52 67 53 49 54 52 55 66 56 85 57
REMARK SMILES IDX 50 58 51 59 65 61 86 62 53 63 37 64 38 65 46 66 39 67 41 68
REMARK SMILES IDX 47 69 40 70 42 71 43 72 44 73 45 74 69 75 70 76 78 77 71 78
REMARK SMILES IDX 73 79 79 80 72 81 74 82 75 83 76 84 77 85 54 86 55 87 63 88
REMARK SMILES IDX 56 89 58 90 64 91 57 92 59 93 60 94 61 95 62 96
REMARK H PARENT 20 6 6 14 9 17 25 30 84 49 52 60
REMARK Flexibility Score: inf
ROOT
ATOM      1  C   UNL A   1      34.085  28.327  26.273  1.00  0.00     0.023 C 
ENDROOT
BRANCH   1   2
ATOM      2  C   UNL A   1      33.245  27.097  25.914  1.00  0.00     0.116 C 
BRANCH   2   3
ATOM      3  N   UNL A   1      33.955  25.836  26.044  1.00  0.00    -0.354 N 
ATOM      4  C   UNL A   1      33.968  24.703  25.288  1.00  0.00     0.242 C 
ATOM      5  O   UNL A   1      34.818  23.851  25.578  1.00  0.00    -0.273 OA
ATOM      6  H   UNL A   1      34.543  25.792  26.834  1.00  0.00     0.163 HD
BRANCH   4   7
ATOM      7  C   UNL A   1      33.088  24.498  24.026  1.00  0.00     0.175 C 
BRANCH   7   8
ATOM      8  C   UNL A   1      32.897  22.992  23.662  1.00  0.00     0.018 C 
ATOM      9  C   UNL A   1      32.921  22.690  22.162  1.00  0.00     0.010 C 
BRANCH   8  10
ATOM     10  C   UNL A   1      31.614  22.449  24.335  1.00  0.00     0.002 C 
ATOM     11  C   UNL A   1      31.837  21.853  25.720  1.00  0.00     0.004 C 
ENDBRANCH   8  10
ENDBRANCH   7   8
BRANCH   7  12
ATOM     12  N   UNL A   1      33.502  25.335  22.899  1.00  0.00    -0.326 N 
ATOM     13  C   UNL A   1      33.017  26.344  22.185  1.00  0.00     0.315 C 
ATOM     14  H   UNL A   1      34.396  25.076  22.579  1.00  0.00     0.166 HD
ATOM     15  O   UNL A   1      33.768  26.827  21.332  1.00  0.00    -0.249 OA
ATOM     16  N   UNL A   1      31.800  26.863  22.276  1.00  0.00    -0.334 N 
ATOM     17  H   UNL A   1      31.632  27.538  21.579  1.00  0.00     0.165 HD
BRANCH  16  18
ATOM     18  C   UNL A   1      30.660  26.684  23.143  1.00  0.00     0.153 C 
BRANCH  18  19
ATOM     19  C   UNL A   1      29.796  27.921  23.277  1.00  0.00    -0.029 A 
ATOM     20  C   UNL A   1      30.425  29.141  23.571  1.00  0.00     0.006 A 
ATOM     21  C   UNL A   1      28.415  27.930  23.031  1.00  0.00     0.006 A 
ATOM     22  C   UNL A   1      29.698  30.331  23.619  1.00  0.00     0.004 A 
ATOM     23  C   UNL A   1      27.684  29.120  23.092  1.00  0.00     0.004 A 
ATOM     24  C   UNL A   1      28.320  30.330  23.382  1.00  0.00    -0.051 A 
ATOM     25  C   UNL A   1      27.555  31.618  23.410  1.00  0.00     0.044 C 
ENDBRANCH  18  19
ENDBRANCH  16  18
ENDBRANCH   7  12
ENDBRANCH   4   7
ENDBRANCH   2   3
ENDBRANCH   1   2
BRANCH   1  26
ATOM     26  C   UNL A   1      33.380  29.692  26.237  1.00  0.00     0.023 C 
BRANCH  26  27
ATOM     27  C   UNL A   1      33.633  30.540  27.465  1.00  0.00     0.116 C 
BRANCH  27  28
ATOM     28  N   UNL A   1      34.713  31.499  27.283  1.00  0.00    -0.352 N 
ATOM     29  C   UNL A   1      35.896  31.593  27.988  1.00  0.00     0.251 C 
ATOM     30  H   UNL A   1      34.584  32.163  26.569  1.00  0.00     0.163 HD
ATOM     31  O   UNL A   1      36.276  32.729  28.306  1.00  0.00    -0.269 OA
BRANCH  29  32
ATOM     32  C   UNL A   1      36.744  30.405  28.235  1.00  0.00     0.039 A 
ATOM     33  C   UNL A   1      36.714  29.756  29.480  1.00  0.00     0.014 A 
ATOM     34  C   UNL A   1      37.739  30.061  27.334  1.00  0.00     0.014 A 
ATOM     35  C   UNL A   1      37.816  29.004  29.884  1.00  0.00     0.010 A 
ATOM     36  C   UNL A   1      38.718  29.184  27.650  1.00  0.00     0.010 A 
ATOM     37  C   UNL A   1      38.853  28.846  28.980  1.00  0.00    -0.014 A 
BRANCH  37  38
ATOM     38  C   UNL A   1      40.193  28.386  29.234  1.00  0.00     0.031 A 
ATOM     39  C   UNL A   1      40.460  26.969  29.031  1.00  0.00     0.074 A 
ATOM     40  C   UNL A   1      41.135  29.358  29.191  1.00  0.00     0.049 A 
ATOM     41  N   UNL A   1      41.567  26.404  29.339  1.00  0.00    -0.248 NA
ATOM     42  C   UNL A   1      39.456  26.053  28.489  1.00  0.00     0.031 C 
ATOM     43  C   UNL A   1      42.509  29.292  28.712  1.00  0.00     0.029 A 
ATOM     44  N   UNL A   1      41.010  30.690  29.550  1.00  0.00    -0.354 N 
ATOM     45  C   UNL A   1      41.554  25.198  28.682  1.00  0.00     0.074 A 
ATOM     46  C   UNL A   1      40.168  24.926  28.417  1.00  0.00     0.031 C 
ATOM     47  C   UNL A   1      43.148  30.432  29.050  1.00  0.00     0.029 A 
ATOM     48  C   UNL A   1      42.255  31.193  29.912  1.00  0.00     0.049 A 
ATOM     49  H   UNL A   1      40.169  31.203  29.548  1.00  0.00     0.167 HD
ATOM     50  C   UNL A   1      42.739  24.714  28.221  1.00  0.00     0.034 A 
ATOM     51  C   UNL A   1      42.494  31.450  31.240  1.00  0.00     0.034 A 
ATOM     52  C   UNL A   1      43.855  25.541  28.731  1.00  0.00     0.049 A 
ATOM     53  C   UNL A   1      43.404  30.408  31.878  1.00  0.00     0.074 A 
ATOM     54  C   UNL A   1      44.694  26.471  28.142  1.00  0.00     0.029 A 
ATOM     55  N   UNL A   1      43.988  25.727  30.109  1.00  0.00    -0.354 N 
ATOM     56  N   UNL A   1      43.818  29.326  31.275  1.00  0.00    -0.248 NA
ATOM     57  C   UNL A   1      43.956  30.518  33.224  1.00  0.00     0.031 C 
ATOM     58  C   UNL A   1      45.222  27.304  29.177  1.00  0.00     0.029 A 
ATOM     59  C   UNL A   1      44.745  26.855  30.399  1.00  0.00     0.049 A 
ATOM     60  H   UNL A   1      43.596  25.132  30.789  1.00  0.00     0.167 HD
ATOM     61  C   UNL A   1      44.548  28.545  32.125  1.00  0.00     0.074 A 
ATOM     62  C   UNL A   1      44.677  29.384  33.309  1.00  0.00     0.031 C 
ATOM     63  C   UNL A   1      44.942  27.272  31.794  1.00  0.00     0.034 A 
BRANCH  50  64
ATOM     64  C   UNL A   1      42.895  23.656  27.136  1.00  0.00     0.023 A 
ATOM     65  C   UNL A   1      43.581  24.050  25.969  1.00  0.00     0.012 A 
ATOM     66  C   UNL A   1      42.377  22.332  27.126  1.00  0.00     0.148 A 
ATOM     67  C   UNL A   1      43.747  23.197  24.869  1.00  0.00     0.002 A 
ATOM     68  C   UNL A   1      42.604  21.456  26.060  1.00  0.00     0.091 A 
ATOM     69  F   UNL A   1      41.570  21.908  28.098  1.00  0.00    -0.205 F 
ATOM     70  C   UNL A   1      43.277  21.892  24.920  1.00  0.00     0.022 A 
BRANCH  68  71
ATOM     71  S   UNL A   1      42.066  19.731  26.087  1.00  0.00     0.127 S 
ATOM     72  O   UNL A   1      42.789  19.165  24.948  1.00  0.00    -0.237 OA
ATOM     73  O   UNL A   1      42.542  19.278  27.395  1.00  0.00    -0.237 OA
ATOM     74  O   UNL A   1      40.615  19.747  25.950  1.00  0.00    -0.744 OA
ENDBRANCH  68  71
ENDBRANCH  50  64
BRANCH  51  75
ATOM     75  C   UNL A   1      41.304  32.113  31.882  1.00  0.00     0.023 A 
ATOM     76  C   UNL A   1      40.828  33.283  31.232  1.00  0.00     0.012 A 
ATOM     77  C   UNL A   1      40.412  31.385  32.690  1.00  0.00     0.148 A 
ATOM     78  C   UNL A   1      39.463  33.580  31.201  1.00  0.00     0.002 A 
ATOM     79  C   UNL A   1      39.051  31.698  32.664  1.00  0.00     0.091 A 
ATOM     80  F   UNL A   1      40.886  30.361  33.411  1.00  0.00    -0.205 F 
ATOM     81  C   UNL A   1      38.570  32.753  31.871  1.00  0.00     0.022 A 
BRANCH  79  82
ATOM     82  S   UNL A   1      37.845  30.692  33.544  1.00  0.00     0.127 S 
ATOM     83  O   UNL A   1      38.382  29.347  33.340  1.00  0.00    -0.237 OA
ATOM     84  O   UNL A   1      37.955  31.180  34.918  1.00  0.00    -0.237 OA
ATOM     85  O   UNL A   1      36.573  30.978  32.906  1.00  0.00    -0.744 OA
ENDBRANCH  79  82
ENDBRANCH  51  75
BRANCH  63  86
ATOM     86  C   UNL A   1      45.555  26.275  32.768  1.00  0.00     0.023 A 
ATOM     87  C   UNL A   1      46.945  26.143  32.948  1.00  0.00     0.012 A 
ATOM     88  C   UNL A   1      44.735  25.512  33.643  1.00  0.00     0.148 A 
ATOM     89  C   UNL A   1      47.496  25.247  33.870  1.00  0.00     0.002 A 
ATOM     90  C   UNL A   1      45.287  24.733  34.654  1.00  0.00     0.091 A 
ATOM     91  F   UNL A   1      43.403  25.512  33.488  1.00  0.00    -0.205 F 
ATOM     92  C   UNL A   1      46.666  24.558  34.741  1.00  0.00     0.022 A 
BRANCH  90  93
ATOM     93  S   UNL A   1      44.269  24.062  35.976  1.00  0.00     0.127 S 
ATOM     94  O   UNL A   1      43.431  23.106  35.255  1.00  0.00    -0.237 OA
ATOM     95  O   UNL A   1      45.268  23.455  36.857  1.00  0.00    -0.237 OA
ATOM     96  O   UNL A   1      43.580  25.207  36.555  1.00  0.00    -0.744 OA
ENDBRANCH  90  93
ENDBRANCH  63  86
ENDBRANCH  37  38
ENDBRANCH  29  32
ENDBRANCH  27  28
ENDBRANCH  26  27
ENDBRANCH   1  26
TORSDOF 19
ENDMDL
MODEL 3
REMARK VINA RESULT:     -11.3      1.091      3.227
REMARK SMILES CC[C@@H](C)[C@H](NC(=O)NCc1ccc(C)cc1)C(=O)NCCCCNC(=O)c1ccc(-c2c3nc(c(-c4cccc(S(=O)(=O)[O-])c4F)c4ccc([nH]4)c(-c4cccc(S(=O)(=O)[O-])c4F)c4nc(c(-c5cccc(S(=O)(=O)[O-])c5F)c5ccc2[nH]5)C=C4)C=C3)cc1
REMARK SMILES IDX 22 1 21 2 20 3 18 4 19 5 5 7 3 8 4 9 2 10 1 11 6 12 7 13
REMARK SMILES IDX 8 15 9 16 10 18 11 19 12 20 17 21 13 22 16 23 14 24 15 25
REMARK SMILES IDX 23 26 24 27 25 28 26 29 27 31 28 32 29 33 90 34 30 35 89 36
REMARK SMILES IDX 31 37 32 38 33 39 83 40 34 41 88 42 82 43 84 44 35 45 87 46
REMARK SMILES IDX 81 47 80 48 36 50 68 51 48 52 67 53 49 54 52 55 66 56 85 57
REMARK SMILES IDX 50 58 51 59 65 61 86 62 53 63 37 64 38 65 46 66 39 67 41 68
REMARK SMILES IDX 47 69 40 70 42 71 43 72 44 73 45 74 69 75 70 76 78 77 71 78
REMARK SMILES IDX 73 79 79 80 72 81 74 82 75 83 76 84 77 85 54 86 55 87 63 88
REMARK SMILES IDX 56 89 58 90 64 91 57 92 59 93 60 94 61 95 62 96
REMARK H PARENT 20 6 6 14 9 17 25 30 84 49 52 60
REMARK Flexibility Score: inf
ROOT
ATOM      1  C   UNL A   1      35.738  23.325  25.657  1.00  0.00     0.023 C 
ENDROOT
BRANCH   1   2
ATOM      2  C   UNL A   1      34.764  24.486  25.439  1.00  0.00     0.116 C 
BRANCH   2   3
ATOM      3  N   UNL A   1      33.591  24.443  26.296  1.00  0.00    -0.354 N 
ATOM      4  C   UNL A   1      32.431  25.159  26.308  1.00  0.00     0.242 C 
ATOM      5  O   UNL A   1      31.543  24.766  27.075  1.00  0.00    -0.273 OA
ATOM      6  H   UNL A   1      33.644  23.764  27.007  1.00  0.00     0.163 HD
BRANCH   4   7
ATOM      7  C   UNL A   1      32.127  26.325  25.329  1.00  0.00     0.175 C 
BRANCH   7   8
ATOM      8  C   UNL A   1      32.450  27.724  25.939  1.00  0.00     0.018 C 
ATOM      9  C   UNL A   1      31.802  27.992  27.300  1.00  0.00     0.010 C 
BRANCH   8  10
ATOM     10  C   UNL A   1      32.110  28.834  24.915  1.00  0.00     0.002 C 
ATOM     11  C   UNL A   1      31.594  30.124  25.540  1.00  0.00     0.004 C 
ENDBRANCH   8  10
ENDBRANCH   7   8
BRANCH   7  12
ATOM     12  N   UNL A   1      30.797  26.231  24.725  1.00  0.00    -0.326 N 
ATOM     13  C   UNL A   1      30.175  25.496  23.811  1.00  0.00     0.315 C 
ATOM     14  H   UNL A   1      30.190  26.906  25.105  1.00  0.00     0.166 HD
ATOM     15  O   UNL A   1      28.968  25.712  23.656  1.00  0.00    -0.249 OA
ATOM     16  N   UNL A   1      30.724  24.576  23.029  1.00  0.00    -0.334 N 
ATOM     17  H   UNL A   1      30.089  24.230  22.361  1.00  0.00     0.165 HD
BRANCH  16  18
ATOM     18  C   UNL A   1      32.022  23.956  22.914  1.00  0.00     0.153 C 
BRANCH  18  19
ATOM     19  C   UNL A   1      32.041  22.500  23.331  1.00  0.00    -0.029 A 
ATOM     20  C   UNL A   1      32.146  21.524  22.327  1.00  0.00     0.006 A 
ATOM     21  C   UNL A   1      32.054  22.078  24.669  1.00  0.00     0.006 A 
ATOM     22  C   UNL A   1      32.258  20.171  22.650  1.00  0.00     0.004 A 
ATOM     23  C   UNL A   1      32.152  20.721  24.992  1.00  0.00     0.004 A 
ATOM     24  C   UNL A   1      32.261  19.758  23.985  1.00  0.00    -0.051 A 
ATOM     25  C   UNL A   1      32.409  18.305  24.320  1.00  0.00     0.044 C 
ENDBRANCH  18  19
ENDBRANCH  16  18
ENDBRANCH   7  12
ENDBRANCH   4   7
ENDBRANCH   2   3
ENDBRANCH   1   2
BRANCH   1  26
ATOM     26  C   UNL A   1      37.194  23.684  25.992  1.00  0.00     0.023 C 
BRANCH  26  27
ATOM     27  C   UNL A   1      38.166  22.543  25.785  1.00  0.00     0.116 C 
BRANCH  27  28
ATOM     28  N   UNL A   1      39.152  22.433  26.851  1.00  0.00    -0.352 N 
ATOM     29  C   UNL A   1      40.141  23.334  27.193  1.00  0.00     0.251 C 
ATOM     30  H   UNL A   1      39.108  21.615  27.396  1.00  0.00     0.163 HD
ATOM     31  O   UNL A   1      41.257  22.870  27.466  1.00  0.00    -0.269 OA
BRANCH  29  32
ATOM     32  C   UNL A   1      39.848  24.775  27.361  1.00  0.00     0.039 A 
ATOM     33  C   UNL A   1      40.371  25.716  26.460  1.00  0.00     0.014 A 
ATOM     34  C   UNL A   1      39.257  25.233  28.528  1.00  0.00     0.014 A 
ATOM     35  C   UNL A   1      40.532  27.038  26.871  1.00  0.00     0.010 A 
ATOM     36  C   UNL A   1      39.241  26.545  28.853  1.00  0.00     0.010 A 
ATOM     37  C   UNL A   1      40.063  27.382  28.127  1.00  0.00    -0.014 A 
BRANCH  37  38
ATOM     38  C   UNL A   1      40.357  28.564  28.895  1.00  0.00     0.031 A 
ATOM     39  C   UNL A   1      39.437  29.685  28.771  1.00  0.00     0.074 A 
ATOM     40  C   UNL A   1      41.168  28.351  29.959  1.00  0.00     0.049 A 
ATOM     41  N   UNL A   1      39.645  30.835  29.294  1.00  0.00    -0.248 NA
ATOM     42  C   UNL A   1      38.201  29.601  27.991  1.00  0.00     0.031 C 
ATOM     43  C   UNL A   1      41.155  28.983  31.271  1.00  0.00     0.029 A 
ATOM     44  N   UNL A   1      42.196  27.431  30.084  1.00  0.00    -0.354 N 
ATOM     45  C   UNL A   1      38.429  31.474  29.262  1.00  0.00     0.074 A 
ATOM     46  C   UNL A   1      37.678  30.804  28.235  1.00  0.00     0.031 C 
ATOM     47  C   UNL A   1      42.268  28.622  31.944  1.00  0.00     0.029 A 
ATOM     48  C   UNL A   1      43.118  27.887  31.020  1.00  0.00     0.049 A 
ATOM     49  H   UNL A   1      42.263  26.583  29.587  1.00  0.00     0.167 HD
ATOM     50  C   UNL A   1      38.127  32.317  30.285  1.00  0.00     0.034 A 
ATOM     51  C   UNL A   1      44.338  28.330  30.570  1.00  0.00     0.034 A 
ATOM     52  C   UNL A   1      39.318  32.517  31.141  1.00  0.00     0.049 A 
ATOM     53  C   UNL A   1      44.455  29.849  30.613  1.00  0.00     0.074 A 
ATOM     54  C   UNL A   1      39.663  32.073  32.406  1.00  0.00     0.029 A 
ATOM     55  N   UNL A   1      40.503  32.974  30.560  1.00  0.00    -0.354 N 
ATOM     56  N   UNL A   1      43.473  30.653  30.923  1.00  0.00    -0.248 NA
ATOM     57  C   UNL A   1      45.689  30.582  30.352  1.00  0.00     0.031 C 
ATOM     58  C   UNL A   1      41.087  32.140  32.521  1.00  0.00     0.029 A 
ATOM     59  C   UNL A   1      41.605  32.668  31.348  1.00  0.00     0.049 A 
ATOM     60  H   UNL A   1      40.551  33.452  29.701  1.00  0.00     0.167 HD
ATOM     61  C   UNL A   1      43.855  31.958  30.793  1.00  0.00     0.074 A 
ATOM     62  C   UNL A   1      45.282  31.855  30.517  1.00  0.00     0.031 C 
ATOM     63  C   UNL A   1      42.959  32.995  30.880  1.00  0.00     0.034 A 
BRANCH  50  64
ATOM     64  C   UNL A   1      36.725  32.778  30.662  1.00  0.00     0.023 A 
ATOM     65  C   UNL A   1      36.270  32.419  31.947  1.00  0.00     0.012 A 
ATOM     66  C   UNL A   1      35.787  33.475  29.850  1.00  0.00     0.148 A 
ATOM     67  C   UNL A   1      34.980  32.727  32.402  1.00  0.00     0.002 A 
ATOM     68  C   UNL A   1      34.527  33.846  30.329  1.00  0.00     0.091 A 
ATOM     69  F   UNL A   1      36.043  33.715  28.566  1.00  0.00    -0.205 F 
ATOM     70  C   UNL A   1      34.114  33.459  31.602  1.00  0.00     0.022 A 
BRANCH  68  71
ATOM     71  S   UNL A   1      33.374  34.844  29.359  1.00  0.00     0.127 S 
ATOM     72  O   UNL A   1      32.408  35.270  30.372  1.00  0.00    -0.237 OA
ATOM     73  O   UNL A   1      34.237  35.913  28.854  1.00  0.00    -0.237 OA
ATOM     74  O   UNL A   1      32.837  33.968  28.325  1.00  0.00    -0.744 OA
ENDBRANCH  68  71
ENDBRANCH  50  64
BRANCH  51  75
ATOM     75  C   UNL A   1      44.881  27.420  29.500  1.00  0.00     0.023 A 
ATOM     76  C   UNL A   1      45.007  26.053  29.865  1.00  0.00     0.012 A 
ATOM     77  C   UNL A   1      44.757  27.743  28.137  1.00  0.00     0.148 A 
ATOM     78  C   UNL A   1      44.783  25.039  28.929  1.00  0.00     0.002 A 
ATOM     79  C   UNL A   1      44.548  26.722  27.206  1.00  0.00     0.091 A 
ATOM     80  F   UNL A   1      44.774  29.033  27.777  1.00  0.00    -0.205 F 
ATOM     81  C   UNL A   1      44.497  25.378  27.612  1.00  0.00     0.022 A 
BRANCH  79  82
ATOM     82  S   UNL A   1      44.212  27.091  25.477  1.00  0.00     0.127 S 
ATOM     83  O   UNL A   1      45.560  27.324  24.961  1.00  0.00    -0.237 OA
ATOM     84  O   UNL A   1      43.590  25.858  24.997  1.00  0.00    -0.237 OA
ATOM     85  O   UNL A   1      43.325  28.241  25.499  1.00  0.00    -0.744 OA
ENDBRANCH  79  82
ENDBRANCH  51  75
BRANCH  63  86
ATOM     86  C   UNL A   1      43.272  34.442  30.524  1.00  0.00     0.023 A 
ATOM     87  C   UNL A   1      43.702  35.385  31.476  1.00  0.00     0.012 A 
ATOM     88  C   UNL A   1      43.266  34.876  29.171  1.00  0.00     0.148 A 
ATOM     89  C   UNL A   1      44.018  36.703  31.130  1.00  0.00     0.002 A 
ATOM     90  C   UNL A   1      43.720  36.142  28.816  1.00  0.00     0.091 A 
ATOM     91  F   UNL A   1      42.792  34.072  28.207  1.00  0.00    -0.205 F 
ATOM     92  C   UNL A   1      44.051  37.076  29.796  1.00  0.00     0.022 A 
BRANCH  90  93
ATOM     93  S   UNL A   1      44.055  36.567  27.101  1.00  0.00     0.127 S 
ATOM     94  O   UNL A   1      44.658  37.892  27.231  1.00  0.00    -0.237 OA
ATOM     95  O   UNL A   1      44.985  35.510  26.697  1.00  0.00    -0.237 OA
ATOM     96  O   UNL A   1      42.764  36.514  26.428  1.00  0.00    -0.744 OA
ENDBRANCH  90  93
ENDBRANCH  63  86
ENDBRANCH  37  38
ENDBRANCH  29  32
ENDBRANCH  27  28
ENDBRANCH  26  27
ENDBRANCH   1  26
TORSDOF 19
ENDMDL
