MODEL 1
REMARK VINA RESULT:      -9.4      0.000      0.000
REMARK SMILES CCCCCNC(=O)Oc1cccc(-c2ccc([C@@H](C)C(=O)NCCCCNC(=O)c3ccc(-c4c5nc(c(-c6cccc(S(=O)(=O)[O-])c6F)c6ccc([nH]6)c(-c6cccc(S(=O)(=O)[O-])c6F)c6nc(c(-c7cccc(S(=O)(=O)[O-])c7F)c7ccc4[nH]7)C=C6)C=C5)cc3)cc2F)c1
REMARK SMILES IDX 21 1 22 2 23 3 19 5 20 6 18 7 15 8 16 9 95 10 17 11 94 12
REMARK SMILES IDX 96 13 14 14 10 15 11 16 97 17 12 18 13 19 9 20 7 21 6 22
REMARK SMILES IDX 8 24 5 25 4 26 3 27 2 28 1 29 24 30 25 31 26 32 27 33 28 34
REMARK SMILES IDX 29 35 30 37 31 38 32 39 93 40 33 41 92 42 34 43 35 44 36 45
REMARK SMILES IDX 86 46 37 47 91 48 85 49 87 50 38 51 90 52 84 53 83 54 39 56
REMARK SMILES IDX 71 57 51 58 70 59 52 60 55 61 69 62 88 63 53 64 54 65 68 67
REMARK SMILES IDX 89 68 56 69 40 70 41 71 49 72 42 73 44 74 50 75 43 76 45 77
REMARK SMILES IDX 46 78 47 79 48 80 72 81 73 82 81 83 74 84 76 85 82 86 75 87
REMARK SMILES IDX 77 88 78 89 79 90 80 91 57 92 58 93 66 94 59 95 61 96 67 97
REMARK SMILES IDX 60 98 62 99 63 100 64 101 65 102
REMARK H PARENT 23 4 6 23 28 36 87 55 55 66
REMARK Flexibility Score: inf
ROOT
ATOM      1  C   UNL A   1      39.388  28.450  27.933  1.00  0.00     0.227 C 
ATOM      2  O   UNL A   1      40.530  28.633  27.493  1.00  0.00    -0.274 OA
ATOM      3  N   UNL A   1      38.476  29.430  27.688  1.00  0.00    -0.356 N 
ATOM      4  H   UNL A   1      38.822  30.174  27.144  1.00  0.00     0.163 HD
ENDROOT
BRANCH   1   5
ATOM      5  C   UNL A   1      39.070  27.150  28.689  1.00  0.00     0.105 C 
ATOM      6  C   UNL A   1      39.210  27.262  30.206  1.00  0.00     0.023 C 
BRANCH   5   7
ATOM      7  C   UNL A   1      39.682  25.908  28.061  1.00  0.00    -0.033 A 
ATOM      8  C   UNL A   1      40.781  23.446  27.100  1.00  0.00     0.018 A 
ATOM      9  C   UNL A   1      39.556  23.943  26.627  1.00  0.00     0.012 A 
ATOM     10  C   UNL A   1      41.465  24.248  28.025  1.00  0.00     0.131 A 
ATOM     11  C   UNL A   1      39.042  25.169  27.064  1.00  0.00     0.005 A 
ATOM     12  C   UNL A   1      40.922  25.439  28.516  1.00  0.00     0.044 A 
ATOM     13  F   UNL A   1      42.679  23.890  28.472  1.00  0.00    -0.206 F 
BRANCH   8  14
ATOM     14  C   UNL A   1      41.280  22.128  26.650  1.00  0.00    -0.012 A 
ATOM     15  C   UNL A   1      43.103  20.652  26.006  1.00  0.00     0.133 A 
ATOM     16  C   UNL A   1      42.237  19.572  25.883  1.00  0.00     0.047 A 
ATOM     17  C   UNL A   1      42.640  21.918  26.373  1.00  0.00     0.056 A 
ATOM     18  C   UNL A   1      40.886  19.757  26.151  1.00  0.00     0.004 A 
ATOM     19  C   UNL A   1      40.416  21.021  26.523  1.00  0.00     0.009 A 
BRANCH  15  20
ATOM     20  O   UNL A   1      44.438  20.450  25.630  1.00  0.00    -0.410 OA
BRANCH  20  21
ATOM     21  C   UNL A   1      44.725  20.451  24.272  1.00  0.00     0.412 C 
ATOM     22  N   UNL A   1      45.548  21.480  23.904  1.00  0.00    -0.321 N 
ATOM     23  H   UNL A   1      45.783  21.538  22.950  1.00  0.00     0.167 HD
ATOM     24  O   UNL A   1      44.307  19.650  23.447  1.00  0.00    -0.224 OA
BRANCH  22  25
ATOM     25  C   UNL A   1      46.108  22.491  24.775  1.00  0.00     0.119 C 
BRANCH  25  26
ATOM     26  C   UNL A   1      45.263  23.765  24.796  1.00  0.00     0.021 C 
BRANCH  26  27
ATOM     27  C   UNL A   1      45.146  24.439  26.168  1.00  0.00     0.002 C 
BRANCH  27  28
ATOM     28  C   UNL A   1      46.078  23.894  27.254  1.00  0.00    -0.003 C 
ATOM     29  C   UNL A   1      46.002  24.664  28.563  1.00  0.00     0.004 C 
ENDBRANCH  27  28
ENDBRANCH  26  27
ENDBRANCH  25  26
ENDBRANCH  22  25
ENDBRANCH  20  21
ENDBRANCH  15  20
ENDBRANCH   8  14
ENDBRANCH   5   7
ENDBRANCH   1   5
BRANCH   3  30
ATOM     30  C   UNL A   1      37.091  29.580  28.083  1.00  0.00     0.116 C 
BRANCH  30  31
ATOM     31  C   UNL A   1      36.769  31.007  28.530  1.00  0.00     0.023 C 
BRANCH  31  32
ATOM     32  C   UNL A   1      35.456  31.567  27.989  1.00  0.00     0.023 C 
BRANCH  32  33
ATOM     33  C   UNL A   1      35.427  33.079  27.796  1.00  0.00     0.116 C 
BRANCH  33  34
ATOM     34  N   UNL A   1      34.252  33.726  28.370  1.00  0.00    -0.352 N 
ATOM     35  C   UNL A   1      34.004  34.014  29.693  1.00  0.00     0.251 C 
ATOM     36  H   UNL A   1      33.550  33.990  27.732  1.00  0.00     0.163 HD
ATOM     37  O   UNL A   1      32.928  34.488  30.040  1.00  0.00    -0.269 OA
BRANCH  35  38
ATOM     38  C   UNL A   1      35.046  33.698  30.693  1.00  0.00     0.039 A 
ATOM     39  C   UNL A   1      34.944  32.513  31.426  1.00  0.00     0.014 A 
ATOM     40  C   UNL A   1      36.164  34.524  30.826  1.00  0.00     0.014 A 
ATOM     41  C   UNL A   1      36.013  32.112  32.230  1.00  0.00     0.010 A 
ATOM     42  C   UNL A   1      37.258  34.080  31.560  1.00  0.00     0.010 A 
ATOM     43  C   UNL A   1      37.197  32.867  32.263  1.00  0.00    -0.014 A 
BRANCH  43  44
ATOM     44  C   UNL A   1      38.400  32.392  32.997  1.00  0.00     0.031 A 
ATOM     45  C   UNL A   1      38.617  32.794  34.430  1.00  0.00     0.074 A 
ATOM     46  C   UNL A   1      39.345  31.690  32.340  1.00  0.00     0.049 A 
ATOM     47  N   UNL A   1      39.639  32.550  35.207  1.00  0.00    -0.248 NA
ATOM     48  C   UNL A   1      37.559  33.599  35.067  1.00  0.00     0.031 C 
ATOM     49  C   UNL A   1      39.292  31.311  30.926  1.00  0.00     0.029 A 
ATOM     50  N   UNL A   1      40.554  31.197  32.767  1.00  0.00    -0.354 N 
ATOM     51  C   UNL A   1      39.368  33.201  36.405  1.00  0.00     0.074 A 
ATOM     52  C   UNL A   1      38.101  33.876  36.244  1.00  0.00     0.031 C 
ATOM     53  C   UNL A   1      40.414  30.648  30.604  1.00  0.00     0.029 A 
ATOM     54  C   UNL A   1      41.283  30.583  31.773  1.00  0.00     0.049 A 
ATOM     55  H   UNL A   1      40.869  31.275  33.696  1.00  0.00     0.167 HD
ATOM     56  C   UNL A   1      40.098  33.213  37.546  1.00  0.00     0.034 A 
ATOM     57  C   UNL A   1      42.519  30.046  31.797  1.00  0.00     0.034 A 
ATOM     58  C   UNL A   1      41.337  32.506  37.717  1.00  0.00     0.049 A 
ATOM     59  C   UNL A   1      43.290  30.046  33.090  1.00  0.00     0.074 A 
ATOM     60  C   UNL A   1      42.100  32.377  38.864  1.00  0.00     0.029 A 
ATOM     61  N   UNL A   1      42.002  31.820  36.714  1.00  0.00    -0.354 N 
ATOM     62  N   UNL A   1      42.939  30.521  34.260  1.00  0.00    -0.248 NA
ATOM     63  C   UNL A   1      44.614  29.405  33.075  1.00  0.00     0.031 C 
ATOM     64  C   UNL A   1      43.245  31.640  38.545  1.00  0.00     0.029 A 
ATOM     65  C   UNL A   1      43.176  31.279  37.209  1.00  0.00     0.049 A 
ATOM     66  H   UNL A   1      41.687  31.731  35.785  1.00  0.00     0.167 HD
ATOM     67  C   UNL A   1      43.981  30.208  35.127  1.00  0.00     0.074 A 
ATOM     68  C   UNL A   1      44.963  29.478  34.351  1.00  0.00     0.031 C 
ATOM     69  C   UNL A   1      44.120  30.510  36.441  1.00  0.00     0.034 A 
BRANCH  56  70
ATOM     70  C   UNL A   1      39.551  33.978  38.723  1.00  0.00     0.023 A 
ATOM     71  C   UNL A   1      38.705  33.329  39.644  1.00  0.00     0.012 A 
ATOM     72  C   UNL A   1      39.939  35.312  38.959  1.00  0.00     0.148 A 
ATOM     73  C   UNL A   1      38.229  34.004  40.768  1.00  0.00     0.002 A 
ATOM     74  C   UNL A   1      39.498  35.962  40.105  1.00  0.00     0.091 A 
ATOM     75  F   UNL A   1      40.727  35.917  38.060  1.00  0.00    -0.205 F 
ATOM     76  C   UNL A   1      38.635  35.314  41.004  1.00  0.00     0.022 A 
BRANCH  74  77
ATOM     77  S   UNL A   1      40.027  37.621  40.545  1.00  0.00     0.127 S 
ATOM     78  O   UNL A   1      39.431  38.415  39.471  1.00  0.00    -0.237 OA
ATOM     79  O   UNL A   1      39.403  37.803  41.856  1.00  0.00    -0.237 OA
ATOM     80  O   UNL A   1      41.483  37.591  40.560  1.00  0.00    -0.744 OA
ENDBRANCH  74  77
ENDBRANCH  56  70
BRANCH  57  81
ATOM     81  C   UNL A   1      43.093  29.424  30.569  1.00  0.00     0.023 A 
ATOM     82  C   UNL A   1      42.997  28.030  30.387  1.00  0.00     0.012 A 
ATOM     83  C   UNL A   1      43.731  30.201  29.584  1.00  0.00     0.148 A 
ATOM     84  C   UNL A   1      43.562  27.417  29.268  1.00  0.00     0.002 A 
ATOM     85  C   UNL A   1      44.240  29.591  28.444  1.00  0.00     0.091 A 
ATOM     86  F   UNL A   1      43.824  31.524  29.780  1.00  0.00    -0.205 F 
ATOM     87  C   UNL A   1      44.176  28.198  28.293  1.00  0.00     0.022 A 
BRANCH  85  88
ATOM     88  S   UNL A   1      44.932  30.532  27.079  1.00  0.00     0.127 S 
ATOM     89  O   UNL A   1      46.005  31.271  27.739  1.00  0.00    -0.237 OA
ATOM     90  O   UNL A   1      45.379  29.471  26.176  1.00  0.00    -0.237 OA
ATOM     91  O   UNL A   1      43.832  31.335  26.562  1.00  0.00    -0.744 OA
ENDBRANCH  85  88
ENDBRANCH  57  81
BRANCH  69  92
ATOM     92  C   UNL A   1      45.360  30.022  37.143  1.00  0.00     0.023 A 
ATOM     93  C   UNL A   1      46.483  30.865  37.255  1.00  0.00     0.012 A 
ATOM     94  C   UNL A   1      45.385  28.752  37.753  1.00  0.00     0.148 A 
ATOM     95  C   UNL A   1      47.625  30.439  37.932  1.00  0.00     0.002 A 
ATOM     96  C   UNL A   1      46.505  28.355  38.472  1.00  0.00     0.091 A 
ATOM     97  F   UNL A   1      44.312  27.958  37.621  1.00  0.00    -0.205 F 
ATOM     98  C   UNL A   1      47.631  29.191  38.550  1.00  0.00     0.022 A 
BRANCH  96  99
ATOM     99  S   UNL A   1      46.567  26.809  39.384  1.00  0.00     0.127 S 
ATOM    100  O   UNL A   1      45.412  26.940  40.271  1.00  0.00    -0.237 OA
ATOM    101  O   UNL A   1      46.411  25.815  38.321  1.00  0.00    -0.237 OA
ATOM    102  O   UNL A   1      47.864  26.785  40.048  1.00  0.00    -0.744 OA
ENDBRANCH  96  99
ENDBRANCH  69  92
ENDBRANCH  43  44
ENDBRANCH  35  38
ENDBRANCH  33  34
ENDBRANCH  32  33
ENDBRANCH  31  32
ENDBRANCH  30  31
ENDBRANCH   3  30
TORSDOF 22
ENDMDL
MODEL 2
REMARK VINA RESULT:      -9.2      4.104      8.486
REMARK SMILES CCCCCNC(=O)Oc1cccc(-c2ccc([C@@H](C)C(=O)NCCCCNC(=O)c3ccc(-c4c5nc(c(-c6cccc(S(=O)(=O)[O-])c6F)c6ccc([nH]6)c(-c6cccc(S(=O)(=O)[O-])c6F)c6nc(c(-c7cccc(S(=O)(=O)[O-])c7F)c7ccc4[nH]7)C=C6)C=C5)cc3)cc2F)c1
REMARK SMILES IDX 21 1 22 2 23 3 19 5 20 6 18 7 15 8 16 9 95 10 17 11 94 12
REMARK SMILES IDX 96 13 14 14 10 15 11 16 97 17 12 18 13 19 9 20 7 21 6 22
REMARK SMILES IDX 8 24 5 25 4 26 3 27 2 28 1 29 24 30 25 31 26 32 27 33 28 34
REMARK SMILES IDX 29 35 30 37 31 38 32 39 93 40 33 41 92 42 34 43 35 44 36 45
REMARK SMILES IDX 86 46 37 47 91 48 85 49 87 50 38 51 90 52 84 53 83 54 39 56
REMARK SMILES IDX 71 57 51 58 70 59 52 60 55 61 69 62 88 63 53 64 54 65 68 67
REMARK SMILES IDX 89 68 56 69 40 70 41 71 49 72 42 73 44 74 50 75 43 76 45 77
REMARK SMILES IDX 46 78 47 79 48 80 72 81 73 82 81 83 74 84 76 85 82 86 75 87
REMARK SMILES IDX 77 88 78 89 79 90 80 91 57 92 58 93 66 94 59 95 61 96 67 97
REMARK SMILES IDX 60 98 62 99 63 100 64 101 65 102
REMARK H PARENT 23 4 6 23 28 36 87 55 55 66
REMARK Flexibility Score: inf
ROOT
ATOM      1  C   UNL A   1      35.957  30.814  29.127  1.00  0.00     0.227 C 
ATOM      2  O   UNL A   1      35.776  29.808  28.430  1.00  0.00    -0.274 OA
ATOM      3  N   UNL A   1      34.862  31.575  29.395  1.00  0.00    -0.356 N 
ATOM      4  H   UNL A   1      34.022  31.213  29.030  1.00  0.00     0.163 HD
ENDROOT
BRANCH   1   5
ATOM      5  C   UNL A   1      37.367  31.123  29.655  1.00  0.00     0.105 C 
ATOM      6  C   UNL A   1      37.898  32.495  29.246  1.00  0.00     0.023 C 
BRANCH   5   7
ATOM      7  C   UNL A   1      38.345  29.967  29.510  1.00  0.00    -0.033 A 
ATOM      8  C   UNL A   1      39.988  27.653  29.138  1.00  0.00     0.018 A 
ATOM      9  C   UNL A   1      40.119  28.791  28.326  1.00  0.00     0.012 A 
ATOM     10  C   UNL A   1      39.050  27.732  30.176  1.00  0.00     0.131 A 
ATOM     11  C   UNL A   1      39.347  29.939  28.538  1.00  0.00     0.005 A 
ATOM     12  C   UNL A   1      38.227  28.850  30.348  1.00  0.00     0.044 A 
ATOM     13  F   UNL A   1      38.911  26.721  31.049  1.00  0.00    -0.206 F 
BRANCH   8  14
ATOM     14  C   UNL A   1      40.789  26.440  28.864  1.00  0.00    -0.012 A 
ATOM     15  C   UNL A   1      40.963  24.129  28.126  1.00  0.00     0.133 A 
ATOM     16  C   UNL A   1      42.348  24.152  28.252  1.00  0.00     0.047 A 
ATOM     17  C   UNL A   1      40.186  25.248  28.436  1.00  0.00     0.056 A 
ATOM     18  C   UNL A   1      42.966  25.321  28.677  1.00  0.00     0.004 A 
ATOM     19  C   UNL A   1      42.195  26.447  28.984  1.00  0.00     0.009 A 
BRANCH  15  20
ATOM     20  O   UNL A   1      40.369  22.904  27.793  1.00  0.00    -0.410 OA
BRANCH  20  21
ATOM     21  C   UNL A   1      40.534  22.449  26.493  1.00  0.00     0.412 C 
ATOM     22  N   UNL A   1      39.403  22.587  25.735  1.00  0.00    -0.321 N 
ATOM     23  H   UNL A   1      39.455  22.276  24.803  1.00  0.00     0.167 HD
ATOM     24  O   UNL A   1      41.553  21.960  26.025  1.00  0.00    -0.224 OA
BRANCH  22  25
ATOM     25  C   UNL A   1      38.139  23.145  26.165  1.00  0.00     0.119 C 
BRANCH  25  26
ATOM     26  C   UNL A   1      36.950  22.317  25.679  1.00  0.00     0.021 C 
BRANCH  26  27
ATOM     27  C   UNL A   1      37.040  21.853  24.220  1.00  0.00     0.002 C 
BRANCH  27  28
ATOM     28  C   UNL A   1      36.573  22.869  23.173  1.00  0.00    -0.003 C 
ATOM     29  C   UNL A   1      35.099  23.223  23.284  1.00  0.00     0.004 C 
ENDBRANCH  27  28
ENDBRANCH  26  27
ENDBRANCH  25  26
ENDBRANCH  22  25
ENDBRANCH  20  21
ENDBRANCH  15  20
ENDBRANCH   8  14
ENDBRANCH   5   7
ENDBRANCH   1   5
BRANCH   3  30
ATOM     30  C   UNL A   1      34.704  32.820  30.116  1.00  0.00     0.116 C 
BRANCH  30  31
ATOM     31  C   UNL A   1      34.801  32.627  31.631  1.00  0.00     0.023 C 
BRANCH  31  32
ATOM     32  C   UNL A   1      35.258  33.859  32.406  1.00  0.00     0.023 C 
BRANCH  32  33
ATOM     33  C   UNL A   1      36.617  33.730  33.086  1.00  0.00     0.116 C 
BRANCH  33  34
ATOM     34  N   UNL A   1      36.541  33.543  34.531  1.00  0.00    -0.352 N 
ATOM     35  C   UNL A   1      37.303  32.709  35.318  1.00  0.00     0.251 C 
ATOM     36  H   UNL A   1      35.862  34.079  35.000  1.00  0.00     0.163 HD
ATOM     37  O   UNL A   1      37.068  32.593  36.516  1.00  0.00    -0.269 OA
BRANCH  35  38
ATOM     38  C   UNL A   1      38.381  31.924  34.682  1.00  0.00     0.039 A 
ATOM     39  C   UNL A   1      38.042  30.943  33.747  1.00  0.00     0.014 A 
ATOM     40  C   UNL A   1      39.718  32.231  34.939  1.00  0.00     0.014 A 
ATOM     41  C   UNL A   1      39.052  30.331  33.002  1.00  0.00     0.010 A 
ATOM     42  C   UNL A   1      40.712  31.682  34.138  1.00  0.00     0.010 A 
ATOM     43  C   UNL A   1      40.389  30.731  33.156  1.00  0.00    -0.014 A 
BRANCH  43  44
ATOM     44  C   UNL A   1      41.465  30.199  32.279  1.00  0.00     0.031 A 
ATOM     45  C   UNL A   1      42.133  28.893  32.613  1.00  0.00     0.074 A 
ATOM     46  C   UNL A   1      41.911  30.943  31.247  1.00  0.00     0.049 A 
ATOM     47  N   UNL A   1      43.141  28.310  32.020  1.00  0.00    -0.248 NA
ATOM     48  C   UNL A   1      41.620  28.158  33.782  1.00  0.00     0.031 C 
ATOM     49  C   UNL A   1      41.403  32.265  30.873  1.00  0.00     0.029 A 
ATOM     50  N   UNL A   1      42.916  30.709  30.341  1.00  0.00    -0.354 N 
ATOM     51  C   UNL A   1      43.408  27.166  32.762  1.00  0.00     0.074 A 
ATOM     52  C   UNL A   1      42.477  27.151  33.868  1.00  0.00     0.031 C 
ATOM     53  C   UNL A   1      42.098  32.724  29.818  1.00  0.00     0.029 A 
ATOM     54  C   UNL A   1      43.122  31.749  29.463  1.00  0.00     0.049 A 
ATOM     55  H   UNL A   1      43.439  29.875  30.321  1.00  0.00     0.167 HD
ATOM     56  C   UNL A   1      44.329  26.201  32.530  1.00  0.00     0.034 A 
ATOM     57  C   UNL A   1      44.045  31.907  28.493  1.00  0.00     0.034 A 
ATOM     58  C   UNL A   1      45.225  26.197  31.406  1.00  0.00     0.049 A 
ATOM     59  C   UNL A   1      45.033  30.800  28.237  1.00  0.00     0.074 A 
ATOM     60  C   UNL A   1      46.125  25.215  31.030  1.00  0.00     0.029 A 
ATOM     61  N   UNL A   1      45.345  27.225  30.486  1.00  0.00    -0.354 N 
ATOM     62  N   UNL A   1      45.156  29.647  28.848  1.00  0.00    -0.248 NA
ATOM     63  C   UNL A   1      45.987  31.002  27.137  1.00  0.00     0.031 C 
ATOM     64  C   UNL A   1      46.814  25.666  29.900  1.00  0.00     0.029 A 
ATOM     65  C   UNL A   1      46.317  26.911  29.550  1.00  0.00     0.049 A 
ATOM     66  H   UNL A   1      44.818  28.056  30.494  1.00  0.00     0.167 HD
ATOM     67  C   UNL A   1      46.176  28.972  28.186  1.00  0.00     0.074 A 
ATOM     68  C   UNL A   1      46.618  29.836  27.111  1.00  0.00     0.031 C 
ATOM     69  C   UNL A   1      46.711  27.756  28.454  1.00  0.00     0.034 A 
BRANCH  56  70
ATOM     70  C   UNL A   1      44.384  25.036  33.483  1.00  0.00     0.023 A 
ATOM     71  C   UNL A   1      43.692  23.847  33.173  1.00  0.00     0.012 A 
ATOM     72  C   UNL A   1      45.183  25.090  34.642  1.00  0.00     0.148 A 
ATOM     73  C   UNL A   1      43.771  22.740  34.017  1.00  0.00     0.002 A 
ATOM     74  C   UNL A   1      45.294  23.967  35.453  1.00  0.00     0.091 A 
ATOM     75  F   UNL A   1      45.816  26.236  34.929  1.00  0.00    -0.205 F 
ATOM     76  C   UNL A   1      44.580  22.795  35.148  1.00  0.00     0.022 A 
BRANCH  74  77
ATOM     77  S   UNL A   1      46.373  23.907  36.887  1.00  0.00     0.127 S 
ATOM     78  O   UNL A   1      46.005  25.138  37.585  1.00  0.00    -0.237 OA
ATOM     79  O   UNL A   1      45.934  22.677  37.548  1.00  0.00    -0.237 OA
ATOM     80  O   UNL A   1      47.733  23.869  36.369  1.00  0.00    -0.744 OA
ENDBRANCH  74  77
ENDBRANCH  56  70
BRANCH  57  81
ATOM     81  C   UNL A   1      44.055  33.143  27.658  1.00  0.00     0.023 A 
ATOM     82  C   UNL A   1      43.593  33.088  26.328  1.00  0.00     0.012 A 
ATOM     83  C   UNL A   1      44.518  34.369  28.172  1.00  0.00     0.148 A 
ATOM     84  C   UNL A   1      43.632  34.219  25.513  1.00  0.00     0.002 A 
ATOM     85  C   UNL A   1      44.498  35.506  27.373  1.00  0.00     0.091 A 
ATOM     86  F   UNL A   1      44.965  34.401  29.436  1.00  0.00    -0.205 F 
ATOM     87  C   UNL A   1      44.075  35.430  26.037  1.00  0.00     0.022 A 
BRANCH  85  88
ATOM     88  S   UNL A   1      44.931  37.131  28.004  1.00  0.00     0.127 S 
ATOM     89  O   UNL A   1      46.351  36.968  28.302  1.00  0.00    -0.237 OA
ATOM     90  O   UNL A   1      44.636  37.990  26.856  1.00  0.00    -0.237 OA
ATOM     91  O   UNL A   1      44.062  37.348  29.152  1.00  0.00    -0.744 OA
ENDBRANCH  85  88
ENDBRANCH  57  81
BRANCH  69  92
ATOM     92  C   UNL A   1      47.808  27.260  27.549  1.00  0.00     0.023 A 
ATOM     93  C   UNL A   1      47.487  26.545  26.378  1.00  0.00     0.012 A 
ATOM     94  C   UNL A   1      49.156  27.564  27.825  1.00  0.00     0.148 A 
ATOM     95  C   UNL A   1      48.491  26.111  25.515  1.00  0.00     0.002 A 
ATOM     96  C   UNL A   1      50.147  27.174  26.933  1.00  0.00     0.091 A 
ATOM     97  F   UNL A   1      49.444  28.231  28.953  1.00  0.00    -0.205 F 
ATOM     98  C   UNL A   1      49.818  26.435  25.785  1.00  0.00     0.022 A 
BRANCH  96  99
ATOM     99  S   UNL A   1      51.871  27.633  27.146  1.00  0.00     0.127 S 
ATOM    100  O   UNL A   1      52.419  27.356  25.818  1.00  0.00    -0.237 OA
ATOM    101  O   UNL A   1      51.775  29.053  27.482  1.00  0.00    -0.237 OA
ATOM    102  O   UNL A   1      52.382  26.790  28.219  1.00  0.00    -0.744 OA
ENDBRANCH  96  99
ENDBRANCH  69  92
ENDBRANCH  43  44
ENDBRANCH  35  38
ENDBRANCH  33  34
ENDBRANCH  32  33
ENDBRANCH  31  32
ENDBRANCH  30  31
ENDBRANCH   3  30
TORSDOF 22
ENDMDL
MODEL 3
REMARK VINA RESULT:      -9.2      3.706      8.876
REMARK SMILES CCCCCNC(=O)Oc1cccc(-c2ccc([C@@H](C)C(=O)NCCCCNC(=O)c3ccc(-c4c5nc(c(-c6cccc(S(=O)(=O)[O-])c6F)c6ccc([nH]6)c(-c6cccc(S(=O)(=O)[O-])c6F)c6nc(c(-c7cccc(S(=O)(=O)[O-])c7F)c7ccc4[nH]7)C=C6)C=C5)cc3)cc2F)c1
REMARK SMILES IDX 21 1 22 2 23 3 19 5 20 6 18 7 15 8 16 9 95 10 17 11 94 12
REMARK SMILES IDX 96 13 14 14 10 15 11 16 97 17 12 18 13 19 9 20 7 21 6 22
REMARK SMILES IDX 8 24 5 25 4 26 3 27 2 28 1 29 24 30 25 31 26 32 27 33 28 34
REMARK SMILES IDX 29 35 30 37 31 38 32 39 93 40 33 41 92 42 34 43 35 44 36 45
REMARK SMILES IDX 86 46 37 47 91 48 85 49 87 50 38 51 90 52 84 53 83 54 39 56
REMARK SMILES IDX 71 57 51 58 70 59 52 60 55 61 69 62 88 63 53 64 54 65 68 67
REMARK SMILES IDX 89 68 56 69 40 70 41 71 49 72 42 73 44 74 50 75 43 76 45 77
REMARK SMILES IDX 46 78 47 79 48 80 72 81 73 82 81 83 74 84 76 85 82 86 75 87
REMARK SMILES IDX 77 88 78 89 79 90 80 91 57 92 58 93 66 94 59 95 61 96 67 97
REMARK SMILES IDX 60 98 62 99 63 100 64 101 65 102
REMARK H PARENT 23 4 6 23 28 36 87 55 55 66
REMARK Flexibility Score: inf
ROOT
ATOM      1  C   UNL A   1      46.019  26.509  26.457  1.00  0.00     0.227 C 
ATOM      2  O   UNL A   1      45.781  27.723  26.423  1.00  0.00    -0.274 OA
ATOM      3  N   UNL A   1      45.432  25.745  25.496  1.00  0.00    -0.356 N 
ATOM      4  H   UNL A   1      44.903  26.259  24.842  1.00  0.00     0.163 HD
ENDROOT
BRANCH   1   5
ATOM      5  C   UNL A   1      46.958  25.954  27.540  1.00  0.00     0.105 C 
ATOM      6  C   UNL A   1      47.888  24.846  27.050  1.00  0.00     0.023 C 
BRANCH   5   7
ATOM      7  C   UNL A   1      46.274  25.699  28.874  1.00  0.00    -0.033 A 
ATOM      8  C   UNL A   1      45.067  24.972  31.366  1.00  0.00     0.018 A 
ATOM      9  C   UNL A   1      46.222  25.769  31.308  1.00  0.00     0.012 A 
ATOM     10  C   UNL A   1      44.504  24.599  30.137  1.00  0.00     0.131 A 
ATOM     11  C   UNL A   1      46.785  26.162  30.089  1.00  0.00     0.005 A 
ATOM     12  C   UNL A   1      45.103  24.931  28.917  1.00  0.00     0.044 A 
ATOM     13  F   UNL A   1      43.358  23.902  30.095  1.00  0.00    -0.206 F 
BRANCH   8  14
ATOM     14  C   UNL A   1      44.519  24.539  32.669  1.00  0.00    -0.012 A 
ATOM     15  C   UNL A   1      43.400  25.029  34.773  1.00  0.00     0.133 A 
ATOM     16  C   UNL A   1      43.383  23.683  35.123  1.00  0.00     0.047 A 
ATOM     17  C   UNL A   1      43.966  25.461  33.572  1.00  0.00     0.056 A 
ATOM     18  C   UNL A   1      43.926  22.753  34.245  1.00  0.00     0.004 A 
ATOM     19  C   UNL A   1      44.492  23.179  33.039  1.00  0.00     0.009 A 
BRANCH  15  20
ATOM     20  O   UNL A   1      42.935  25.945  35.727  1.00  0.00    -0.410 OA
BRANCH  20  21
ATOM     21  C   UNL A   1      41.584  26.259  35.703  1.00  0.00     0.412 C 
ATOM     22  N   UNL A   1      41.324  27.436  35.056  1.00  0.00    -0.321 N 
ATOM     23  H   UNL A   1      40.382  27.717  35.010  1.00  0.00     0.167 HD
ATOM     24  O   UNL A   1      40.682  25.597  36.198  1.00  0.00    -0.224 OA
BRANCH  22  25
ATOM     25  C   UNL A   1      42.293  28.310  34.431  1.00  0.00     0.119 C 
BRANCH  25  26
ATOM     26  C   UNL A   1      42.073  29.775  34.806  1.00  0.00     0.021 C 
BRANCH  26  27
ATOM     27  C   UNL A   1      41.050  30.008  35.924  1.00  0.00     0.002 C 
BRANCH  27  28
ATOM     28  C   UNL A   1      39.863  30.904  35.558  1.00  0.00    -0.003 C 
ATOM     29  C   UNL A   1      39.015  30.356  34.421  1.00  0.00     0.004 C 
ENDBRANCH  27  28
ENDBRANCH  26  27
ENDBRANCH  25  26
ENDBRANCH  22  25
ENDBRANCH  20  21
ENDBRANCH  15  20
ENDBRANCH   8  14
ENDBRANCH   5   7
ENDBRANCH   1   5
BRANCH   3  30
ATOM     30  C   UNL A   1      45.440  24.318  25.258  1.00  0.00     0.116 C 
BRANCH  30  31
ATOM     31  C   UNL A   1      44.028  23.747  25.111  1.00  0.00     0.023 C 
BRANCH  31  32
ATOM     32  C   UNL A   1      42.946  24.515  25.865  1.00  0.00     0.023 C 
BRANCH  32  33
ATOM     33  C   UNL A   1      42.072  23.669  26.784  1.00  0.00     0.116 C 
BRANCH  33  34
ATOM     34  N   UNL A   1      40.752  23.372  26.238  1.00  0.00    -0.352 N 
ATOM     35  C   UNL A   1      39.578  24.063  26.438  1.00  0.00     0.251 C 
ATOM     36  H   UNL A   1      40.693  22.581  25.656  1.00  0.00     0.163 HD
ATOM     37  O   UNL A   1      38.520  23.646  25.980  1.00  0.00    -0.269 OA
BRANCH  35  38
ATOM     38  C   UNL A   1      39.611  25.295  27.254  1.00  0.00     0.039 A 
ATOM     39  C   UNL A   1      39.204  25.235  28.588  1.00  0.00     0.014 A 
ATOM     40  C   UNL A   1      40.137  26.475  26.722  1.00  0.00     0.014 A 
ATOM     41  C   UNL A   1      39.410  26.339  29.417  1.00  0.00     0.010 A 
ATOM     42  C   UNL A   1      40.418  27.540  27.570  1.00  0.00     0.010 A 
ATOM     43  C   UNL A   1      40.065  27.482  28.927  1.00  0.00    -0.014 A 
BRANCH  43  44
ATOM     44  C   UNL A   1      40.423  28.614  29.820  1.00  0.00     0.031 A 
ATOM     45  C   UNL A   1      39.390  29.644  30.185  1.00  0.00     0.074 A 
ATOM     46  C   UNL A   1      41.704  28.771  30.213  1.00  0.00     0.049 A 
ATOM     47  N   UNL A   1      39.532  30.742  30.879  1.00  0.00    -0.248 NA
ATOM     48  C   UNL A   1      38.022  29.427  29.681  1.00  0.00     0.031 C 
ATOM     49  C   UNL A   1      42.816  27.888  29.854  1.00  0.00     0.029 A 
ATOM     50  N   UNL A   1      42.294  29.751  30.974  1.00  0.00    -0.354 N 
ATOM     51  C   UNL A   1      38.289  31.364  30.864  1.00  0.00     0.074 A 
ATOM     52  C   UNL A   1      37.412  30.539  30.065  1.00  0.00     0.031 C 
ATOM     53  C   UNL A   1      43.950  28.364  30.393  1.00  0.00     0.029 A 
ATOM     54  C   UNL A   1      43.657  29.603  31.104  1.00  0.00     0.049 A 
ATOM     55  H   UNL A   1      41.790  30.487  31.388  1.00  0.00     0.167 HD
ATOM     56  C   UNL A   1      37.907  32.508  31.480  1.00  0.00     0.034 A 
ATOM     57  C   UNL A   1      44.569  30.387  31.713  1.00  0.00     0.034 A 
ATOM     58  C   UNL A   1      38.770  33.304  32.307  1.00  0.00     0.049 A 
ATOM     59  C   UNL A   1      44.106  31.634  32.419  1.00  0.00     0.074 A 
ATOM     60  C   UNL A   1      38.450  34.425  33.054  1.00  0.00     0.029 A 
ATOM     61  N   UNL A   1      40.124  33.075  32.489  1.00  0.00    -0.354 N 
ATOM     62  N   UNL A   1      42.892  32.114  32.533  1.00  0.00    -0.248 NA
ATOM     63  C   UNL A   1      45.134  32.429  33.107  1.00  0.00     0.031 C 
ATOM     64  C   UNL A   1      39.620  34.893  33.661  1.00  0.00     0.029 A 
ATOM     65  C   UNL A   1      40.660  34.043  33.323  1.00  0.00     0.049 A 
ATOM     66  H   UNL A   1      40.632  32.334  32.086  1.00  0.00     0.167 HD
ATOM     67  C   UNL A   1      43.004  33.246  33.333  1.00  0.00     0.074 A 
ATOM     68  C   UNL A   1      44.401  33.363  33.696  1.00  0.00     0.031 C 
ATOM     69  C   UNL A   1      42.041  34.119  33.719  1.00  0.00     0.034 A 
BRANCH  56  70
ATOM     70  C   UNL A   1      36.474  32.945  31.326  1.00  0.00     0.023 A 
ATOM     71  C   UNL A   1      35.597  32.863  32.427  1.00  0.00     0.012 A 
ATOM     72  C   UNL A   1      36.018  33.510  30.119  1.00  0.00     0.148 A 
ATOM     73  C   UNL A   1      34.280  33.310  32.320  1.00  0.00     0.002 A 
ATOM     74  C   UNL A   1      34.719  33.996  30.035  1.00  0.00     0.091 A 
ATOM     75  F   UNL A   1      36.861  33.560  29.078  1.00  0.00    -0.205 F 
ATOM     76  C   UNL A   1      33.846  33.887  31.130  1.00  0.00     0.022 A 
BRANCH  74  77
ATOM     77  S   UNL A   1      34.085  34.830  28.575  1.00  0.00     0.127 S 
ATOM     78  O   UNL A   1      34.383  33.855  27.526  1.00  0.00    -0.237 OA
ATOM     79  O   UNL A   1      32.664  34.966  28.895  1.00  0.00    -0.237 OA
ATOM     80  O   UNL A   1      34.814  36.087  28.480  1.00  0.00    -0.744 OA
ENDBRANCH  74  77
ENDBRANCH  56  70
BRANCH  57  81
ATOM     81  C   UNL A   1      46.009  29.998  31.722  1.00  0.00     0.023 A 
ATOM     82  C   UNL A   1      46.846  30.409  30.665  1.00  0.00     0.012 A 
ATOM     83  C   UNL A   1      46.553  29.227  32.766  1.00  0.00     0.148 A 
ATOM     84  C   UNL A   1      48.186  30.024  30.627  1.00  0.00     0.002 A 
ATOM     85  C   UNL A   1      47.903  28.896  32.752  1.00  0.00     0.091 A 
ATOM     86  F   UNL A   1      45.739  28.834  33.757  1.00  0.00    -0.205 F 
ATOM     87  C   UNL A   1      48.717  29.275  31.674  1.00  0.00     0.022 A 
BRANCH  85  88
ATOM     88  S   UNL A   1      48.698  28.046  34.120  1.00  0.00     0.127 S 
ATOM     89  O   UNL A   1      50.101  28.079  33.718  1.00  0.00    -0.237 OA
ATOM     90  O   UNL A   1      48.359  28.910  35.251  1.00  0.00    -0.237 OA
ATOM     91  O   UNL A   1      48.083  26.726  34.170  1.00  0.00    -0.744 OA
ENDBRANCH  85  88
ENDBRANCH  57  81
BRANCH  69  92
ATOM     92  C   UNL A   1      42.450  35.261  34.613  1.00  0.00     0.023 A 
ATOM     93  C   UNL A   1      42.464  35.090  36.011  1.00  0.00     0.012 A 
ATOM     94  C   UNL A   1      42.888  36.481  34.061  1.00  0.00     0.148 A 
ATOM     95  C   UNL A   1      42.873  36.127  36.848  1.00  0.00     0.002 A 
ATOM     96  C   UNL A   1      43.345  37.491  34.898  1.00  0.00     0.091 A 
ATOM     97  F   UNL A   1      42.852  36.630  32.728  1.00  0.00    -0.205 F 
ATOM     98  C   UNL A   1      43.324  37.321  36.292  1.00  0.00     0.022 A 
BRANCH  96  99
ATOM     99  S   UNL A   1      44.038  39.024  34.269  1.00  0.00     0.127 S 
ATOM    100  O   UNL A   1      44.359  39.735  35.507  1.00  0.00    -0.237 OA
ATOM    101  O   UNL A   1      45.201  38.554  33.517  1.00  0.00    -0.237 OA
ATOM    102  O   UNL A   1      42.995  39.633  33.454  1.00  0.00    -0.744 OA
ENDBRANCH  96  99
ENDBRANCH  69  92
ENDBRANCH  43  44
ENDBRANCH  35  38
ENDBRANCH  33  34
ENDBRANCH  32  33
ENDBRANCH  31  32
ENDBRANCH  30  31
ENDBRANCH   3  30
TORSDOF 22
ENDMDL
