MODEL 1
REMARK VINA RESULT:     -11.6      0.000      0.000
REMARK SMILES C=CCc1cccc(-c2ccc([C@@H](C)C(=O)NCCCCNC(=O)c3ccc(-c4c5nc(c(-c6cccc(S(=O)(=O)[O-])c6F)c6ccc([nH]6)c(-c6cccc(S(=O)(=O)[O-])c6F)c6nc(c(-c7cccc(S(=O)(=O)[O-])c7F)c7ccc4[nH]7)C=C6)C=C5)cc3)cc2)c1
REMARK SMILES IDX 19 1 18 2 17 3 15 4 16 5 13 7 14 8 12 9 9 10 10 11 89 12
REMARK SMILES IDX 11 13 88 14 8 15 4 16 5 17 90 18 6 19 7 20 3 21 2 22 1 23
REMARK SMILES IDX 20 24 21 25 22 26 23 27 24 29 25 30 26 31 87 32 27 33 86 34
REMARK SMILES IDX 28 35 29 36 30 37 80 38 31 39 85 40 79 41 81 42 32 43 84 44
REMARK SMILES IDX 78 45 77 46 33 48 65 49 45 50 64 51 46 52 49 53 63 54 82 55
REMARK SMILES IDX 47 56 48 57 62 59 83 60 50 61 34 62 35 63 43 64 36 65 38 66
REMARK SMILES IDX 44 67 37 68 39 69 40 70 41 71 42 72 66 73 67 74 75 75 68 76
REMARK SMILES IDX 70 77 76 78 69 79 71 80 72 81 73 82 74 83 51 84 52 85 60 86
REMARK SMILES IDX 53 87 55 88 61 89 54 90 56 91 57 92 58 93 59 94
REMARK H PARENT 17 6 22 28 81 47 49 58
REMARK Flexibility Score: inf
ROOT
ATOM      1  C   UNL A   1      35.756  21.083  25.544  1.00  0.00     0.023 C 
ENDROOT
BRANCH   1   2
ATOM      2  C   UNL A   1      35.245  19.931  24.678  1.00  0.00     0.116 C 
BRANCH   2   3
ATOM      3  N   UNL A   1      34.222  19.153  25.345  1.00  0.00    -0.356 N 
ATOM      4  C   UNL A   1      32.890  19.018  25.099  1.00  0.00     0.227 C 
ATOM      5  O   UNL A   1      32.247  18.310  25.884  1.00  0.00    -0.274 OA
ATOM      6  H   UNL A   1      34.548  18.628  26.112  1.00  0.00     0.163 HD
BRANCH   4   7
ATOM      7  C   UNL A   1      32.173  19.673  23.907  1.00  0.00     0.105 C 
ATOM      8  C   UNL A   1      32.362  18.931  22.585  1.00  0.00     0.023 C 
BRANCH   7   9
ATOM      9  C   UNL A   1      32.329  21.185  23.864  1.00  0.00    -0.036 A 
ATOM     10  C   UNL A   1      32.819  24.006  23.946  1.00  0.00    -0.018 A 
ATOM     11  C   UNL A   1      32.987  23.257  22.769  1.00  0.00     0.009 A 
ATOM     12  C   UNL A   1      32.347  23.309  25.070  1.00  0.00     0.009 A 
ATOM     13  C   UNL A   1      32.716  21.883  22.718  1.00  0.00     0.005 A 
ATOM     14  C   UNL A   1      32.129  21.925  25.038  1.00  0.00     0.005 A 
BRANCH  10  15
ATOM     15  C   UNL A   1      33.153  25.454  24.001  1.00  0.00    -0.018 A 
ATOM     16  C   UNL A   1      33.732  27.474  25.301  1.00  0.00    -0.044 A 
ATOM     17  C   UNL A   1      33.843  28.197  24.106  1.00  0.00     0.004 A 
ATOM     18  C   UNL A   1      33.386  26.111  25.228  1.00  0.00     0.012 A 
ATOM     19  C   UNL A   1      33.621  27.577  22.880  1.00  0.00     0.001 A 
ATOM     20  C   UNL A   1      33.272  26.225  22.832  1.00  0.00     0.009 A 
BRANCH  16  21
ATOM     21  C   UNL A   1      33.903  28.208  26.616  1.00  0.00     0.062 C 
BRANCH  21  22
ATOM     22  C   UNL A   1      32.647  28.761  27.231  1.00  0.00    -0.030 C 
ATOM     23  C   UNL A   1      31.558  28.033  27.518  1.00  0.00     0.004 C 
ENDBRANCH  21  22
ENDBRANCH  16  21
ENDBRANCH  10  15
ENDBRANCH   7   9
ENDBRANCH   4   7
ENDBRANCH   2   3
ENDBRANCH   1   2
BRANCH   1  24
ATOM     24  C   UNL A   1      36.017  22.390  24.796  1.00  0.00     0.023 C 
BRANCH  24  25
ATOM     25  C   UNL A   1      37.287  23.134  25.199  1.00  0.00     0.116 C 
BRANCH  25  26
ATOM     26  N   UNL A   1      38.349  22.272  25.701  1.00  0.00    -0.352 N 
ATOM     27  C   UNL A   1      39.454  22.630  26.443  1.00  0.00     0.251 C 
ATOM     28  H   UNL A   1      38.268  21.315  25.483  1.00  0.00     0.163 HD
ATOM     29  O   UNL A   1      40.303  21.800  26.736  1.00  0.00    -0.269 OA
BRANCH  27  30
ATOM     30  C   UNL A   1      39.620  24.047  26.840  1.00  0.00     0.039 A 
ATOM     31  C   UNL A   1      39.323  24.420  28.153  1.00  0.00     0.014 A 
ATOM     32  C   UNL A   1      40.133  24.980  25.938  1.00  0.00     0.014 A 
ATOM     33  C   UNL A   1      39.622  25.715  28.585  1.00  0.00     0.010 A 
ATOM     34  C   UNL A   1      40.499  26.243  26.390  1.00  0.00     0.010 A 
ATOM     35  C   UNL A   1      40.252  26.623  27.718  1.00  0.00    -0.014 A 
BRANCH  35  36
ATOM     36  C   UNL A   1      40.684  27.966  28.180  1.00  0.00     0.031 A 
ATOM     37  C   UNL A   1      42.148  28.309  28.237  1.00  0.00     0.074 A 
ATOM     38  C   UNL A   1      39.769  28.834  28.657  1.00  0.00     0.049 A 
ATOM     39  N   UNL A   1      42.724  29.393  28.685  1.00  0.00    -0.248 NA
ATOM     40  C   UNL A   1      43.092  27.284  27.757  1.00  0.00     0.031 C 
ATOM     41  C   UNL A   1      38.328  28.582  28.745  1.00  0.00     0.029 A 
ATOM     42  N   UNL A   1      39.916  30.091  29.186  1.00  0.00    -0.354 N 
ATOM     43  C   UNL A   1      44.091  29.166  28.586  1.00  0.00     0.074 A 
ATOM     44  C   UNL A   1      44.260  27.828  28.064  1.00  0.00     0.031 C 
ATOM     45  C   UNL A   1      37.726  29.652  29.290  1.00  0.00     0.029 A 
ATOM     46  C   UNL A   1      38.736  30.656  29.612  1.00  0.00     0.049 A 
ATOM     47  H   UNL A   1      40.787  30.548  29.255  1.00  0.00     0.167 HD
ATOM     48  C   UNL A   1      45.113  30.006  28.872  1.00  0.00     0.034 A 
ATOM     49  C   UNL A   1      38.495  31.847  30.192  1.00  0.00     0.034 A 
ATOM     50  C   UNL A   1      44.939  31.359  29.323  1.00  0.00     0.049 A 
ATOM     51  C   UNL A   1      39.644  32.792  30.426  1.00  0.00     0.074 A 
ATOM     52  C   UNL A   1      45.906  32.326  29.533  1.00  0.00     0.029 A 
ATOM     53  N   UNL A   1      43.719  31.937  29.634  1.00  0.00    -0.354 N 
ATOM     54  N   UNL A   1      40.916  32.624  30.158  1.00  0.00    -0.248 NA
ATOM     55  C   UNL A   1      39.320  34.103  31.006  1.00  0.00     0.031 C 
ATOM     56  C   UNL A   1      45.268  33.490  29.978  1.00  0.00     0.029 A 
ATOM     57  C   UNL A   1      43.905  33.248  30.036  1.00  0.00     0.049 A 
ATOM     58  H   UNL A   1      42.848  31.482  29.578  1.00  0.00     0.167 HD
ATOM     59  C   UNL A   1      41.539  33.818  30.503  1.00  0.00     0.074 A 
ATOM     60  C   UNL A   1      40.500  34.708  30.980  1.00  0.00     0.031 C 
ATOM     61  C   UNL A   1      42.853  34.143  30.447  1.00  0.00     0.034 A 
BRANCH  48  62
ATOM     62  C   UNL A   1      46.513  29.508  28.631  1.00  0.00     0.023 A 
ATOM     63  C   UNL A   1      47.135  29.766  27.392  1.00  0.00     0.012 A 
ATOM     64  C   UNL A   1      47.233  28.836  29.637  1.00  0.00     0.148 A 
ATOM     65  C   UNL A   1      48.436  29.335  27.145  1.00  0.00     0.002 A 
ATOM     66  C   UNL A   1      48.546  28.446  29.398  1.00  0.00     0.091 A 
ATOM     67  F   UNL A   1      46.619  28.578  30.802  1.00  0.00    -0.205 F 
ATOM     68  C   UNL A   1      49.145  28.684  28.151  1.00  0.00     0.022 A 
BRANCH  66  69
ATOM     69  S   UNL A   1      49.565  27.666  30.656  1.00  0.00     0.127 S 
ATOM     70  O   UNL A   1      48.838  26.421  30.896  1.00  0.00    -0.237 OA
ATOM     71  O   UNL A   1      50.843  27.500  29.960  1.00  0.00    -0.237 OA
ATOM     72  O   UNL A   1      49.602  28.599  31.774  1.00  0.00    -0.744 OA
ENDBRANCH  66  69
ENDBRANCH  48  62
BRANCH  49  73
ATOM     73  C   UNL A   1      37.095  32.253  30.506  1.00  0.00     0.023 A 
ATOM     74  C   UNL A   1      36.598  32.046  31.808  1.00  0.00     0.012 A 
ATOM     75  C   UNL A   1      36.268  32.864  29.545  1.00  0.00     0.148 A 
ATOM     76  C   UNL A   1      35.295  32.413  32.141  1.00  0.00     0.002 A 
ATOM     77  C   UNL A   1      34.986  33.274  29.897  1.00  0.00     0.091 A 
ATOM     78  F   UNL A   1      36.751  33.038  28.307  1.00  0.00    -0.205 F 
ATOM     79  C   UNL A   1      34.492  33.036  31.189  1.00  0.00     0.022 A 
BRANCH  77  80
ATOM     80  S   UNL A   1      33.933  34.198  28.772  1.00  0.00     0.127 S 
ATOM     81  O   UNL A   1      33.538  33.166  27.817  1.00  0.00    -0.237 OA
ATOM     82  O   UNL A   1      32.863  34.657  29.659  1.00  0.00    -0.237 OA
ATOM     83  O   UNL A   1      34.772  35.267  28.246  1.00  0.00    -0.744 OA
ENDBRANCH  77  80
ENDBRANCH  49  73
BRANCH  61  84
ATOM     84  C   UNL A   1      43.252  35.527  30.882  1.00  0.00     0.023 A 
ATOM     85  C   UNL A   1      43.626  35.755  32.221  1.00  0.00     0.012 A 
ATOM     86  C   UNL A   1      43.339  36.580  29.950  1.00  0.00     0.148 A 
ATOM     87  C   UNL A   1      44.058  37.015  32.631  1.00  0.00     0.002 A 
ATOM     88  C   UNL A   1      43.811  37.822  30.355  1.00  0.00     0.091 A 
ATOM     89  F   UNL A   1      42.958  36.348  28.685  1.00  0.00    -0.205 F 
ATOM     90  C   UNL A   1      44.162  38.045  31.697  1.00  0.00     0.022 A 
BRANCH  88  91
ATOM     91  S   UNL A   1      44.066  39.173  29.199  1.00  0.00     0.127 S 
ATOM     92  O   UNL A   1      42.702  39.442  28.747  1.00  0.00    -0.237 OA
ATOM     93  O   UNL A   1      44.641  40.213  30.054  1.00  0.00    -0.237 OA
ATOM     94  O   UNL A   1      44.976  38.661  28.184  1.00  0.00    -0.744 OA
ENDBRANCH  88  91
ENDBRANCH  61  84
ENDBRANCH  35  36
ENDBRANCH  27  30
ENDBRANCH  25  26
ENDBRANCH  24  25
ENDBRANCH   1  24
TORSDOF 18
ENDMDL
MODEL 2
REMARK VINA RESULT:     -11.3      5.461     11.694
REMARK SMILES C=CCc1cccc(-c2ccc([C@@H](C)C(=O)NCCCCNC(=O)c3ccc(-c4c5nc(c(-c6cccc(S(=O)(=O)[O-])c6F)c6ccc([nH]6)c(-c6cccc(S(=O)(=O)[O-])c6F)c6nc(c(-c7cccc(S(=O)(=O)[O-])c7F)c7ccc4[nH]7)C=C6)C=C5)cc3)cc2)c1
REMARK SMILES IDX 19 1 18 2 17 3 15 4 16 5 13 7 14 8 12 9 9 10 10 11 89 12
REMARK SMILES IDX 11 13 88 14 8 15 4 16 5 17 90 18 6 19 7 20 3 21 2 22 1 23
REMARK SMILES IDX 20 24 21 25 22 26 23 27 24 29 25 30 26 31 87 32 27 33 86 34
REMARK SMILES IDX 28 35 29 36 30 37 80 38 31 39 85 40 79 41 81 42 32 43 84 44
REMARK SMILES IDX 78 45 77 46 33 48 65 49 45 50 64 51 46 52 49 53 63 54 82 55
REMARK SMILES IDX 47 56 48 57 62 59 83 60 50 61 34 62 35 63 43 64 36 65 38 66
REMARK SMILES IDX 44 67 37 68 39 69 40 70 41 71 42 72 66 73 67 74 75 75 68 76
REMARK SMILES IDX 70 77 76 78 69 79 71 80 72 81 73 82 74 83 51 84 52 85 60 86
REMARK SMILES IDX 53 87 55 88 61 89 54 90 56 91 57 92 58 93 59 94
REMARK H PARENT 17 6 22 28 81 47 49 58
REMARK Flexibility Score: inf
ROOT
ATOM      1  C   UNL A   1      34.356  35.137  28.827  1.00  0.00     0.023 C 
ENDROOT
BRANCH   1   2
ATOM      2  C   UNL A   1      33.480  34.952  30.066  1.00  0.00     0.116 C 
BRANCH   2   3
ATOM      3  N   UNL A   1      34.006  35.650  31.221  1.00  0.00    -0.356 N 
ATOM      4  C   UNL A   1      34.868  35.253  32.198  1.00  0.00     0.227 C 
ATOM      5  O   UNL A   1      35.097  36.065  33.103  1.00  0.00    -0.274 OA
ATOM      6  H   UNL A   1      33.683  36.575  31.317  1.00  0.00     0.163 HD
BRANCH   4   7
ATOM      7  C   UNL A   1      35.567  33.884  32.213  1.00  0.00     0.105 C 
ATOM      8  C   UNL A   1      35.358  33.095  33.504  1.00  0.00     0.023 C 
BRANCH   7   9
ATOM      9  C   UNL A   1      36.984  33.922  31.665  1.00  0.00    -0.036 A 
ATOM     10  C   UNL A   1      39.573  34.166  30.461  1.00  0.00    -0.018 A 
ATOM     11  C   UNL A   1      39.332  34.553  31.790  1.00  0.00     0.009 A 
ATOM     12  C   UNL A   1      38.489  33.602  29.768  1.00  0.00     0.009 A 
ATOM     13  C   UNL A   1      38.075  34.404  32.391  1.00  0.00     0.005 A 
ATOM     14  C   UNL A   1      37.217  33.503  30.347  1.00  0.00     0.005 A 
BRANCH  10  15
ATOM     15  C   UNL A   1      40.897  34.371  29.819  1.00  0.00    -0.018 A 
ATOM     16  C   UNL A   1      43.246  33.682  29.478  1.00  0.00    -0.044 A 
ATOM     17  C   UNL A   1      43.406  34.725  28.556  1.00  0.00     0.004 A 
ATOM     18  C   UNL A   1      41.992  33.524  30.097  1.00  0.00     0.012 A 
ATOM     19  C   UNL A   1      42.345  35.576  28.259  1.00  0.00     0.001 A 
ATOM     20  C   UNL A   1      41.111  35.404  28.890  1.00  0.00     0.009 A 
BRANCH  16  21
ATOM     21  C   UNL A   1      44.450  32.830  29.831  1.00  0.00     0.062 C 
BRANCH  21  22
ATOM     22  C   UNL A   1      44.588  31.537  29.076  1.00  0.00    -0.030 C 
ATOM     23  C   UNL A   1      43.576  30.700  28.813  1.00  0.00     0.004 C 
ENDBRANCH  21  22
ENDBRANCH  16  21
ENDBRANCH  10  15
ENDBRANCH   7   9
ENDBRANCH   4   7
ENDBRANCH   2   3
ENDBRANCH   1   2
BRANCH   1  24
ATOM     24  C   UNL A   1      34.510  33.894  27.950  1.00  0.00     0.023 C 
BRANCH  24  25
ATOM     25  C   UNL A   1      34.274  32.561  28.654  1.00  0.00     0.116 C 
BRANCH  25  26
ATOM     26  N   UNL A   1      33.834  31.491  27.769  1.00  0.00    -0.352 N 
ATOM     27  C   UNL A   1      34.501  30.328  27.445  1.00  0.00     0.251 C 
ATOM     28  H   UNL A   1      32.952  31.612  27.348  1.00  0.00     0.163 HD
ATOM     29  O   UNL A   1      34.033  29.549  26.627  1.00  0.00    -0.269 OA
BRANCH  27  30
ATOM     30  C   UNL A   1      35.816  30.061  28.070  1.00  0.00     0.039 A 
ATOM     31  C   UNL A   1      35.855  29.495  29.347  1.00  0.00     0.014 A 
ATOM     32  C   UNL A   1      36.997  30.303  27.367  1.00  0.00     0.014 A 
ATOM     33  C   UNL A   1      37.080  29.094  29.885  1.00  0.00     0.010 A 
ATOM     34  C   UNL A   1      38.205  29.835  27.872  1.00  0.00     0.010 A 
ATOM     35  C   UNL A   1      38.260  29.221  29.133  1.00  0.00    -0.014 A 
BRANCH  35  36
ATOM     36  C   UNL A   1      39.559  28.701  29.630  1.00  0.00     0.031 A 
ATOM     37  C   UNL A   1      40.291  29.425  30.726  1.00  0.00     0.074 A 
ATOM     38  C   UNL A   1      40.133  27.646  29.017  1.00  0.00     0.049 A 
ATOM     39  N   UNL A   1      41.468  29.175  31.236  1.00  0.00    -0.248 NA
ATOM     40  C   UNL A   1      39.628  30.608  31.303  1.00  0.00     0.031 C 
ATOM     41  C   UNL A   1      39.567  26.917  27.879  1.00  0.00     0.029 A 
ATOM     42  N   UNL A   1      41.333  27.021  29.245  1.00  0.00    -0.354 N 
ATOM     43  C   UNL A   1      41.707  30.188  32.156  1.00  0.00     0.074 A 
ATOM     44  C   UNL A   1      40.566  31.076  32.113  1.00  0.00     0.031 C 
ATOM     45  C   UNL A   1      40.417  25.944  27.513  1.00  0.00     0.029 A 
ATOM     46  C   UNL A   1      41.597  25.992  28.372  1.00  0.00     0.049 A 
ATOM     47  H   UNL A   1      41.949  27.286  29.967  1.00  0.00     0.167 HD
ATOM     48  C   UNL A   1      42.764  30.348  32.987  1.00  0.00     0.034 A 
ATOM     49  C   UNL A   1      42.665  25.177  28.276  1.00  0.00     0.034 A 
ATOM     50  C   UNL A   1      43.862  29.424  33.077  1.00  0.00     0.049 A 
ATOM     51  C   UNL A   1      43.791  25.330  29.264  1.00  0.00     0.074 A 
ATOM     52  C   UNL A   1      44.924  29.436  33.963  1.00  0.00     0.029 A 
ATOM     53  N   UNL A   1      44.039  28.325  32.253  1.00  0.00    -0.354 N 
ATOM     54  N   UNL A   1      43.915  26.189  30.246  1.00  0.00    -0.248 NA
ATOM     55  C   UNL A   1      44.906  24.378  29.155  1.00  0.00     0.031 C 
ATOM     56  C   UNL A   1      45.748  28.344  33.669  1.00  0.00     0.029 A 
ATOM     57  C   UNL A   1      45.194  27.649  32.607  1.00  0.00     0.049 A 
ATOM     58  H   UNL A   1      43.432  28.062  31.523  1.00  0.00     0.167 HD
ATOM     59  C   UNL A   1      45.100  25.861  30.893  1.00  0.00     0.074 A 
ATOM     60  C   UNL A   1      45.647  24.710  30.204  1.00  0.00     0.031 C 
ATOM     61  C   UNL A   1      45.692  26.466  31.952  1.00  0.00     0.034 A 
BRANCH  48  62
ATOM     62  C   UNL A   1      42.747  31.529  33.920  1.00  0.00     0.023 A 
ATOM     63  C   UNL A   1      43.268  32.763  33.482  1.00  0.00     0.012 A 
ATOM     64  C   UNL A   1      42.173  31.438  35.203  1.00  0.00     0.148 A 
ATOM     65  C   UNL A   1      43.250  33.879  34.315  1.00  0.00     0.002 A 
ATOM     66  C   UNL A   1      42.120  32.567  36.013  1.00  0.00     0.091 A 
ATOM     67  F   UNL A   1      41.703  30.251  35.612  1.00  0.00    -0.205 F 
ATOM     68  C   UNL A   1      42.668  33.784  35.576  1.00  0.00     0.022 A 
BRANCH  66  69
ATOM     69  S   UNL A   1      41.325  32.562  37.624  1.00  0.00     0.127 S 
ATOM     70  O   UNL A   1      41.370  33.979  37.980  1.00  0.00    -0.237 OA
ATOM     71  O   UNL A   1      39.988  32.057  37.308  1.00  0.00    -0.237 OA
ATOM     72  O   UNL A   1      42.124  31.678  38.460  1.00  0.00    -0.744 OA
ENDBRANCH  66  69
ENDBRANCH  48  62
BRANCH  49  73
ATOM     73  C   UNL A   1      42.679  24.083  27.264  1.00  0.00     0.023 A 
ATOM     74  C   UNL A   1      43.344  24.291  26.039  1.00  0.00     0.012 A 
ATOM     75  C   UNL A   1      42.072  22.837  27.511  1.00  0.00     0.148 A 
ATOM     76  C   UNL A   1      43.380  23.292  25.068  1.00  0.00     0.002 A 
ATOM     77  C   UNL A   1      42.155  21.826  26.558  1.00  0.00     0.091 A 
ATOM     78  F   UNL A   1      41.430  22.662  28.675  1.00  0.00    -0.205 F 
ATOM     79  C   UNL A   1      42.795  22.056  25.331  1.00  0.00     0.022 A 
BRANCH  77  80
ATOM     80  S   UNL A   1      41.541  20.166  26.868  1.00  0.00     0.127 S 
ATOM     81  O   UNL A   1      40.513  20.411  27.876  1.00  0.00    -0.237 OA
ATOM     82  O   UNL A   1      41.032  19.777  25.552  1.00  0.00    -0.237 OA
ATOM     83  O   UNL A   1      42.699  19.400  27.309  1.00  0.00    -0.744 OA
ENDBRANCH  77  80
ENDBRANCH  49  73
BRANCH  61  84
ATOM     84  C   UNL A   1      46.985  25.887  32.458  1.00  0.00     0.023 A 
ATOM     85  C   UNL A   1      48.208  26.370  31.952  1.00  0.00     0.012 A 
ATOM     86  C   UNL A   1      46.992  24.930  33.491  1.00  0.00     0.148 A 
ATOM     87  C   UNL A   1      49.418  25.891  32.450  1.00  0.00     0.002 A 
ATOM     88  C   UNL A   1      48.201  24.490  34.014  1.00  0.00     0.091 A 
ATOM     89  F   UNL A   1      45.817  24.468  33.944  1.00  0.00    -0.205 F 
ATOM     90  C   UNL A   1      49.416  24.961  33.489  1.00  0.00     0.022 A 
BRANCH  88  91
ATOM     91  S   UNL A   1      48.287  23.366  35.414  1.00  0.00     0.127 S 
ATOM     92  O   UNL A   1      49.565  23.737  36.017  1.00  0.00    -0.237 OA
ATOM     93  O   UNL A   1      47.110  23.748  36.195  1.00  0.00    -0.237 OA
ATOM     94  O   UNL A   1      48.223  22.025  34.850  1.00  0.00    -0.744 OA
ENDBRANCH  88  91
ENDBRANCH  61  84
ENDBRANCH  35  36
ENDBRANCH  27  30
ENDBRANCH  25  26
ENDBRANCH  24  25
ENDBRANCH   1  24
TORSDOF 18
ENDMDL
MODEL 3
REMARK VINA RESULT:     -11.1      5.273      8.967
REMARK SMILES C=CCc1cccc(-c2ccc([C@@H](C)C(=O)NCCCCNC(=O)c3ccc(-c4c5nc(c(-c6cccc(S(=O)(=O)[O-])c6F)c6ccc([nH]6)c(-c6cccc(S(=O)(=O)[O-])c6F)c6nc(c(-c7cccc(S(=O)(=O)[O-])c7F)c7ccc4[nH]7)C=C6)C=C5)cc3)cc2)c1
REMARK SMILES IDX 19 1 18 2 17 3 15 4 16 5 13 7 14 8 12 9 9 10 10 11 89 12
REMARK SMILES IDX 11 13 88 14 8 15 4 16 5 17 90 18 6 19 7 20 3 21 2 22 1 23
REMARK SMILES IDX 20 24 21 25 22 26 23 27 24 29 25 30 26 31 87 32 27 33 86 34
REMARK SMILES IDX 28 35 29 36 30 37 80 38 31 39 85 40 79 41 81 42 32 43 84 44
REMARK SMILES IDX 78 45 77 46 33 48 65 49 45 50 64 51 46 52 49 53 63 54 82 55
REMARK SMILES IDX 47 56 48 57 62 59 83 60 50 61 34 62 35 63 43 64 36 65 38 66
REMARK SMILES IDX 44 67 37 68 39 69 40 70 41 71 42 72 66 73 67 74 75 75 68 76
REMARK SMILES IDX 70 77 76 78 69 79 71 80 72 81 73 82 74 83 51 84 52 85 60 86
REMARK SMILES IDX 53 87 55 88 61 89 54 90 56 91 57 92 58 93 59 94
REMARK H PARENT 17 6 22 28 81 47 49 58
REMARK Flexibility Score: inf
ROOT
ATOM      1  C   UNL A   1      32.046  29.597  27.147  1.00  0.00     0.023 C 
ENDROOT
BRANCH   1   2
ATOM      2  C   UNL A   1      32.408  28.518  26.127  1.00  0.00     0.116 C 
BRANCH   2   3
ATOM      3  N   UNL A   1      33.073  29.063  24.961  1.00  0.00    -0.356 N 
ATOM      4  C   UNL A   1      32.951  28.774  23.637  1.00  0.00     0.227 C 
ATOM      5  O   UNL A   1      33.703  29.378  22.862  1.00  0.00    -0.274 OA
ATOM      6  H   UNL A   1      33.731  29.768  25.163  1.00  0.00     0.163 HD
BRANCH   4   7
ATOM      7  C   UNL A   1      31.931  27.770  23.075  1.00  0.00     0.105 C 
ATOM      8  C   UNL A   1      30.477  28.124  23.385  1.00  0.00     0.023 C 
BRANCH   7   9
ATOM      9  C   UNL A   1      32.333  26.318  23.282  1.00  0.00    -0.036 A 
ATOM     10  C   UNL A   1      33.261  23.667  23.845  1.00  0.00    -0.018 A 
ATOM     11  C   UNL A   1      31.947  24.071  24.136  1.00  0.00     0.009 A 
ATOM     12  C   UNL A   1      34.082  24.615  23.213  1.00  0.00     0.009 A 
ATOM     13  C   UNL A   1      31.481  25.358  23.831  1.00  0.00     0.005 A 
ATOM     14  C   UNL A   1      33.637  25.919  22.959  1.00  0.00     0.005 A 
BRANCH  10  15
ATOM     15  C   UNL A   1      33.759  22.316  24.213  1.00  0.00    -0.018 A 
ATOM     16  C   UNL A   1      33.434  19.869  24.336  1.00  0.00    -0.044 A 
ATOM     17  C   UNL A   1      34.725  19.736  24.863  1.00  0.00     0.004 A 
ATOM     18  C   UNL A   1      32.971  21.161  24.021  1.00  0.00     0.012 A 
ATOM     19  C   UNL A   1      35.528  20.856  25.063  1.00  0.00     0.001 A 
ATOM     20  C   UNL A   1      35.045  22.128  24.749  1.00  0.00     0.009 A 
BRANCH  16  21
ATOM     21  C   UNL A   1      32.566  18.632  24.212  1.00  0.00     0.062 C 
BRANCH  21  22
ATOM     22  C   UNL A   1      32.906  17.698  23.085  1.00  0.00    -0.030 C 
ATOM     23  C   UNL A   1      33.879  16.778  23.128  1.00  0.00     0.004 C 
ENDBRANCH  21  22
ENDBRANCH  16  21
ENDBRANCH  10  15
ENDBRANCH   7   9
ENDBRANCH   4   7
ENDBRANCH   2   3
ENDBRANCH   1   2
BRANCH   1  24
ATOM     24  C   UNL A   1      32.126  31.033  26.629  1.00  0.00     0.023 C 
BRANCH  24  25
ATOM     25  C   UNL A   1      33.114  31.939  27.356  1.00  0.00     0.116 C 
BRANCH  25  26
ATOM     26  N   UNL A   1      32.645  33.306  27.540  1.00  0.00    -0.352 N 
ATOM     27  C   UNL A   1      33.122  34.258  28.415  1.00  0.00     0.251 C 
ATOM     28  H   UNL A   1      31.893  33.585  26.968  1.00  0.00     0.163 HD
ATOM     29  O   UNL A   1      32.578  35.349  28.506  1.00  0.00    -0.269 OA
BRANCH  27  30
ATOM     30  C   UNL A   1      34.277  33.919  29.278  1.00  0.00     0.039 A 
ATOM     31  C   UNL A   1      34.062  33.144  30.421  1.00  0.00     0.014 A 
ATOM     32  C   UNL A   1      35.569  34.305  28.918  1.00  0.00     0.014 A 
ATOM     33  C   UNL A   1      35.156  32.686  31.158  1.00  0.00     0.010 A 
ATOM     34  C   UNL A   1      36.658  33.787  29.608  1.00  0.00     0.010 A 
ATOM     35  C   UNL A   1      36.465  32.968  30.732  1.00  0.00    -0.014 A 
BRANCH  35  36
ATOM     36  C   UNL A   1      37.648  32.402  31.428  1.00  0.00     0.031 A 
ATOM     37  C   UNL A   1      38.417  31.268  30.806  1.00  0.00     0.074 A 
ATOM     38  C   UNL A   1      37.959  32.828  32.668  1.00  0.00     0.049 A 
ATOM     39  N   UNL A   1      39.422  30.589  31.293  1.00  0.00    -0.248 NA
ATOM     40  C   UNL A   1      37.976  30.814  29.475  1.00  0.00     0.031 C 
ATOM     41  C   UNL A   1      37.231  33.854  33.419  1.00  0.00     0.029 A 
ATOM     42  N   UNL A   1      38.951  32.431  33.530  1.00  0.00    -0.354 N 
ATOM     43  C   UNL A   1      39.705  29.604  30.355  1.00  0.00     0.074 A 
ATOM     44  C   UNL A   1      38.745  29.753  29.283  1.00  0.00     0.031 C 
ATOM     45  C   UNL A   1      37.803  34.008  34.625  1.00  0.00     0.029 A 
ATOM     46  C   UNL A   1      38.922  33.078  34.744  1.00  0.00     0.049 A 
ATOM     47  H   UNL A   1      39.620  31.745  33.301  1.00  0.00     0.167 HD
ATOM     48  C   UNL A   1      40.694  28.680  30.367  1.00  0.00     0.034 A 
ATOM     49  C   UNL A   1      39.710  32.939  35.828  1.00  0.00     0.034 A 
ATOM     50  C   UNL A   1      41.689  28.582  31.400  1.00  0.00     0.049 A 
ATOM     51  C   UNL A   1      40.850  31.958  35.782  1.00  0.00     0.074 A 
ATOM     52  C   UNL A   1      42.798  27.756  31.449  1.00  0.00     0.029 A 
ATOM     53  N   UNL A   1      41.697  29.334  32.563  1.00  0.00    -0.354 N 
ATOM     54  N   UNL A   1      41.209  31.156  34.809  1.00  0.00    -0.248 NA
ATOM     55  C   UNL A   1      41.717  31.888  36.968  1.00  0.00     0.031 C 
ATOM     56  C   UNL A   1      43.473  28.005  32.649  1.00  0.00     0.029 A 
ATOM     57  C   UNL A   1      42.790  28.992  33.340  1.00  0.00     0.049 A 
ATOM     58  H   UNL A   1      41.025  30.012  32.802  1.00  0.00     0.167 HD
ATOM     59  C   UNL A   1      42.361  30.515  35.248  1.00  0.00     0.074 A 
ATOM     60  C   UNL A   1      42.652  31.036  36.568  1.00  0.00     0.031 C 
ATOM     61  C   UNL A   1      43.102  29.567  34.624  1.00  0.00     0.034 A 
BRANCH  48  62
ATOM     62  C   UNL A   1      40.795  27.749  29.188  1.00  0.00     0.023 A 
ATOM     63  C   UNL A   1      39.979  26.599  29.145  1.00  0.00     0.012 A 
ATOM     64  C   UNL A   1      41.649  28.032  28.105  1.00  0.00     0.148 A 
ATOM     65  C   UNL A   1      40.036  25.728  28.060  1.00  0.00     0.002 A 
ATOM     66  C   UNL A   1      41.669  27.179  27.006  1.00  0.00     0.091 A 
ATOM     67  F   UNL A   1      42.435  29.116  28.173  1.00  0.00    -0.205 F 
ATOM     68  C   UNL A   1      40.873  26.023  26.986  1.00  0.00     0.022 A 
BRANCH  66  69
ATOM     69  S   UNL A   1      42.659  27.512  25.544  1.00  0.00     0.127 S 
ATOM     70  O   UNL A   1      44.008  27.559  26.105  1.00  0.00    -0.237 OA
ATOM     71  O   UNL A   1      42.387  26.339  24.712  1.00  0.00    -0.237 OA
ATOM     72  O   UNL A   1      42.159  28.768  25.002  1.00  0.00    -0.744 OA
ENDBRANCH  66  69
ENDBRANCH  48  62
BRANCH  49  73
ATOM     73  C   UNL A   1      39.505  33.819  37.015  1.00  0.00     0.023 A 
ATOM     74  C   UNL A   1      39.913  35.166  36.947  1.00  0.00     0.012 A 
ATOM     75  C   UNL A   1      38.888  33.347  38.188  1.00  0.00     0.148 A 
ATOM     76  C   UNL A   1      39.738  36.019  38.035  1.00  0.00     0.002 A 
ATOM     77  C   UNL A   1      38.669  34.217  39.252  1.00  0.00     0.091 A 
ATOM     78  F   UNL A   1      38.520  32.059  38.241  1.00  0.00    -0.205 F 
ATOM     79  C   UNL A   1      39.107  35.549  39.184  1.00  0.00     0.022 A 
BRANCH  77  80
ATOM     80  S   UNL A   1      37.750  33.727  40.717  1.00  0.00     0.127 S 
ATOM     81  O   UNL A   1      36.542  33.153  40.132  1.00  0.00    -0.237 OA
ATOM     82  O   UNL A   1      38.655  32.758  41.337  1.00  0.00    -0.237 OA
ATOM     83  O   UNL A   1      37.568  34.950  41.487  1.00  0.00    -0.744 OA
ENDBRANCH  77  80
ENDBRANCH  49  73
BRANCH  61  84
ATOM     84  C   UNL A   1      44.319  29.045  35.339  1.00  0.00     0.023 A 
ATOM     85  C   UNL A   1      45.576  29.631  35.090  1.00  0.00     0.012 A 
ATOM     86  C   UNL A   1      44.206  28.037  36.316  1.00  0.00     0.148 A 
ATOM     87  C   UNL A   1      46.705  29.204  35.785  1.00  0.00     0.002 A 
ATOM     88  C   UNL A   1      45.327  27.647  37.037  1.00  0.00     0.091 A 
ATOM     89  F   UNL A   1      43.005  27.477  36.522  1.00  0.00    -0.205 F 
ATOM     90  C   UNL A   1      46.581  28.222  36.766  1.00  0.00     0.022 A 
BRANCH  88  91
ATOM     91  S   UNL A   1      45.237  26.458  38.381  1.00  0.00     0.127 S 
ATOM     92  O   UNL A   1      45.491  25.199  37.684  1.00  0.00    -0.237 OA
ATOM     93  O   UNL A   1      46.320  26.898  39.262  1.00  0.00    -0.237 OA
ATOM     94  O   UNL A   1      43.904  26.605  38.950  1.00  0.00    -0.744 OA
ENDBRANCH  88  91
ENDBRANCH  61  84
ENDBRANCH  35  36
ENDBRANCH  27  30
ENDBRANCH  25  26
ENDBRANCH  24  25
ENDBRANCH   1  24
TORSDOF 18
ENDMDL
