MODEL 1
REMARK VINA RESULT:     -12.3      0.000      0.000
REMARK SMILES Cc1ccccc1CCNc1ccc(C(=O)NCCCCNC(=O)c2ccc(-c3c4nc(c(-c5cccc(S(=O)(=O)[O-])c5F)c5ccc([nH]5)c(-c5cccc(S(=O)(=O)[O-])c5F)c5nc(c(-c6cccc(S(=O)(=O)[O-])c6F)c6ccc3[nH]6)C=C5)C=C4)cc2)cc1N
REMARK SMILES IDX 19 1 18 2 17 3 15 4 16 5 14 7 11 8 12 9 89 10 13 11 88 12
REMARK SMILES IDX 10 13 9 15 8 16 7 17 1 18 2 19 3 20 4 21 6 22 5 23 90 24
REMARK SMILES IDX 20 27 21 28 22 29 23 30 24 32 25 33 26 34 87 35 27 36 86 37
REMARK SMILES IDX 28 38 29 39 30 40 80 41 31 42 85 43 79 44 81 45 32 46 84 47
REMARK SMILES IDX 78 48 77 49 33 51 65 52 45 53 64 54 46 55 49 56 63 57 82 58
REMARK SMILES IDX 47 59 48 60 62 62 83 63 50 64 34 65 35 66 43 67 36 68 38 69
REMARK SMILES IDX 44 70 37 71 39 72 40 73 41 74 42 75 66 76 67 77 75 78 68 79
REMARK SMILES IDX 70 80 76 81 69 82 71 83 72 84 73 85 74 86 51 87 52 88 60 89
REMARK SMILES IDX 53 90 55 91 61 92 54 93 56 94 57 95 58 96 59 97
REMARK H PARENT 17 6 10 14 90 25 90 26 22 31 81 50 49 61
REMARK Flexibility Score: inf
ROOT
ATOM      1  C   UNL A   1      32.919  28.905  25.518  1.00  0.00     0.023 C 
ENDROOT
BRANCH   1   2
ATOM      2  C   UNL A   1      33.259  28.825  24.030  1.00  0.00     0.116 C 
BRANCH   2   3
ATOM      3  N   UNL A   1      32.096  28.950  23.159  1.00  0.00    -0.352 N 
ATOM      4  C   UNL A   1      31.043  28.115  22.877  1.00  0.00     0.251 C 
ATOM      5  O   UNL A   1      30.258  28.437  21.984  1.00  0.00    -0.269 OA
ATOM      6  H   UNL A   1      32.058  29.808  22.676  1.00  0.00     0.163 HD
BRANCH   4   7
ATOM      7  C   UNL A   1      30.831  26.820  23.574  1.00  0.00     0.041 A 
ATOM      8  C   UNL A   1      30.599  24.319  24.865  1.00  0.00     0.057 A 
ATOM      9  C   UNL A   1      30.175  25.494  25.485  1.00  0.00     0.029 A 
ATOM     10  C   UNL A   1      30.996  24.393  23.508  1.00  0.00     0.056 A 
ATOM     11  C   UNL A   1      30.231  26.721  24.824  1.00  0.00     0.016 A 
ATOM     12  C   UNL A   1      31.184  25.642  22.904  1.00  0.00     0.041 A 
BRANCH   8  13
ATOM     13  N   UNL A   1      30.555  23.089  25.501  1.00  0.00    -0.383 N 
ATOM     14  H   UNL A   1      29.667  22.723  25.716  1.00  0.00     0.160 HD
BRANCH  13  15
ATOM     15  C   UNL A   1      31.715  22.295  25.876  1.00  0.00     0.117 C 
BRANCH  15  16
ATOM     16  C   UNL A   1      32.669  23.124  26.748  1.00  0.00     0.057 C 
BRANCH  16  17
ATOM     17  C   UNL A   1      34.095  23.062  26.236  1.00  0.00    -0.043 A 
ATOM     18  C   UNL A   1      34.132  25.501  25.413  1.00  0.00     0.044 C 
ATOM     19  C   UNL A   1      34.728  24.127  25.568  1.00  0.00    -0.048 A 
ATOM     20  C   UNL A   1      36.021  23.930  25.048  1.00  0.00     0.004 A 
ATOM     21  C   UNL A   1      36.670  22.702  25.166  1.00  0.00     0.000 A 
ATOM     22  C   UNL A   1      34.784  21.842  26.379  1.00  0.00     0.004 A 
ATOM     23  C   UNL A   1      36.053  21.656  25.838  1.00  0.00     0.000 A 
ENDBRANCH  16  17
ENDBRANCH  15  16
ENDBRANCH  13  15
ENDBRANCH   8  13
BRANCH  10  24
ATOM     24  N   UNL A   1      31.319  23.226  22.796  1.00  0.00    -0.397 N 
ATOM     25  H   UNL A   1      31.546  23.280  21.840  1.00  0.00     0.156 HD
ATOM     26  H   UNL A   1      31.320  22.354  23.254  1.00  0.00     0.156 HD
ENDBRANCH  10  24
ENDBRANCH   4   7
ENDBRANCH   2   3
ENDBRANCH   1   2
BRANCH   1  27
ATOM     27  C   UNL A   1      32.938  30.305  26.121  1.00  0.00     0.023 C 
BRANCH  27  28
ATOM     28  C   UNL A   1      33.366  30.362  27.580  1.00  0.00     0.116 C 
BRANCH  28  29
ATOM     29  N   UNL A   1      34.157  31.530  27.938  1.00  0.00    -0.352 N 
ATOM     30  C   UNL A   1      35.398  31.599  28.549  1.00  0.00     0.251 C 
ATOM     31  H   UNL A   1      33.750  32.398  27.712  1.00  0.00     0.163 HD
ATOM     32  O   UNL A   1      35.786  32.687  28.970  1.00  0.00    -0.269 OA
BRANCH  30  33
ATOM     33  C   UNL A   1      36.297  30.415  28.559  1.00  0.00     0.039 A 
ATOM     34  C   UNL A   1      36.506  29.757  29.779  1.00  0.00     0.014 A 
ATOM     35  C   UNL A   1      37.112  30.122  27.472  1.00  0.00     0.014 A 
ATOM     36  C   UNL A   1      37.684  29.043  29.992  1.00  0.00     0.010 A 
ATOM     37  C   UNL A   1      38.327  29.519  27.705  1.00  0.00     0.010 A 
ATOM     38  C   UNL A   1      38.638  29.044  28.984  1.00  0.00    -0.014 A 
BRANCH  38  39
ATOM     39  C   UNL A   1      40.020  28.620  29.128  1.00  0.00     0.031 A 
ATOM     40  C   UNL A   1      40.361  27.197  28.938  1.00  0.00     0.074 A 
ATOM     41  C   UNL A   1      40.975  29.579  29.102  1.00  0.00     0.049 A 
ATOM     42  N   UNL A   1      41.544  26.714  29.086  1.00  0.00    -0.248 NA
ATOM     43  C   UNL A   1      39.362  26.185  28.602  1.00  0.00     0.031 C 
ATOM     44  C   UNL A   1      42.361  29.430  28.674  1.00  0.00     0.029 A 
ATOM     45  N   UNL A   1      40.929  30.853  29.681  1.00  0.00    -0.354 N 
ATOM     46  C   UNL A   1      41.530  25.442  28.560  1.00  0.00     0.074 A 
ATOM     47  C   UNL A   1      40.137  25.113  28.414  1.00  0.00     0.031 C 
ATOM     48  C   UNL A   1      43.090  30.406  29.236  1.00  0.00     0.029 A 
ATOM     49  C   UNL A   1      42.223  31.088  30.180  1.00  0.00     0.049 A 
ATOM     50  H   UNL A   1      40.154  31.458  29.729  1.00  0.00     0.167 HD
ATOM     51  C   UNL A   1      42.712  24.892  28.169  1.00  0.00     0.034 A 
ATOM     52  C   UNL A   1      42.501  31.265  31.505  1.00  0.00     0.034 A 
ATOM     53  C   UNL A   1      43.841  25.663  28.710  1.00  0.00     0.049 A 
ATOM     54  C   UNL A   1      43.476  30.239  32.058  1.00  0.00     0.074 A 
ATOM     55  C   UNL A   1      44.739  26.561  28.161  1.00  0.00     0.029 A 
ATOM     56  N   UNL A   1      43.988  25.755  30.091  1.00  0.00    -0.354 N 
ATOM     57  N   UNL A   1      43.890  29.189  31.401  1.00  0.00    -0.248 NA
ATOM     58  C   UNL A   1      44.054  30.305  33.397  1.00  0.00     0.031 C 
ATOM     59  C   UNL A   1      45.331  27.290  29.232  1.00  0.00     0.029 A 
ATOM     60  C   UNL A   1      44.831  26.800  30.429  1.00  0.00     0.049 A 
ATOM     61  H   UNL A   1      43.551  25.159  30.741  1.00  0.00     0.167 HD
ATOM     62  C   UNL A   1      44.655  28.393  32.213  1.00  0.00     0.074 A 
ATOM     63  C   UNL A   1      44.791  29.179  33.429  1.00  0.00     0.031 C 
ATOM     64  C   UNL A   1      45.056  27.138  31.834  1.00  0.00     0.034 A 
BRANCH  51  65
ATOM     65  C   UNL A   1      42.886  23.774  27.150  1.00  0.00     0.023 A 
ATOM     66  C   UNL A   1      43.558  24.102  25.950  1.00  0.00     0.012 A 
ATOM     67  C   UNL A   1      42.344  22.465  27.212  1.00  0.00     0.148 A 
ATOM     68  C   UNL A   1      43.667  23.208  24.877  1.00  0.00     0.002 A 
ATOM     69  C   UNL A   1      42.503  21.551  26.164  1.00  0.00     0.091 A 
ATOM     70  F   UNL A   1      41.583  22.096  28.243  1.00  0.00    -0.205 F 
ATOM     71  C   UNL A   1      43.149  21.926  24.987  1.00  0.00     0.022 A 
BRANCH  69  72
ATOM     72  S   UNL A   1      41.891  19.856  26.260  1.00  0.00     0.127 S 
ATOM     73  O   UNL A   1      40.446  20.043  26.135  1.00  0.00    -0.237 OA
ATOM     74  O   UNL A   1      42.525  19.226  25.101  1.00  0.00    -0.237 OA
ATOM     75  O   UNL A   1      42.338  19.331  27.545  1.00  0.00    -0.744 OA
ENDBRANCH  69  72
ENDBRANCH  51  65
BRANCH  52  76
ATOM     76  C   UNL A   1      41.418  31.956  32.259  1.00  0.00     0.023 A 
ATOM     77  C   UNL A   1      41.092  33.265  31.827  1.00  0.00     0.012 A 
ATOM     78  C   UNL A   1      40.488  31.249  33.043  1.00  0.00     0.148 A 
ATOM     79  C   UNL A   1      39.829  33.808  32.063  1.00  0.00     0.002 A 
ATOM     80  C   UNL A   1      39.224  31.796  33.268  1.00  0.00     0.091 A 
ATOM     81  F   UNL A   1      40.812  30.018  33.456  1.00  0.00    -0.205 F 
ATOM     82  C   UNL A   1      38.885  33.059  32.754  1.00  0.00     0.022 A 
BRANCH  80  83
ATOM     83  S   UNL A   1      37.902  30.885  34.081  1.00  0.00     0.127 S 
ATOM     84  O   UNL A   1      37.661  29.806  33.127  1.00  0.00    -0.237 OA
ATOM     85  O   UNL A   1      38.544  30.472  35.329  1.00  0.00    -0.237 OA
ATOM     86  O   UNL A   1      36.822  31.845  34.250  1.00  0.00    -0.744 OA
ENDBRANCH  80  83
ENDBRANCH  52  76
BRANCH  64  87
ATOM     87  C   UNL A   1      45.676  26.093  32.754  1.00  0.00     0.023 A 
ATOM     88  C   UNL A   1      47.068  25.957  32.914  1.00  0.00     0.012 A 
ATOM     89  C   UNL A   1      44.864  25.307  33.615  1.00  0.00     0.148 A 
ATOM     90  C   UNL A   1      47.629  25.053  33.827  1.00  0.00     0.002 A 
ATOM     91  C   UNL A   1      45.426  24.495  34.599  1.00  0.00     0.091 A 
ATOM     92  F   UNL A   1      43.530  25.325  33.480  1.00  0.00    -0.205 F 
ATOM     93  C   UNL A   1      46.810  24.339  34.687  1.00  0.00     0.022 A 
BRANCH  91  94
ATOM     94  S   UNL A   1      44.398  23.764  35.883  1.00  0.00     0.127 S 
ATOM     95  O   UNL A   1      43.859  24.945  36.555  1.00  0.00    -0.237 OA
ATOM     96  O   UNL A   1      43.414  23.004  35.109  1.00  0.00    -0.237 OA
ATOM     97  O   UNL A   1      45.310  22.935  36.658  1.00  0.00    -0.744 OA
ENDBRANCH  91  94
ENDBRANCH  64  87
ENDBRANCH  38  39
ENDBRANCH  30  33
ENDBRANCH  28  29
ENDBRANCH  27  28
ENDBRANCH   1  27
TORSDOF 19
ENDMDL
MODEL 2
REMARK VINA RESULT:     -11.7      1.374      2.039
REMARK SMILES Cc1ccccc1CCNc1ccc(C(=O)NCCCCNC(=O)c2ccc(-c3c4nc(c(-c5cccc(S(=O)(=O)[O-])c5F)c5ccc([nH]5)c(-c5cccc(S(=O)(=O)[O-])c5F)c5nc(c(-c6cccc(S(=O)(=O)[O-])c6F)c6ccc3[nH]6)C=C5)C=C4)cc2)cc1N
REMARK SMILES IDX 19 1 18 2 17 3 15 4 16 5 14 7 11 8 12 9 89 10 13 11 88 12
REMARK SMILES IDX 10 13 9 15 8 16 7 17 1 18 2 19 3 20 4 21 6 22 5 23 90 24
REMARK SMILES IDX 20 27 21 28 22 29 23 30 24 32 25 33 26 34 87 35 27 36 86 37
REMARK SMILES IDX 28 38 29 39 30 40 80 41 31 42 85 43 79 44 81 45 32 46 84 47
REMARK SMILES IDX 78 48 77 49 33 51 65 52 45 53 64 54 46 55 49 56 63 57 82 58
REMARK SMILES IDX 47 59 48 60 62 62 83 63 50 64 34 65 35 66 43 67 36 68 38 69
REMARK SMILES IDX 44 70 37 71 39 72 40 73 41 74 42 75 66 76 67 77 75 78 68 79
REMARK SMILES IDX 70 80 76 81 69 82 71 83 72 84 73 85 74 86 51 87 52 88 60 89
REMARK SMILES IDX 53 90 55 91 61 92 54 93 56 94 57 95 58 96 59 97
REMARK H PARENT 17 6 10 14 90 25 90 26 22 31 81 50 49 61
REMARK Flexibility Score: inf
ROOT
ATOM      1  C   UNL A   1      33.082  29.300  27.211  1.00  0.00     0.023 C 
ENDROOT
BRANCH   1   2
ATOM      2  C   UNL A   1      31.838  28.409  27.210  1.00  0.00     0.116 C 
BRANCH   2   3
ATOM      3  N   UNL A   1      31.348  28.096  25.873  1.00  0.00    -0.352 N 
ATOM      4  C   UNL A   1      31.279  26.930  25.150  1.00  0.00     0.251 C 
ATOM      5  O   UNL A   1      30.928  26.989  23.970  1.00  0.00    -0.269 OA
ATOM      6  H   UNL A   1      30.994  28.879  25.391  1.00  0.00     0.163 HD
BRANCH   4   7
ATOM      7  C   UNL A   1      31.647  25.607  25.715  1.00  0.00     0.041 A 
ATOM      8  C   UNL A   1      32.260  23.015  26.655  1.00  0.00     0.057 A 
ATOM      9  C   UNL A   1      33.255  23.981  26.499  1.00  0.00     0.029 A 
ATOM     10  C   UNL A   1      30.914  23.419  26.487  1.00  0.00     0.056 A 
ATOM     11  C   UNL A   1      32.943  25.280  26.095  1.00  0.00     0.016 A 
ATOM     12  C   UNL A   1      30.626  24.678  25.946  1.00  0.00     0.041 A 
BRANCH   8  13
ATOM     13  N   UNL A   1      32.543  21.719  27.054  1.00  0.00    -0.383 N 
ATOM     14  H   UNL A   1      31.825  21.216  27.499  1.00  0.00     0.160 HD
BRANCH  13  15
ATOM     15  C   UNL A   1      33.818  21.042  26.866  1.00  0.00     0.117 C 
BRANCH  15  16
ATOM     16  C   UNL A   1      34.307  21.218  25.421  1.00  0.00     0.057 C 
BRANCH  16  17
ATOM     17  C   UNL A   1      33.732  20.158  24.501  1.00  0.00    -0.043 A 
ATOM     18  C   UNL A   1      32.150  21.777  23.275  1.00  0.00     0.044 C 
ATOM     19  C   UNL A   1      32.701  20.408  23.575  1.00  0.00    -0.048 A 
ATOM     20  C   UNL A   1      32.174  19.331  22.839  1.00  0.00     0.004 A 
ATOM     21  C   UNL A   1      32.638  18.030  23.024  1.00  0.00     0.000 A 
ATOM     22  C   UNL A   1      34.213  18.842  24.645  1.00  0.00     0.004 A 
ATOM     23  C   UNL A   1      33.664  17.784  23.926  1.00  0.00     0.000 A 
ENDBRANCH  16  17
ENDBRANCH  15  16
ENDBRANCH  13  15
ENDBRANCH   8  13
BRANCH  10  24
ATOM     24  N   UNL A   1      29.864  22.523  26.748  1.00  0.00    -0.397 N 
ATOM     25  H   UNL A   1      29.620  22.308  27.677  1.00  0.00     0.156 HD
ATOM     26  H   UNL A   1      29.373  22.110  26.002  1.00  0.00     0.156 HD
ENDBRANCH  10  24
ENDBRANCH   4   7
ENDBRANCH   2   3
ENDBRANCH   1   2
BRANCH   1  27
ATOM     27  C   UNL A   1      32.819  30.792  27.375  1.00  0.00     0.023 C 
BRANCH  27  28
ATOM     28  C   UNL A   1      34.065  31.665  27.316  1.00  0.00     0.116 C 
BRANCH  28  29
ATOM     29  N   UNL A   1      34.465  32.242  28.591  1.00  0.00    -0.352 N 
ATOM     30  C   UNL A   1      35.287  31.717  29.575  1.00  0.00     0.251 C 
ATOM     31  H   UNL A   1      34.098  33.135  28.781  1.00  0.00     0.163 HD
ATOM     32  O   UNL A   1      35.311  32.267  30.675  1.00  0.00    -0.269 OA
BRANCH  30  33
ATOM     33  C   UNL A   1      36.226  30.610  29.257  1.00  0.00     0.039 A 
ATOM     34  C   UNL A   1      36.402  29.600  30.214  1.00  0.00     0.014 A 
ATOM     35  C   UNL A   1      37.101  30.695  28.180  1.00  0.00     0.014 A 
ATOM     36  C   UNL A   1      37.594  28.879  30.253  1.00  0.00     0.010 A 
ATOM     37  C   UNL A   1      38.323  30.072  28.275  1.00  0.00     0.010 A 
ATOM     38  C   UNL A   1      38.593  29.219  29.352  1.00  0.00    -0.014 A 
BRANCH  38  39
ATOM     39  C   UNL A   1      39.980  28.798  29.429  1.00  0.00     0.031 A 
ATOM     40  C   UNL A   1      40.317  27.380  29.198  1.00  0.00     0.074 A 
ATOM     41  C   UNL A   1      40.931  29.760  29.380  1.00  0.00     0.049 A 
ATOM     42  N   UNL A   1      41.507  26.899  29.287  1.00  0.00    -0.248 NA
ATOM     43  C   UNL A   1      39.308  26.370  28.887  1.00  0.00     0.031 C 
ATOM     44  C   UNL A   1      42.298  29.625  28.891  1.00  0.00     0.029 A 
ATOM     45  N   UNL A   1      40.906  31.024  29.984  1.00  0.00    -0.354 N 
ATOM     46  C   UNL A   1      41.474  25.636  28.739  1.00  0.00     0.074 A 
ATOM     47  C   UNL A   1      40.077  25.305  28.646  1.00  0.00     0.031 C 
ATOM     48  C   UNL A   1      43.047  30.593  29.439  1.00  0.00     0.029 A 
ATOM     49  C   UNL A   1      42.219  31.254  30.432  1.00  0.00     0.049 A 
ATOM     50  H   UNL A   1      40.132  31.625  30.076  1.00  0.00     0.167 HD
ATOM     51  C   UNL A   1      42.640  25.098  28.289  1.00  0.00     0.034 A 
ATOM     52  C   UNL A   1      42.553  31.408  31.747  1.00  0.00     0.034 A 
ATOM     53  C   UNL A   1      43.789  25.863  28.795  1.00  0.00     0.049 A 
ATOM     54  C   UNL A   1      43.553  30.376  32.239  1.00  0.00     0.074 A 
ATOM     55  C   UNL A   1      44.660  26.774  28.225  1.00  0.00     0.029 A 
ATOM     56  N   UNL A   1      43.994  25.931  30.171  1.00  0.00    -0.354 N 
ATOM     57  N   UNL A   1      43.942  29.340  31.546  1.00  0.00    -0.248 NA
ATOM     58  C   UNL A   1      44.187  30.420  33.554  1.00  0.00     0.031 C 
ATOM     59  C   UNL A   1      45.295  27.485  29.284  1.00  0.00     0.029 A 
ATOM     60  C   UNL A   1      44.848  26.972  30.491  1.00  0.00     0.049 A 
ATOM     61  H   UNL A   1      43.586  25.321  30.827  1.00  0.00     0.167 HD
ATOM     62  C   UNL A   1      44.743  28.532  32.311  1.00  0.00     0.074 A 
ATOM     63  C   UNL A   1      44.928  29.296  33.534  1.00  0.00     0.031 C 
ATOM     64  C   UNL A   1      45.132  27.286  31.892  1.00  0.00     0.034 A 
BRANCH  51  65
ATOM     65  C   UNL A   1      42.774  24.000  27.243  1.00  0.00     0.023 A 
ATOM     66  C   UNL A   1      43.381  24.355  26.016  1.00  0.00     0.012 A 
ATOM     67  C   UNL A   1      42.249  22.683  27.309  1.00  0.00     0.148 A 
ATOM     68  C   UNL A   1      43.444  23.480  24.924  1.00  0.00     0.002 A 
ATOM     69  C   UNL A   1      42.365  21.789  26.239  1.00  0.00     0.091 A 
ATOM     70  F   UNL A   1      41.545  22.289  28.370  1.00  0.00    -0.205 F 
ATOM     71  C   UNL A   1      42.947  22.191  25.037  1.00  0.00     0.022 A 
BRANCH  69  72
ATOM     72  S   UNL A   1      41.775  20.086  26.335  1.00  0.00     0.127 S 
ATOM     73  O   UNL A   1      40.327  20.255  26.220  1.00  0.00    -0.237 OA
ATOM     74  O   UNL A   1      42.411  19.467  25.172  1.00  0.00    -0.237 OA
ATOM     75  O   UNL A   1      42.238  19.565  27.617  1.00  0.00    -0.744 OA
ENDBRANCH  69  72
ENDBRANCH  51  65
BRANCH  52  76
ATOM     76  C   UNL A   1      41.501  32.081  32.559  1.00  0.00     0.023 A 
ATOM     77  C   UNL A   1      41.240  33.437  32.244  1.00  0.00     0.012 A 
ATOM     78  C   UNL A   1      40.534  31.353  33.277  1.00  0.00     0.148 A 
ATOM     79  C   UNL A   1      40.004  34.018  32.527  1.00  0.00     0.002 A 
ATOM     80  C   UNL A   1      39.297  31.939  33.549  1.00  0.00     0.091 A 
ATOM     81  F   UNL A   1      40.796  30.076  33.579  1.00  0.00    -0.205 F 
ATOM     82  C   UNL A   1      39.022  33.257  33.149  1.00  0.00     0.022 A 
BRANCH  80  83
ATOM     83  S   UNL A   1      37.929  31.025  34.278  1.00  0.00     0.127 S 
ATOM     84  O   UNL A   1      37.444  31.972  35.279  1.00  0.00    -0.237 OA
ATOM     85  O   UNL A   1      37.045  30.838  33.129  1.00  0.00    -0.237 OA
ATOM     86  O   UNL A   1      38.518  29.798  34.791  1.00  0.00    -0.744 OA
ENDBRANCH  80  83
ENDBRANCH  52  76
BRANCH  64  87
ATOM     87  C   UNL A   1      45.792  26.226  32.765  1.00  0.00     0.023 A 
ATOM     88  C   UNL A   1      47.187  26.158  32.946  1.00  0.00     0.012 A 
ATOM     89  C   UNL A   1      45.011  25.349  33.564  1.00  0.00     0.148 A 
ATOM     90  C   UNL A   1      47.782  25.236  33.819  1.00  0.00     0.002 A 
ATOM     91  C   UNL A   1      45.601  24.516  34.514  1.00  0.00     0.091 A 
ATOM     92  F   UNL A   1      43.681  25.302  33.403  1.00  0.00    -0.205 F 
ATOM     93  C   UNL A   1      46.989  24.431  34.622  1.00  0.00     0.022 A 
BRANCH  91  94
ATOM     94  S   UNL A   1      44.593  23.658  35.734  1.00  0.00     0.127 S 
ATOM     95  O   UNL A   1      43.944  22.627  34.928  1.00  0.00    -0.237 OA
ATOM     96  O   UNL A   1      45.594  23.153  36.676  1.00  0.00    -0.237 OA
ATOM     97  O   UNL A   1      43.727  24.691  36.287  1.00  0.00    -0.744 OA
ENDBRANCH  91  94
ENDBRANCH  64  87
ENDBRANCH  38  39
ENDBRANCH  30  33
ENDBRANCH  28  29
ENDBRANCH  27  28
ENDBRANCH   1  27
TORSDOF 19
ENDMDL
MODEL 3
REMARK VINA RESULT:     -11.6      2.842      3.769
REMARK SMILES Cc1ccccc1CCNc1ccc(C(=O)NCCCCNC(=O)c2ccc(-c3c4nc(c(-c5cccc(S(=O)(=O)[O-])c5F)c5ccc([nH]5)c(-c5cccc(S(=O)(=O)[O-])c5F)c5nc(c(-c6cccc(S(=O)(=O)[O-])c6F)c6ccc3[nH]6)C=C5)C=C4)cc2)cc1N
REMARK SMILES IDX 19 1 18 2 17 3 15 4 16 5 14 7 11 8 12 9 89 10 13 11 88 12
REMARK SMILES IDX 10 13 9 15 8 16 7 17 1 18 2 19 3 20 4 21 6 22 5 23 90 24
REMARK SMILES IDX 20 27 21 28 22 29 23 30 24 32 25 33 26 34 87 35 27 36 86 37
REMARK SMILES IDX 28 38 29 39 30 40 80 41 31 42 85 43 79 44 81 45 32 46 84 47
REMARK SMILES IDX 78 48 77 49 33 51 65 52 45 53 64 54 46 55 49 56 63 57 82 58
REMARK SMILES IDX 47 59 48 60 62 62 83 63 50 64 34 65 35 66 43 67 36 68 38 69
REMARK SMILES IDX 44 70 37 71 39 72 40 73 41 74 42 75 66 76 67 77 75 78 68 79
REMARK SMILES IDX 70 80 76 81 69 82 71 83 72 84 73 85 74 86 51 87 52 88 60 89
REMARK SMILES IDX 53 90 55 91 61 92 54 93 56 94 57 95 58 96 59 97
REMARK H PARENT 17 6 10 14 90 25 90 26 22 31 81 50 49 61
REMARK Flexibility Score: inf
ROOT
ATOM      1  C   UNL A   1      32.554  30.545  26.626  1.00  0.00     0.023 C 
ENDROOT
BRANCH   1   2
ATOM      2  C   UNL A   1      31.976  29.408  25.782  1.00  0.00     0.116 C 
BRANCH   2   3
ATOM      3  N   UNL A   1      31.211  29.868  24.629  1.00  0.00    -0.352 N 
ATOM      4  C   UNL A   1      30.641  29.217  23.563  1.00  0.00     0.251 C 
ATOM      5  O   UNL A   1      30.156  29.890  22.652  1.00  0.00    -0.269 OA
ATOM      6  H   UNL A   1      31.076  30.843  24.612  1.00  0.00     0.163 HD
BRANCH   4   7
ATOM      7  C   UNL A   1      30.620  27.737  23.439  1.00  0.00     0.041 A 
ATOM      8  C   UNL A   1      30.754  24.923  23.231  1.00  0.00     0.057 A 
ATOM      9  C   UNL A   1      29.834  25.542  24.078  1.00  0.00     0.029 A 
ATOM     10  C   UNL A   1      31.504  25.745  22.356  1.00  0.00     0.056 A 
ATOM     11  C   UNL A   1      29.724  26.931  24.134  1.00  0.00     0.016 A 
ATOM     12  C   UNL A   1      31.490  27.136  22.522  1.00  0.00     0.041 A 
BRANCH   8  13
ATOM     13  N   UNL A   1      30.883  23.546  23.158  1.00  0.00    -0.383 N 
ATOM     14  H   UNL A   1      30.513  23.099  22.363  1.00  0.00     0.160 HD
BRANCH  13  15
ATOM     15  C   UNL A   1      31.521  22.708  24.161  1.00  0.00     0.117 C 
BRANCH  15  16
ATOM     16  C   UNL A   1      32.931  22.308  23.703  1.00  0.00     0.057 C 
BRANCH  16  17
ATOM     17  C   UNL A   1      33.201  20.834  23.936  1.00  0.00    -0.043 A 
ATOM     18  C   UNL A   1      35.287  21.228  25.392  1.00  0.00     0.044 C 
ATOM     19  C   UNL A   1      34.315  20.351  24.648  1.00  0.00    -0.048 A 
ATOM     20  C   UNL A   1      34.523  18.961  24.723  1.00  0.00     0.004 A 
ATOM     21  C   UNL A   1      33.662  18.064  24.091  1.00  0.00     0.000 A 
ATOM     22  C   UNL A   1      32.321  19.910  23.339  1.00  0.00     0.004 A 
ATOM     23  C   UNL A   1      32.555  18.539  23.402  1.00  0.00     0.000 A 
ENDBRANCH  16  17
ENDBRANCH  15  16
ENDBRANCH  13  15
ENDBRANCH   8  13
BRANCH  10  24
ATOM     24  N   UNL A   1      32.358  25.173  21.399  1.00  0.00    -0.397 N 
ATOM     25  H   UNL A   1      33.272  25.520  21.284  1.00  0.00     0.156 HD
ATOM     26  H   UNL A   1      32.042  24.424  20.842  1.00  0.00     0.156 HD
ENDBRANCH  10  24
ENDBRANCH   4   7
ENDBRANCH   2   3
ENDBRANCH   1   2
BRANCH   1  27
ATOM     27  C   UNL A   1      33.820  30.208  27.403  1.00  0.00     0.023 C 
BRANCH  27  28
ATOM     28  C   UNL A   1      34.719  31.400  27.700  1.00  0.00     0.116 C 
BRANCH  28  29
ATOM     29  N   UNL A   1      34.015  32.605  28.112  1.00  0.00    -0.352 N 
ATOM     30  C   UNL A   1      34.256  33.438  29.192  1.00  0.00     0.251 C 
ATOM     31  H   UNL A   1      33.258  32.866  27.540  1.00  0.00     0.163 HD
ATOM     32  O   UNL A   1      33.404  34.273  29.492  1.00  0.00    -0.269 OA
BRANCH  30  33
ATOM     33  C   UNL A   1      35.577  33.422  29.874  1.00  0.00     0.039 A 
ATOM     34  C   UNL A   1      36.704  33.807  29.133  1.00  0.00     0.014 A 
ATOM     35  C   UNL A   1      35.743  32.800  31.105  1.00  0.00     0.014 A 
ATOM     36  C   UNL A   1      37.963  33.318  29.479  1.00  0.00     0.010 A 
ATOM     37  C   UNL A   1      36.958  32.220  31.390  1.00  0.00     0.010 A 
ATOM     38  C   UNL A   1      38.048  32.423  30.536  1.00  0.00    -0.014 A 
BRANCH  38  39
ATOM     39  C   UNL A   1      39.197  31.592  30.850  1.00  0.00     0.031 A 
ATOM     40  C   UNL A   1      39.312  30.258  30.229  1.00  0.00     0.074 A 
ATOM     41  C   UNL A   1      40.265  32.191  31.425  1.00  0.00     0.049 A 
ATOM     42  N   UNL A   1      40.265  29.430  30.474  1.00  0.00    -0.248 NA
ATOM     43  C   UNL A   1      38.314  29.732  29.299  1.00  0.00     0.031 C 
ATOM     44  C   UNL A   1      41.662  31.780  31.333  1.00  0.00     0.029 A 
ATOM     45  N   UNL A   1      40.265  33.186  32.411  1.00  0.00    -0.354 N 
ATOM     46  C   UNL A   1      40.193  28.437  29.522  1.00  0.00     0.074 A 
ATOM     47  C   UNL A   1      38.895  28.590  28.921  1.00  0.00     0.031 C 
ATOM     48  C   UNL A   1      42.327  32.283  32.384  1.00  0.00     0.029 A 
ATOM     49  C   UNL A   1      41.335  32.870  33.267  1.00  0.00     0.049 A 
ATOM     50  H   UNL A   1      39.646  33.947  32.488  1.00  0.00     0.167 HD
ATOM     51  C   UNL A   1      41.313  27.711  29.261  1.00  0.00     0.034 A 
ATOM     52  C   UNL A   1      41.179  32.551  34.585  1.00  0.00     0.034 A 
ATOM     53  C   UNL A   1      42.317  27.918  30.316  1.00  0.00     0.049 A 
ATOM     54  C   UNL A   1      41.703  31.168  34.935  1.00  0.00     0.074 A 
ATOM     55  C   UNL A   1      43.497  28.635  30.387  1.00  0.00     0.029 A 
ATOM     56  N   UNL A   1      42.005  27.542  31.619  1.00  0.00    -0.354 N 
ATOM     57  N   UNL A   1      42.112  30.292  34.057  1.00  0.00    -0.248 NA
ATOM     58  C   UNL A   1      41.799  30.655  36.299  1.00  0.00     0.031 C 
ATOM     59  C   UNL A   1      43.819  28.801  31.765  1.00  0.00     0.029 A 
ATOM     60  C   UNL A   1      42.864  28.142  32.524  1.00  0.00     0.049 A 
ATOM     61  H   UNL A   1      41.273  26.933  31.865  1.00  0.00     0.167 HD
ATOM     62  C   UNL A   1      42.397  29.101  34.672  1.00  0.00     0.074 A 
ATOM     63  C   UNL A   1      42.259  29.408  36.087  1.00  0.00     0.031 C 
ATOM     64  C   UNL A   1      42.662  27.959  33.961  1.00  0.00     0.034 A 
BRANCH  51  65
ATOM     65  C   UNL A   1      41.610  26.952  27.974  1.00  0.00     0.023 A 
ATOM     66  C   UNL A   1      41.636  27.707  26.779  1.00  0.00     0.012 A 
ATOM     67  C   UNL A   1      41.743  25.549  27.817  1.00  0.00     0.148 A 
ATOM     68  C   UNL A   1      41.762  27.115  25.515  1.00  0.00     0.002 A 
ATOM     69  C   UNL A   1      41.929  24.963  26.560  1.00  0.00     0.091 A 
ATOM     70  F   UNL A   1      41.604  24.735  28.864  1.00  0.00    -0.205 F 
ATOM     71  C   UNL A   1      41.920  25.742  25.404  1.00  0.00     0.022 A 
BRANCH  69  72
ATOM     72  S   UNL A   1      42.182  23.188  26.351  1.00  0.00     0.127 S 
ATOM     73  O   UNL A   1      42.720  23.112  24.993  1.00  0.00    -0.237 OA
ATOM     74  O   UNL A   1      43.148  22.881  27.407  1.00  0.00    -0.237 OA
ATOM     75  O   UNL A   1      40.877  22.563  26.535  1.00  0.00    -0.744 OA
ENDBRANCH  69  72
ENDBRANCH  51  65
BRANCH  52  76
ATOM     76  C   UNL A   1      40.054  33.267  35.248  1.00  0.00     0.023 A 
ATOM     77  C   UNL A   1      38.792  32.627  35.202  1.00  0.00     0.012 A 
ATOM     78  C   UNL A   1      40.274  34.266  36.215  1.00  0.00     0.148 A 
ATOM     79  C   UNL A   1      37.818  32.885  36.166  1.00  0.00     0.002 A 
ATOM     80  C   UNL A   1      39.296  34.513  37.180  1.00  0.00     0.091 A 
ATOM     81  F   UNL A   1      41.466  34.873  36.241  1.00  0.00    -0.205 F 
ATOM     82  C   UNL A   1      38.085  33.803  37.174  1.00  0.00     0.022 A 
BRANCH  80  83
ATOM     83  S   UNL A   1      39.565  35.620  38.572  1.00  0.00     0.127 S 
ATOM     84  O   UNL A   1      38.555  35.152  39.518  1.00  0.00    -0.237 OA
ATOM     85  O   UNL A   1      40.946  35.311  38.942  1.00  0.00    -0.237 OA
ATOM     86  O   UNL A   1      39.370  36.960  38.040  1.00  0.00    -0.744 OA
ENDBRANCH  80  83
ENDBRANCH  52  76
BRANCH  64  87
ATOM     87  C   UNL A   1      42.731  26.552  34.542  1.00  0.00     0.023 A 
ATOM     88  C   UNL A   1      41.702  26.012  35.338  1.00  0.00     0.012 A 
ATOM     89  C   UNL A   1      43.773  25.661  34.174  1.00  0.00     0.148 A 
ATOM     90  C   UNL A   1      41.730  24.688  35.797  1.00  0.00     0.002 A 
ATOM     91  C   UNL A   1      43.738  24.315  34.536  1.00  0.00     0.091 A 
ATOM     92  F   UNL A   1      44.826  26.112  33.475  1.00  0.00    -0.205 F 
ATOM     93  C   UNL A   1      42.735  23.831  35.376  1.00  0.00     0.022 A 
BRANCH  91  94
ATOM     94  S   UNL A   1      44.881  23.136  33.799  1.00  0.00     0.127 S 
ATOM     95  O   UNL A   1      46.178  23.650  34.235  1.00  0.00    -0.237 OA
ATOM     96  O   UNL A   1      44.486  21.873  34.426  1.00  0.00    -0.237 OA
ATOM     97  O   UNL A   1      44.605  23.201  32.370  1.00  0.00    -0.744 OA
ENDBRANCH  91  94
ENDBRANCH  64  87
ENDBRANCH  38  39
ENDBRANCH  30  33
ENDBRANCH  28  29
ENDBRANCH  27  28
ENDBRANCH   1  27
TORSDOF 19
ENDMDL
