MODEL 1
REMARK VINA RESULT:      -9.4      0.000      0.000
REMARK SMILES CC[C@@H](Oc1ccc(/C=C2\SC(=S)N(NC(=O)c3ccccc3O)C2=O)cc1)C(=O)NCCCCNC(=O)c1ccc(-c2c3nc(c(-c4cccc(S(=O)(=O)[O-])c4F)c4ccc([nH]4)c(-c4cccc(S(=O)(=O)[O-])c4F)c4nc(c(-c5cccc(S(=O)(=O)[O-])c5F)c5ccc2[nH]5)C=C4)C=C3)cc1
REMARK SMILES IDX 32 1 31 2 29 3 30 4 3 6 2 7 1 8 4 9 5 10 6 11 28 12 7 13
REMARK SMILES IDX 27 14 8 15 9 16 10 17 11 18 25 19 12 20 14 21 26 22 13 23
REMARK SMILES IDX 15 24 16 25 17 27 18 28 19 29 23 30 20 31 22 32 21 33 24 34
REMARK SMILES IDX 33 36 34 37 35 38 36 39 37 40 38 42 39 43 40 44 101 45 41 46
REMARK SMILES IDX 100 47 42 48 43 49 44 50 94 51 45 52 99 53 93 54 95 55 46 56
REMARK SMILES IDX 98 57 92 58 91 59 47 61 79 62 59 63 78 64 60 65 63 66 77 67
REMARK SMILES IDX 96 68 61 69 62 70 76 72 97 73 64 74 48 75 49 76 57 77 50 78
REMARK SMILES IDX 52 79 58 80 51 81 53 82 54 83 55 84 56 85 80 86 81 87 89 88
REMARK SMILES IDX 82 89 84 90 90 91 83 92 85 93 86 94 87 95 88 96 65 97 66 98
REMARK SMILES IDX 74 99 67 100 69 101 75 102 68 103 70 104 71 105 72 106
REMARK SMILES IDX 73 107
REMARK H PARENT 31 5 15 26 24 35 36 41 95 60 63 71
REMARK Flexibility Score: inf
ROOT
ATOM      1  C   UNL A   1      44.839  22.220  26.241  1.00  0.00     0.116 C 
ENDROOT
BRANCH   1   2
ATOM      2  N   UNL A   1      43.579  21.508  26.389  1.00  0.00    -0.353 N 
ATOM      3  C   UNL A   1      42.534  21.753  27.245  1.00  0.00     0.261 C 
ATOM      4  O   UNL A   1      41.529  21.043  27.160  1.00  0.00    -0.271 OA
ATOM      5  H   UNL A   1      43.458  20.739  25.787  1.00  0.00     0.163 HD
BRANCH   3   6
ATOM      6  C   UNL A   1      42.644  22.838  28.330  1.00  0.00     0.261 C 
BRANCH   6   7
ATOM      7  C   UNL A   1      43.940  22.577  29.122  1.00  0.00     0.052 C 
ATOM      8  C   UNL A   1      44.669  23.856  29.520  1.00  0.00     0.008 C 
ENDBRANCH   6   7
BRANCH   6   9
ATOM      9  O   UNL A   1      42.546  24.076  27.612  1.00  0.00    -0.481 OA
BRANCH   9  10
ATOM     10  C   UNL A   1      41.594  24.954  28.016  1.00  0.00     0.120 A 
ATOM     11  C   UNL A   1      40.257  24.581  27.960  1.00  0.00     0.047 A 
ATOM     12  C   UNL A   1      41.929  26.274  28.271  1.00  0.00     0.047 A 
ATOM     13  C   UNL A   1      39.259  25.539  28.179  1.00  0.00     0.012 A 
ATOM     14  C   UNL A   1      40.936  27.214  28.538  1.00  0.00     0.012 A 
ATOM     15  C   UNL A   1      39.582  26.881  28.452  1.00  0.00    -0.024 A 
BRANCH  15  16
ATOM     16  C   UNL A   1      38.475  27.847  28.628  1.00  0.00     0.029 C 
ATOM     17  C   UNL A   1      38.225  28.738  29.602  1.00  0.00     0.082 C 
ATOM     18  S   UNL A   1      39.090  29.058  31.057  1.00  0.00    -0.052 SA
ATOM     19  C   UNL A   1      37.009  29.601  29.559  1.00  0.00     0.285 C 
ATOM     20  C   UNL A   1      37.759  29.937  31.774  1.00  0.00     0.168 C 
ATOM     21  N   UNL A   1      36.759  30.082  30.836  1.00  0.00    -0.198 N 
ATOM     22  O   UNL A   1      36.379  29.848  28.532  1.00  0.00    -0.266 OA
ATOM     23  S   UNL A   1      37.769  30.506  33.343  1.00  0.00    -0.050 S 
BRANCH  21  24
ATOM     24  N   UNL A   1      35.611  30.825  31.143  1.00  0.00    -0.254 N 
ATOM     25  C   UNL A   1      35.412  32.164  30.884  1.00  0.00     0.274 C 
ATOM     26  H   UNL A   1      34.875  30.344  31.586  1.00  0.00     0.192 HD
ATOM     27  O   UNL A   1      34.294  32.658  31.021  1.00  0.00    -0.267 OA
BRANCH  25  28
ATOM     28  C   UNL A   1      36.528  33.044  30.498  1.00  0.00     0.083 A 
ATOM     29  C   UNL A   1      37.226  33.654  31.549  1.00  0.00     0.018 A 
ATOM     30  C   UNL A   1      36.932  33.259  29.178  1.00  0.00     0.128 A 
ATOM     31  C   UNL A   1      38.354  34.430  31.284  1.00  0.00     0.001 A 
ATOM     32  C   UNL A   1      38.068  34.023  28.915  1.00  0.00     0.047 A 
ATOM     33  C   UNL A   1      38.781  34.605  29.968  1.00  0.00     0.004 A 
BRANCH  30  34
ATOM     34  O   UNL A   1      36.274  32.744  28.096  1.00  0.00    -0.507 OA
ATOM     35  H   UNL A   1      36.731  32.613  27.289  1.00  0.00     0.293 HD
ENDBRANCH  30  34
ENDBRANCH  25  28
ENDBRANCH  21  24
ENDBRANCH  15  16
ENDBRANCH   9  10
ENDBRANCH   6   9
ENDBRANCH   3   6
ENDBRANCH   1   2
BRANCH   1  36
ATOM     36  C   UNL A   1      44.822  23.207  25.077  1.00  0.00     0.023 C 
BRANCH  36  37
ATOM     37  C   UNL A   1      46.198  23.685  24.618  1.00  0.00     0.023 C 
BRANCH  37  38
ATOM     38  C   UNL A   1      46.753  24.901  25.356  1.00  0.00     0.116 C 
BRANCH  38  39
ATOM     39  N   UNL A   1      47.071  26.017  24.478  1.00  0.00    -0.352 N 
ATOM     40  C   UNL A   1      46.777  27.350  24.637  1.00  0.00     0.251 C 
ATOM     41  H   UNL A   1      47.564  25.786  23.658  1.00  0.00     0.163 HD
ATOM     42  O   UNL A   1      47.038  28.144  23.737  1.00  0.00    -0.269 OA
BRANCH  40  43
ATOM     43  C   UNL A   1      46.117  27.822  25.876  1.00  0.00     0.039 A 
ATOM     44  C   UNL A   1      46.916  28.237  26.946  1.00  0.00     0.014 A 
ATOM     45  C   UNL A   1      44.726  27.857  25.987  1.00  0.00     0.014 A 
ATOM     46  C   UNL A   1      46.318  28.741  28.105  1.00  0.00     0.010 A 
ATOM     47  C   UNL A   1      44.132  28.423  27.113  1.00  0.00     0.010 A 
ATOM     48  C   UNL A   1      44.921  28.863  28.186  1.00  0.00    -0.014 A 
BRANCH  48  49
ATOM     49  C   UNL A   1      44.267  29.447  29.385  1.00  0.00     0.031 A 
ATOM     50  C   UNL A   1      43.910  30.908  29.419  1.00  0.00     0.074 A 
ATOM     51  C   UNL A   1      44.075  28.681  30.477  1.00  0.00     0.049 A 
ATOM     52  N   UNL A   1      43.366  31.601  30.384  1.00  0.00    -0.248 NA
ATOM     53  C   UNL A   1      44.233  31.702  28.221  1.00  0.00     0.031 C 
ATOM     54  C   UNL A   1      44.458  27.273  30.602  1.00  0.00     0.029 A 
ATOM     55  N   UNL A   1      43.528  28.985  31.699  1.00  0.00    -0.354 N 
ATOM     56  C   UNL A   1      43.318  32.913  29.931  1.00  0.00     0.074 A 
ATOM     57  C   UNL A   1      43.916  32.928  28.614  1.00  0.00     0.031 C 
ATOM     58  C   UNL A   1      44.125  26.833  31.827  1.00  0.00     0.029 A 
ATOM     59  C   UNL A   1      43.520  27.928  32.579  1.00  0.00     0.049 A 
ATOM     60  H   UNL A   1      43.174  29.876  31.923  1.00  0.00     0.167 HD
ATOM     61  C   UNL A   1      42.791  34.004  30.538  1.00  0.00     0.034 A 
ATOM     62  C   UNL A   1      43.066  27.850  33.846  1.00  0.00     0.034 A 
ATOM     63  C   UNL A   1      42.135  33.975  31.817  1.00  0.00     0.049 A 
ATOM     64  C   UNL A   1      42.419  29.057  34.468  1.00  0.00     0.074 A 
ATOM     65  C   UNL A   1      41.475  35.000  32.469  1.00  0.00     0.029 A 
ATOM     66  N   UNL A   1      42.054  32.861  32.637  1.00  0.00    -0.354 N 
ATOM     67  N   UNL A   1      42.222  30.245  33.951  1.00  0.00    -0.248 NA
ATOM     68  C   UNL A   1      41.897  28.901  35.834  1.00  0.00     0.031 C 
ATOM     69  C   UNL A   1      40.997  34.507  33.689  1.00  0.00     0.029 A 
ATOM     70  C   UNL A   1      41.357  33.172  33.791  1.00  0.00     0.049 A 
ATOM     71  H   UNL A   1      42.436  31.978  32.430  1.00  0.00     0.167 HD
ATOM     72  C   UNL A   1      41.518  30.967  34.910  1.00  0.00     0.074 A 
ATOM     73  C   UNL A   1      41.309  30.074  36.032  1.00  0.00     0.031 C 
ATOM     74  C   UNL A   1      41.098  32.255  34.872  1.00  0.00     0.034 A 
BRANCH  61  75
ATOM     75  C   UNL A   1      42.838  35.308  29.788  1.00  0.00     0.023 A 
ATOM     76  C   UNL A   1      41.941  35.522  28.721  1.00  0.00     0.012 A 
ATOM     77  C   UNL A   1      43.728  36.334  30.159  1.00  0.00     0.148 A 
ATOM     78  C   UNL A   1      41.953  36.723  28.012  1.00  0.00     0.002 A 
ATOM     79  C   UNL A   1      43.706  37.544  29.472  1.00  0.00     0.091 A 
ATOM     80  F   UNL A   1      44.592  36.104  31.157  1.00  0.00    -0.205 F 
ATOM     81  C   UNL A   1      42.828  37.736  28.394  1.00  0.00     0.022 A 
BRANCH  79  82
ATOM     82  S   UNL A   1      44.748  38.931  29.941  1.00  0.00     0.127 S 
ATOM     83  O   UNL A   1      44.279  39.974  29.031  1.00  0.00    -0.237 OA
ATOM     84  O   UNL A   1      44.383  39.136  31.343  1.00  0.00    -0.237 OA
ATOM     85  O   UNL A   1      46.118  38.481  29.736  1.00  0.00    -0.744 OA
ENDBRANCH  79  82
ENDBRANCH  61  75
BRANCH  62  86
ATOM     86  C   UNL A   1      43.108  26.548  34.568  1.00  0.00     0.023 A 
ATOM     87  C   UNL A   1      41.907  25.835  34.757  1.00  0.00     0.012 A 
ATOM     88  C   UNL A   1      44.315  25.993  35.034  1.00  0.00     0.148 A 
ATOM     89  C   UNL A   1      41.903  24.608  35.420  1.00  0.00     0.002 A 
ATOM     90  C   UNL A   1      44.312  24.747  35.651  1.00  0.00     0.091 A 
ATOM     91  F   UNL A   1      45.446  26.693  34.859  1.00  0.00    -0.205 F 
ATOM     92  C   UNL A   1      43.105  24.059  35.857  1.00  0.00     0.022 A 
BRANCH  90  93
ATOM     93  S   UNL A   1      45.828  23.911  36.130  1.00  0.00     0.127 S 
ATOM     94  O   UNL A   1      46.359  24.814  37.147  1.00  0.00    -0.237 OA
ATOM     95  O   UNL A   1      45.327  22.635  36.640  1.00  0.00    -0.237 OA
ATOM     96  O   UNL A   1      46.610  23.796  34.906  1.00  0.00    -0.744 OA
ENDBRANCH  90  93
ENDBRANCH  62  86
BRANCH  74  97
ATOM     97  C   UNL A   1      40.342  32.778  36.063  1.00  0.00     0.023 A 
ATOM     98  C   UNL A   1      38.941  32.645  36.110  1.00  0.00     0.012 A 
ATOM     99  C   UNL A   1      41.022  33.329  37.166  1.00  0.00     0.148 A 
ATOM    100  C   UNL A   1      38.224  33.078  37.225  1.00  0.00     0.002 A 
ATOM    101  C   UNL A   1      40.305  33.721  38.292  1.00  0.00     0.091 A 
ATOM    102  F   UNL A   1      42.353  33.470  37.095  1.00  0.00    -0.205 F 
ATOM    103  C   UNL A   1      38.906  33.605  38.319  1.00  0.00     0.022 A 
BRANCH 101 104
ATOM    104  S   UNL A   1      41.122  34.321  39.775  1.00  0.00     0.127 S 
ATOM    105  O   UNL A   1      42.095  33.262  40.032  1.00  0.00    -0.237 OA
ATOM    106  O   UNL A   1      41.704  35.588  39.326  1.00  0.00    -0.237 OA
ATOM    107  O   UNL A   1      40.069  34.470  40.771  1.00  0.00    -0.744 OA
ENDBRANCH 101 104
ENDBRANCH  74  97
ENDBRANCH  48  49
ENDBRANCH  40  43
ENDBRANCH  38  39
ENDBRANCH  37  38
ENDBRANCH  36  37
ENDBRANCH   1  36
TORSDOF 21
ENDMDL
MODEL 2
REMARK VINA RESULT:      -9.2      1.404      7.284
REMARK SMILES CC[C@@H](Oc1ccc(/C=C2\SC(=S)N(NC(=O)c3ccccc3O)C2=O)cc1)C(=O)NCCCCNC(=O)c1ccc(-c2c3nc(c(-c4cccc(S(=O)(=O)[O-])c4F)c4ccc([nH]4)c(-c4cccc(S(=O)(=O)[O-])c4F)c4nc(c(-c5cccc(S(=O)(=O)[O-])c5F)c5ccc2[nH]5)C=C4)C=C3)cc1
REMARK SMILES IDX 32 1 31 2 29 3 30 4 3 6 2 7 1 8 4 9 5 10 6 11 28 12 7 13
REMARK SMILES IDX 27 14 8 15 9 16 10 17 11 18 25 19 12 20 14 21 26 22 13 23
REMARK SMILES IDX 15 24 16 25 17 27 18 28 19 29 23 30 20 31 22 32 21 33 24 34
REMARK SMILES IDX 33 36 34 37 35 38 36 39 37 40 38 42 39 43 40 44 101 45 41 46
REMARK SMILES IDX 100 47 42 48 43 49 44 50 94 51 45 52 99 53 93 54 95 55 46 56
REMARK SMILES IDX 98 57 92 58 91 59 47 61 79 62 59 63 78 64 60 65 63 66 77 67
REMARK SMILES IDX 96 68 61 69 62 70 76 72 97 73 64 74 48 75 49 76 57 77 50 78
REMARK SMILES IDX 52 79 58 80 51 81 53 82 54 83 55 84 56 85 80 86 81 87 89 88
REMARK SMILES IDX 82 89 84 90 90 91 83 92 85 93 86 94 87 95 88 96 65 97 66 98
REMARK SMILES IDX 74 99 67 100 69 101 75 102 68 103 70 104 71 105 72 106
REMARK SMILES IDX 73 107
REMARK H PARENT 31 5 15 26 24 35 36 41 95 60 63 71
REMARK Flexibility Score: inf
ROOT
ATOM      1  C   UNL A   1      43.427  21.861  25.489  1.00  0.00     0.116 C 
ENDROOT
BRANCH   1   2
ATOM      2  N   UNL A   1      43.237  22.010  26.924  1.00  0.00    -0.353 N 
ATOM      3  C   UNL A   1      42.304  22.748  27.608  1.00  0.00     0.261 C 
ATOM      4  O   UNL A   1      42.296  22.685  28.840  1.00  0.00    -0.271 OA
ATOM      5  H   UNL A   1      43.870  21.507  27.486  1.00  0.00     0.163 HD
BRANCH   3   6
ATOM      6  C   UNL A   1      41.341  23.687  26.860  1.00  0.00     0.261 C 
BRANCH   6   7
ATOM      7  C   UNL A   1      40.004  23.693  27.626  1.00  0.00     0.052 C 
ATOM      8  C   UNL A   1      38.789  23.823  26.714  1.00  0.00     0.008 C 
ENDBRANCH   6   7
BRANCH   6   9
ATOM      9  O   UNL A   1      42.053  24.929  26.763  1.00  0.00    -0.481 OA
BRANCH   9  10
ATOM     10  C   UNL A   1      41.479  26.019  27.329  1.00  0.00     0.120 A 
ATOM     11  C   UNL A   1      40.901  26.985  26.515  1.00  0.00     0.047 A 
ATOM     12  C   UNL A   1      41.659  26.276  28.680  1.00  0.00     0.047 A 
ATOM     13  C   UNL A   1      40.489  28.203  27.068  1.00  0.00     0.012 A 
ATOM     14  C   UNL A   1      41.201  27.469  29.236  1.00  0.00     0.012 A 
ATOM     15  C   UNL A   1      40.651  28.476  28.439  1.00  0.00    -0.024 A 
BRANCH  15  16
ATOM     16  C   UNL A   1      40.234  29.802  28.945  1.00  0.00     0.029 C 
ATOM     17  C   UNL A   1      39.942  30.223  30.187  1.00  0.00     0.082 C 
ATOM     18  S   UNL A   1      39.898  29.347  31.670  1.00  0.00    -0.052 SA
ATOM     19  C   UNL A   1      39.519  31.631  30.441  1.00  0.00     0.285 C 
ATOM     20  C   UNL A   1      38.989  30.592  32.496  1.00  0.00     0.168 C 
ATOM     21  N   UNL A   1      38.873  31.687  31.666  1.00  0.00    -0.198 N 
ATOM     22  O   UNL A   1      39.757  32.566  29.679  1.00  0.00    -0.266 OA
ATOM     23  S   UNL A   1      38.404  30.428  34.051  1.00  0.00    -0.050 S 
BRANCH  21  24
ATOM     24  N   UNL A   1      38.251  32.855  32.130  1.00  0.00    -0.254 N 
ATOM     25  C   UNL A   1      37.081  33.402  31.651  1.00  0.00     0.274 C 
ATOM     26  H   UNL A   1      38.693  33.330  32.871  1.00  0.00     0.192 HD
ATOM     27  O   UNL A   1      36.532  34.316  32.265  1.00  0.00    -0.267 OA
BRANCH  25  28
ATOM     28  C   UNL A   1      36.491  32.956  30.377  1.00  0.00     0.083 A 
ATOM     29  C   UNL A   1      35.601  31.876  30.454  1.00  0.00     0.018 A 
ATOM     30  C   UNL A   1      36.741  33.565  29.145  1.00  0.00     0.128 A 
ATOM     31  C   UNL A   1      34.924  31.443  29.315  1.00  0.00     0.001 A 
ATOM     32  C   UNL A   1      36.053  33.141  28.009  1.00  0.00     0.047 A 
ATOM     33  C   UNL A   1      35.142  32.084  28.095  1.00  0.00     0.004 A 
BRANCH  30  34
ATOM     34  O   UNL A   1      37.633  34.587  28.978  1.00  0.00    -0.507 OA
ATOM     35  H   UNL A   1      37.683  35.035  28.157  1.00  0.00     0.293 HD
ENDBRANCH  30  34
ENDBRANCH  25  28
ENDBRANCH  21  24
ENDBRANCH  15  16
ENDBRANCH   9  10
ENDBRANCH   6   9
ENDBRANCH   3   6
ENDBRANCH   1   2
BRANCH   1  36
ATOM     36  C   UNL A   1      44.303  22.962  24.897  1.00  0.00     0.023 C 
BRANCH  36  37
ATOM     37  C   UNL A   1      45.802  22.792  25.139  1.00  0.00     0.023 C 
BRANCH  37  38
ATOM     38  C   UNL A   1      46.498  23.971  25.815  1.00  0.00     0.116 C 
BRANCH  38  39
ATOM     39  N   UNL A   1      47.022  24.950  24.874  1.00  0.00    -0.352 N 
ATOM     40  C   UNL A   1      46.933  26.321  24.918  1.00  0.00     0.251 C 
ATOM     41  H   UNL A   1      47.508  24.581  24.102  1.00  0.00     0.163 HD
ATOM     42  O   UNL A   1      47.352  26.989  23.977  1.00  0.00    -0.269 OA
BRANCH  40  43
ATOM     43  C   UNL A   1      46.303  26.988  26.081  1.00  0.00     0.039 A 
ATOM     44  C   UNL A   1      47.121  27.438  27.122  1.00  0.00     0.014 A 
ATOM     45  C   UNL A   1      44.920  27.169  26.148  1.00  0.00     0.014 A 
ATOM     46  C   UNL A   1      46.556  28.121  28.203  1.00  0.00     0.010 A 
ATOM     47  C   UNL A   1      44.367  27.910  27.191  1.00  0.00     0.010 A 
ATOM     48  C   UNL A   1      45.177  28.386  28.231  1.00  0.00    -0.014 A 
BRANCH  48  49
ATOM     49  C   UNL A   1      44.565  29.158  29.343  1.00  0.00     0.031 A 
ATOM     50  C   UNL A   1      44.249  28.484  30.650  1.00  0.00     0.074 A 
ATOM     51  C   UNL A   1      44.215  30.444  29.146  1.00  0.00     0.049 A 
ATOM     52  N   UNL A   1      43.688  28.983  31.720  1.00  0.00    -0.248 NA
ATOM     53  C   UNL A   1      44.578  27.053  30.759  1.00  0.00     0.031 C 
ATOM     54  C   UNL A   1      44.387  31.188  27.896  1.00  0.00     0.029 A 
ATOM     55  N   UNL A   1      43.619  31.349  29.990  1.00  0.00    -0.354 N 
ATOM     56  C   UNL A   1      43.560  27.925  32.611  1.00  0.00     0.074 A 
ATOM     57  C   UNL A   1      44.074  26.748  31.947  1.00  0.00     0.031 C 
ATOM     58  C   UNL A   1      43.919  32.436  28.058  1.00  0.00     0.029 A 
ATOM     59  C   UNL A   1      43.399  32.579  29.414  1.00  0.00     0.049 A 
ATOM     60  H   UNL A   1      43.373  31.137  30.919  1.00  0.00     0.167 HD
ATOM     61  C   UNL A   1      43.091  27.937  33.882  1.00  0.00     0.034 A 
ATOM     62  C   UNL A   1      42.850  33.697  29.928  1.00  0.00     0.034 A 
ATOM     63  C   UNL A   1      42.645  29.121  34.566  1.00  0.00     0.049 A 
ATOM     64  C   UNL A   1      42.406  33.703  31.365  1.00  0.00     0.074 A 
ATOM     65  C   UNL A   1      42.253  29.258  35.884  1.00  0.00     0.029 A 
ATOM     66  N   UNL A   1      42.533  30.373  33.982  1.00  0.00    -0.354 N 
ATOM     67  N   UNL A   1      42.461  32.736  32.248  1.00  0.00    -0.248 NA
ATOM     68  C   UNL A   1      41.861  34.964  31.888  1.00  0.00     0.031 C 
ATOM     69  C   UNL A   1      41.900  30.595  36.099  1.00  0.00     0.029 A 
ATOM     70  C   UNL A   1      42.076  31.290  34.913  1.00  0.00     0.049 A 
ATOM     71  H   UNL A   1      42.746  30.580  33.044  1.00  0.00     0.167 HD
ATOM     72  C   UNL A   1      41.996  33.281  33.440  1.00  0.00     0.074 A 
ATOM     73  C   UNL A   1      41.680  34.669  33.169  1.00  0.00     0.031 C 
ATOM     74  C   UNL A   1      41.830  32.684  34.646  1.00  0.00     0.034 A 
BRANCH  61  75
ATOM     75  C   UNL A   1      43.109  26.637  34.642  1.00  0.00     0.023 A 
ATOM     76  C   UNL A   1      41.906  25.921  34.812  1.00  0.00     0.012 A 
ATOM     77  C   UNL A   1      44.309  26.101  35.147  1.00  0.00     0.148 A 
ATOM     78  C   UNL A   1      41.890  24.710  35.503  1.00  0.00     0.002 A 
ATOM     79  C   UNL A   1      44.291  24.873  35.800  1.00  0.00     0.091 A 
ATOM     80  F   UNL A   1      45.439  26.808  35.000  1.00  0.00    -0.205 F 
ATOM     81  C   UNL A   1      43.083  24.182  35.987  1.00  0.00     0.022 A 
BRANCH  79  82
ATOM     82  S   UNL A   1      45.792  24.082  36.394  1.00  0.00     0.127 S 
ATOM     83  O   UNL A   1      45.252  23.057  37.286  1.00  0.00    -0.237 OA
ATOM     84  O   UNL A   1      46.384  23.566  35.159  1.00  0.00    -0.237 OA
ATOM     85  O   UNL A   1      46.564  25.136  37.037  1.00  0.00    -0.744 OA
ENDBRANCH  79  82
ENDBRANCH  61  75
BRANCH  62  86
ATOM     86  C   UNL A   1      42.795  34.939  29.106  1.00  0.00     0.023 A 
ATOM     87  C   UNL A   1      41.606  35.245  28.414  1.00  0.00     0.012 A 
ATOM     88  C   UNL A   1      43.881  35.832  29.033  1.00  0.00     0.148 A 
ATOM     89  C   UNL A   1      41.509  36.402  27.641  1.00  0.00     0.002 A 
ATOM     90  C   UNL A   1      43.761  37.009  28.300  1.00  0.00     0.091 A 
ATOM     91  F   UNL A   1      45.009  35.517  29.686  1.00  0.00    -0.205 F 
ATOM     92  C   UNL A   1      42.581  37.288  27.593  1.00  0.00     0.022 A 
BRANCH  90  93
ATOM     93  S   UNL A   1      45.045  38.264  28.288  1.00  0.00     0.127 S 
ATOM     94  O   UNL A   1      45.591  38.122  26.940  1.00  0.00    -0.237 OA
ATOM     95  O   UNL A   1      44.279  39.490  28.516  1.00  0.00    -0.237 OA
ATOM     96  O   UNL A   1      45.942  37.911  29.381  1.00  0.00    -0.744 OA
ENDBRANCH  90  93
ENDBRANCH  62  86
BRANCH  74  97
ATOM     97  C   UNL A   1      41.310  33.529  35.777  1.00  0.00     0.023 A 
ATOM     98  C   UNL A   1      39.926  33.571  36.035  1.00  0.00     0.012 A 
ATOM     99  C   UNL A   1      42.193  34.218  36.630  1.00  0.00     0.148 A 
ATOM    100  C   UNL A   1      39.426  34.309  37.107  1.00  0.00     0.002 A 
ATOM    101  C   UNL A   1      41.692  34.919  37.722  1.00  0.00     0.091 A 
ATOM    102  F   UNL A   1      43.506  34.187  36.355  1.00  0.00    -0.205 F 
ATOM    103  C   UNL A   1      40.309  34.972  37.956  1.00  0.00     0.022 A 
BRANCH 101 104
ATOM    104  S   UNL A   1      42.772  35.721  38.912  1.00  0.00     0.127 S 
ATOM    105  O   UNL A   1      43.394  36.763  38.099  1.00  0.00    -0.237 OA
ATOM    106  O   UNL A   1      41.828  36.214  39.916  1.00  0.00    -0.237 OA
ATOM    107  O   UNL A   1      43.666  34.677  39.397  1.00  0.00    -0.744 OA
ENDBRANCH 101 104
ENDBRANCH  74  97
ENDBRANCH  48  49
ENDBRANCH  40  43
ENDBRANCH  38  39
ENDBRANCH  37  38
ENDBRANCH  36  37
ENDBRANCH   1  36
TORSDOF 21
ENDMDL
MODEL 3
REMARK VINA RESULT:      -9.1      1.975      2.566
REMARK SMILES CC[C@@H](Oc1ccc(/C=C2\SC(=S)N(NC(=O)c3ccccc3O)C2=O)cc1)C(=O)NCCCCNC(=O)c1ccc(-c2c3nc(c(-c4cccc(S(=O)(=O)[O-])c4F)c4ccc([nH]4)c(-c4cccc(S(=O)(=O)[O-])c4F)c4nc(c(-c5cccc(S(=O)(=O)[O-])c5F)c5ccc2[nH]5)C=C4)C=C3)cc1
REMARK SMILES IDX 32 1 31 2 29 3 30 4 3 6 2 7 1 8 4 9 5 10 6 11 28 12 7 13
REMARK SMILES IDX 27 14 8 15 9 16 10 17 11 18 25 19 12 20 14 21 26 22 13 23
REMARK SMILES IDX 15 24 16 25 17 27 18 28 19 29 23 30 20 31 22 32 21 33 24 34
REMARK SMILES IDX 33 36 34 37 35 38 36 39 37 40 38 42 39 43 40 44 101 45 41 46
REMARK SMILES IDX 100 47 42 48 43 49 44 50 94 51 45 52 99 53 93 54 95 55 46 56
REMARK SMILES IDX 98 57 92 58 91 59 47 61 79 62 59 63 78 64 60 65 63 66 77 67
REMARK SMILES IDX 96 68 61 69 62 70 76 72 97 73 64 74 48 75 49 76 57 77 50 78
REMARK SMILES IDX 52 79 58 80 51 81 53 82 54 83 55 84 56 85 80 86 81 87 89 88
REMARK SMILES IDX 82 89 84 90 90 91 83 92 85 93 86 94 87 95 88 96 65 97 66 98
REMARK SMILES IDX 74 99 67 100 69 101 75 102 68 103 70 104 71 105 72 106
REMARK SMILES IDX 73 107
REMARK H PARENT 31 5 15 26 24 35 36 41 95 60 63 71
REMARK Flexibility Score: inf
ROOT
ATOM      1  C   UNL A   1      44.790  22.417  26.104  1.00  0.00     0.116 C 
ENDROOT
BRANCH   1   2
ATOM      2  N   UNL A   1      45.078  23.057  27.378  1.00  0.00    -0.353 N 
ATOM      3  C   UNL A   1      44.261  23.819  28.176  1.00  0.00     0.261 C 
ATOM      4  O   UNL A   1      44.706  24.223  29.254  1.00  0.00    -0.271 OA
ATOM      5  H   UNL A   1      45.992  22.923  27.718  1.00  0.00     0.163 HD
BRANCH   3   6
ATOM      6  C   UNL A   1      42.853  24.220  27.704  1.00  0.00     0.261 C 
BRANCH   6   7
ATOM      7  C   UNL A   1      41.834  23.435  28.554  1.00  0.00     0.052 C 
ATOM      8  C   UNL A   1      41.595  22.017  28.048  1.00  0.00     0.008 C 
ENDBRANCH   6   7
BRANCH   6   9
ATOM      9  O   UNL A   1      42.834  25.651  27.803  1.00  0.00    -0.481 OA
BRANCH   9  10
ATOM     10  C   UNL A   1      41.883  26.206  28.595  1.00  0.00     0.120 A 
ATOM     11  C   UNL A   1      40.543  26.024  28.279  1.00  0.00     0.047 A 
ATOM     12  C   UNL A   1      42.241  27.120  29.573  1.00  0.00     0.047 A 
ATOM     13  C   UNL A   1      39.563  26.753  28.964  1.00  0.00     0.012 A 
ATOM     14  C   UNL A   1      41.262  27.807  30.288  1.00  0.00     0.012 A 
ATOM     15  C   UNL A   1      39.907  27.676  29.969  1.00  0.00    -0.024 A 
BRANCH  15  16
ATOM     16  C   UNL A   1      38.822  28.444  30.618  1.00  0.00     0.029 C 
ATOM     17  C   UNL A   1      37.710  29.002  30.113  1.00  0.00     0.082 C 
ATOM     18  S   UNL A   1      37.148  29.072  28.486  1.00  0.00    -0.052 SA
ATOM     19  C   UNL A   1      36.764  29.756  30.986  1.00  0.00     0.285 C 
ATOM     20  C   UNL A   1      35.999  30.344  28.830  1.00  0.00     0.168 C 
ATOM     21  N   UNL A   1      35.978  30.574  30.190  1.00  0.00    -0.198 N 
ATOM     22  O   UNL A   1      36.700  29.619  32.207  1.00  0.00    -0.266 OA
ATOM     23  S   UNL A   1      35.086  31.103  27.657  1.00  0.00    -0.050 S 
BRANCH  21  24
ATOM     24  N   UNL A   1      35.073  31.498  30.730  1.00  0.00    -0.254 N 
ATOM     25  C   UNL A   1      35.278  32.853  30.873  1.00  0.00     0.274 C 
ATOM     26  H   UNL A   1      34.207  31.145  31.037  1.00  0.00     0.192 HD
ATOM     27  O   UNL A   1      34.340  33.589  31.178  1.00  0.00    -0.267 OA
BRANCH  25  28
ATOM     28  C   UNL A   1      36.619  33.445  30.724  1.00  0.00     0.083 A 
ATOM     29  C   UNL A   1      37.050  33.676  29.411  1.00  0.00     0.018 A 
ATOM     30  C   UNL A   1      37.434  33.810  31.798  1.00  0.00     0.128 A 
ATOM     31  C   UNL A   1      38.264  34.317  29.174  1.00  0.00     0.001 A 
ATOM     32  C   UNL A   1      38.643  34.465  31.561  1.00  0.00     0.047 A 
ATOM     33  C   UNL A   1      39.055  34.721  30.249  1.00  0.00     0.004 A 
BRANCH  30  34
ATOM     34  O   UNL A   1      37.111  33.573  33.105  1.00  0.00    -0.507 OA
ATOM     35  H   UNL A   1      37.385  32.777  33.517  1.00  0.00     0.293 HD
ENDBRANCH  30  34
ENDBRANCH  25  28
ENDBRANCH  21  24
ENDBRANCH  15  16
ENDBRANCH   9  10
ENDBRANCH   6   9
ENDBRANCH   3   6
ENDBRANCH   1   2
BRANCH   1  36
ATOM     36  C   UNL A   1      46.044  22.193  25.264  1.00  0.00     0.023 C 
BRANCH  36  37
ATOM     37  C   UNL A   1      46.380  23.325  24.294  1.00  0.00     0.023 C 
BRANCH  37  38
ATOM     38  C   UNL A   1      47.284  24.422  24.850  1.00  0.00     0.116 C 
BRANCH  38  39
ATOM     39  N   UNL A   1      47.766  25.346  23.834  1.00  0.00    -0.352 N 
ATOM     40  C   UNL A   1      47.694  26.719  23.812  1.00  0.00     0.251 C 
ATOM     41  H   UNL A   1      48.203  24.932  23.056  1.00  0.00     0.163 HD
ATOM     42  O   UNL A   1      48.067  27.333  22.817  1.00  0.00    -0.269 OA
BRANCH  40  43
ATOM     43  C   UNL A   1      47.136  27.451  24.972  1.00  0.00     0.039 A 
ATOM     44  C   UNL A   1      45.755  27.423  25.184  1.00  0.00     0.014 A 
ATOM     45  C   UNL A   1      47.964  28.160  25.846  1.00  0.00     0.014 A 
ATOM     46  C   UNL A   1      45.210  28.058  26.304  1.00  0.00     0.010 A 
ATOM     47  C   UNL A   1      47.429  28.733  26.998  1.00  0.00     0.010 A 
ATOM     48  C   UNL A   1      46.048  28.694  27.235  1.00  0.00    -0.014 A 
BRANCH  48  49
ATOM     49  C   UNL A   1      45.496  29.328  28.460  1.00  0.00     0.031 A 
ATOM     50  C   UNL A   1      44.957  30.731  28.411  1.00  0.00     0.074 A 
ATOM     51  C   UNL A   1      45.559  28.671  29.634  1.00  0.00     0.049 A 
ATOM     52  N   UNL A   1      44.466  31.460  29.379  1.00  0.00    -0.248 NA
ATOM     53  C   UNL A   1      45.004  31.419  27.110  1.00  0.00     0.031 C 
ATOM     54  C   UNL A   1      46.138  27.340  29.831  1.00  0.00     0.029 A 
ATOM     55  N   UNL A   1      45.151  29.043  30.891  1.00  0.00    -0.354 N 
ATOM     56  C   UNL A   1      44.184  32.699  28.818  1.00  0.00     0.074 A 
ATOM     57  C   UNL A   1      44.587  32.636  27.430  1.00  0.00     0.031 C 
ATOM     58  C   UNL A   1      46.038  27.003  31.128  1.00  0.00     0.029 A 
ATOM     59  C   UNL A   1      45.405  28.097  31.858  1.00  0.00     0.049 A 
ATOM     60  H   UNL A   1      44.718  29.906  31.083  1.00  0.00     0.167 HD
ATOM     61  C   UNL A   1      43.608  33.781  29.394  1.00  0.00     0.034 A 
ATOM     62  C   UNL A   1      45.145  28.108  33.180  1.00  0.00     0.034 A 
ATOM     63  C   UNL A   1      43.144  33.819  30.754  1.00  0.00     0.049 A 
ATOM     64  C   UNL A   1      44.438  29.293  33.778  1.00  0.00     0.074 A 
ATOM     65  C   UNL A   1      42.452  34.826  31.401  1.00  0.00     0.029 A 
ATOM     66  N   UNL A   1      43.325  32.801  31.678  1.00  0.00    -0.354 N 
ATOM     67  N   UNL A   1      44.016  30.385  33.188  1.00  0.00    -0.248 NA
ATOM     68  C   UNL A   1      44.134  29.231  35.215  1.00  0.00     0.031 C 
ATOM     69  C   UNL A   1      42.217  34.419  32.719  1.00  0.00     0.029 A 
ATOM     70  C   UNL A   1      42.760  33.156  32.890  1.00  0.00     0.049 A 
ATOM     71  H   UNL A   1      43.788  31.951  31.498  1.00  0.00     0.167 HD
ATOM     72  C   UNL A   1      43.363  31.122  34.171  1.00  0.00     0.074 A 
ATOM     73  C   UNL A   1      43.431  30.342  35.391  1.00  0.00     0.031 C 
ATOM     74  C   UNL A   1      42.777  32.341  34.078  1.00  0.00     0.034 A 
BRANCH  61  75
ATOM     75  C   UNL A   1      43.378  34.990  28.527  1.00  0.00     0.023 A 
ATOM     76  C   UNL A   1      42.086  35.241  28.021  1.00  0.00     0.012 A 
ATOM     77  C   UNL A   1      44.417  35.899  28.248  1.00  0.00     0.148 A 
ATOM     78  C   UNL A   1      41.838  36.357  27.223  1.00  0.00     0.002 A 
ATOM     79  C   UNL A   1      44.153  37.031  27.484  1.00  0.00     0.091 A 
ATOM     80  F   UNL A   1      45.645  35.631  28.713  1.00  0.00    -0.205 F 
ATOM     81  C   UNL A   1      42.868  37.256  26.964  1.00  0.00     0.022 A 
BRANCH  79  82
ATOM     82  S   UNL A   1      45.403  38.281  27.159  1.00  0.00     0.127 S 
ATOM     83  O   UNL A   1      44.648  39.256  26.373  1.00  0.00    -0.237 OA
ATOM     84  O   UNL A   1      45.757  38.728  28.507  1.00  0.00    -0.237 OA
ATOM     85  O   UNL A   1      46.474  37.592  26.453  1.00  0.00    -0.744 OA
ENDBRANCH  79  82
ENDBRANCH  61  75
BRANCH  62  86
ATOM     86  C   UNL A   1      45.457  26.908  34.006  1.00  0.00     0.023 A 
ATOM     87  C   UNL A   1      46.598  26.928  34.832  1.00  0.00     0.012 A 
ATOM     88  C   UNL A   1      44.627  25.771  34.011  1.00  0.00     0.148 A 
ATOM     89  C   UNL A   1      46.921  25.829  35.628  1.00  0.00     0.002 A 
ATOM     90  C   UNL A   1      44.927  24.698  34.843  1.00  0.00     0.091 A 
ATOM     91  F   UNL A   1      43.554  25.764  33.206  1.00  0.00    -0.205 F 
ATOM     92  C   UNL A   1      46.081  24.720  35.642  1.00  0.00     0.022 A 
BRANCH  90  93
ATOM     93  S   UNL A   1      43.832  23.285  35.017  1.00  0.00     0.127 S 
ATOM     94  O   UNL A   1      44.616  22.403  35.878  1.00  0.00    -0.237 OA
ATOM     95  O   UNL A   1      42.658  23.882  35.652  1.00  0.00    -0.237 OA
ATOM     96  O   UNL A   1      43.597  22.809  33.660  1.00  0.00    -0.744 OA
ENDBRANCH  90  93
ENDBRANCH  62  86
BRANCH  74  97
ATOM     97  C   UNL A   1      42.131  32.901  35.316  1.00  0.00     0.023 A 
ATOM     98  C   UNL A   1      42.869  33.753  36.160  1.00  0.00     0.012 A 
ATOM     99  C   UNL A   1      40.776  32.646  35.604  1.00  0.00     0.148 A 
ATOM    100  C   UNL A   1      42.277  34.321  37.287  1.00  0.00     0.002 A 
ATOM    101  C   UNL A   1      40.180  33.250  36.706  1.00  0.00     0.091 A 
ATOM    102  F   UNL A   1      40.096  31.813  34.803  1.00  0.00    -0.205 F 
ATOM    103  C   UNL A   1      40.931  34.080  37.554  1.00  0.00     0.022 A 
BRANCH 101 104
ATOM    104  S   UNL A   1      38.430  33.059  37.061  1.00  0.00     0.127 S 
ATOM    105  O   UNL A   1      37.842  33.140  35.725  1.00  0.00    -0.237 OA
ATOM    106  O   UNL A   1      38.372  31.730  37.672  1.00  0.00    -0.237 OA
ATOM    107  O   UNL A   1      38.092  34.148  37.968  1.00  0.00    -0.744 OA
ENDBRANCH 101 104
ENDBRANCH  74  97
ENDBRANCH  48  49
ENDBRANCH  40  43
ENDBRANCH  38  39
ENDBRANCH  37  38
ENDBRANCH  36  37
ENDBRANCH   1  36
TORSDOF 21
ENDMDL
