MODEL 1
REMARK VINA RESULT:     -11.1      0.000      0.000
REMARK SMILES CC(C)(C)c1cc(NC(=O)CSC[C@H]([NH3+])C(=O)NCCCCNC(=O)c2ccc(-c3c4nc(c(-c5cccc(S(=O)(=O)[O-])c5F)c5ccc([nH]5)c(-c5cccc(S(=O)(=O)[O-])c5F)c5nc(c(-c6cccc(S(=O)(=O)[O-])c6F)c6ccc3[nH]6)C=C5)C=C4)cc2)on1
REMARK SMILES IDX 19 1 18 2 16 3 17 4 14 6 13 7 12 8 11 9 9 10 8 11 10 13 7 14
REMARK SMILES IDX 5 15 6 16 90 17 89 18 2 19 1 20 3 21 4 22 15 23 20 27 21 28
REMARK SMILES IDX 22 29 23 30 24 31 25 33 26 34 27 35 88 36 28 37 87 38 29 39
REMARK SMILES IDX 30 40 31 41 81 42 32 43 86 44 80 45 82 46 33 47 85 48 79 49
REMARK SMILES IDX 78 50 34 52 66 53 46 54 65 55 47 56 50 57 64 58 83 59 48 60
REMARK SMILES IDX 49 61 63 63 84 64 51 65 35 66 36 67 44 68 37 69 39 70 45 71
REMARK SMILES IDX 38 72 40 73 41 74 42 75 43 76 67 77 68 78 76 79 69 80 71 81
REMARK SMILES IDX 77 82 70 83 72 84 73 85 74 86 75 87 52 88 53 89 61 90 54 91
REMARK SMILES IDX 56 92 62 93 55 94 57 95 58 96 59 97 60 98
REMARK H PARENT 18 5 8 12 15 24 15 25 15 26 23 32 82 51 50 62
REMARK Flexibility Score: inf
ROOT
ATOM      1  C   UNL A   1      31.835  29.893  24.914  1.00  0.00     0.116 C 
ENDROOT
BRANCH   1   2
ATOM      2  N   UNL A   1      30.481  30.228  24.537  1.00  0.00    -0.351 N 
ATOM      3  C   UNL A   1      29.782  29.853  23.430  1.00  0.00     0.279 C 
ATOM      4  O   UNL A   1      28.595  30.191  23.354  1.00  0.00    -0.268 OA
ATOM      5  H   UNL A   1      29.996  30.808  25.167  1.00  0.00     0.163 HD
BRANCH   3   6
ATOM      6  C   UNL A   1      30.423  29.042  22.282  1.00  0.00     0.280 C 
BRANCH   6   7
ATOM      7  C   UNL A   1      30.675  27.562  22.652  1.00  0.00     0.145 C 
BRANCH   7   8
ATOM      8  S   UNL A   1      29.704  26.703  23.963  1.00  0.00    -0.145 SA
BRANCH   8   9
ATOM      9  C   UNL A   1      30.850  25.375  24.493  1.00  0.00     0.170 C 
BRANCH   9  10
ATOM     10  C   UNL A   1      30.681  25.069  25.971  1.00  0.00     0.236 C 
ATOM     11  N   UNL A   1      31.600  24.323  26.660  1.00  0.00    -0.294 N 
ATOM     12  H   UNL A   1      31.467  24.251  27.633  1.00  0.00     0.173 HD
ATOM     13  O   UNL A   1      29.743  25.564  26.610  1.00  0.00    -0.274 OA
BRANCH  11  14
ATOM     14  C   UNL A   1      32.684  23.667  26.139  1.00  0.00     0.231 A 
ATOM     15  C   UNL A   1      34.650  22.951  25.430  1.00  0.00     0.091 A 
ATOM     16  C   UNL A   1      34.024  23.943  26.234  1.00  0.00     0.097 A 
ATOM     17  N   UNL A   1      33.744  22.079  24.971  1.00  0.00    -0.082 NA
ATOM     18  O   UNL A   1      32.526  22.535  25.412  1.00  0.00    -0.338 OA
BRANCH  15  19
ATOM     19  C   UNL A   1      36.116  22.811  25.076  1.00  0.00     0.008 C 
ATOM     20  C   UNL A   1      36.998  23.826  25.838  1.00  0.00     0.018 C 
ATOM     21  C   UNL A   1      36.307  23.046  23.567  1.00  0.00     0.018 C 
ATOM     22  C   UNL A   1      36.608  21.396  25.439  1.00  0.00     0.018 C 
ENDBRANCH  15  19
ENDBRANCH  11  14
ENDBRANCH   9  10
ENDBRANCH   8   9
ENDBRANCH   7   8
ENDBRANCH   6   7
BRANCH   6  23
ATOM     23  N   UNL A   1      31.520  29.803  21.652  1.00  0.00    -0.347 N 
ATOM     24  H   UNL A   1      32.113  30.207  22.376  1.00  0.00     0.345 HD
ATOM     25  H   UNL A   1      31.130  30.549  21.077  1.00  0.00     0.345 HD
ATOM     26  H   UNL A   1      32.075  29.178  21.067  1.00  0.00     0.345 HD
ENDBRANCH   6  23
ENDBRANCH   3   6
ENDBRANCH   1   2
BRANCH   1  27
ATOM     27  C   UNL A   1      32.152  30.133  26.382  1.00  0.00     0.023 C 
BRANCH  27  28
ATOM     28  C   UNL A   1      31.829  31.526  26.907  1.00  0.00     0.023 C 
BRANCH  28  29
ATOM     29  C   UNL A   1      33.029  32.374  27.310  1.00  0.00     0.116 C 
BRANCH  29  30
ATOM     30  N   UNL A   1      32.688  33.757  27.613  1.00  0.00    -0.352 N 
ATOM     31  C   UNL A   1      33.228  34.600  28.557  1.00  0.00     0.251 C 
ATOM     32  H   UNL A   1      31.971  34.145  27.062  1.00  0.00     0.163 HD
ATOM     33  O   UNL A   1      32.740  35.712  28.739  1.00  0.00    -0.269 OA
BRANCH  31  34
ATOM     34  C   UNL A   1      34.373  34.150  29.378  1.00  0.00     0.039 A 
ATOM     35  C   UNL A   1      34.128  33.342  30.491  1.00  0.00     0.014 A 
ATOM     36  C   UNL A   1      35.684  34.496  29.039  1.00  0.00     0.014 A 
ATOM     37  C   UNL A   1      35.201  32.815  31.214  1.00  0.00     0.010 A 
ATOM     38  C   UNL A   1      36.751  33.902  29.707  1.00  0.00     0.010 A 
ATOM     39  C   UNL A   1      36.523  33.056  30.802  1.00  0.00    -0.014 A 
BRANCH  39  40
ATOM     40  C   UNL A   1      37.671  32.405  31.486  1.00  0.00     0.031 A 
ATOM     41  C   UNL A   1      38.400  31.258  30.841  1.00  0.00     0.074 A 
ATOM     42  C   UNL A   1      37.999  32.785  32.737  1.00  0.00     0.049 A 
ATOM     43  N   UNL A   1      39.406  30.559  31.299  1.00  0.00    -0.248 NA
ATOM     44  C   UNL A   1      37.918  30.816  29.521  1.00  0.00     0.031 C 
ATOM     45  C   UNL A   1      37.301  33.808  33.520  1.00  0.00     0.029 A 
ATOM     46  N   UNL A   1      38.983  32.335  33.583  1.00  0.00    -0.354 N 
ATOM     47  C   UNL A   1      39.650  29.573  30.351  1.00  0.00     0.074 A 
ATOM     48  C   UNL A   1      38.665  29.743  29.305  1.00  0.00     0.031 C 
ATOM     49  C   UNL A   1      37.878  33.909  34.727  1.00  0.00     0.029 A 
ATOM     50  C   UNL A   1      38.972  32.946  34.816  1.00  0.00     0.049 A 
ATOM     51  H   UNL A   1      39.635  31.642  33.332  1.00  0.00     0.167 HD
ATOM     52  C   UNL A   1      40.622  28.630  30.334  1.00  0.00     0.034 A 
ATOM     53  C   UNL A   1      39.749  32.752  35.899  1.00  0.00     0.034 A 
ATOM     54  C   UNL A   1      41.631  28.495  31.351  1.00  0.00     0.049 A 
ATOM     55  C   UNL A   1      40.872  31.754  35.827  1.00  0.00     0.074 A 
ATOM     56  C   UNL A   1      42.732  27.658  31.365  1.00  0.00     0.029 A 
ATOM     57  N   UNL A   1      41.656  29.206  32.541  1.00  0.00    -0.354 N 
ATOM     58  N   UNL A   1      41.213  30.968  34.834  1.00  0.00    -0.248 NA
ATOM     59  C   UNL A   1      41.744  31.646  37.005  1.00  0.00     0.031 C 
ATOM     60  C   UNL A   1      43.407  27.842  32.576  1.00  0.00     0.029 A 
ATOM     61  C   UNL A   1      42.742  28.814  33.305  1.00  0.00     0.049 A 
ATOM     62  H   UNL A   1      40.997  29.889  32.805  1.00  0.00     0.167 HD
ATOM     63  C   UNL A   1      42.351  30.290  35.256  1.00  0.00     0.074 A 
ATOM     64  C   UNL A   1      42.658  30.782  36.584  1.00  0.00     0.031 C 
ATOM     65  C   UNL A   1      43.065  29.337  34.609  1.00  0.00     0.034 A 
BRANCH  52  66
ATOM     66  C   UNL A   1      40.674  27.700  29.150  1.00  0.00     0.023 A 
ATOM     67  C   UNL A   1      39.776  26.614  29.077  1.00  0.00     0.012 A 
ATOM     68  C   UNL A   1      41.571  27.925  28.089  1.00  0.00     0.148 A 
ATOM     69  C   UNL A   1      39.799  25.744  27.989  1.00  0.00     0.002 A 
ATOM     70  C   UNL A   1      41.556  27.080  26.984  1.00  0.00     0.091 A 
ATOM     71  F   UNL A   1      42.434  28.947  28.184  1.00  0.00    -0.205 F 
ATOM     72  C   UNL A   1      40.681  25.983  26.938  1.00  0.00     0.022 A 
BRANCH  70  73
ATOM     73  S   UNL A   1      42.597  27.352  25.546  1.00  0.00     0.127 S 
ATOM     74  O   UNL A   1      42.430  26.095  24.818  1.00  0.00    -0.237 OA
ATOM     75  O   UNL A   1      41.960  28.509  24.916  1.00  0.00    -0.237 OA
ATOM     76  O   UNL A   1      43.935  27.606  26.063  1.00  0.00    -0.744 OA
ENDBRANCH  70  73
ENDBRANCH  52  66
BRANCH  53  77
ATOM     77  C   UNL A   1      39.530  33.579  37.120  1.00  0.00     0.023 A 
ATOM     78  C   UNL A   1      40.034  34.892  37.168  1.00  0.00     0.012 A 
ATOM     79  C   UNL A   1      38.781  33.089  38.208  1.00  0.00     0.148 A 
ATOM     80  C   UNL A   1      39.818  35.696  38.288  1.00  0.00     0.002 A 
ATOM     81  C   UNL A   1      38.522  33.914  39.296  1.00  0.00     0.091 A 
ATOM     82  F   UNL A   1      38.320  31.832  38.145  1.00  0.00    -0.205 F 
ATOM     83  C   UNL A   1      39.053  35.211  39.345  1.00  0.00     0.022 A 
BRANCH  81  84
ATOM     84  S   UNL A   1      37.433  33.424  40.638  1.00  0.00     0.127 S 
ATOM     85  O   UNL A   1      36.301  32.854  39.913  1.00  0.00    -0.237 OA
ATOM     86  O   UNL A   1      38.259  32.452  41.355  1.00  0.00    -0.237 OA
ATOM     87  O   UNL A   1      37.157  34.643  41.385  1.00  0.00    -0.744 OA
ENDBRANCH  81  84
ENDBRANCH  53  77
BRANCH  65  88
ATOM     88  C   UNL A   1      44.266  28.764  35.317  1.00  0.00     0.023 A 
ATOM     89  C   UNL A   1      45.535  29.345  35.122  1.00  0.00     0.012 A 
ATOM     90  C   UNL A   1      44.128  27.694  36.223  1.00  0.00     0.148 A 
ATOM     91  C   UNL A   1      46.653  28.849  35.791  1.00  0.00     0.002 A 
ATOM     92  C   UNL A   1      45.238  27.237  36.924  1.00  0.00     0.091 A 
ATOM     93  F   UNL A   1      42.917  27.141  36.381  1.00  0.00    -0.205 F 
ATOM     94  C   UNL A   1      46.503  27.803  36.700  1.00  0.00     0.022 A 
BRANCH  92  95
ATOM     95  S   UNL A   1      45.120  25.960  38.182  1.00  0.00     0.127 S 
ATOM     96  O   UNL A   1      44.066  26.488  39.046  1.00  0.00    -0.237 OA
ATOM     97  O   UNL A   1      44.735  24.784  37.400  1.00  0.00    -0.237 OA
ATOM     98  O   UNL A   1      46.442  25.873  38.788  1.00  0.00    -0.744 OA
ENDBRANCH  92  95
ENDBRANCH  65  88
ENDBRANCH  39  40
ENDBRANCH  31  34
ENDBRANCH  29  30
ENDBRANCH  28  29
ENDBRANCH  27  28
ENDBRANCH   1  27
TORSDOF 21
ENDMDL
MODEL 2
REMARK VINA RESULT:     -11.1      5.543      9.239
REMARK SMILES CC(C)(C)c1cc(NC(=O)CSC[C@H]([NH3+])C(=O)NCCCCNC(=O)c2ccc(-c3c4nc(c(-c5cccc(S(=O)(=O)[O-])c5F)c5ccc([nH]5)c(-c5cccc(S(=O)(=O)[O-])c5F)c5nc(c(-c6cccc(S(=O)(=O)[O-])c6F)c6ccc3[nH]6)C=C5)C=C4)cc2)on1
REMARK SMILES IDX 19 1 18 2 16 3 17 4 14 6 13 7 12 8 11 9 9 10 8 11 10 13 7 14
REMARK SMILES IDX 5 15 6 16 90 17 89 18 2 19 1 20 3 21 4 22 15 23 20 27 21 28
REMARK SMILES IDX 22 29 23 30 24 31 25 33 26 34 27 35 88 36 28 37 87 38 29 39
REMARK SMILES IDX 30 40 31 41 81 42 32 43 86 44 80 45 82 46 33 47 85 48 79 49
REMARK SMILES IDX 78 50 34 52 66 53 46 54 65 55 47 56 50 57 64 58 83 59 48 60
REMARK SMILES IDX 49 61 63 63 84 64 51 65 35 66 36 67 44 68 37 69 39 70 45 71
REMARK SMILES IDX 38 72 40 73 41 74 42 75 43 76 67 77 68 78 76 79 69 80 71 81
REMARK SMILES IDX 77 82 70 83 72 84 73 85 74 86 75 87 52 88 53 89 61 90 54 91
REMARK SMILES IDX 56 92 62 93 55 94 57 95 58 96 59 97 60 98
REMARK H PARENT 18 5 8 12 15 24 15 25 15 26 23 32 82 51 50 62
REMARK Flexibility Score: inf
ROOT
ATOM      1  C   UNL A   1      34.981  22.916  25.462  1.00  0.00     0.116 C 
ENDROOT
BRANCH   1   2
ATOM      2  N   UNL A   1      34.277  22.901  26.725  1.00  0.00    -0.351 N 
ATOM      3  C   UNL A   1      32.942  22.772  26.959  1.00  0.00     0.279 C 
ATOM      4  O   UNL A   1      32.567  22.700  28.135  1.00  0.00    -0.268 OA
ATOM      5  H   UNL A   1      34.841  23.000  27.526  1.00  0.00     0.163 HD
BRANCH   3   6
ATOM      6  C   UNL A   1      31.902  22.724  25.818  1.00  0.00     0.280 C 
BRANCH   6   7
ATOM      7  C   UNL A   1      31.943  23.973  24.907  1.00  0.00     0.145 C 
BRANCH   7   8
ATOM      8  S   UNL A   1      32.241  23.850  23.092  1.00  0.00    -0.145 SA
BRANCH   8   9
ATOM      9  C   UNL A   1      31.584  25.446  22.478  1.00  0.00     0.170 C 
BRANCH   9  10
ATOM     10  C   UNL A   1      32.714  26.387  22.094  1.00  0.00     0.236 C 
ATOM     11  N   UNL A   1      32.615  27.740  22.280  1.00  0.00    -0.294 N 
ATOM     12  H   UNL A   1      33.425  28.269  22.095  1.00  0.00     0.173 HD
ATOM     13  O   UNL A   1      33.791  25.937  21.682  1.00  0.00    -0.274 OA
BRANCH  11  14
ATOM     14  C   UNL A   1      31.511  28.436  22.694  1.00  0.00     0.231 A 
ATOM     15  C   UNL A   1      29.579  29.473  22.970  1.00  0.00     0.091 A 
ATOM     16  C   UNL A   1      30.279  28.585  22.108  1.00  0.00     0.097 A 
ATOM     17  N   UNL A   1      30.314  29.751  24.054  1.00  0.00    -0.082 NA
ATOM     18  O   UNL A   1      31.513  29.107  23.871  1.00  0.00    -0.338 OA
BRANCH  15  19
ATOM     19  C   UNL A   1      28.205  30.080  22.784  1.00  0.00     0.008 C 
ATOM     20  C   UNL A   1      28.020  31.369  23.617  1.00  0.00     0.018 C 
ATOM     21  C   UNL A   1      27.130  29.067  23.220  1.00  0.00     0.018 C 
ATOM     22  C   UNL A   1      27.990  30.444  21.301  1.00  0.00     0.018 C 
ENDBRANCH  15  19
ENDBRANCH  11  14
ENDBRANCH   9  10
ENDBRANCH   8   9
ENDBRANCH   7   8
ENDBRANCH   6   7
BRANCH   6  23
ATOM     23  N   UNL A   1      30.592  22.266  26.321  1.00  0.00    -0.347 N 
ATOM     24  H   UNL A   1      29.925  22.232  25.550  1.00  0.00     0.345 HD
ATOM     25  H   UNL A   1      30.255  22.913  27.033  1.00  0.00     0.345 HD
ATOM     26  H   UNL A   1      30.690  21.335  26.726  1.00  0.00     0.345 HD
ENDBRANCH   6  23
ENDBRANCH   3   6
ENDBRANCH   1   2
BRANCH   1  27
ATOM     27  C   UNL A   1      35.313  21.535  24.917  1.00  0.00     0.023 C 
BRANCH  27  28
ATOM     28  C   UNL A   1      36.751  21.338  24.454  1.00  0.00     0.023 C 
BRANCH  28  29
ATOM     29  C   UNL A   1      37.822  21.964  25.338  1.00  0.00     0.116 C 
BRANCH  29  30
ATOM     30  N   UNL A   1      38.788  21.003  25.851  1.00  0.00    -0.352 N 
ATOM     31  C   UNL A   1      39.924  21.223  26.594  1.00  0.00     0.251 C 
ATOM     32  H   UNL A   1      38.602  20.060  25.636  1.00  0.00     0.163 HD
ATOM     33  O   UNL A   1      40.681  20.291  26.853  1.00  0.00    -0.269 OA
BRANCH  31  34
ATOM     34  C   UNL A   1      40.253  22.592  27.051  1.00  0.00     0.039 A 
ATOM     35  C   UNL A   1      41.212  22.755  28.054  1.00  0.00     0.014 A 
ATOM     36  C   UNL A   1      39.645  23.710  26.475  1.00  0.00     0.014 A 
ATOM     37  C   UNL A   1      41.618  24.040  28.420  1.00  0.00     0.010 A 
ATOM     38  C   UNL A   1      40.111  24.986  26.781  1.00  0.00     0.010 A 
ATOM     39  C   UNL A   1      41.102  25.166  27.757  1.00  0.00    -0.014 A 
BRANCH  39  40
ATOM     40  C   UNL A   1      41.613  26.531  28.050  1.00  0.00     0.031 A 
ATOM     41  C   UNL A   1      43.024  26.916  27.700  1.00  0.00     0.074 A 
ATOM     42  C   UNL A   1      40.830  27.400  28.722  1.00  0.00     0.049 A 
ATOM     43  N   UNL A   1      43.642  28.050  27.900  1.00  0.00    -0.248 NA
ATOM     44  C   UNL A   1      43.863  25.882  27.071  1.00  0.00     0.031 C 
ATOM     45  C   UNL A   1      39.482  27.115  29.217  1.00  0.00     0.029 A 
ATOM     46  N   UNL A   1      41.067  28.690  29.130  1.00  0.00    -0.354 N 
ATOM     47  C   UNL A   1      44.948  27.857  27.465  1.00  0.00     0.074 A 
ATOM     48  C   UNL A   1      45.042  26.484  27.018  1.00  0.00     0.031 C 
ATOM     49  C   UNL A   1      39.011  28.195  29.859  1.00  0.00     0.029 A 
ATOM     50  C   UNL A   1      40.028  29.241  29.843  1.00  0.00     0.049 A 
ATOM     51  H   UNL A   1      41.901  29.174  28.932  1.00  0.00     0.167 HD
ATOM     52  C   UNL A   1      45.968  28.746  27.412  1.00  0.00     0.034 A 
ATOM     53  C   UNL A   1      39.906  30.452  30.423  1.00  0.00     0.034 A 
ATOM     54  C   UNL A   1      45.857  30.124  27.810  1.00  0.00     0.049 A 
ATOM     55  C   UNL A   1      41.023  31.448  30.282  1.00  0.00     0.074 A 
ATOM     56  C   UNL A   1      46.791  31.136  27.678  1.00  0.00     0.029 A 
ATOM     57  N   UNL A   1      44.750  30.683  28.431  1.00  0.00    -0.354 N 
ATOM     58  N   UNL A   1      42.181  31.309  29.682  1.00  0.00    -0.248 NA
ATOM     59  C   UNL A   1      40.802  32.783  30.857  1.00  0.00     0.031 C 
ATOM     60  C   UNL A   1      46.260  32.299  28.243  1.00  0.00     0.029 A 
ATOM     61  C   UNL A   1      44.984  32.019  28.705  1.00  0.00     0.049 A 
ATOM     62  H   UNL A   1      43.920  30.199  28.646  1.00  0.00     0.167 HD
ATOM     63  C   UNL A   1      42.816  32.541  29.785  1.00  0.00     0.074 A 
ATOM     64  C   UNL A   1      41.900  33.423  30.480  1.00  0.00     0.031 C 
ATOM     65  C   UNL A   1      44.052  32.903  29.359  1.00  0.00     0.034 A 
BRANCH  52  66
ATOM     66  C   UNL A   1      47.283  28.268  26.854  1.00  0.00     0.023 A 
ATOM     67  C   UNL A   1      48.349  27.980  27.733  1.00  0.00     0.012 A 
ATOM     68  C   UNL A   1      47.453  28.057  25.473  1.00  0.00     0.148 A 
ATOM     69  C   UNL A   1      49.574  27.530  27.242  1.00  0.00     0.002 A 
ATOM     70  C   UNL A   1      48.662  27.563  24.995  1.00  0.00     0.091 A 
ATOM     71  F   UNL A   1      46.438  28.358  24.649  1.00  0.00    -0.205 F 
ATOM     72  C   UNL A   1      49.726  27.311  25.876  1.00  0.00     0.022 A 
BRANCH  70  73
ATOM     73  S   UNL A   1      48.929  27.172  23.262  1.00  0.00     0.127 S 
ATOM     74  O   UNL A   1      48.156  25.939  23.115  1.00  0.00    -0.237 OA
ATOM     75  O   UNL A   1      48.352  28.336  22.589  1.00  0.00    -0.237 OA
ATOM     76  O   UNL A   1      50.370  27.033  23.102  1.00  0.00    -0.744 OA
ENDBRANCH  70  73
ENDBRANCH  52  66
BRANCH  53  77
ATOM     77  C   UNL A   1      38.642  30.806  31.129  1.00  0.00     0.023 A 
ATOM     78  C   UNL A   1      38.536  30.579  32.515  1.00  0.00     0.012 A 
ATOM     79  C   UNL A   1      37.570  31.413  30.447  1.00  0.00     0.148 A 
ATOM     80  C   UNL A   1      37.374  30.928  33.205  1.00  0.00     0.002 A 
ATOM     81  C   UNL A   1      36.439  31.810  31.150  1.00  0.00     0.091 A 
ATOM     82  F   UNL A   1      37.690  31.610  29.127  1.00  0.00    -0.205 F 
ATOM     83  C   UNL A   1      36.332  31.553  32.525  1.00  0.00     0.022 A 
BRANCH  81  84
ATOM     84  S   UNL A   1      35.108  32.744  30.387  1.00  0.00     0.127 S 
ATOM     85  O   UNL A   1      34.185  32.918  31.505  1.00  0.00    -0.237 OA
ATOM     86  O   UNL A   1      35.801  33.961  29.962  1.00  0.00    -0.237 OA
ATOM     87  O   UNL A   1      34.625  31.917  29.290  1.00  0.00    -0.744 OA
ENDBRANCH  81  84
ENDBRANCH  53  77
BRANCH  65  88
ATOM     88  C   UNL A   1      44.490  34.322  29.614  1.00  0.00     0.023 A 
ATOM     89  C   UNL A   1      45.095  34.657  30.842  1.00  0.00     0.012 A 
ATOM     90  C   UNL A   1      44.363  35.308  28.615  1.00  0.00     0.148 A 
ATOM     91  C   UNL A   1      45.535  35.957  31.086  1.00  0.00     0.002 A 
ATOM     92  C   UNL A   1      44.849  36.589  28.847  1.00  0.00     0.091 A 
ATOM     93  F   UNL A   1      43.768  34.976  27.461  1.00  0.00    -0.205 F 
ATOM     94  C   UNL A   1      45.422  36.920  30.085  1.00  0.00     0.022 A 
BRANCH  92  95
ATOM     95  S   UNL A   1      44.833  37.865  27.581  1.00  0.00     0.127 S 
ATOM     96  O   UNL A   1      45.569  38.944  28.235  1.00  0.00    -0.237 OA
ATOM     97  O   UNL A   1      45.548  37.220  26.478  1.00  0.00    -0.237 OA
ATOM     98  O   UNL A   1      43.428  38.138  27.309  1.00  0.00    -0.744 OA
ENDBRANCH  92  95
ENDBRANCH  65  88
ENDBRANCH  39  40
ENDBRANCH  31  34
ENDBRANCH  29  30
ENDBRANCH  28  29
ENDBRANCH  27  28
ENDBRANCH   1  27
TORSDOF 21
ENDMDL
MODEL 3
REMARK VINA RESULT:     -10.9      1.098      7.782
REMARK SMILES CC(C)(C)c1cc(NC(=O)CSC[C@H]([NH3+])C(=O)NCCCCNC(=O)c2ccc(-c3c4nc(c(-c5cccc(S(=O)(=O)[O-])c5F)c5ccc([nH]5)c(-c5cccc(S(=O)(=O)[O-])c5F)c5nc(c(-c6cccc(S(=O)(=O)[O-])c6F)c6ccc3[nH]6)C=C5)C=C4)cc2)on1
REMARK SMILES IDX 19 1 18 2 16 3 17 4 14 6 13 7 12 8 11 9 9 10 8 11 10 13 7 14
REMARK SMILES IDX 5 15 6 16 90 17 89 18 2 19 1 20 3 21 4 22 15 23 20 27 21 28
REMARK SMILES IDX 22 29 23 30 24 31 25 33 26 34 27 35 88 36 28 37 87 38 29 39
REMARK SMILES IDX 30 40 31 41 81 42 32 43 86 44 80 45 82 46 33 47 85 48 79 49
REMARK SMILES IDX 78 50 34 52 66 53 46 54 65 55 47 56 50 57 64 58 83 59 48 60
REMARK SMILES IDX 49 61 63 63 84 64 51 65 35 66 36 67 44 68 37 69 39 70 45 71
REMARK SMILES IDX 38 72 40 73 41 74 42 75 43 76 67 77 68 78 76 79 69 80 71 81
REMARK SMILES IDX 77 82 70 83 72 84 73 85 74 86 75 87 52 88 53 89 61 90 54 91
REMARK SMILES IDX 56 92 62 93 55 94 57 95 58 96 59 97 60 98
REMARK H PARENT 18 5 8 12 15 24 15 25 15 26 23 32 82 51 50 62
REMARK Flexibility Score: inf
ROOT
ATOM      1  C   UNL A   1      32.137  29.437  25.184  1.00  0.00     0.116 C 
ENDROOT
BRANCH   1   2
ATOM      2  N   UNL A   1      31.061  29.721  24.262  1.00  0.00    -0.351 N 
ATOM      3  C   UNL A   1      30.383  28.866  23.448  1.00  0.00     0.279 C 
ATOM      4  O   UNL A   1      29.432  29.318  22.800  1.00  0.00    -0.268 OA
ATOM      5  H   UNL A   1      30.779  30.663  24.216  1.00  0.00     0.163 HD
BRANCH   3   6
ATOM      6  C   UNL A   1      30.770  27.378  23.306  1.00  0.00     0.280 C 
BRANCH   6   7
ATOM      7  C   UNL A   1      30.295  26.511  24.495  1.00  0.00     0.145 C 
BRANCH   7   8
ATOM      8  S   UNL A   1      31.484  25.681  25.634  1.00  0.00    -0.145 SA
BRANCH   8   9
ATOM      9  C   UNL A   1      31.106  23.907  25.371  1.00  0.00     0.170 C 
BRANCH   9  10
ATOM     10  C   UNL A   1      31.075  23.157  26.692  1.00  0.00     0.236 C 
ATOM     11  N   UNL A   1      32.145  22.420  27.124  1.00  0.00    -0.294 N 
ATOM     12  H   UNL A   1      32.081  22.043  28.031  1.00  0.00     0.173 HD
ATOM     13  O   UNL A   1      30.104  23.267  27.452  1.00  0.00    -0.274 OA
BRANCH  11  14
ATOM     14  C   UNL A   1      33.293  22.149  26.427  1.00  0.00     0.231 A 
ATOM     15  C   UNL A   1      35.242  22.121  25.387  1.00  0.00     0.091 A 
ATOM     16  C   UNL A   1      34.437  22.890  26.271  1.00  0.00     0.097 A 
ATOM     17  N   UNL A   1      34.654  20.949  25.117  1.00  0.00    -0.082 NA
ATOM     18  O   UNL A   1      33.443  20.978  25.764  1.00  0.00    -0.338 OA
BRANCH  15  19
ATOM     19  C   UNL A   1      36.579  22.481  24.775  1.00  0.00     0.008 C 
ATOM     20  C   UNL A   1      36.444  22.930  23.302  1.00  0.00     0.018 C 
ATOM     21  C   UNL A   1      37.514  21.259  24.822  1.00  0.00     0.018 C 
ATOM     22  C   UNL A   1      37.219  23.643  25.563  1.00  0.00     0.018 C 
ENDBRANCH  15  19
ENDBRANCH  11  14
ENDBRANCH   9  10
ENDBRANCH   8   9
ENDBRANCH   7   8
ENDBRANCH   6   7
BRANCH   6  23
ATOM     23  N   UNL A   1      32.168  27.240  22.851  1.00  0.00    -0.347 N 
ATOM     24  H   UNL A   1      32.760  27.885  23.375  1.00  0.00     0.345 HD
ATOM     25  H   UNL A   1      32.225  27.457  21.857  1.00  0.00     0.345 HD
ATOM     26  H   UNL A   1      32.484  26.284  23.010  1.00  0.00     0.345 HD
ENDBRANCH   6  23
ENDBRANCH   3   6
ENDBRANCH   1   2
BRANCH   1  27
ATOM     27  C   UNL A   1      31.927  30.000  26.582  1.00  0.00     0.023 C 
BRANCH  27  28
ATOM     28  C   UNL A   1      31.774  31.514  26.666  1.00  0.00     0.023 C 
BRANCH  28  29
ATOM     29  C   UNL A   1      32.937  32.260  27.307  1.00  0.00     0.116 C 
BRANCH  29  30
ATOM     30  N   UNL A   1      32.622  33.639  27.655  1.00  0.00    -0.352 N 
ATOM     31  C   UNL A   1      33.220  34.460  28.583  1.00  0.00     0.251 C 
ATOM     32  H   UNL A   1      31.876  34.041  27.155  1.00  0.00     0.163 HD
ATOM     33  O   UNL A   1      32.750  35.571  28.814  1.00  0.00    -0.269 OA
BRANCH  31  34
ATOM     34  C   UNL A   1      34.409  33.990  29.328  1.00  0.00     0.039 A 
ATOM     35  C   UNL A   1      34.221  33.217  30.476  1.00  0.00     0.014 A 
ATOM     36  C   UNL A   1      35.701  34.280  28.882  1.00  0.00     0.014 A 
ATOM     37  C   UNL A   1      35.328  32.670  31.130  1.00  0.00     0.010 A 
ATOM     38  C   UNL A   1      36.795  33.665  29.484  1.00  0.00     0.010 A 
ATOM     39  C   UNL A   1      36.622  32.853  30.615  1.00  0.00    -0.014 A 
BRANCH  39  40
ATOM     40  C   UNL A   1      37.796  32.178  31.228  1.00  0.00     0.031 A 
ATOM     41  C   UNL A   1      38.425  32.718  32.483  1.00  0.00     0.074 A 
ATOM     42  C   UNL A   1      38.358  31.127  30.597  1.00  0.00     0.049 A 
ATOM     43  N   UNL A   1      39.462  32.272  33.142  1.00  0.00    -0.248 NA
ATOM     44  C   UNL A   1      37.831  33.936  33.058  1.00  0.00     0.031 C 
ATOM     45  C   UNL A   1      37.914  30.573  29.316  1.00  0.00     0.029 A 
ATOM     46  N   UNL A   1      39.444  30.355  30.933  1.00  0.00    -0.354 N 
ATOM     47  C   UNL A   1      39.674  33.172  34.178  1.00  0.00     0.074 A 
ATOM     48  C   UNL A   1      38.674  34.210  34.043  1.00  0.00     0.031 C 
ATOM     49  C   UNL A   1      38.716  29.553  28.976  1.00  0.00     0.029 A 
ATOM     50  C   UNL A   1      39.744  29.391  29.999  1.00  0.00     0.049 A 
ATOM     51  H   UNL A   1      39.957  30.479  31.763  1.00  0.00     0.167 HD
ATOM     52  C   UNL A   1      40.593  33.127  35.171  1.00  0.00     0.034 A 
ATOM     53  C   UNL A   1      40.737  28.480  29.965  1.00  0.00     0.034 A 
ATOM     54  C   UNL A   1      41.553  32.068  35.333  1.00  0.00     0.049 A 
ATOM     55  C   UNL A   1      41.698  28.401  31.119  1.00  0.00     0.074 A 
ATOM     56  C   UNL A   1      42.442  31.863  36.373  1.00  0.00     0.029 A 
ATOM     57  N   UNL A   1      41.761  31.042  34.423  1.00  0.00    -0.354 N 
ATOM     58  N   UNL A   1      41.753  29.142  32.199  1.00  0.00    -0.248 NA
ATOM     59  C   UNL A   1      42.707  27.332  31.073  1.00  0.00     0.031 C 
ATOM     60  C   UNL A   1      43.206  30.729  36.079  1.00  0.00     0.029 A 
ATOM     61  C   UNL A   1      42.775  30.211  34.868  1.00  0.00     0.049 A 
ATOM     62  H   UNL A   1      41.260  30.922  33.584  1.00  0.00     0.167 HD
ATOM     63  C   UNL A   1      42.782  28.618  32.971  1.00  0.00     0.074 A 
ATOM     64  C   UNL A   1      43.304  27.476  32.248  1.00  0.00     0.031 C 
ATOM     65  C   UNL A   1      43.262  29.053  34.163  1.00  0.00     0.034 A 
BRANCH  52  66
ATOM     66  C   UNL A   1      40.572  34.232  36.195  1.00  0.00     0.023 A 
ATOM     67  C   UNL A   1      41.066  35.509  35.852  1.00  0.00     0.012 A 
ATOM     68  C   UNL A   1      40.022  34.027  37.474  1.00  0.00     0.148 A 
ATOM     69  C   UNL A   1      41.050  36.550  36.779  1.00  0.00     0.002 A 
ATOM     70  C   UNL A   1      39.966  35.083  38.378  1.00  0.00     0.091 A 
ATOM     71  F   UNL A   1      39.578  32.802  37.793  1.00  0.00    -0.205 F 
ATOM     72  C   UNL A   1      40.491  36.340  38.037  1.00  0.00     0.022 A 
BRANCH  70  73
ATOM     73  S   UNL A   1      39.193  34.934  39.992  1.00  0.00     0.127 S 
ATOM     74  O   UNL A   1      38.987  36.336  40.352  1.00  0.00    -0.237 OA
ATOM     75  O   UNL A   1      37.968  34.197  39.682  1.00  0.00    -0.237 OA
ATOM     76  O   UNL A   1      40.142  34.205  40.823  1.00  0.00    -0.744 OA
ENDBRANCH  70  73
ENDBRANCH  52  66
BRANCH  53  77
ATOM     77  C   UNL A   1      40.821  27.525  28.824  1.00  0.00     0.023 A 
ATOM     78  C   UNL A   1      39.870  26.493  28.713  1.00  0.00     0.012 A 
ATOM     79  C   UNL A   1      41.802  27.667  27.824  1.00  0.00     0.148 A 
ATOM     80  C   UNL A   1      39.910  25.603  27.639  1.00  0.00     0.002 A 
ATOM     81  C   UNL A   1      41.802  26.813  26.728  1.00  0.00     0.091 A 
ATOM     82  F   UNL A   1      42.703  28.650  27.956  1.00  0.00    -0.205 F 
ATOM     83  C   UNL A   1      40.867  25.770  26.641  1.00  0.00     0.022 A 
BRANCH  81  84
ATOM     84  S   UNL A   1      42.908  27.037  25.330  1.00  0.00     0.127 S 
ATOM     85  O   UNL A   1      42.771  25.761  24.633  1.00  0.00    -0.237 OA
ATOM     86  O   UNL A   1      42.302  28.181  24.649  1.00  0.00    -0.237 OA
ATOM     87  O   UNL A   1      44.218  27.307  25.905  1.00  0.00    -0.744 OA
ENDBRANCH  81  84
ENDBRANCH  53  77
BRANCH  65  88
ATOM     88  C   UNL A   1      44.404  28.285  34.778  1.00  0.00     0.023 A 
ATOM     89  C   UNL A   1      45.731  28.692  34.534  1.00  0.00     0.012 A 
ATOM     90  C   UNL A   1      44.162  27.203  35.647  1.00  0.00     0.148 A 
ATOM     91  C   UNL A   1      46.800  28.014  35.118  1.00  0.00     0.002 A 
ATOM     92  C   UNL A   1      45.230  26.563  36.264  1.00  0.00     0.091 A 
ATOM     93  F   UNL A   1      42.894  26.817  35.851  1.00  0.00    -0.205 F 
ATOM     94  C   UNL A   1      46.550  26.957  35.991  1.00  0.00     0.022 A 
BRANCH  92  95
ATOM     95  S   UNL A   1      44.997  25.257  37.475  1.00  0.00     0.127 S 
ATOM     96  O   UNL A   1      44.459  24.177  36.650  1.00  0.00    -0.237 OA
ATOM     97  O   UNL A   1      46.359  25.033  37.961  1.00  0.00    -0.237 OA
ATOM     98  O   UNL A   1      44.084  25.797  38.474  1.00  0.00    -0.744 OA
ENDBRANCH  92  95
ENDBRANCH  65  88
ENDBRANCH  39  40
ENDBRANCH  31  34
ENDBRANCH  29  30
ENDBRANCH  28  29
ENDBRANCH  27  28
ENDBRANCH   1  27
TORSDOF 21
ENDMDL
