MODEL 1
REMARK VINA RESULT:     -12.5      0.000      0.000
REMARK SMILES CCc1cc(C(=O)c2[nH]c3cc(Cl)ccc3c2CC(=O)NCCCCNC(=O)c2ccc(-c3c4nc(c(-c5cccc(S(=O)(=O)[O-])c5F)c5ccc([nH]5)c(-c5cccc(S(=O)(=O)[O-])c5F)c5nc(c(-c6cccc(S(=O)(=O)[O-])c6F)c6ccc3[nH]6)C=C5)C=C4)cc2)ncc1Cl
REMARK SMILES IDX 23 1 22 2 21 3 19 4 20 5 18 7 17 8 8 9 9 10 10 11 16 13
REMARK SMILES IDX 11 14 15 15 12 16 14 17 13 18 6 19 7 20 5 21 3 22 4 23 94 24
REMARK SMILES IDX 93 25 95 26 92 27 2 28 1 29 24 30 25 31 26 32 27 33 28 35
REMARK SMILES IDX 29 36 30 37 91 38 31 39 90 40 32 41 33 42 34 43 84 44 35 45
REMARK SMILES IDX 89 46 83 47 85 48 36 49 88 50 82 51 81 52 37 54 69 55 49 56
REMARK SMILES IDX 68 57 50 58 53 59 67 60 86 61 51 62 52 63 66 65 87 66 54 67
REMARK SMILES IDX 38 68 39 69 47 70 40 71 42 72 48 73 41 74 43 75 44 76 45 77
REMARK SMILES IDX 46 78 70 79 71 80 79 81 72 82 74 83 80 84 73 85 75 86 76 87
REMARK SMILES IDX 77 88 78 89 55 90 56 91 64 92 57 93 59 94 65 95 58 96 60 97
REMARK SMILES IDX 61 98 62 99 63 100
REMARK H PARENT 21 6 9 12 26 34 85 53 53 64
REMARK Flexibility Score: inf
ROOT
ATOM      1  C   UNL A   1      31.921  28.219  27.392  1.00  0.00     0.023 C 
ENDROOT
BRANCH   1   2
ATOM      2  C   UNL A   1      31.244  27.371  26.317  1.00  0.00     0.116 C 
BRANCH   2   3
ATOM      3  N   UNL A   1      30.839  26.066  26.799  1.00  0.00    -0.356 N 
ATOM      4  C   UNL A   1      31.440  24.852  26.617  1.00  0.00     0.224 C 
ATOM      5  O   UNL A   1      31.005  23.884  27.247  1.00  0.00    -0.275 OA
ATOM      6  H   UNL A   1      30.014  26.052  27.335  1.00  0.00     0.163 HD
BRANCH   4   7
ATOM      7  C   UNL A   1      32.688  24.715  25.758  1.00  0.00     0.138 C 
BRANCH   7   8
ATOM      8  C   UNL A   1      32.475  24.025  24.441  1.00  0.00    -0.002 A 
ATOM      9  C   UNL A   1      32.257  24.622  23.203  1.00  0.00     0.093 A 
ATOM     10  N   UNL A   1      32.292  23.624  22.256  1.00  0.00    -0.351 N 
ATOM     11  C   UNL A   1      32.291  22.390  22.858  1.00  0.00     0.048 A 
ATOM     12  H   UNL A   1      32.313  23.774  21.284  1.00  0.00     0.167 HD
ATOM     13  C   UNL A   1      32.399  22.607  24.232  1.00  0.00     0.004 A 
ATOM     14  C   UNL A   1      32.230  21.112  22.293  1.00  0.00     0.047 A 
ATOM     15  C   UNL A   1      32.441  21.484  25.087  1.00  0.00     0.012 A 
ATOM     16  C   UNL A   1      32.265  20.021  23.165  1.00  0.00     0.043 A 
ATOM     17  C   UNL A   1      32.369  20.197  24.541  1.00  0.00     0.021 A 
ATOM     18  Cl  UNL A   1      32.174  18.426  22.521  1.00  0.00    -0.084 Cl
BRANCH   9  19
ATOM     19  C   UNL A   1      32.086  26.024  22.870  1.00  0.00     0.227 C 
ATOM     20  O   UNL A   1      33.017  26.699  22.448  1.00  0.00    -0.285 OA
BRANCH  19  21
ATOM     21  C   UNL A   1      30.702  26.618  23.032  1.00  0.00     0.113 A 
ATOM     22  C   UNL A   1      29.123  28.463  22.832  1.00  0.00    -0.026 A 
ATOM     23  C   UNL A   1      30.409  27.925  22.633  1.00  0.00     0.037 A 
ATOM     24  C   UNL A   1      28.171  27.636  23.444  1.00  0.00     0.062 A 
ATOM     25  C   UNL A   1      28.539  26.342  23.797  1.00  0.00     0.132 A 
ATOM     26  Cl  UNL A   1      26.564  28.153  23.792  1.00  0.00    -0.082 Cl
ATOM     27  N   UNL A   1      29.773  25.822  23.612  1.00  0.00    -0.251 NA
BRANCH  22  28
ATOM     28  C   UNL A   1      28.848  29.909  22.476  1.00  0.00     0.034 C 
ATOM     29  C   UNL A   1      29.204  30.921  23.561  1.00  0.00     0.009 C 
ENDBRANCH  22  28
ENDBRANCH  19  21
ENDBRANCH   9  19
ENDBRANCH   7   8
ENDBRANCH   4   7
ENDBRANCH   2   3
ENDBRANCH   1   2
BRANCH   1  30
ATOM     30  C   UNL A   1      33.442  28.332  27.276  1.00  0.00     0.023 C 
BRANCH  30  31
ATOM     31  C   UNL A   1      33.957  29.450  26.376  1.00  0.00     0.116 C 
BRANCH  31  32
ATOM     32  N   UNL A   1      33.904  30.764  26.995  1.00  0.00    -0.352 N 
ATOM     33  C   UNL A   1      34.756  31.320  27.928  1.00  0.00     0.251 C 
ATOM     34  H   UNL A   1      33.156  31.338  26.709  1.00  0.00     0.163 HD
ATOM     35  O   UNL A   1      34.508  32.410  28.408  1.00  0.00    -0.269 OA
BRANCH  33  36
ATOM     36  C   UNL A   1      35.950  30.559  28.369  1.00  0.00     0.039 A 
ATOM     37  C   UNL A   1      37.134  30.693  27.638  1.00  0.00     0.014 A 
ATOM     38  C   UNL A   1      35.909  29.734  29.495  1.00  0.00     0.014 A 
ATOM     39  C   UNL A   1      38.297  30.056  28.079  1.00  0.00     0.010 A 
ATOM     40  C   UNL A   1      37.082  29.150  29.967  1.00  0.00     0.010 A 
ATOM     41  C   UNL A   1      38.288  29.308  29.268  1.00  0.00    -0.014 A 
BRANCH  41  42
ATOM     42  C   UNL A   1      39.531  28.707  29.812  1.00  0.00     0.031 A 
ATOM     43  C   UNL A   1      40.195  29.300  31.024  1.00  0.00     0.074 A 
ATOM     44  C   UNL A   1      40.120  27.691  29.152  1.00  0.00     0.049 A 
ATOM     45  N   UNL A   1      41.315  28.953  31.602  1.00  0.00    -0.248 NA
ATOM     46  C   UNL A   1      39.527  30.453  31.653  1.00  0.00     0.031 C 
ATOM     47  C   UNL A   1      39.623  27.088  27.913  1.00  0.00     0.029 A 
ATOM     48  N   UNL A   1      41.282  27.008  29.410  1.00  0.00    -0.354 N 
ATOM     49  C   UNL A   1      41.509  29.862  32.634  1.00  0.00     0.074 A 
ATOM     50  C   UNL A   1      40.402  30.793  32.590  1.00  0.00     0.031 C 
ATOM     51  C   UNL A   1      40.474  26.127  27.519  1.00  0.00     0.029 A 
ATOM     52  C   UNL A   1      41.585  26.057  28.463  1.00  0.00     0.049 A 
ATOM     53  H   UNL A   1      41.844  27.181  30.199  1.00  0.00     0.167 HD
ATOM     54  C   UNL A   1      42.500  29.901  33.556  1.00  0.00     0.034 A 
ATOM     55  C   UNL A   1      42.638  25.222  28.367  1.00  0.00     0.034 A 
ATOM     56  C   UNL A   1      43.564  28.938  33.638  1.00  0.00     0.049 A 
ATOM     57  C   UNL A   1      43.687  25.238  29.447  1.00  0.00     0.074 A 
ATOM     58  C   UNL A   1      44.555  28.829  34.597  1.00  0.00     0.029 A 
ATOM     59  N   UNL A   1      43.776  27.914  32.727  1.00  0.00    -0.354 N 
ATOM     60  N   UNL A   1      43.755  25.991  30.518  1.00  0.00    -0.248 NA
ATOM     61  C   UNL A   1      44.781  24.264  29.327  1.00  0.00     0.031 C 
ATOM     62  C   UNL A   1      45.368  27.740  34.265  1.00  0.00     0.029 A 
ATOM     63  C   UNL A   1      44.881  27.170  33.100  1.00  0.00     0.049 A 
ATOM     64  H   UNL A   1      43.222  27.743  31.931  1.00  0.00     0.167 HD
ATOM     65  C   UNL A   1      44.878  25.561  31.215  1.00  0.00     0.074 A 
ATOM     66  C   UNL A   1      45.449  24.468  30.456  1.00  0.00     0.031 C 
ATOM     67  C   UNL A   1      45.400  26.043  32.370  1.00  0.00     0.034 A 
BRANCH  54  68
ATOM     68  C   UNL A   1      42.437  30.979  34.604  1.00  0.00     0.023 A 
ATOM     69  C   UNL A   1      41.784  30.711  35.825  1.00  0.00     0.012 A 
ATOM     70  C   UNL A   1      43.063  32.224  34.413  1.00  0.00     0.148 A 
ATOM     71  C   UNL A   1      41.732  31.676  36.829  1.00  0.00     0.002 A 
ATOM     72  C   UNL A   1      43.038  33.169  35.434  1.00  0.00     0.091 A 
ATOM     73  F   UNL A   1      43.656  32.471  33.236  1.00  0.00    -0.205 F 
ATOM     74  C   UNL A   1      42.367  32.900  36.638  1.00  0.00     0.022 A 
BRANCH  72  75
ATOM     75  S   UNL A   1      43.888  34.748  35.305  1.00  0.00     0.127 S 
ATOM     76  O   UNL A   1      43.159  35.387  34.211  1.00  0.00    -0.237 OA
ATOM     77  O   UNL A   1      43.650  35.340  36.622  1.00  0.00    -0.237 OA
ATOM     78  O   UNL A   1      45.282  34.426  35.032  1.00  0.00    -0.744 OA
ENDBRANCH  72  75
ENDBRANCH  54  68
BRANCH  55  79
ATOM     79  C   UNL A   1      42.700  24.235  27.254  1.00  0.00     0.023 A 
ATOM     80  C   UNL A   1      43.411  24.565  26.084  1.00  0.00     0.012 A 
ATOM     81  C   UNL A   1      42.101  22.964  27.358  1.00  0.00     0.148 A 
ATOM     82  C   UNL A   1      43.505  23.658  25.028  1.00  0.00     0.002 A 
ATOM     83  C   UNL A   1      42.241  22.047  26.322  1.00  0.00     0.091 A 
ATOM     84  F   UNL A   1      41.413  22.673  28.472  1.00  0.00    -0.205 F 
ATOM     85  C   UNL A   1      42.931  22.397  25.151  1.00  0.00     0.022 A 
BRANCH  83  86
ATOM     86  S   UNL A   1      41.643  20.358  26.456  1.00  0.00     0.127 S 
ATOM     87  O   UNL A   1      42.134  19.971  27.775  1.00  0.00    -0.237 OA
ATOM     88  O   UNL A   1      40.194  20.535  26.365  1.00  0.00    -0.237 OA
ATOM     89  O   UNL A   1      42.228  19.653  25.322  1.00  0.00    -0.744 OA
ENDBRANCH  83  86
ENDBRANCH  55  79
BRANCH  67  90
ATOM     90  C   UNL A   1      46.641  25.381  32.905  1.00  0.00     0.023 A 
ATOM     91  C   UNL A   1      47.906  25.876  32.528  1.00  0.00     0.012 A 
ATOM     92  C   UNL A   1      46.557  24.331  33.839  1.00  0.00     0.148 A 
ATOM     93  C   UNL A   1      49.069  25.320  33.059  1.00  0.00     0.002 A 
ATOM     94  C   UNL A   1      47.721  23.809  34.394  1.00  0.00     0.091 A 
ATOM     95  F   UNL A   1      45.345  23.858  34.166  1.00  0.00    -0.205 F 
ATOM     96  C   UNL A   1      48.977  24.296  33.999  1.00  0.00     0.022 A 
BRANCH  94  97
ATOM     97  S   UNL A   1      47.682  22.551  35.677  1.00  0.00     0.127 S 
ATOM     98  O   UNL A   1      49.089  22.165  35.760  1.00  0.00    -0.237 OA
ATOM     99  O   UNL A   1      47.185  23.295  36.835  1.00  0.00    -0.237 OA
ATOM    100  O   UNL A   1      46.773  21.521  35.192  1.00  0.00    -0.744 OA
ENDBRANCH  94  97
ENDBRANCH  67  90
ENDBRANCH  41  42
ENDBRANCH  33  36
ENDBRANCH  31  32
ENDBRANCH  30  31
ENDBRANCH   1  30
TORSDOF 18
ENDMDL
MODEL 2
REMARK VINA RESULT:     -12.5      3.640      8.918
REMARK SMILES CCc1cc(C(=O)c2[nH]c3cc(Cl)ccc3c2CC(=O)NCCCCNC(=O)c2ccc(-c3c4nc(c(-c5cccc(S(=O)(=O)[O-])c5F)c5ccc([nH]5)c(-c5cccc(S(=O)(=O)[O-])c5F)c5nc(c(-c6cccc(S(=O)(=O)[O-])c6F)c6ccc3[nH]6)C=C5)C=C4)cc2)ncc1Cl
REMARK SMILES IDX 23 1 22 2 21 3 19 4 20 5 18 7 17 8 8 9 9 10 10 11 16 13
REMARK SMILES IDX 11 14 15 15 12 16 14 17 13 18 6 19 7 20 5 21 3 22 4 23 94 24
REMARK SMILES IDX 93 25 95 26 92 27 2 28 1 29 24 30 25 31 26 32 27 33 28 35
REMARK SMILES IDX 29 36 30 37 91 38 31 39 90 40 32 41 33 42 34 43 84 44 35 45
REMARK SMILES IDX 89 46 83 47 85 48 36 49 88 50 82 51 81 52 37 54 69 55 49 56
REMARK SMILES IDX 68 57 50 58 53 59 67 60 86 61 51 62 52 63 66 65 87 66 54 67
REMARK SMILES IDX 38 68 39 69 47 70 40 71 42 72 48 73 41 74 43 75 44 76 45 77
REMARK SMILES IDX 46 78 70 79 71 80 79 81 72 82 74 83 80 84 73 85 75 86 76 87
REMARK SMILES IDX 77 88 78 89 55 90 56 91 64 92 57 93 59 94 65 95 58 96 60 97
REMARK SMILES IDX 61 98 62 99 63 100
REMARK H PARENT 21 6 9 12 26 34 85 53 53 64
REMARK Flexibility Score: inf
ROOT
ATOM      1  C   UNL A   1      32.340  30.099  27.260  1.00  0.00     0.023 C 
ENDROOT
BRANCH   1   2
ATOM      2  C   UNL A   1      33.564  29.542  26.534  1.00  0.00     0.116 C 
BRANCH   2   3
ATOM      3  N   UNL A   1      33.609  28.094  26.533  1.00  0.00    -0.356 N 
ATOM      4  C   UNL A   1      33.714  27.233  25.477  1.00  0.00     0.224 C 
ATOM      5  O   UNL A   1      33.888  26.035  25.714  1.00  0.00    -0.275 OA
ATOM      6  H   UNL A   1      33.557  27.670  27.419  1.00  0.00     0.163 HD
BRANCH   4   7
ATOM      7  C   UNL A   1      33.740  27.747  24.044  1.00  0.00     0.138 C 
BRANCH   7   8
ATOM      8  C   UNL A   1      32.435  27.634  23.310  1.00  0.00    -0.002 A 
ATOM      9  C   UNL A   1      32.070  26.661  22.385  1.00  0.00     0.093 A 
ATOM     10  N   UNL A   1      30.736  26.842  22.104  1.00  0.00    -0.351 N 
ATOM     11  C   UNL A   1      30.292  28.030  22.631  1.00  0.00     0.048 A 
ATOM     12  H   UNL A   1      30.178  26.210  21.596  1.00  0.00     0.167 HD
ATOM     13  C   UNL A   1      31.337  28.556  23.389  1.00  0.00     0.004 A 
ATOM     14  C   UNL A   1      29.046  28.658  22.514  1.00  0.00     0.047 A 
ATOM     15  C   UNL A   1      31.129  29.780  24.061  1.00  0.00     0.012 A 
ATOM     16  C   UNL A   1      28.873  29.871  23.184  1.00  0.00     0.043 A 
ATOM     17  C   UNL A   1      29.893  30.429  23.947  1.00  0.00     0.021 A 
ATOM     18  Cl  UNL A   1      27.365  30.693  23.058  1.00  0.00    -0.084 Cl
BRANCH   9  19
ATOM     19  C   UNL A   1      32.857  25.579  21.823  1.00  0.00     0.227 C 
ATOM     20  O   UNL A   1      33.289  25.630  20.677  1.00  0.00    -0.285 OA
BRANCH  19  21
ATOM     21  C   UNL A   1      33.154  24.392  22.716  1.00  0.00     0.113 A 
ATOM     22  C   UNL A   1      32.515  22.790  24.437  1.00  0.00    -0.026 A 
ATOM     23  C   UNL A   1      32.197  23.869  23.591  1.00  0.00     0.037 A 
ATOM     24  C   UNL A   1      33.818  22.280  24.363  1.00  0.00     0.062 A 
ATOM     25  C   UNL A   1      34.706  22.847  23.455  1.00  0.00     0.132 A 
ATOM     26  Cl  UNL A   1      34.378  20.987  25.355  1.00  0.00    -0.082 Cl
ATOM     27  N   UNL A   1      34.408  23.886  22.642  1.00  0.00    -0.251 NA
BRANCH  22  28
ATOM     28  C   UNL A   1      31.494  22.294  25.440  1.00  0.00     0.034 C 
ATOM     29  C   UNL A   1      31.599  22.915  26.830  1.00  0.00     0.009 C 
ENDBRANCH  22  28
ENDBRANCH  19  21
ENDBRANCH   9  19
ENDBRANCH   7   8
ENDBRANCH   4   7
ENDBRANCH   2   3
ENDBRANCH   1   2
BRANCH   1  30
ATOM     30  C   UNL A   1      32.014  31.564  26.965  1.00  0.00     0.023 C 
BRANCH  30  31
ATOM     31  C   UNL A   1      33.151  32.555  27.190  1.00  0.00     0.116 C 
BRANCH  31  32
ATOM     32  N   UNL A   1      32.700  33.870  27.614  1.00  0.00    -0.352 N 
ATOM     33  C   UNL A   1      33.166  34.656  28.648  1.00  0.00     0.251 C 
ATOM     34  H   UNL A   1      31.957  34.252  27.092  1.00  0.00     0.163 HD
ATOM     35  O   UNL A   1      32.607  35.702  28.920  1.00  0.00    -0.269 OA
BRANCH  33  36
ATOM     36  C   UNL A   1      34.327  34.195  29.447  1.00  0.00     0.039 A 
ATOM     37  C   UNL A   1      34.089  33.396  30.570  1.00  0.00     0.014 A 
ATOM     38  C   UNL A   1      35.634  34.533  29.090  1.00  0.00     0.014 A 
ATOM     39  C   UNL A   1      35.166  32.876  31.291  1.00  0.00     0.010 A 
ATOM     40  C   UNL A   1      36.707  33.965  29.773  1.00  0.00     0.010 A 
ATOM     41  C   UNL A   1      36.484  33.128  30.877  1.00  0.00    -0.014 A 
BRANCH  41  42
ATOM     42  C   UNL A   1      37.643  32.504  31.564  1.00  0.00     0.031 A 
ATOM     43  C   UNL A   1      38.381  31.361  30.925  1.00  0.00     0.074 A 
ATOM     44  C   UNL A   1      37.965  32.900  32.812  1.00  0.00     0.049 A 
ATOM     45  N   UNL A   1      39.372  30.652  31.401  1.00  0.00    -0.248 NA
ATOM     46  C   UNL A   1      37.930  30.940  29.588  1.00  0.00     0.031 C 
ATOM     47  C   UNL A   1      37.266  33.937  33.576  1.00  0.00     0.029 A 
ATOM     48  N   UNL A   1      38.938  32.455  33.670  1.00  0.00    -0.354 N 
ATOM     49  C   UNL A   1      39.637  29.679  30.445  1.00  0.00     0.074 A 
ATOM     50  C   UNL A   1      38.687  29.873  29.371  1.00  0.00     0.031 C 
ATOM     51  C   UNL A   1      37.833  34.046  34.788  1.00  0.00     0.029 A 
ATOM     52  C   UNL A   1      38.920  33.078  34.897  1.00  0.00     0.049 A 
ATOM     53  H   UNL A   1      39.589  31.756  33.430  1.00  0.00     0.167 HD
ATOM     54  C   UNL A   1      40.603  28.731  30.445  1.00  0.00     0.034 A 
ATOM     55  C   UNL A   1      39.691  32.891  35.985  1.00  0.00     0.034 A 
ATOM     56  C   UNL A   1      41.586  28.580  31.483  1.00  0.00     0.049 A 
ATOM     57  C   UNL A   1      40.805  31.881  35.929  1.00  0.00     0.074 A 
ATOM     58  C   UNL A   1      42.669  27.720  31.525  1.00  0.00     0.029 A 
ATOM     59  N   UNL A   1      41.608  29.309  32.663  1.00  0.00    -0.354 N 
ATOM     60  N   UNL A   1      41.153  31.092  34.941  1.00  0.00    -0.248 NA
ATOM     61  C   UNL A   1      41.657  31.761  37.121  1.00  0.00     0.031 C 
ATOM     62  C   UNL A   1      43.345  27.927  32.732  1.00  0.00     0.029 A 
ATOM     63  C   UNL A   1      42.685  28.918  33.440  1.00  0.00     0.049 A 
ATOM     64  H   UNL A   1      40.954  30.002  32.911  1.00  0.00     0.167 HD
ATOM     65  C   UNL A   1      42.281  30.408  35.379  1.00  0.00     0.074 A 
ATOM     66  C   UNL A   1      42.571  30.889  36.713  1.00  0.00     0.031 C 
ATOM     67  C   UNL A   1      43.000  29.452  34.740  1.00  0.00     0.034 A 
BRANCH  54  68
ATOM     68  C   UNL A   1      40.695  27.829  29.244  1.00  0.00     0.023 A 
ATOM     69  C   UNL A   1      39.847  26.704  29.166  1.00  0.00     0.012 A 
ATOM     70  C   UNL A   1      41.564  28.115  28.176  1.00  0.00     0.148 A 
ATOM     71  C   UNL A   1      39.883  25.863  28.055  1.00  0.00     0.002 A 
ATOM     72  C   UNL A   1      41.570  27.291  27.055  1.00  0.00     0.091 A 
ATOM     73  F   UNL A   1      42.382  29.173  28.279  1.00  0.00    -0.205 F 
ATOM     74  C   UNL A   1      40.737  26.162  26.997  1.00  0.00     0.022 A 
BRANCH  72  75
ATOM     75  S   UNL A   1      42.585  27.636  25.612  1.00  0.00     0.127 S 
ATOM     76  O   UNL A   1      43.919  27.716  26.204  1.00  0.00    -0.237 OA
ATOM     77  O   UNL A   1      42.358  26.453  24.781  1.00  0.00    -0.237 OA
ATOM     78  O   UNL A   1      42.067  28.875  25.050  1.00  0.00    -0.744 OA
ENDBRANCH  72  75
ENDBRANCH  54  68
BRANCH  55  79
ATOM     79  C   UNL A   1      39.497  33.750  37.186  1.00  0.00     0.023 A 
ATOM     80  C   UNL A   1      39.964  35.079  37.160  1.00  0.00     0.012 A 
ATOM     81  C   UNL A   1      38.822  33.282  38.330  1.00  0.00     0.148 A 
ATOM     82  C   UNL A   1      39.784  35.918  38.260  1.00  0.00     0.002 A 
ATOM     83  C   UNL A   1      38.602  34.140  39.402  1.00  0.00     0.091 A 
ATOM     84  F   UNL A   1      38.400  32.009  38.344  1.00  0.00    -0.205 F 
ATOM     85  C   UNL A   1      39.094  35.453  39.375  1.00  0.00     0.022 A 
BRANCH  83  86
ATOM     86  S   UNL A   1      37.609  33.658  40.820  1.00  0.00     0.127 S 
ATOM     87  O   UNL A   1      36.415  33.116  40.181  1.00  0.00    -0.237 OA
ATOM     88  O   UNL A   1      38.463  32.664  41.472  1.00  0.00    -0.237 OA
ATOM     89  O   UNL A   1      37.425  34.880  41.592  1.00  0.00    -0.744 OA
ENDBRANCH  83  86
ENDBRANCH  55  79
BRANCH  67  90
ATOM     90  C   UNL A   1      44.187  28.873  35.459  1.00  0.00     0.023 A 
ATOM     91  C   UNL A   1      45.453  29.468  35.294  1.00  0.00     0.012 A 
ATOM     92  C   UNL A   1      44.037  27.798  36.357  1.00  0.00     0.148 A 
ATOM     93  C   UNL A   1      46.557  28.988  35.998  1.00  0.00     0.002 A 
ATOM     94  C   UNL A   1      45.135  27.352  37.085  1.00  0.00     0.091 A 
ATOM     95  F   UNL A   1      42.829  27.230  36.482  1.00  0.00    -0.205 F 
ATOM     96  C   UNL A   1      46.397  27.940  36.901  1.00  0.00     0.022 A 
BRANCH  94  97
ATOM     97  S   UNL A   1      44.990  26.066  38.332  1.00  0.00     0.127 S 
ATOM     98  O   UNL A   1      46.369  25.946  38.800  1.00  0.00    -0.237 OA
ATOM     99  O   UNL A   1      44.069  26.665  39.300  1.00  0.00    -0.237 OA
ATOM    100  O   UNL A   1      44.455  24.903  37.639  1.00  0.00    -0.744 OA
ENDBRANCH  94  97
ENDBRANCH  67  90
ENDBRANCH  41  42
ENDBRANCH  33  36
ENDBRANCH  31  32
ENDBRANCH  30  31
ENDBRANCH   1  30
TORSDOF 18
ENDMDL
MODEL 3
REMARK VINA RESULT:     -12.2      2.471      2.961
REMARK SMILES CCc1cc(C(=O)c2[nH]c3cc(Cl)ccc3c2CC(=O)NCCCCNC(=O)c2ccc(-c3c4nc(c(-c5cccc(S(=O)(=O)[O-])c5F)c5ccc([nH]5)c(-c5cccc(S(=O)(=O)[O-])c5F)c5nc(c(-c6cccc(S(=O)(=O)[O-])c6F)c6ccc3[nH]6)C=C5)C=C4)cc2)ncc1Cl
REMARK SMILES IDX 23 1 22 2 21 3 19 4 20 5 18 7 17 8 8 9 9 10 10 11 16 13
REMARK SMILES IDX 11 14 15 15 12 16 14 17 13 18 6 19 7 20 5 21 3 22 4 23 94 24
REMARK SMILES IDX 93 25 95 26 92 27 2 28 1 29 24 30 25 31 26 32 27 33 28 35
REMARK SMILES IDX 29 36 30 37 91 38 31 39 90 40 32 41 33 42 34 43 84 44 35 45
REMARK SMILES IDX 89 46 83 47 85 48 36 49 88 50 82 51 81 52 37 54 69 55 49 56
REMARK SMILES IDX 68 57 50 58 53 59 67 60 86 61 51 62 52 63 66 65 87 66 54 67
REMARK SMILES IDX 38 68 39 69 47 70 40 71 42 72 48 73 41 74 43 75 44 76 45 77
REMARK SMILES IDX 46 78 70 79 71 80 79 81 72 82 74 83 80 84 73 85 75 86 76 87
REMARK SMILES IDX 77 88 78 89 55 90 56 91 64 92 57 93 59 94 65 95 58 96 60 97
REMARK SMILES IDX 61 98 62 99 63 100
REMARK H PARENT 21 6 9 12 26 34 85 53 53 64
REMARK Flexibility Score: inf
ROOT
ATOM      1  C   UNL A   1      31.264  27.616  26.526  1.00  0.00     0.023 C 
ENDROOT
BRANCH   1   2
ATOM      2  C   UNL A   1      31.988  26.272  26.602  1.00  0.00     0.116 C 
BRANCH   2   3
ATOM      3  N   UNL A   1      31.095  25.166  26.881  1.00  0.00    -0.356 N 
ATOM      4  C   UNL A   1      31.272  23.831  26.648  1.00  0.00     0.224 C 
ATOM      5  O   UNL A   1      30.441  23.041  27.105  1.00  0.00    -0.275 OA
ATOM      6  H   UNL A   1      30.238  25.411  27.298  1.00  0.00     0.163 HD
BRANCH   4   7
ATOM      7  C   UNL A   1      32.523  23.315  25.951  1.00  0.00     0.138 C 
BRANCH   7   8
ATOM      8  C   UNL A   1      32.265  22.428  24.767  1.00  0.00    -0.002 A 
ATOM      9  C   UNL A   1      31.581  22.758  23.602  1.00  0.00     0.093 A 
ATOM     10  N   UNL A   1      31.739  21.710  22.724  1.00  0.00    -0.351 N 
ATOM     11  C   UNL A   1      32.298  20.630  23.362  1.00  0.00     0.048 A 
ATOM     12  H   UNL A   1      31.486  21.731  21.773  1.00  0.00     0.167 HD
ATOM     13  C   UNL A   1      32.634  21.046  24.649  1.00  0.00     0.004 A 
ATOM     14  C   UNL A   1      32.550  19.336  22.890  1.00  0.00     0.047 A 
ATOM     15  C   UNL A   1      33.250  20.117  25.515  1.00  0.00     0.012 A 
ATOM     16  C   UNL A   1      33.153  18.437  23.772  1.00  0.00     0.043 A 
ATOM     17  C   UNL A   1      33.501  18.815  25.066  1.00  0.00     0.021 A 
ATOM     18  Cl  UNL A   1      33.469  16.828  23.247  1.00  0.00    -0.084 Cl
BRANCH   9  19
ATOM     19  C   UNL A   1      30.870  23.976  23.259  1.00  0.00     0.227 C 
ATOM     20  O   UNL A   1      29.656  23.982  23.091  1.00  0.00    -0.285 OA
BRANCH  19  21
ATOM     21  C   UNL A   1      31.679  25.251  23.149  1.00  0.00     0.113 A 
ATOM     22  C   UNL A   1      31.852  27.660  22.833  1.00  0.00    -0.026 A 
ATOM     23  C   UNL A   1      31.072  26.497  22.971  1.00  0.00     0.037 A 
ATOM     24  C   UNL A   1      33.244  27.507  22.877  1.00  0.00     0.062 A 
ATOM     25  C   UNL A   1      33.770  26.233  23.071  1.00  0.00     0.132 A 
ATOM     26  Cl  UNL A   1      34.341  28.822  22.687  1.00  0.00    -0.082 Cl
ATOM     27  N   UNL A   1      33.025  25.112  23.202  1.00  0.00    -0.251 NA
BRANCH  22  28
ATOM     28  C   UNL A   1      31.181  28.989  22.553  1.00  0.00     0.034 C 
ATOM     29  C   UNL A   1      30.322  29.533  23.690  1.00  0.00     0.009 C 
ENDBRANCH  22  28
ENDBRANCH  19  21
ENDBRANCH   9  19
ENDBRANCH   7   8
ENDBRANCH   4   7
ENDBRANCH   2   3
ENDBRANCH   1   2
BRANCH   1  30
ATOM     30  C   UNL A   1      31.936  28.764  27.281  1.00  0.00     0.023 C 
BRANCH  30  31
ATOM     31  C   UNL A   1      32.865  29.647  26.453  1.00  0.00     0.116 C 
BRANCH  31  32
ATOM     32  N   UNL A   1      32.763  31.061  26.777  1.00  0.00    -0.352 N 
ATOM     33  C   UNL A   1      33.629  31.849  27.508  1.00  0.00     0.251 C 
ATOM     34  H   UNL A   1      31.965  31.520  26.428  1.00  0.00     0.163 HD
ATOM     35  O   UNL A   1      33.339  33.004  27.758  1.00  0.00    -0.269 OA
BRANCH  33  36
ATOM     36  C   UNL A   1      34.892  31.264  28.018  1.00  0.00     0.039 A 
ATOM     37  C   UNL A   1      36.042  32.060  28.024  1.00  0.00     0.014 A 
ATOM     38  C   UNL A   1      34.944  29.953  28.496  1.00  0.00     0.014 A 
ATOM     39  C   UNL A   1      37.225  31.564  28.578  1.00  0.00     0.010 A 
ATOM     40  C   UNL A   1      36.106  29.482  29.103  1.00  0.00     0.010 A 
ATOM     41  C   UNL A   1      37.256  30.284  29.154  1.00  0.00    -0.014 A 
BRANCH  41  42
ATOM     42  C   UNL A   1      38.470  29.774  29.839  1.00  0.00     0.031 A 
ATOM     43  C   UNL A   1      38.850  30.291  31.199  1.00  0.00     0.074 A 
ATOM     44  C   UNL A   1      39.288  28.921  29.191  1.00  0.00     0.049 A 
ATOM     45  N   UNL A   1      39.904  30.012  31.921  1.00  0.00    -0.248 NA
ATOM     46  C   UNL A   1      37.942  31.272  31.817  1.00  0.00     0.031 C 
ATOM     47  C   UNL A   1      39.076  28.416  27.832  1.00  0.00     0.029 A 
ATOM     48  N   UNL A   1      40.477  28.355  29.574  1.00  0.00    -0.354 N 
ATOM     49  C   UNL A   1      39.808  30.807  33.056  1.00  0.00     0.074 A 
ATOM     50  C   UNL A   1      38.605  31.599  32.917  1.00  0.00     0.031 C 
ATOM     51  C   UNL A   1      40.102  27.618  27.495  1.00  0.00     0.029 A 
ATOM     52  C   UNL A   1      41.052  27.567  28.602  1.00  0.00     0.049 A 
ATOM     53  H   UNL A   1      40.882  28.498  30.460  1.00  0.00     0.167 HD
ATOM     54  C   UNL A   1      40.629  30.852  34.132  1.00  0.00     0.034 A 
ATOM     55  C   UNL A   1      42.211  26.881  28.604  1.00  0.00     0.034 A 
ATOM     56  C   UNL A   1      41.789  30.019  34.297  1.00  0.00     0.049 A 
ATOM     57  C   UNL A   1      43.067  26.891  29.842  1.00  0.00     0.074 A 
ATOM     58  C   UNL A   1      42.625  29.915  35.395  1.00  0.00     0.029 A 
ATOM     59  N   UNL A   1      42.278  29.145  33.339  1.00  0.00    -0.354 N 
ATOM     60  N   UNL A   1      42.864  27.512  30.978  1.00  0.00    -0.248 NA
ATOM     61  C   UNL A   1      44.290  26.076  29.813  1.00  0.00     0.031 C 
ATOM     62  C   UNL A   1      43.621  28.978  35.100  1.00  0.00     0.029 A 
ATOM     63  C   UNL A   1      43.404  28.498  33.818  1.00  0.00     0.049 A 
ATOM     64  H   UNL A   1      41.883  29.006  32.447  1.00  0.00     0.167 HD
ATOM     65  C   UNL A   1      43.913  27.138  31.810  1.00  0.00     0.074 A 
ATOM     66  C   UNL A   1      44.739  26.220  31.054  1.00  0.00     0.031 C 
ATOM     67  C   UNL A   1      44.179  27.536  33.078  1.00  0.00     0.034 A 
BRANCH  54  68
ATOM     68  C   UNL A   1      40.257  31.782  35.255  1.00  0.00     0.023 A 
ATOM     69  C   UNL A   1      40.876  33.047  35.331  1.00  0.00     0.012 A 
ATOM     70  C   UNL A   1      39.266  31.440  36.193  1.00  0.00     0.148 A 
ATOM     71  C   UNL A   1      40.535  33.945  36.340  1.00  0.00     0.002 A 
ATOM     72  C   UNL A   1      38.904  32.356  37.176  1.00  0.00     0.091 A 
ATOM     73  F   UNL A   1      38.706  30.223  36.121  1.00  0.00    -0.205 F 
ATOM     74  C   UNL A   1      39.543  33.604  37.255  1.00  0.00     0.022 A 
BRANCH  72  75
ATOM     75  S   UNL A   1      37.588  32.031  38.356  1.00  0.00     0.127 S 
ATOM     76  O   UNL A   1      38.267  32.271  39.628  1.00  0.00    -0.237 OA
ATOM     77  O   UNL A   1      36.591  33.042  37.998  1.00  0.00    -0.237 OA
ATOM     78  O   UNL A   1      37.168  30.659  38.113  1.00  0.00    -0.744 OA
ENDBRANCH  72  75
ENDBRANCH  54  68
BRANCH  55  79
ATOM     79  C   UNL A   1      42.579  26.049  27.425  1.00  0.00     0.023 A 
ATOM     80  C   UNL A   1      43.376  26.614  26.410  1.00  0.00     0.012 A 
ATOM     81  C   UNL A   1      42.187  24.700  27.319  1.00  0.00     0.148 A 
ATOM     82  C   UNL A   1      43.755  25.859  25.300  1.00  0.00     0.002 A 
ATOM     83  C   UNL A   1      42.610  23.940  26.234  1.00  0.00     0.091 A 
ATOM     84  F   UNL A   1      41.413  24.184  28.286  1.00  0.00    -0.205 F 
ATOM     85  C   UNL A   1      43.382  24.521  25.218  1.00  0.00     0.022 A 
BRANCH  83  86
ATOM     86  S   UNL A   1      42.282  22.177  26.120  1.00  0.00     0.127 S 
ATOM     87  O   UNL A   1      43.063  21.802  24.946  1.00  0.00    -0.237 OA
ATOM     88  O   UNL A   1      42.806  21.682  27.393  1.00  0.00    -0.237 OA
ATOM     89  O   UNL A   1      40.834  22.065  25.989  1.00  0.00    -0.744 OA
ENDBRANCH  83  86
ENDBRANCH  55  79
BRANCH  67  90
ATOM     90  C   UNL A   1      45.400  26.967  33.748  1.00  0.00     0.023 A 
ATOM     91  C   UNL A   1      46.628  27.650  33.641  1.00  0.00     0.012 A 
ATOM     92  C   UNL A   1      45.316  25.810  34.546  1.00  0.00     0.148 A 
ATOM     93  C   UNL A   1      47.760  27.176  34.304  1.00  0.00     0.002 A 
ATOM     94  C   UNL A   1      46.440  25.367  35.236  1.00  0.00     0.091 A 
ATOM     95  F   UNL A   1      44.144  25.162  34.615  1.00  0.00    -0.205 F 
ATOM     96  C   UNL A   1      47.664  26.044  35.109  1.00  0.00     0.022 A 
BRANCH  94  97
ATOM     97  S   UNL A   1      46.374  23.969  36.363  1.00  0.00     0.127 S 
ATOM     98  O   UNL A   1      45.317  24.378  37.285  1.00  0.00    -0.237 OA
ATOM     99  O   UNL A   1      46.013  22.863  35.475  1.00  0.00    -0.237 OA
ATOM    100  O   UNL A   1      47.708  23.864  36.939  1.00  0.00    -0.744 OA
ENDBRANCH  94  97
ENDBRANCH  67  90
ENDBRANCH  41  42
ENDBRANCH  33  36
ENDBRANCH  31  32
ENDBRANCH  30  31
ENDBRANCH   1  30
TORSDOF 18
ENDMDL
