MODEL 1
REMARK VINA RESULT:     -11.0      0.000      0.000
REMARK SMILES O=C(NCCCCNC(=O)c1cccc(-c2c(F)cc(F)cc2F)c1)c1ccc(-c2c3nc(c(-c4cccc(S(=O)(=O)[O-])c4F)c4ccc([nH]4)c(-c4cccc(S(=O)(=O)[O-])c4F)c4nc(c(-c5cccc(S(=O)(=O)[O-])c5F)c5ccc2[nH]5)C=C4)C=C3)cc1
REMARK SMILES IDX 4 1 3 2 1 3 2 4 26 6 27 7 88 8 28 9 87 10 29 11 30 12 31 13
REMARK SMILES IDX 81 14 32 15 86 16 80 17 82 18 33 19 85 20 79 21 78 22 34 24
REMARK SMILES IDX 66 25 46 26 65 27 47 28 50 29 64 30 83 31 48 32 49 33 63 35
REMARK SMILES IDX 84 36 51 37 35 38 36 39 44 40 37 41 39 42 45 43 38 44 40 45
REMARK SMILES IDX 41 46 42 47 43 48 67 49 68 50 76 51 69 52 71 53 77 54 70 55
REMARK SMILES IDX 72 56 73 57 74 58 75 59 52 60 53 61 61 62 54 63 56 64 62 65
REMARK SMILES IDX 55 66 57 67 58 68 59 69 60 70 5 71 6 72 7 73 8 74 9 75 10 77
REMARK SMILES IDX 11 78 12 79 25 80 13 81 15 82 14 83 16 84 17 85 23 86 18 87
REMARK SMILES IDX 19 88 22 89 24 90 20 91 21 92
REMARK H PARENT 3 5 82 23 50 34 8 76
REMARK Flexibility Score: inf
ROOT
ATOM      1  C   UNL A   1      34.482  32.966  29.333  1.00  0.00     0.116 C 
ENDROOT
BRANCH   1   2
ATOM      2  N   UNL A   1      33.981  32.066  28.308  1.00  0.00    -0.352 N 
ATOM      3  O   UNL A   1      34.092  30.431  26.765  1.00  0.00    -0.269 OA
ATOM      4  C   UNL A   1      34.594  30.971  27.747  1.00  0.00     0.251 C 
ATOM      5  H   UNL A   1      33.080  32.270  27.967  1.00  0.00     0.163 HD
BRANCH   4   6
ATOM      6  C   UNL A   1      35.862  30.466  28.318  1.00  0.00     0.039 A 
ATOM      7  C   UNL A   1      35.856  29.647  29.451  1.00  0.00     0.014 A 
ATOM      8  C   UNL A   1      37.070  30.802  27.702  1.00  0.00     0.014 A 
ATOM      9  C   UNL A   1      37.058  29.261  30.035  1.00  0.00     0.010 A 
ATOM     10  C   UNL A   1      38.275  30.351  28.247  1.00  0.00     0.010 A 
ATOM     11  C   UNL A   1      38.280  29.590  29.426  1.00  0.00    -0.014 A 
BRANCH  11  12
ATOM     12  C   UNL A   1      39.540  29.020  29.961  1.00  0.00     0.031 A 
ATOM     13  C   UNL A   1      40.255  29.642  31.127  1.00  0.00     0.074 A 
ATOM     14  C   UNL A   1      40.061  27.942  29.340  1.00  0.00     0.049 A 
ATOM     15  N   UNL A   1      41.375  29.270  31.691  1.00  0.00    -0.248 NA
ATOM     16  C   UNL A   1      39.647  30.835  31.736  1.00  0.00     0.031 C 
ATOM     17  C   UNL A   1      39.481  27.292  28.161  1.00  0.00     0.029 A 
ATOM     18  N   UNL A   1      41.200  27.221  29.588  1.00  0.00    -0.354 N 
ATOM     19  C   UNL A   1      41.631  30.203  32.688  1.00  0.00     0.074 A 
ATOM     20  C   UNL A   1      40.544  31.157  32.660  1.00  0.00     0.031 C 
ATOM     21  C   UNL A   1      40.268  26.275  27.785  1.00  0.00     0.029 A 
ATOM     22  C   UNL A   1      41.431  26.230  28.662  1.00  0.00     0.049 A 
ATOM     23  H   UNL A   1      41.794  27.395  30.353  1.00  0.00     0.167 HD
ATOM     24  C   UNL A   1      42.675  30.247  33.550  1.00  0.00     0.034 A 
ATOM     25  C   UNL A   1      42.480  25.399  28.509  1.00  0.00     0.034 A 
ATOM     26  C   UNL A   1      43.726  29.265  33.599  1.00  0.00     0.049 A 
ATOM     27  C   UNL A   1      43.610  25.470  29.492  1.00  0.00     0.074 A 
ATOM     28  C   UNL A   1      44.754  29.153  34.521  1.00  0.00     0.029 A 
ATOM     29  N   UNL A   1      43.902  28.245  32.680  1.00  0.00    -0.354 N 
ATOM     30  N   UNL A   1      43.737  26.239  30.546  1.00  0.00    -0.248 NA
ATOM     31  C   UNL A   1      44.734  24.547  29.280  1.00  0.00     0.031 C 
ATOM     32  C   UNL A   1      45.570  28.084  34.138  1.00  0.00     0.029 A 
ATOM     33  C   UNL A   1      45.041  27.521  32.989  1.00  0.00     0.049 A 
ATOM     34  H   UNL A   1      43.305  28.061  31.919  1.00  0.00     0.167 HD
ATOM     35  C   UNL A   1      44.947  25.888  31.129  1.00  0.00     0.074 A 
ATOM     36  C   UNL A   1      45.497  24.809  30.334  1.00  0.00     0.031 C 
ATOM     37  C   UNL A   1      45.559  26.425  32.211  1.00  0.00     0.034 A 
BRANCH  24  38
ATOM     38  C   UNL A   1      42.733  31.372  34.551  1.00  0.00     0.023 A 
ATOM     39  C   UNL A   1      43.612  32.451  34.334  1.00  0.00     0.012 A 
ATOM     40  C   UNL A   1      41.827  31.420  35.630  1.00  0.00     0.148 A 
ATOM     41  C   UNL A   1      43.598  33.557  35.184  1.00  0.00     0.002 A 
ATOM     42  C   UNL A   1      41.797  32.542  36.452  1.00  0.00     0.091 A 
ATOM     43  F   UNL A   1      41.011  30.376  35.827  1.00  0.00    -0.205 F 
ATOM     44  C   UNL A   1      42.684  33.608  36.233  1.00  0.00     0.022 A 
BRANCH  42  45
ATOM     45  S   UNL A   1      40.608  32.737  37.786  1.00  0.00     0.127 S 
ATOM     46  O   UNL A   1      41.325  32.129  38.908  1.00  0.00    -0.237 OA
ATOM     47  O   UNL A   1      40.473  34.191  37.867  1.00  0.00    -0.237 OA
ATOM     48  O   UNL A   1      39.406  32.035  37.361  1.00  0.00    -0.744 OA
ENDBRANCH  42  45
ENDBRANCH  24  38
BRANCH  25  49
ATOM     49  C   UNL A   1      42.492  24.427  27.380  1.00  0.00     0.023 A 
ATOM     50  C   UNL A   1      43.132  24.767  26.175  1.00  0.00     0.012 A 
ATOM     51  C   UNL A   1      41.910  23.151  27.514  1.00  0.00     0.148 A 
ATOM     52  C   UNL A   1      43.171  23.862  25.113  1.00  0.00     0.002 A 
ATOM     53  C   UNL A   1      42.006  22.233  26.476  1.00  0.00     0.091 A 
ATOM     54  F   UNL A   1      41.284  22.851  28.662  1.00  0.00    -0.205 F 
ATOM     55  C   UNL A   1      42.621  22.592  25.267  1.00  0.00     0.022 A 
BRANCH  53  56
ATOM     56  S   UNL A   1      41.456  20.534  26.666  1.00  0.00     0.127 S 
ATOM     57  O   UNL A   1      42.174  20.118  27.868  1.00  0.00    -0.237 OA
ATOM     58  O   UNL A   1      40.010  20.693  26.836  1.00  0.00    -0.237 OA
ATOM     59  O   UNL A   1      41.837  19.869  25.427  1.00  0.00    -0.744 OA
ENDBRANCH  53  56
ENDBRANCH  25  49
BRANCH  37  60
ATOM     60  C   UNL A   1      46.899  25.863  32.599  1.00  0.00     0.023 A 
ATOM     61  C   UNL A   1      48.069  26.440  32.066  1.00  0.00     0.012 A 
ATOM     62  C   UNL A   1      47.006  24.821  33.540  1.00  0.00     0.148 A 
ATOM     63  C   UNL A   1      49.325  25.971  32.445  1.00  0.00     0.002 A 
ATOM     64  C   UNL A   1      48.262  24.388  33.946  1.00  0.00     0.091 A 
ATOM     65  F   UNL A   1      45.878  24.276  34.019  1.00  0.00    -0.205 F 
ATOM     66  C   UNL A   1      49.422  24.954  33.392  1.00  0.00     0.022 A 
BRANCH  64  67
ATOM     67  S   UNL A   1      48.489  23.146  35.224  1.00  0.00     0.127 S 
ATOM     68  O   UNL A   1      49.930  23.221  35.460  1.00  0.00    -0.237 OA
ATOM     69  O   UNL A   1      47.664  23.668  36.313  1.00  0.00    -0.237 OA
ATOM     70  O   UNL A   1      48.016  21.892  34.654  1.00  0.00    -0.744 OA
ENDBRANCH  64  67
ENDBRANCH  37  60
ENDBRANCH  11  12
ENDBRANCH   4   6
ENDBRANCH   1   2
BRANCH   1  71
ATOM     71  C   UNL A   1      35.104  34.228  28.749  1.00  0.00     0.023 C 
BRANCH  71  72
ATOM     72  C   UNL A   1      34.141  35.399  28.562  1.00  0.00     0.023 C 
BRANCH  72  73
ATOM     73  C   UNL A   1      32.902  35.374  29.454  1.00  0.00     0.116 C 
BRANCH  73  74
ATOM     74  N   UNL A   1      32.860  36.497  30.380  1.00  0.00    -0.352 N 
ATOM     75  C   UNL A   1      33.303  36.572  31.675  1.00  0.00     0.251 C 
ATOM     76  H   UNL A   1      32.454  37.320  30.024  1.00  0.00     0.163 HD
ATOM     77  O   UNL A   1      33.040  37.550  32.367  1.00  0.00    -0.269 OA
BRANCH  75  78
ATOM     78  C   UNL A   1      34.086  35.461  32.252  1.00  0.00     0.040 A 
ATOM     79  C   UNL A   1      33.406  34.357  32.764  1.00  0.00     0.014 A 
ATOM     80  C   UNL A   1      35.484  35.522  32.306  1.00  0.00     0.022 A 
ATOM     81  C   UNL A   1      34.130  33.285  33.277  1.00  0.00     0.001 A 
ATOM     82  C   UNL A   1      36.234  34.440  32.796  1.00  0.00    -0.012 A 
ATOM     83  C   UNL A   1      35.529  33.323  33.280  1.00  0.00     0.009 A 
BRANCH  82  84
ATOM     84  C   UNL A   1      37.708  34.473  32.772  1.00  0.00     0.053 A 
ATOM     85  C   UNL A   1      38.426  34.436  31.566  1.00  0.00     0.136 A 
ATOM     86  C   UNL A   1      38.464  34.571  33.953  1.00  0.00     0.136 A 
ATOM     87  F   UNL A   1      37.776  34.363  30.395  1.00  0.00    -0.206 F 
ATOM     88  C   UNL A   1      39.818  34.490  31.531  1.00  0.00     0.079 A 
ATOM     89  C   UNL A   1      39.856  34.626  33.938  1.00  0.00     0.079 A 
ATOM     90  F   UNL A   1      37.851  34.609  35.145  1.00  0.00    -0.206 F 
ATOM     91  C   UNL A   1      40.520  34.584  32.722  1.00  0.00     0.129 A 
ATOM     92  F   UNL A   1      41.858  34.632  32.697  1.00  0.00    -0.207 F 
ENDBRANCH  82  84
ENDBRANCH  75  78
ENDBRANCH  73  74
ENDBRANCH  72  73
ENDBRANCH  71  72
ENDBRANCH   1  71
TORSDOF 15
ENDMDL
MODEL 2
REMARK VINA RESULT:     -10.9      3.707      6.896
REMARK SMILES O=C(NCCCCNC(=O)c1cccc(-c2c(F)cc(F)cc2F)c1)c1ccc(-c2c3nc(c(-c4cccc(S(=O)(=O)[O-])c4F)c4ccc([nH]4)c(-c4cccc(S(=O)(=O)[O-])c4F)c4nc(c(-c5cccc(S(=O)(=O)[O-])c5F)c5ccc2[nH]5)C=C4)C=C3)cc1
REMARK SMILES IDX 4 1 3 2 1 3 2 4 26 6 27 7 88 8 28 9 87 10 29 11 30 12 31 13
REMARK SMILES IDX 81 14 32 15 86 16 80 17 82 18 33 19 85 20 79 21 78 22 34 24
REMARK SMILES IDX 66 25 46 26 65 27 47 28 50 29 64 30 83 31 48 32 49 33 63 35
REMARK SMILES IDX 84 36 51 37 35 38 36 39 44 40 37 41 39 42 45 43 38 44 40 45
REMARK SMILES IDX 41 46 42 47 43 48 67 49 68 50 76 51 69 52 71 53 77 54 70 55
REMARK SMILES IDX 72 56 73 57 74 58 75 59 52 60 53 61 61 62 54 63 56 64 62 65
REMARK SMILES IDX 55 66 57 67 58 68 59 69 60 70 5 71 6 72 7 73 8 74 9 75 10 77
REMARK SMILES IDX 11 78 12 79 25 80 13 81 15 82 14 83 16 84 17 85 23 86 18 87
REMARK SMILES IDX 19 88 22 89 24 90 20 91 21 92
REMARK H PARENT 3 5 82 23 50 34 8 76
REMARK Flexibility Score: inf
ROOT
ATOM      1  C   UNL A   1      34.119  28.706  25.996  1.00  0.00     0.116 C 
ENDROOT
BRANCH   1   2
ATOM      2  N   UNL A   1      33.856  30.030  26.537  1.00  0.00    -0.352 N 
ATOM      3  O   UNL A   1      34.058  31.747  27.978  1.00  0.00    -0.269 OA
ATOM      4  C   UNL A   1      34.530  30.707  27.525  1.00  0.00     0.251 C 
ATOM      5  H   UNL A   1      33.090  30.505  26.141  1.00  0.00     0.163 HD
BRANCH   4   6
ATOM      6  C   UNL A   1      35.804  30.168  28.049  1.00  0.00     0.039 A 
ATOM      7  C   UNL A   1      36.984  30.286  27.309  1.00  0.00     0.014 A 
ATOM      8  C   UNL A   1      35.820  29.552  29.302  1.00  0.00     0.014 A 
ATOM      9  C   UNL A   1      38.153  29.687  27.767  1.00  0.00     0.010 A 
ATOM     10  C   UNL A   1      37.013  29.017  29.796  1.00  0.00     0.010 A 
ATOM     11  C   UNL A   1      38.185  29.066  29.026  1.00  0.00    -0.014 A 
BRANCH  11  12
ATOM     12  C   UNL A   1      39.480  28.594  29.576  1.00  0.00     0.031 A 
ATOM     13  C   UNL A   1      40.178  29.325  30.687  1.00  0.00     0.074 A 
ATOM     14  C   UNL A   1      40.046  27.506  29.015  1.00  0.00     0.049 A 
ATOM     15  N   UNL A   1      41.323  29.046  31.255  1.00  0.00    -0.248 NA
ATOM     16  C   UNL A   1      39.518  30.523  31.229  1.00  0.00     0.031 C 
ATOM     17  C   UNL A   1      39.484  26.754  27.889  1.00  0.00     0.029 A 
ATOM     18  N   UNL A   1      41.224  26.860  29.290  1.00  0.00    -0.354 N 
ATOM     19  C   UNL A   1      41.545  30.053  32.186  1.00  0.00     0.074 A 
ATOM     20  C   UNL A   1      40.410  30.948  32.115  1.00  0.00     0.031 C 
ATOM     21  C   UNL A   1      40.317  25.755  27.567  1.00  0.00     0.029 A 
ATOM     22  C   UNL A   1      41.493  25.824  28.425  1.00  0.00     0.049 A 
ATOM     23  H   UNL A   1      41.818  27.112  30.033  1.00  0.00     0.167 HD
ATOM     24  C   UNL A   1      42.596  30.205  33.027  1.00  0.00     0.034 A 
ATOM     25  C   UNL A   1      42.580  25.039  28.307  1.00  0.00     0.034 A 
ATOM     26  C   UNL A   1      43.696  29.282  33.120  1.00  0.00     0.049 A 
ATOM     27  C   UNL A   1      43.718  25.229  29.265  1.00  0.00     0.074 A 
ATOM     28  C   UNL A   1      44.741  29.281  34.030  1.00  0.00     0.029 A 
ATOM     29  N   UNL A   1      43.911  28.214  32.265  1.00  0.00    -0.354 N 
ATOM     30  N   UNL A   1      43.820  26.069  30.266  1.00  0.00    -0.248 NA
ATOM     31  C   UNL A   1      44.884  24.351  29.094  1.00  0.00     0.031 C 
ATOM     32  C   UNL A   1      45.605  28.231  33.703  1.00  0.00     0.029 A 
ATOM     33  C   UNL A   1      45.090  27.569  32.600  1.00  0.00     0.049 A 
ATOM     34  H   UNL A   1      43.315  27.952  31.527  1.00  0.00     0.167 HD
ATOM     35  C   UNL A   1      45.054  25.817  30.850  1.00  0.00     0.074 A 
ATOM     36  C   UNL A   1      45.648  24.718  30.116  1.00  0.00     0.031 C 
ATOM     37  C   UNL A   1      45.652  26.453  31.885  1.00  0.00     0.034 A 
BRANCH  24  38
ATOM     38  C   UNL A   1      42.610  31.393  33.952  1.00  0.00     0.023 A 
ATOM     39  C   UNL A   1      43.141  32.618  33.504  1.00  0.00     0.012 A 
ATOM     40  C   UNL A   1      41.983  31.329  35.213  1.00  0.00     0.148 A 
ATOM     41  C   UNL A   1      43.058  33.760  34.301  1.00  0.00     0.002 A 
ATOM     42  C   UNL A   1      41.874  32.479  35.986  1.00  0.00     0.091 A 
ATOM     43  F   UNL A   1      41.499  30.149  35.627  1.00  0.00    -0.205 F 
ATOM     44  C   UNL A   1      42.415  33.693  35.534  1.00  0.00     0.022 A 
BRANCH  42  45
ATOM     45  S   UNL A   1      41.001  32.516  37.557  1.00  0.00     0.127 S 
ATOM     46  O   UNL A   1      39.730  31.888  37.200  1.00  0.00    -0.237 OA
ATOM     47  O   UNL A   1      41.866  31.699  38.408  1.00  0.00    -0.237 OA
ATOM     48  O   UNL A   1      40.918  33.918  37.940  1.00  0.00    -0.744 OA
ENDBRANCH  42  45
ENDBRANCH  24  38
BRANCH  25  49
ATOM     49  C   UNL A   1      42.626  23.998  27.243  1.00  0.00     0.023 A 
ATOM     50  C   UNL A   1      43.246  24.285  26.013  1.00  0.00     0.012 A 
ATOM     51  C   UNL A   1      42.097  22.710  27.462  1.00  0.00     0.148 A 
ATOM     52  C   UNL A   1      43.317  23.317  25.012  1.00  0.00     0.002 A 
ATOM     53  C   UNL A   1      42.226  21.733  26.484  1.00  0.00     0.091 A 
ATOM     54  F   UNL A   1      41.489  22.459  28.631  1.00  0.00    -0.205 F 
ATOM     55  C   UNL A   1      42.820  22.038  25.250  1.00  0.00     0.022 A 
BRANCH  53  56
ATOM     56  S   UNL A   1      41.746  20.028  26.786  1.00  0.00     0.127 S 
ATOM     57  O   UNL A   1      42.728  19.612  27.783  1.00  0.00    -0.237 OA
ATOM     58  O   UNL A   1      40.380  20.175  27.291  1.00  0.00    -0.237 OA
ATOM     59  O   UNL A   1      41.830  19.374  25.487  1.00  0.00    -0.744 OA
ENDBRANCH  53  56
ENDBRANCH  25  49
BRANCH  37  60
ATOM     60  C   UNL A   1      47.024  25.984  32.286  1.00  0.00     0.023 A 
ATOM     61  C   UNL A   1      47.158  25.083  33.360  1.00  0.00     0.012 A 
ATOM     62  C   UNL A   1      48.166  26.373  31.560  1.00  0.00     0.148 A 
ATOM     63  C   UNL A   1      48.412  24.595  33.723  1.00  0.00     0.002 A 
ATOM     64  C   UNL A   1      49.407  25.848  31.899  1.00  0.00     0.091 A 
ATOM     65  F   UNL A   1      48.016  27.246  30.552  1.00  0.00    -0.205 F 
ATOM     66  C   UNL A   1      49.534  24.968  32.986  1.00  0.00     0.022 A 
BRANCH  64  67
ATOM     67  S   UNL A   1      50.895  26.201  30.955  1.00  0.00     0.127 S 
ATOM     68  O   UNL A   1      51.846  25.252  31.533  1.00  0.00    -0.237 OA
ATOM     69  O   UNL A   1      50.476  25.889  29.589  1.00  0.00    -0.237 OA
ATOM     70  O   UNL A   1      51.197  27.606  31.190  1.00  0.00    -0.744 OA
ENDBRANCH  64  67
ENDBRANCH  37  60
ENDBRANCH  11  12
ENDBRANCH   4   6
ENDBRANCH   1   2
BRANCH   1  71
ATOM     71  C   UNL A   1      33.194  27.644  26.576  1.00  0.00     0.023 C 
BRANCH  71  72
ATOM     72  C   UNL A   1      31.702  27.903  26.373  1.00  0.00     0.023 C 
BRANCH  72  73
ATOM     73  C   UNL A   1      30.943  26.800  25.639  1.00  0.00     0.116 C 
BRANCH  73  74
ATOM     74  N   UNL A   1      30.460  25.762  26.537  1.00  0.00    -0.352 N 
ATOM     75  C   UNL A   1      30.600  24.401  26.447  1.00  0.00     0.251 C 
ATOM     76  H   UNL A   1      29.962  26.083  27.323  1.00  0.00     0.163 HD
ATOM     77  O   UNL A   1      29.988  23.661  27.210  1.00  0.00    -0.269 OA
BRANCH  75  78
ATOM     78  C   UNL A   1      31.477  23.817  25.412  1.00  0.00     0.040 A 
ATOM     79  C   UNL A   1      30.943  23.558  24.150  1.00  0.00     0.014 A 
ATOM     80  C   UNL A   1      32.813  23.508  25.695  1.00  0.00     0.022 A 
ATOM     81  C   UNL A   1      31.765  23.042  23.153  1.00  0.00     0.001 A 
ATOM     82  C   UNL A   1      33.665  23.012  24.696  1.00  0.00    -0.012 A 
ATOM     83  C   UNL A   1      33.115  22.785  23.422  1.00  0.00     0.009 A 
BRANCH  82  84
ATOM     84  C   UNL A   1      35.092  22.768  24.976  1.00  0.00     0.053 A 
ATOM     85  C   UNL A   1      35.637  21.474  24.953  1.00  0.00     0.136 A 
ATOM     86  C   UNL A   1      35.982  23.820  25.251  1.00  0.00     0.136 A 
ATOM     87  F   UNL A   1      34.856  20.418  24.677  1.00  0.00    -0.206 F 
ATOM     88  C   UNL A   1      36.988  21.234  25.192  1.00  0.00     0.079 A 
ATOM     89  C   UNL A   1      37.336  23.601  25.493  1.00  0.00     0.079 A 
ATOM     90  F   UNL A   1      35.538  25.085  25.294  1.00  0.00    -0.206 F 
ATOM     91  C   UNL A   1      37.825  22.304  25.462  1.00  0.00     0.129 A 
ATOM     92  F   UNL A   1      39.125  22.082  25.697  1.00  0.00    -0.207 F 
ENDBRANCH  82  84
ENDBRANCH  75  78
ENDBRANCH  73  74
ENDBRANCH  72  73
ENDBRANCH  71  72
ENDBRANCH   1  71
TORSDOF 15
ENDMDL
MODEL 3
REMARK VINA RESULT:     -10.8      3.802     10.174
REMARK SMILES O=C(NCCCCNC(=O)c1cccc(-c2c(F)cc(F)cc2F)c1)c1ccc(-c2c3nc(c(-c4cccc(S(=O)(=O)[O-])c4F)c4ccc([nH]4)c(-c4cccc(S(=O)(=O)[O-])c4F)c4nc(c(-c5cccc(S(=O)(=O)[O-])c5F)c5ccc2[nH]5)C=C4)C=C3)cc1
REMARK SMILES IDX 4 1 3 2 1 3 2 4 26 6 27 7 88 8 28 9 87 10 29 11 30 12 31 13
REMARK SMILES IDX 81 14 32 15 86 16 80 17 82 18 33 19 85 20 79 21 78 22 34 24
REMARK SMILES IDX 66 25 46 26 65 27 47 28 50 29 64 30 83 31 48 32 49 33 63 35
REMARK SMILES IDX 84 36 51 37 35 38 36 39 44 40 37 41 39 42 45 43 38 44 40 45
REMARK SMILES IDX 41 46 42 47 43 48 67 49 68 50 76 51 69 52 71 53 77 54 70 55
REMARK SMILES IDX 72 56 73 57 74 58 75 59 52 60 53 61 61 62 54 63 56 64 62 65
REMARK SMILES IDX 55 66 57 67 58 68 59 69 60 70 5 71 6 72 7 73 8 74 9 75 10 77
REMARK SMILES IDX 11 78 12 79 25 80 13 81 15 82 14 83 16 84 17 85 23 86 18 87
REMARK SMILES IDX 19 88 22 89 24 90 20 91 21 92
REMARK H PARENT 3 5 82 23 50 34 8 76
REMARK Flexibility Score: inf
ROOT
ATOM      1  C   UNL A   1      32.591  32.497  26.859  1.00  0.00     0.116 C 
ENDROOT
BRANCH   1   2
ATOM      2  N   UNL A   1      32.415  33.853  27.353  1.00  0.00    -0.352 N 
ATOM      3  O   UNL A   1      32.675  35.582  28.770  1.00  0.00    -0.269 OA
ATOM      4  C   UNL A   1      33.079  34.493  28.372  1.00  0.00     0.251 C 
ATOM      5  H   UNL A   1      31.723  34.384  26.896  1.00  0.00     0.163 HD
BRANCH   4   6
ATOM      6  C   UNL A   1      34.260  33.855  28.994  1.00  0.00     0.039 A 
ATOM      7  C   UNL A   1      34.106  32.794  29.891  1.00  0.00     0.014 A 
ATOM      8  C   UNL A   1      35.537  34.313  28.662  1.00  0.00     0.014 A 
ATOM      9  C   UNL A   1      35.217  32.270  30.543  1.00  0.00     0.010 A 
ATOM     10  C   UNL A   1      36.659  33.734  29.261  1.00  0.00     0.010 A 
ATOM     11  C   UNL A   1      36.507  32.719  30.219  1.00  0.00    -0.014 A 
BRANCH  11  12
ATOM     12  C   UNL A   1      37.688  32.026  30.790  1.00  0.00     0.031 A 
ATOM     13  C   UNL A   1      38.422  30.961  30.026  1.00  0.00     0.074 A 
ATOM     14  C   UNL A   1      38.063  32.344  32.046  1.00  0.00     0.049 A 
ATOM     15  N   UNL A   1      39.456  30.252  30.402  1.00  0.00    -0.248 NA
ATOM     16  C   UNL A   1      37.938  30.641  28.674  1.00  0.00     0.031 C 
ATOM     17  C   UNL A   1      37.383  33.321  32.901  1.00  0.00     0.029 A 
ATOM     18  N   UNL A   1      39.080  31.868  32.831  1.00  0.00    -0.354 N 
ATOM     19  C   UNL A   1      39.719  29.374  29.358  1.00  0.00     0.074 A 
ATOM     20  C   UNL A   1      38.742  29.644  28.326  1.00  0.00     0.031 C 
ATOM     21  C   UNL A   1      37.998  33.368  34.092  1.00  0.00     0.029 A 
ATOM     22  C   UNL A   1      39.080  32.392  34.103  1.00  0.00     0.049 A 
ATOM     23  H   UNL A   1      39.746  31.215  32.516  1.00  0.00     0.167 HD
ATOM     24  C   UNL A   1      40.695  28.438  29.272  1.00  0.00     0.034 A 
ATOM     25  C   UNL A   1      39.839  32.097  35.175  1.00  0.00     0.034 A 
ATOM     26  C   UNL A   1      41.690  28.212  30.286  1.00  0.00     0.049 A 
ATOM     27  C   UNL A   1      40.918  31.064  35.036  1.00  0.00     0.074 A 
ATOM     28  C   UNL A   1      42.795  27.378  30.234  1.00  0.00     0.029 A 
ATOM     29  N   UNL A   1      41.691  28.797  31.542  1.00  0.00    -0.354 N 
ATOM     30  N   UNL A   1      41.272  30.382  33.975  1.00  0.00    -0.248 NA
ATOM     31  C   UNL A   1      41.717  30.773  36.234  1.00  0.00     0.031 C 
ATOM     32  C   UNL A   1      43.445  27.435  31.471  1.00  0.00     0.029 A 
ATOM     33  C   UNL A   1      42.754  28.317  32.287  1.00  0.00     0.049 A 
ATOM     34  H   UNL A   1      41.033  29.458  31.858  1.00  0.00     0.167 HD
ATOM     35  C   UNL A   1      42.339  29.588  34.372  1.00  0.00     0.074 A 
ATOM     36  C   UNL A   1      42.600  29.903  35.761  1.00  0.00     0.031 C 
ATOM     37  C   UNL A   1      43.026  28.665  33.657  1.00  0.00     0.034 A 
BRANCH  24  38
ATOM     38  C   UNL A   1      40.776  27.598  28.025  1.00  0.00     0.023 A 
ATOM     39  C   UNL A   1      41.436  28.102  26.887  1.00  0.00     0.012 A 
ATOM     40  C   UNL A   1      40.313  26.266  28.025  1.00  0.00     0.148 A 
ATOM     41  C   UNL A   1      41.625  27.298  25.763  1.00  0.00     0.002 A 
ATOM     42  C   UNL A   1      40.535  25.461  26.913  1.00  0.00     0.091 A 
ATOM     43  F   UNL A   1      39.672  25.813  29.111  1.00  0.00    -0.205 F 
ATOM     44  C   UNL A   1      41.186  25.977  25.781  1.00  0.00     0.022 A 
BRANCH  42  45
ATOM     45  S   UNL A   1      40.073  23.724  26.863  1.00  0.00     0.127 S 
ATOM     46  O   UNL A   1      38.658  23.808  26.503  1.00  0.00    -0.237 OA
ATOM     47  O   UNL A   1      40.941  23.207  25.805  1.00  0.00    -0.237 OA
ATOM     48  O   UNL A   1      40.349  23.195  28.191  1.00  0.00    -0.744 OA
ENDBRANCH  42  45
ENDBRANCH  24  38
BRANCH  25  49
ATOM     49  C   UNL A   1      39.601  32.803  36.465  1.00  0.00     0.023 A 
ATOM     50  C   UNL A   1      40.278  34.006  36.735  1.00  0.00     0.012 A 
ATOM     51  C   UNL A   1      38.676  32.308  37.405  1.00  0.00     0.148 A 
ATOM     52  C   UNL A   1      40.055  34.692  37.930  1.00  0.00     0.002 A 
ATOM     53  C   UNL A   1      38.413  33.027  38.563  1.00  0.00     0.091 A 
ATOM     54  F   UNL A   1      38.056  31.147  37.142  1.00  0.00    -0.205 F 
ATOM     55  C   UNL A   1      39.114  34.211  38.837  1.00  0.00     0.022 A 
BRANCH  53  56
ATOM     56  S   UNL A   1      37.105  32.544  39.696  1.00  0.00     0.127 S 
ATOM     57  O   UNL A   1      37.544  31.215  40.113  1.00  0.00    -0.237 OA
ATOM     58  O   UNL A   1      37.194  33.575  40.732  1.00  0.00    -0.237 OA
ATOM     59  O   UNL A   1      35.880  32.600  38.909  1.00  0.00    -0.744 OA
ENDBRANCH  53  56
ENDBRANCH  25  49
BRANCH  37  60
ATOM     60  C   UNL A   1      44.124  27.919  34.365  1.00  0.00     0.023 A 
ATOM     61  C   UNL A   1      45.419  28.472  34.404  1.00  0.00     0.012 A 
ATOM     62  C   UNL A   1      43.863  26.717  35.049  1.00  0.00     0.148 A 
ATOM     63  C   UNL A   1      46.444  27.828  35.092  1.00  0.00     0.002 A 
ATOM     64  C   UNL A   1      44.879  26.102  35.771  1.00  0.00     0.091 A 
ATOM     65  F   UNL A   1      42.627  26.200  34.983  1.00  0.00    -0.205 F 
ATOM     66  C   UNL A   1      46.172  26.650  35.785  1.00  0.00     0.022 A 
BRANCH  64  67
ATOM     67  S   UNL A   1      44.603  24.631  36.764  1.00  0.00     0.127 S 
ATOM     68  O   UNL A   1      43.593  25.096  37.713  1.00  0.00    -0.237 OA
ATOM     69  O   UNL A   1      44.113  23.674  35.771  1.00  0.00    -0.237 OA
ATOM     70  O   UNL A   1      45.895  24.291  37.346  1.00  0.00    -0.744 OA
ENDBRANCH  64  67
ENDBRANCH  37  60
ENDBRANCH  11  12
ENDBRANCH   4   6
ENDBRANCH   1   2
BRANCH   1  71
ATOM     71  C   UNL A   1      31.265  31.805  26.568  1.00  0.00     0.023 C 
BRANCH  71  72
ATOM     72  C   UNL A   1      31.382  30.376  26.042  1.00  0.00     0.023 C 
BRANCH  72  73
ATOM     73  C   UNL A   1      31.754  29.324  27.085  1.00  0.00     0.116 C 
BRANCH  73  74
ATOM     74  N   UNL A   1      33.169  29.353  27.424  1.00  0.00    -0.352 N 
ATOM     75  C   UNL A   1      34.214  28.676  26.851  1.00  0.00     0.251 C 
ATOM     76  H   UNL A   1      33.410  29.944  28.174  1.00  0.00     0.163 HD
ATOM     77  O   UNL A   1      35.326  28.692  27.370  1.00  0.00    -0.269 OA
BRANCH  75  78
ATOM     78  C   UNL A   1      34.000  27.902  25.612  1.00  0.00     0.040 A 
ATOM     79  C   UNL A   1      33.853  28.591  24.408  1.00  0.00     0.014 A 
ATOM     80  C   UNL A   1      33.923  26.504  25.644  1.00  0.00     0.022 A 
ATOM     81  C   UNL A   1      33.687  27.875  23.227  1.00  0.00     0.001 A 
ATOM     82  C   UNL A   1      33.783  25.763  24.460  1.00  0.00    -0.012 A 
ATOM     83  C   UNL A   1      33.666  26.476  23.253  1.00  0.00     0.009 A 
BRANCH  82  84
ATOM     84  C   UNL A   1      33.788  24.288  24.489  1.00  0.00     0.053 A 
ATOM     85  C   UNL A   1      34.985  23.557  24.549  1.00  0.00     0.136 A 
ATOM     86  C   UNL A   1      32.596  23.545  24.485  1.00  0.00     0.136 A 
ATOM     87  F   UNL A   1      36.166  24.195  24.576  1.00  0.00    -0.206 F 
ATOM     88  C   UNL A   1      35.001  22.165  24.601  1.00  0.00     0.079 A 
ATOM     89  C   UNL A   1      32.591  22.153  24.536  1.00  0.00     0.079 A 
ATOM     90  F   UNL A   1      31.411  24.170  24.427  1.00  0.00    -0.206 F 
ATOM     91  C   UNL A   1      33.799  21.476  24.592  1.00  0.00     0.129 A 
ATOM     92  F   UNL A   1      33.806  20.137  24.638  1.00  0.00    -0.207 F 
ENDBRANCH  82  84
ENDBRANCH  75  78
ENDBRANCH  73  74
ENDBRANCH  72  73
ENDBRANCH  71  72
ENDBRANCH   1  71
TORSDOF 15
ENDMDL
