MODEL 1
REMARK VINA RESULT:     -11.0      0.000      0.000
REMARK SMILES C[C@H](c1ccccc1)[N@@H+](CC(=O)NCCCCNC(=O)c1ccc(-c2c3nc(c(-c4cccc(S(=O)(=O)[O-])c4F)c4ccc([nH]4)c(-c4cccc(S(=O)(=O)[O-])c4F)c4nc(c(-c5cccc(S(=O)(=O)[O-])c5F)c5ccc2[nH]5)C=C4)C=C3)cc1)CC(F)(F)F
REMARK SMILES IDX 15 1 14 2 13 3 11 4 12 5 10 7 9 8 2 10 1 11 3 12 4 13 8 14
REMARK SMILES IDX 5 15 7 16 6 17 84 18 85 19 86 20 87 21 88 22 16 23 17 24
REMARK SMILES IDX 18 25 19 26 20 28 21 29 22 30 83 31 23 32 82 33 24 34 25 35
REMARK SMILES IDX 26 36 76 37 27 38 81 39 75 40 77 41 28 42 80 43 74 44 73 45
REMARK SMILES IDX 29 47 61 48 41 49 60 50 42 51 45 52 59 53 78 54 43 55 44 56
REMARK SMILES IDX 58 58 79 59 46 60 30 61 31 62 39 63 32 64 34 65 40 66 33 67
REMARK SMILES IDX 35 68 36 69 37 70 38 71 62 72 63 73 71 74 64 75 66 76 72 77
REMARK SMILES IDX 65 78 67 79 68 80 69 81 70 82 47 83 48 84 56 85 49 86 51 87
REMARK SMILES IDX 57 88 50 89 52 90 53 91 54 92 55 93
REMARK H PARENT 13 6 9 9 18 27 77 46 45 57
REMARK Flexibility Score: inf
ROOT
ATOM      1  C   UNL A   1      32.988  29.284  23.710  1.00  0.00     0.023 C 
ENDROOT
BRANCH   1   2
ATOM      2  C   UNL A   1      32.118  28.416  22.783  1.00  0.00     0.116 C 
BRANCH   2   3
ATOM      3  N   UNL A   1      32.826  27.430  21.975  1.00  0.00    -0.351 N 
ATOM      4  C   UNL A   1      32.594  26.105  21.715  1.00  0.00     0.275 C 
ATOM      5  O   UNL A   1      33.280  25.564  20.845  1.00  0.00    -0.269 OA
ATOM      6  H   UNL A   1      33.627  27.786  21.527  1.00  0.00     0.163 HD
BRANCH   4   7
ATOM      7  C   UNL A   1      31.522  25.307  22.468  1.00  0.00     0.364 C 
BRANCH   7   8
ATOM      8  N   UNL A   1      31.995  24.562  23.656  1.00  0.00    -0.314 N 
ATOM      9  H   UNL A   1      32.645  25.218  24.091  1.00  0.00     0.349 HD
BRANCH   8  10
ATOM     10  C   UNL A   1      32.877  23.436  23.365  1.00  0.00     0.212 C 
ATOM     11  C   UNL A   1      32.299  22.016  23.500  1.00  0.00     0.081 C 
BRANCH  10  12
ATOM     12  C   UNL A   1      34.308  23.590  23.865  1.00  0.00     0.009 A 
ATOM     13  C   UNL A   1      34.605  24.165  25.106  1.00  0.00     0.010 A 
ATOM     14  C   UNL A   1      35.360  23.009  23.128  1.00  0.00     0.010 A 
ATOM     15  C   UNL A   1      35.894  24.079  25.637  1.00  0.00     0.001 A 
ATOM     16  C   UNL A   1      36.649  22.932  23.655  1.00  0.00     0.001 A 
ATOM     17  C   UNL A   1      36.911  23.451  24.918  1.00  0.00     0.000 A 
ENDBRANCH  10  12
ENDBRANCH   8  10
BRANCH   8  18
ATOM     18  C   UNL A   1      31.062  24.441  24.792  1.00  0.00     0.380 C 
BRANCH  18  19
ATOM     19  C   UNL A   1      30.676  25.589  25.750  1.00  0.00     0.438 C 
ATOM     20  F   UNL A   1      30.551  26.765  25.095  1.00  0.00    -0.165 F 
ATOM     21  F   UNL A   1      29.465  25.328  26.307  1.00  0.00    -0.165 F 
ATOM     22  F   UNL A   1      31.552  25.741  26.758  1.00  0.00    -0.165 F 
ENDBRANCH  18  19
ENDBRANCH   8  18
ENDBRANCH   7   8
ENDBRANCH   4   7
ENDBRANCH   2   3
ENDBRANCH   1   2
BRANCH   1  23
ATOM     23  C   UNL A   1      33.572  28.590  24.938  1.00  0.00     0.023 C 
BRANCH  23  24
ATOM     24  C   UNL A   1      32.826  28.891  26.219  1.00  0.00     0.116 C 
BRANCH  24  25
ATOM     25  N   UNL A   1      32.500  30.308  26.323  1.00  0.00    -0.352 N 
ATOM     26  C   UNL A   1      33.126  31.281  27.058  1.00  0.00     0.251 C 
ATOM     27  H   UNL A   1      31.726  30.605  25.794  1.00  0.00     0.163 HD
ATOM     28  O   UNL A   1      32.566  32.362  27.252  1.00  0.00    -0.269 OA
BRANCH  26  29
ATOM     29  C   UNL A   1      34.468  31.022  27.610  1.00  0.00     0.039 A 
ATOM     30  C   UNL A   1      35.413  32.049  27.642  1.00  0.00     0.014 A 
ATOM     31  C   UNL A   1      34.779  29.758  28.117  1.00  0.00     0.014 A 
ATOM     32  C   UNL A   1      36.652  31.823  28.243  1.00  0.00     0.010 A 
ATOM     33  C   UNL A   1      35.968  29.565  28.802  1.00  0.00     0.010 A 
ATOM     34  C   UNL A   1      36.923  30.590  28.858  1.00  0.00    -0.014 A 
BRANCH  34  35
ATOM     35  C   UNL A   1      38.196  30.329  29.571  1.00  0.00     0.031 A 
ATOM     36  C   UNL A   1      39.191  29.364  28.982  1.00  0.00     0.074 A 
ATOM     37  C   UNL A   1      38.386  30.850  30.799  1.00  0.00     0.049 A 
ATOM     38  N   UNL A   1      40.294  28.900  29.505  1.00  0.00    -0.248 NA
ATOM     39  C   UNL A   1      38.889  28.821  27.645  1.00  0.00     0.031 C 
ATOM     40  C   UNL A   1      37.442  31.722  31.505  1.00  0.00     0.029 A 
ATOM     41  N   UNL A   1      39.414  30.685  31.693  1.00  0.00    -0.354 N 
ATOM     42  C   UNL A   1      40.783  27.973  28.593  1.00  0.00     0.074 A 
ATOM     43  C   UNL A   1      39.852  27.925  27.490  1.00  0.00     0.031 C 
ATOM     44  C   UNL A   1      37.927  32.001  32.725  1.00  0.00     0.029 A 
ATOM     45  C   UNL A   1      39.194  31.301  32.904  1.00  0.00     0.049 A 
ATOM     46  H   UNL A   1      40.230  30.175  31.487  1.00  0.00     0.167 HD
ATOM     47  C   UNL A   1      41.921  27.245  28.662  1.00  0.00     0.034 A 
ATOM     48  C   UNL A   1      39.919  31.279  34.039  1.00  0.00     0.034 A 
ATOM     49  C   UNL A   1      42.872  27.351  29.733  1.00  0.00     0.049 A 
ATOM     50  C   UNL A   1      41.209  30.501  34.059  1.00  0.00     0.074 A 
ATOM     51  C   UNL A   1      44.121  26.768  29.831  1.00  0.00     0.029 A 
ATOM     52  N   UNL A   1      42.671  28.074  30.898  1.00  0.00    -0.354 N 
ATOM     53  N   UNL A   1      41.758  29.792  33.103  1.00  0.00    -0.248 NA
ATOM     54  C   UNL A   1      41.993  30.544  35.302  1.00  0.00     0.031 C 
ATOM     55  C   UNL A   1      44.661  27.108  31.074  1.00  0.00     0.029 A 
ATOM     56  C   UNL A   1      43.761  27.928  31.735  1.00  0.00     0.049 A 
ATOM     57  H   UNL A   1      41.871  28.611  31.099  1.00  0.00     0.167 HD
ATOM     58  C   UNL A   1      42.960  29.325  33.619  1.00  0.00     0.074 A 
ATOM     59  C   UNL A   1      43.075  29.860  34.960  1.00  0.00     0.031 C 
ATOM     60  C   UNL A   1      43.878  28.510  33.046  1.00  0.00     0.034 A 
BRANCH  47  61
ATOM     61  C   UNL A   1      42.237  26.302  27.533  1.00  0.00     0.023 A 
ATOM     62  C   UNL A   1      43.099  26.712  26.497  1.00  0.00     0.012 A 
ATOM     63  C   UNL A   1      41.764  24.975  27.556  1.00  0.00     0.148 A 
ATOM     64  C   UNL A   1      43.474  25.823  25.492  1.00  0.00     0.002 A 
ATOM     65  C   UNL A   1      42.177  24.081  26.576  1.00  0.00     0.091 A 
ATOM     66  F   UNL A   1      40.928  24.613  28.539  1.00  0.00    -0.205 F 
ATOM     67  C   UNL A   1      43.024  24.505  25.539  1.00  0.00     0.022 A 
BRANCH  65  68
ATOM     68  S   UNL A   1      41.722  22.344  26.590  1.00  0.00     0.127 S 
ATOM     69  O   UNL A   1      40.264  22.421  26.511  1.00  0.00    -0.237 OA
ATOM     70  O   UNL A   1      42.373  21.849  25.377  1.00  0.00    -0.237 OA
ATOM     71  O   UNL A   1      42.246  21.798  27.834  1.00  0.00    -0.744 OA
ENDBRANCH  65  68
ENDBRANCH  47  61
BRANCH  48  72
ATOM     72  C   UNL A   1      39.462  32.031  35.242  1.00  0.00     0.023 A 
ATOM     73  C   UNL A   1      38.609  31.404  36.171  1.00  0.00     0.012 A 
ATOM     74  C   UNL A   1      39.867  33.360  35.473  1.00  0.00     0.148 A 
ATOM     75  C   UNL A   1      38.133  32.100  37.284  1.00  0.00     0.002 A 
ATOM     76  C   UNL A   1      39.438  34.028  36.614  1.00  0.00     0.091 A 
ATOM     77  F   UNL A   1      40.668  33.947  34.572  1.00  0.00    -0.205 F 
ATOM     78  C   UNL A   1      38.553  33.408  37.510  1.00  0.00     0.022 A 
BRANCH  76  79
ATOM     79  S   UNL A   1      40.042  35.663  37.048  1.00  0.00     0.127 S 
ATOM     80  O   UNL A   1      41.476  35.427  37.183  1.00  0.00    -0.237 OA
ATOM     81  O   UNL A   1      39.654  36.452  35.877  1.00  0.00    -0.237 OA
ATOM     82  O   UNL A   1      39.335  36.024  38.269  1.00  0.00    -0.744 OA
ENDBRANCH  76  79
ENDBRANCH  48  72
BRANCH  60  83
ATOM     83  C   UNL A   1      45.100  28.158  33.851  1.00  0.00     0.023 A 
ATOM     84  C   UNL A   1      46.228  28.998  33.808  1.00  0.00     0.012 A 
ATOM     85  C   UNL A   1      45.092  27.047  34.717  1.00  0.00     0.148 A 
ATOM     86  C   UNL A   1      47.345  28.722  34.595  1.00  0.00     0.002 A 
ATOM     87  C   UNL A   1      46.186  26.810  35.538  1.00  0.00     0.091 A 
ATOM     88  F   UNL A   1      44.010  26.254  34.731  1.00  0.00    -0.205 F 
ATOM     89  C   UNL A   1      47.318  27.638  35.469  1.00  0.00     0.022 A 
BRANCH  87  90
ATOM     90  S   UNL A   1      46.207  25.497  36.764  1.00  0.00     0.127 S 
ATOM     91  O   UNL A   1      47.523  25.677  37.373  1.00  0.00    -0.237 OA
ATOM     92  O   UNL A   1      45.080  25.863  37.624  1.00  0.00    -0.237 OA
ATOM     93  O   UNL A   1      46.028  24.253  36.027  1.00  0.00    -0.744 OA
ENDBRANCH  87  90
ENDBRANCH  60  83
ENDBRANCH  34  35
ENDBRANCH  26  29
ENDBRANCH  24  25
ENDBRANCH  23  24
ENDBRANCH   1  23
TORSDOF 19
ENDMDL
MODEL 2
REMARK VINA RESULT:     -10.8      2.497      8.352
REMARK SMILES C[C@H](c1ccccc1)[N@@H+](CC(=O)NCCCCNC(=O)c1ccc(-c2c3nc(c(-c4cccc(S(=O)(=O)[O-])c4F)c4ccc([nH]4)c(-c4cccc(S(=O)(=O)[O-])c4F)c4nc(c(-c5cccc(S(=O)(=O)[O-])c5F)c5ccc2[nH]5)C=C4)C=C3)cc1)CC(F)(F)F
REMARK SMILES IDX 15 1 14 2 13 3 11 4 12 5 10 7 9 8 2 10 1 11 3 12 4 13 8 14
REMARK SMILES IDX 5 15 7 16 6 17 84 18 85 19 86 20 87 21 88 22 16 23 17 24
REMARK SMILES IDX 18 25 19 26 20 28 21 29 22 30 83 31 23 32 82 33 24 34 25 35
REMARK SMILES IDX 26 36 76 37 27 38 81 39 75 40 77 41 28 42 80 43 74 44 73 45
REMARK SMILES IDX 29 47 61 48 41 49 60 50 42 51 45 52 59 53 78 54 43 55 44 56
REMARK SMILES IDX 58 58 79 59 46 60 30 61 31 62 39 63 32 64 34 65 40 66 33 67
REMARK SMILES IDX 35 68 36 69 37 70 38 71 62 72 63 73 71 74 64 75 66 76 72 77
REMARK SMILES IDX 65 78 67 79 68 80 69 81 70 82 47 83 48 84 56 85 49 86 51 87
REMARK SMILES IDX 57 88 50 89 52 90 53 91 54 92 55 93
REMARK H PARENT 13 6 9 9 18 27 77 46 45 57
REMARK Flexibility Score: inf
ROOT
ATOM      1  C   UNL A   1      32.188  27.264  26.190  1.00  0.00     0.023 C 
ENDROOT
BRANCH   1   2
ATOM      2  C   UNL A   1      32.452  25.755  26.338  1.00  0.00     0.116 C 
BRANCH   2   3
ATOM      3  N   UNL A   1      31.317  24.942  26.761  1.00  0.00    -0.351 N 
ATOM      4  C   UNL A   1      31.125  23.588  26.840  1.00  0.00     0.275 C 
ATOM      5  O   UNL A   1      30.104  23.188  27.403  1.00  0.00    -0.269 OA
ATOM      6  H   UNL A   1      30.537  25.469  27.047  1.00  0.00     0.163 HD
BRANCH   4   7
ATOM      7  C   UNL A   1      32.134  22.590  26.256  1.00  0.00     0.364 C 
BRANCH   7   8
ATOM      8  N   UNL A   1      32.777  22.998  24.988  1.00  0.00    -0.314 N 
ATOM      9  H   UNL A   1      32.892  24.005  25.105  1.00  0.00     0.349 HD
BRANCH   8  10
ATOM     10  C   UNL A   1      31.911  22.943  23.815  1.00  0.00     0.212 C 
ATOM     11  C   UNL A   1      32.223  21.885  22.740  1.00  0.00     0.081 C 
BRANCH  10  12
ATOM     12  C   UNL A   1      31.480  24.297  23.266  1.00  0.00     0.009 A 
ATOM     13  C   UNL A   1      30.250  24.877  23.596  1.00  0.00     0.010 A 
ATOM     14  C   UNL A   1      32.400  25.060  22.518  1.00  0.00     0.010 A 
ATOM     15  C   UNL A   1      29.985  26.210  23.272  1.00  0.00     0.001 A 
ATOM     16  C   UNL A   1      32.131  26.389  22.187  1.00  0.00     0.001 A 
ATOM     17  C   UNL A   1      30.930  26.968  22.582  1.00  0.00     0.000 A 
ENDBRANCH  10  12
ENDBRANCH   8  10
BRANCH   8  18
ATOM     18  C   UNL A   1      34.205  22.665  24.818  1.00  0.00     0.380 C 
BRANCH  18  19
ATOM     19  C   UNL A   1      35.256  23.582  24.157  1.00  0.00     0.438 C 
ATOM     20  F   UNL A   1      35.179  23.541  22.808  1.00  0.00    -0.165 F 
ATOM     21  F   UNL A   1      35.025  24.872  24.516  1.00  0.00    -0.165 F 
ATOM     22  F   UNL A   1      36.512  23.286  24.532  1.00  0.00    -0.165 F 
ENDBRANCH  18  19
ENDBRANCH   8  18
ENDBRANCH   7   8
ENDBRANCH   4   7
ENDBRANCH   2   3
ENDBRANCH   1   2
BRANCH   1  23
ATOM     23  C   UNL A   1      33.306  28.089  25.557  1.00  0.00     0.023 C 
BRANCH  23  24
ATOM     24  C   UNL A   1      34.312  28.615  26.555  1.00  0.00     0.116 C 
BRANCH  24  25
ATOM     25  N   UNL A   1      34.111  30.036  26.814  1.00  0.00    -0.352 N 
ATOM     26  C   UNL A   1      34.748  30.842  27.721  1.00  0.00     0.251 C 
ATOM     27  H   UNL A   1      33.425  30.475  26.262  1.00  0.00     0.163 HD
ATOM     28  O   UNL A   1      34.275  31.945  28.003  1.00  0.00    -0.269 OA
BRANCH  26  29
ATOM     29  C   UNL A   1      35.998  30.379  28.351  1.00  0.00     0.039 A 
ATOM     30  C   UNL A   1      35.946  29.673  29.554  1.00  0.00     0.014 A 
ATOM     31  C   UNL A   1      37.224  30.631  27.730  1.00  0.00     0.014 A 
ATOM     32  C   UNL A   1      37.124  29.163  30.101  1.00  0.00     0.010 A 
ATOM     33  C   UNL A   1      38.377  30.039  28.219  1.00  0.00     0.010 A 
ATOM     34  C   UNL A   1      38.342  29.314  29.418  1.00  0.00    -0.014 A 
BRANCH  34  35
ATOM     35  C   UNL A   1      39.606  28.727  29.924  1.00  0.00     0.031 A 
ATOM     36  C   UNL A   1      40.356  29.424  31.028  1.00  0.00     0.074 A 
ATOM     37  C   UNL A   1      40.136  27.657  29.300  1.00  0.00     0.049 A 
ATOM     38  N   UNL A   1      41.535  29.152  31.519  1.00  0.00    -0.248 NA
ATOM     39  C   UNL A   1      39.713  30.603  31.636  1.00  0.00     0.031 C 
ATOM     40  C   UNL A   1      39.539  26.961  28.156  1.00  0.00     0.029 A 
ATOM     41  N   UNL A   1      41.321  26.996  29.506  1.00  0.00    -0.354 N 
ATOM     42  C   UNL A   1      41.799  30.153  32.445  1.00  0.00     0.074 A 
ATOM     43  C   UNL A   1      40.667  31.051  32.439  1.00  0.00     0.031 C 
ATOM     44  C   UNL A   1      40.365  25.984  27.753  1.00  0.00     0.029 A 
ATOM     45  C   UNL A   1      41.565  26.005  28.582  1.00  0.00     0.049 A 
ATOM     46  H   UNL A   1      41.936  27.210  30.243  1.00  0.00     0.167 HD
ATOM     47  C   UNL A   1      42.880  30.297  33.244  1.00  0.00     0.034 A 
ATOM     48  C   UNL A   1      42.648  25.223  28.407  1.00  0.00     0.034 A 
ATOM     49  C   UNL A   1      43.969  29.361  33.288  1.00  0.00     0.049 A 
ATOM     50  C   UNL A   1      43.811  25.375  29.352  1.00  0.00     0.074 A 
ATOM     51  C   UNL A   1      45.042  29.334  34.159  1.00  0.00     0.029 A 
ATOM     52  N   UNL A   1      44.133  28.300  32.412  1.00  0.00    -0.354 N 
ATOM     53  N   UNL A   1      43.951  26.201  30.360  1.00  0.00    -0.248 NA
ATOM     54  C   UNL A   1      44.952  24.470  29.155  1.00  0.00     0.031 C 
ATOM     55  C   UNL A   1      45.876  28.277  33.786  1.00  0.00     0.029 A 
ATOM     56  C   UNL A   1      45.306  27.628  32.703  1.00  0.00     0.049 A 
ATOM     57  H   UNL A   1      43.508  28.061  31.690  1.00  0.00     0.167 HD
ATOM     58  C   UNL A   1      45.181  25.899  30.931  1.00  0.00     0.074 A 
ATOM     59  C   UNL A   1      45.731  24.792  30.177  1.00  0.00     0.031 C 
ATOM     60  C   UNL A   1      45.811  26.496  31.972  1.00  0.00     0.034 A 
BRANCH  47  61
ATOM     61  C   UNL A   1      42.931  31.477  34.177  1.00  0.00     0.023 A 
ATOM     62  C   UNL A   1      43.479  32.696  33.736  1.00  0.00     0.012 A 
ATOM     63  C   UNL A   1      42.339  31.404  35.453  1.00  0.00     0.148 A 
ATOM     64  C   UNL A   1      43.453  33.824  34.555  1.00  0.00     0.002 A 
ATOM     65  C   UNL A   1      42.276  32.542  36.247  1.00  0.00     0.091 A 
ATOM     66  F   UNL A   1      41.843  30.227  35.861  1.00  0.00    -0.205 F 
ATOM     67  C   UNL A   1      42.840  33.750  35.804  1.00  0.00     0.022 A 
BRANCH  65  68
ATOM     68  S   UNL A   1      41.438  32.576  37.835  1.00  0.00     0.127 S 
ATOM     69  O   UNL A   1      40.101  32.107  37.472  1.00  0.00    -0.237 OA
ATOM     70  O   UNL A   1      42.227  31.623  38.616  1.00  0.00    -0.237 OA
ATOM     71  O   UNL A   1      41.506  33.954  38.300  1.00  0.00    -0.744 OA
ENDBRANCH  65  68
ENDBRANCH  47  61
BRANCH  48  72
ATOM     72  C   UNL A   1      42.681  24.213  27.311  1.00  0.00     0.023 A 
ATOM     73  C   UNL A   1      43.303  24.532  26.089  1.00  0.00     0.012 A 
ATOM     74  C   UNL A   1      42.103  22.938  27.473  1.00  0.00     0.148 A 
ATOM     75  C   UNL A   1      43.309  23.619  25.033  1.00  0.00     0.002 A 
ATOM     76  C   UNL A   1      42.166  22.012  26.439  1.00  0.00     0.091 A 
ATOM     77  F   UNL A   1      41.503  22.655  28.638  1.00  0.00    -0.205 F 
ATOM     78  C   UNL A   1      42.749  22.357  25.211  1.00  0.00     0.022 A 
BRANCH  76  79
ATOM     79  S   UNL A   1      41.591  20.321  26.635  1.00  0.00     0.127 S 
ATOM     80  O   UNL A   1      41.986  19.721  25.365  1.00  0.00    -0.237 OA
ATOM     81  O   UNL A   1      42.360  19.871  27.797  1.00  0.00    -0.237 OA
ATOM     82  O   UNL A   1      40.158  20.427  26.876  1.00  0.00    -0.744 OA
ENDBRANCH  76  79
ENDBRANCH  48  72
BRANCH  60  83
ATOM     83  C   UNL A   1      47.157  25.958  32.376  1.00  0.00     0.023 A 
ATOM     84  C   UNL A   1      48.322  26.486  31.789  1.00  0.00     0.012 A 
ATOM     85  C   UNL A   1      47.266  24.998  33.400  1.00  0.00     0.148 A 
ATOM     86  C   UNL A   1      49.580  26.044  32.197  1.00  0.00     0.002 A 
ATOM     87  C   UNL A   1      48.523  24.603  33.838  1.00  0.00     0.091 A 
ATOM     88  F   UNL A   1      46.141  24.501  33.935  1.00  0.00    -0.205 F 
ATOM     89  C   UNL A   1      49.681  25.114  33.229  1.00  0.00     0.022 A 
BRANCH  87  90
ATOM     90  S   UNL A   1      48.755  23.486  35.225  1.00  0.00     0.127 S 
ATOM     91  O   UNL A   1      50.212  23.389  35.291  1.00  0.00    -0.237 OA
ATOM     92  O   UNL A   1      48.141  24.230  36.326  1.00  0.00    -0.237 OA
ATOM     93  O   UNL A   1      48.066  22.251  34.870  1.00  0.00    -0.744 OA
ENDBRANCH  87  90
ENDBRANCH  60  83
ENDBRANCH  34  35
ENDBRANCH  26  29
ENDBRANCH  24  25
ENDBRANCH  23  24
ENDBRANCH   1  23
TORSDOF 19
ENDMDL
MODEL 3
REMARK VINA RESULT:     -10.8      2.352      2.977
REMARK SMILES C[C@H](c1ccccc1)[N@@H+](CC(=O)NCCCCNC(=O)c1ccc(-c2c3nc(c(-c4cccc(S(=O)(=O)[O-])c4F)c4ccc([nH]4)c(-c4cccc(S(=O)(=O)[O-])c4F)c4nc(c(-c5cccc(S(=O)(=O)[O-])c5F)c5ccc2[nH]5)C=C4)C=C3)cc1)CC(F)(F)F
REMARK SMILES IDX 15 1 14 2 13 3 11 4 12 5 10 7 9 8 2 10 1 11 3 12 4 13 8 14
REMARK SMILES IDX 5 15 7 16 6 17 84 18 85 19 86 20 87 21 88 22 16 23 17 24
REMARK SMILES IDX 18 25 19 26 20 28 21 29 22 30 83 31 23 32 82 33 24 34 25 35
REMARK SMILES IDX 26 36 76 37 27 38 81 39 75 40 77 41 28 42 80 43 74 44 73 45
REMARK SMILES IDX 29 47 61 48 41 49 60 50 42 51 45 52 59 53 78 54 43 55 44 56
REMARK SMILES IDX 58 58 79 59 46 60 30 61 31 62 39 63 32 64 34 65 40 66 33 67
REMARK SMILES IDX 35 68 36 69 37 70 38 71 62 72 63 73 71 74 64 75 66 76 72 77
REMARK SMILES IDX 65 78 67 79 68 80 69 81 70 82 47 83 48 84 56 85 49 86 51 87
REMARK SMILES IDX 57 88 50 89 52 90 53 91 54 92 55 93
REMARK H PARENT 13 6 9 9 18 27 77 46 45 57
REMARK Flexibility Score: inf
ROOT
ATOM      1  C   UNL A   1      31.021  30.788  25.482  1.00  0.00     0.023 C 
ENDROOT
BRANCH   1   2
ATOM      2  C   UNL A   1      32.235  29.909  25.835  1.00  0.00     0.116 C 
BRANCH   2   3
ATOM      3  N   UNL A   1      31.962  28.730  26.648  1.00  0.00    -0.351 N 
ATOM      4  C   UNL A   1      31.516  27.473  26.338  1.00  0.00     0.275 C 
ATOM      5  O   UNL A   1      31.540  26.622  27.230  1.00  0.00    -0.269 OA
ATOM      6  H   UNL A   1      32.132  28.863  27.609  1.00  0.00     0.163 HD
BRANCH   4   7
ATOM      7  C   UNL A   1      31.001  27.118  24.938  1.00  0.00     0.364 C 
BRANCH   7   8
ATOM      8  N   UNL A   1      32.022  26.636  23.983  1.00  0.00    -0.314 N 
ATOM      9  H   UNL A   1      31.639  26.915  23.080  1.00  0.00     0.349 HD
BRANCH   8  10
ATOM     10  C   UNL A   1      32.085  25.185  23.831  1.00  0.00     0.212 C 
ATOM     11  C   UNL A   1      30.827  24.370  24.178  1.00  0.00     0.081 C 
BRANCH  10  12
ATOM     12  C   UNL A   1      33.397  24.547  24.270  1.00  0.00     0.009 A 
ATOM     13  C   UNL A   1      33.717  24.352  25.618  1.00  0.00     0.010 A 
ATOM     14  C   UNL A   1      34.257  24.002  23.293  1.00  0.00     0.010 A 
ATOM     15  C   UNL A   1      34.808  23.559  25.980  1.00  0.00     0.001 A 
ATOM     16  C   UNL A   1      35.351  23.217  23.657  1.00  0.00     0.001 A 
ATOM     17  C   UNL A   1      35.615  22.981  25.002  1.00  0.00     0.000 A 
ENDBRANCH  10  12
ENDBRANCH   8  10
BRANCH   8  18
ATOM     18  C   UNL A   1      33.281  27.401  23.897  1.00  0.00     0.380 C 
BRANCH  18  19
ATOM     19  C   UNL A   1      33.698  28.292  22.708  1.00  0.00     0.438 C 
ATOM     20  F   UNL A   1      32.779  29.250  22.453  1.00  0.00    -0.165 F 
ATOM     21  F   UNL A   1      34.854  28.939  23.008  1.00  0.00    -0.165 F 
ATOM     22  F   UNL A   1      33.919  27.588  21.584  1.00  0.00    -0.165 F 
ENDBRANCH  18  19
ENDBRANCH   8  18
ENDBRANCH   7   8
ENDBRANCH   4   7
ENDBRANCH   2   3
ENDBRANCH   1   2
BRANCH   1  23
ATOM     23  C   UNL A   1      30.959  32.158  26.151  1.00  0.00     0.023 C 
BRANCH  23  24
ATOM     24  C   UNL A   1      32.230  32.541  26.873  1.00  0.00     0.116 C 
BRANCH  24  25
ATOM     25  N   UNL A   1      32.172  33.914  27.361  1.00  0.00    -0.352 N 
ATOM     26  C   UNL A   1      32.916  34.508  28.346  1.00  0.00     0.251 C 
ATOM     27  H   UNL A   1      31.507  34.492  26.922  1.00  0.00     0.163 HD
ATOM     28  O   UNL A   1      32.558  35.587  28.823  1.00  0.00    -0.269 OA
BRANCH  26  29
ATOM     29  C   UNL A   1      34.143  33.846  28.827  1.00  0.00     0.039 A 
ATOM     30  C   UNL A   1      35.390  34.388  28.513  1.00  0.00     0.014 A 
ATOM     31  C   UNL A   1      34.048  32.694  29.612  1.00  0.00     0.014 A 
ATOM     32  C   UNL A   1      36.543  33.806  29.042  1.00  0.00     0.010 A 
ATOM     33  C   UNL A   1      35.183  32.180  30.218  1.00  0.00     0.010 A 
ATOM     34  C   UNL A   1      36.444  32.720  29.926  1.00  0.00    -0.014 A 
BRANCH  34  35
ATOM     35  C   UNL A   1      37.635  32.117  30.569  1.00  0.00     0.031 A 
ATOM     36  C   UNL A   1      38.403  31.043  29.845  1.00  0.00     0.074 A 
ATOM     37  C   UNL A   1      37.934  32.438  31.843  1.00  0.00     0.049 A 
ATOM     38  N   UNL A   1      39.386  30.300  30.280  1.00  0.00    -0.248 NA
ATOM     39  C   UNL A   1      37.990  30.737  28.463  1.00  0.00     0.031 C 
ATOM     40  C   UNL A   1      37.197  33.397  32.671  1.00  0.00     0.029 A 
ATOM     41  N   UNL A   1      38.907  31.957  32.683  1.00  0.00    -0.354 N 
ATOM     42  C   UNL A   1      39.666  29.407  29.254  1.00  0.00     0.074 A 
ATOM     43  C   UNL A   1      38.742  29.684  28.179  1.00  0.00     0.031 C 
ATOM     44  C   UNL A   1      37.733  33.422  33.901  1.00  0.00     0.029 A 
ATOM     45  C   UNL A   1      38.825  32.457  33.963  1.00  0.00     0.049 A 
ATOM     46  H   UNL A   1      39.597  31.316  32.397  1.00  0.00     0.167 HD
ATOM     47  C   UNL A   1      40.625  28.454  29.207  1.00  0.00     0.034 A 
ATOM     48  C   UNL A   1      39.533  32.150  35.067  1.00  0.00     0.034 A 
ATOM     49  C   UNL A   1      41.581  28.232  30.256  1.00  0.00     0.049 A 
ATOM     50  C   UNL A   1      40.630  31.124  34.961  1.00  0.00     0.074 A 
ATOM     51  C   UNL A   1      42.680  27.394  30.251  1.00  0.00     0.029 A 
ATOM     52  N   UNL A   1      41.540  28.838  31.502  1.00  0.00    -0.354 N 
ATOM     53  N   UNL A   1      41.015  30.434  33.915  1.00  0.00    -0.248 NA
ATOM     54  C   UNL A   1      41.409  30.854  36.178  1.00  0.00     0.031 C 
ATOM     55  C   UNL A   1      43.283  27.463  31.510  1.00  0.00     0.029 A 
ATOM     56  C   UNL A   1      42.578  28.369  32.286  1.00  0.00     0.049 A 
ATOM     57  H   UNL A   1      40.871  29.502  31.786  1.00  0.00     0.167 HD
ATOM     58  C   UNL A   1      42.094  29.669  34.340  1.00  0.00     0.074 A 
ATOM     59  C   UNL A   1      42.323  30.005  35.730  1.00  0.00     0.031 C 
ATOM     60  C   UNL A   1      42.818  28.754  33.651  1.00  0.00     0.034 A 
BRANCH  47  61
ATOM     61  C   UNL A   1      40.733  27.606  27.968  1.00  0.00     0.023 A 
ATOM     62  C   UNL A   1      41.379  28.115  26.825  1.00  0.00     0.012 A 
ATOM     63  C   UNL A   1      40.288  26.270  27.976  1.00  0.00     0.148 A 
ATOM     64  C   UNL A   1      41.567  27.313  25.701  1.00  0.00     0.002 A 
ATOM     65  C   UNL A   1      40.518  25.463  26.869  1.00  0.00     0.091 A 
ATOM     66  F   UNL A   1      39.657  25.814  29.067  1.00  0.00    -0.205 F 
ATOM     67  C   UNL A   1      41.149  25.985  25.728  1.00  0.00     0.022 A 
BRANCH  65  68
ATOM     68  S   UNL A   1      40.093  23.718  26.832  1.00  0.00     0.127 S 
ATOM     69  O   UNL A   1      40.092  23.386  28.257  1.00  0.00    -0.237 OA
ATOM     70  O   UNL A   1      38.769  23.740  26.211  1.00  0.00    -0.237 OA
ATOM     71  O   UNL A   1      41.129  23.065  26.045  1.00  0.00    -0.744 OA
ENDBRANCH  65  68
ENDBRANCH  47  61
BRANCH  48  72
ATOM     72  C   UNL A   1      39.247  32.833  36.361  1.00  0.00     0.023 A 
ATOM     73  C   UNL A   1      39.855  34.071  36.644  1.00  0.00     0.012 A 
ATOM     74  C   UNL A   1      38.377  32.264  37.312  1.00  0.00     0.148 A 
ATOM     75  C   UNL A   1      39.637  34.709  37.866  1.00  0.00     0.002 A 
ATOM     76  C   UNL A   1      38.117  32.934  38.501  1.00  0.00     0.091 A 
ATOM     77  F   UNL A   1      37.817  31.078  37.033  1.00  0.00    -0.205 F 
ATOM     78  C   UNL A   1      38.762  34.146  38.790  1.00  0.00     0.022 A 
BRANCH  76  79
ATOM     79  S   UNL A   1      36.899  32.344  39.683  1.00  0.00     0.127 S 
ATOM     80  O   UNL A   1      37.411  31.015  40.003  1.00  0.00    -0.237 OA
ATOM     81  O   UNL A   1      37.019  33.328  40.761  1.00  0.00    -0.237 OA
ATOM     82  O   UNL A   1      35.625  32.387  38.978  1.00  0.00    -0.744 OA
ENDBRANCH  76  79
ENDBRANCH  48  72
BRANCH  60  83
ATOM     83  C   UNL A   1      43.941  28.062  34.376  1.00  0.00     0.023 A 
ATOM     84  C   UNL A   1      45.168  28.728  34.557  1.00  0.00     0.012 A 
ATOM     85  C   UNL A   1      43.745  26.793  34.955  1.00  0.00     0.148 A 
ATOM     86  C   UNL A   1      46.197  28.127  35.280  1.00  0.00     0.002 A 
ATOM     87  C   UNL A   1      44.756  26.225  35.719  1.00  0.00     0.091 A 
ATOM     88  F   UNL A   1      42.572  26.174  34.759  1.00  0.00    -0.205 F 
ATOM     89  C   UNL A   1      45.986  26.884  35.872  1.00  0.00     0.022 A 
BRANCH  87  90
ATOM     90  S   UNL A   1      44.544  24.675  36.601  1.00  0.00     0.127 S 
ATOM     91  O   UNL A   1      45.856  24.501  37.221  1.00  0.00    -0.237 OA
ATOM     92  O   UNL A   1      43.464  24.997  37.535  1.00  0.00    -0.237 OA
ATOM     93  O   UNL A   1      44.197  23.681  35.593  1.00  0.00    -0.744 OA
ENDBRANCH  87  90
ENDBRANCH  60  83
ENDBRANCH  34  35
ENDBRANCH  26  29
ENDBRANCH  24  25
ENDBRANCH  23  24
ENDBRANCH   1  23
TORSDOF 19
ENDMDL
