MODEL 1
REMARK VINA RESULT:     -12.2      0.000      0.000
REMARK SMILES Cn1ccc(C(=O)NCc2ccc(C(=O)NCCCCNC(=O)c3ccc(-c4c5nc(c(-c6cccc(S(=O)(=O)[O-])c6F)c6ccc([nH]6)c(-c6cccc(S(=O)(=O)[O-])c6F)c6nc(c(-c7cccc(S(=O)(=O)[O-])c7F)c7ccc4[nH]7)C=C6)C=C5)cc3)cc2)cc1=O
REMARK SMILES IDX 18 1 17 2 16 3 14 4 15 5 13 7 10 8 11 9 88 10 12 11 87 12
REMARK SMILES IDX 9 13 8 14 6 15 7 16 5 18 1 19 2 20 3 21 90 22 4 23 89 24
REMARK SMILES IDX 91 25 19 26 20 27 21 28 22 29 23 31 24 32 25 33 86 34 26 35
REMARK SMILES IDX 85 36 27 37 28 38 29 39 79 40 30 41 84 42 78 43 80 44 31 45
REMARK SMILES IDX 83 46 77 47 76 48 32 50 64 51 44 52 63 53 45 54 48 55 62 56
REMARK SMILES IDX 81 57 46 58 47 59 61 61 82 62 49 63 33 64 34 65 42 66 35 67
REMARK SMILES IDX 37 68 43 69 36 70 38 71 39 72 40 73 41 74 65 75 66 76 74 77
REMARK SMILES IDX 67 78 69 79 75 80 68 81 70 82 71 83 72 84 73 85 50 86 51 87
REMARK SMILES IDX 59 88 52 89 54 90 60 91 53 92 55 93 56 94 57 95 58 96
REMARK H PARENT 16 6 8 17 21 30 80 49 48 60
REMARK Flexibility Score: inf
ROOT
ATOM      1  C   UNL A   1      35.517  21.328  26.108  1.00  0.00     0.023 C 
ENDROOT
BRANCH   1   2
ATOM      2  C   UNL A   1      35.436  20.324  24.955  1.00  0.00     0.116 C 
BRANCH   2   3
ATOM      3  N   UNL A   1      34.264  19.477  25.070  1.00  0.00    -0.352 N 
ATOM      4  C   UNL A   1      32.925  19.739  24.909  1.00  0.00     0.251 C 
ATOM      5  O   UNL A   1      32.142  18.789  24.960  1.00  0.00    -0.269 OA
ATOM      6  H   UNL A   1      34.465  18.543  25.306  1.00  0.00     0.163 HD
BRANCH   4   7
ATOM      7  C   UNL A   1      32.375  21.102  24.655  1.00  0.00     0.039 A 
ATOM      8  C   UNL A   1      31.299  23.651  23.999  1.00  0.00    -0.029 A 
ATOM      9  C   UNL A   1      31.837  22.825  23.004  1.00  0.00     0.006 A 
ATOM     10  C   UNL A   1      31.271  23.162  25.313  1.00  0.00     0.006 A 
ATOM     11  C   UNL A   1      32.372  21.571  23.331  1.00  0.00     0.014 A 
ATOM     12  C   UNL A   1      31.789  21.904  25.630  1.00  0.00     0.014 A 
BRANCH   8  13
ATOM     13  C   UNL A   1      30.678  24.986  23.652  1.00  0.00     0.152 C 
BRANCH  13  14
ATOM     14  N   UNL A   1      31.084  26.019  24.586  1.00  0.00    -0.348 N 
ATOM     15  C   UNL A   1      30.998  27.371  24.602  1.00  0.00     0.251 C 
ATOM     16  O   UNL A   1      31.610  27.952  25.504  1.00  0.00    -0.269 OA
ATOM     17  H   UNL A   1      31.522  25.657  25.390  1.00  0.00     0.164 HD
BRANCH  15  18
ATOM     18  C   UNL A   1      30.120  28.163  23.682  1.00  0.00     0.046 A 
ATOM     19  C   UNL A   1      28.031  30.766  21.052  1.00  0.00     0.153 C 
ATOM     20  N   UNL A   1      28.727  29.838  21.928  1.00  0.00    -0.319 N 
ATOM     21  C   UNL A   1      30.103  29.787  21.871  1.00  0.00     0.089 A 
ATOM     22  C   UNL A   1      27.994  29.019  22.781  1.00  0.00     0.251 A 
ATOM     23  C   UNL A   1      30.795  28.998  22.699  1.00  0.00     0.032 A 
ATOM     24  C   UNL A   1      28.780  28.105  23.659  1.00  0.00     0.085 A 
ATOM     25  O   UNL A   1      26.769  29.018  22.874  1.00  0.00    -0.269 OA
ENDBRANCH  15  18
ENDBRANCH  13  14
ENDBRANCH   8  13
ENDBRANCH   4   7
ENDBRANCH   2   3
ENDBRANCH   1   2
BRANCH   1  26
ATOM     26  C   UNL A   1      35.689  22.787  25.684  1.00  0.00     0.023 C 
BRANCH  26  27
ATOM     27  C   UNL A   1      37.121  23.206  25.374  1.00  0.00     0.116 C 
BRANCH  27  28
ATOM     28  N   UNL A   1      38.124  22.310  25.938  1.00  0.00    -0.352 N 
ATOM     29  C   UNL A   1      39.238  22.637  26.669  1.00  0.00     0.251 C 
ATOM     30  H   UNL A   1      37.983  21.349  25.773  1.00  0.00     0.163 HD
ATOM     31  O   UNL A   1      40.044  21.769  26.993  1.00  0.00    -0.269 OA
BRANCH  29  32
ATOM     32  C   UNL A   1      39.481  24.051  27.024  1.00  0.00     0.039 A 
ATOM     33  C   UNL A   1      39.225  24.472  28.332  1.00  0.00     0.014 A 
ATOM     34  C   UNL A   1      40.002  24.942  26.083  1.00  0.00     0.014 A 
ATOM     35  C   UNL A   1      39.557  25.774  28.712  1.00  0.00     0.010 A 
ATOM     36  C   UNL A   1      40.397  26.213  26.483  1.00  0.00     0.010 A 
ATOM     37  C   UNL A   1      40.175  26.643  27.799  1.00  0.00    -0.014 A 
BRANCH  37  38
ATOM     38  C   UNL A   1      40.619  27.999  28.206  1.00  0.00     0.031 A 
ATOM     39  C   UNL A   1      42.083  28.335  28.257  1.00  0.00     0.074 A 
ATOM     40  C   UNL A   1      39.708  28.891  28.641  1.00  0.00     0.049 A 
ATOM     41  N   UNL A   1      42.660  29.445  28.635  1.00  0.00    -0.248 NA
ATOM     42  C   UNL A   1      43.023  27.273  27.864  1.00  0.00     0.031 C 
ATOM     43  C   UNL A   1      38.269  28.643  28.750  1.00  0.00     0.029 A 
ATOM     44  N   UNL A   1      39.862  30.171  29.110  1.00  0.00    -0.354 N 
ATOM     45  C   UNL A   1      44.026  29.203  28.570  1.00  0.00     0.074 A 
ATOM     46  C   UNL A   1      44.192  27.829  28.149  1.00  0.00     0.031 C 
ATOM     47  C   UNL A   1      37.674  29.731  29.263  1.00  0.00     0.029 A 
ATOM     48  C   UNL A   1      38.688  30.746  29.537  1.00  0.00     0.049 A 
ATOM     49  H   UNL A   1      40.731  30.634  29.140  1.00  0.00     0.167 HD
ATOM     50  C   UNL A   1      45.052  30.055  28.809  1.00  0.00     0.034 A 
ATOM     51  C   UNL A   1      38.452  31.951  30.092  1.00  0.00     0.034 A 
ATOM     52  C   UNL A   1      44.881  31.434  29.175  1.00  0.00     0.049 A 
ATOM     53  C   UNL A   1      39.595  32.913  30.264  1.00  0.00     0.074 A 
ATOM     54  C   UNL A   1      45.847  32.416  29.308  1.00  0.00     0.029 A 
ATOM     55  N   UNL A   1      43.664  32.026  29.478  1.00  0.00    -0.354 N 
ATOM     56  N   UNL A   1      40.867  32.735  29.998  1.00  0.00    -0.248 NA
ATOM     57  C   UNL A   1      39.269  34.253  30.771  1.00  0.00     0.031 C 
ATOM     58  C   UNL A   1      45.214  33.598  29.712  1.00  0.00     0.029 A 
ATOM     59  C   UNL A   1      43.853  33.356  29.813  1.00  0.00     0.049 A 
ATOM     60  H   UNL A   1      42.793  31.567  29.459  1.00  0.00     0.167 HD
ATOM     61  C   UNL A   1      41.490  33.945  30.281  1.00  0.00     0.074 A 
ATOM     62  C   UNL A   1      40.451  34.856  30.716  1.00  0.00     0.031 C 
ATOM     63  C   UNL A   1      42.806  34.266  30.203  1.00  0.00     0.034 A 
BRANCH  50  64
ATOM     64  C   UNL A   1      46.449  29.526  28.620  1.00  0.00     0.023 A 
ATOM     65  C   UNL A   1      47.047  29.580  27.343  1.00  0.00     0.012 A 
ATOM     66  C   UNL A   1      47.181  28.999  29.702  1.00  0.00     0.148 A 
ATOM     67  C   UNL A   1      48.330  29.076  27.135  1.00  0.00     0.002 A 
ATOM     68  C   UNL A   1      48.478  28.539  29.495  1.00  0.00     0.091 A 
ATOM     69  F   UNL A   1      46.592  28.929  30.903  1.00  0.00    -0.205 F 
ATOM     70  C   UNL A   1      49.048  28.565  28.212  1.00  0.00     0.022 A 
BRANCH  68  71
ATOM     71  S   UNL A   1      49.505  27.936  30.841  1.00  0.00     0.127 S 
ATOM     72  O   UNL A   1      50.651  27.391  30.117  1.00  0.00    -0.237 OA
ATOM     73  O   UNL A   1      49.786  29.161  31.592  1.00  0.00    -0.237 OA
ATOM     74  O   UNL A   1      48.686  26.968  31.557  1.00  0.00    -0.744 OA
ENDBRANCH  68  71
ENDBRANCH  50  64
BRANCH  51  75
ATOM     75  C   UNL A   1      37.056  32.329  30.448  1.00  0.00     0.023 A 
ATOM     76  C   UNL A   1      36.613  32.168  31.774  1.00  0.00     0.012 A 
ATOM     77  C   UNL A   1      36.198  32.919  29.501  1.00  0.00     0.148 A 
ATOM     78  C   UNL A   1      35.330  32.572  32.148  1.00  0.00     0.002 A 
ATOM     79  C   UNL A   1      34.942  33.368  29.891  1.00  0.00     0.091 A 
ATOM     80  F   UNL A   1      36.640  33.055  28.243  1.00  0.00    -0.205 F 
ATOM     81  C   UNL A   1      34.500  33.183  31.211  1.00  0.00     0.022 A 
BRANCH  79  82
ATOM     82  S   UNL A   1      33.861  34.292  28.793  1.00  0.00     0.127 S 
ATOM     83  O   UNL A   1      33.399  33.248  27.881  1.00  0.00    -0.237 OA
ATOM     84  O   UNL A   1      32.847  34.793  29.722  1.00  0.00    -0.237 OA
ATOM     85  O   UNL A   1      34.695  35.326  28.197  1.00  0.00    -0.744 OA
ENDBRANCH  79  82
ENDBRANCH  51  75
BRANCH  63  86
ATOM     86  C   UNL A   1      43.207  35.667  30.586  1.00  0.00     0.023 A 
ATOM     87  C   UNL A   1      43.606  35.939  31.910  1.00  0.00     0.012 A 
ATOM     88  C   UNL A   1      43.267  36.691  29.621  1.00  0.00     0.148 A 
ATOM     89  C   UNL A   1      44.034  37.215  32.272  1.00  0.00     0.002 A 
ATOM     90  C   UNL A   1      43.738  37.948  29.979  1.00  0.00     0.091 A 
ATOM     91  F   UNL A   1      42.862  36.419  28.372  1.00  0.00    -0.205 F 
ATOM     92  C   UNL A   1      44.113  38.215  31.306  1.00  0.00     0.022 A 
BRANCH  90  93
ATOM     93  S   UNL A   1      43.961  39.268  28.779  1.00  0.00     0.127 S 
ATOM     94  O   UNL A   1      44.498  40.342  29.613  1.00  0.00    -0.237 OA
ATOM     95  O   UNL A   1      44.924  38.682  27.845  1.00  0.00    -0.237 OA
ATOM     96  O   UNL A   1      42.644  39.514  28.209  1.00  0.00    -0.744 OA
ENDBRANCH  90  93
ENDBRANCH  63  86
ENDBRANCH  37  38
ENDBRANCH  29  32
ENDBRANCH  27  28
ENDBRANCH  26  27
ENDBRANCH   1  26
TORSDOF 17
ENDMDL
MODEL 2
REMARK VINA RESULT:     -12.2      4.438     10.195
REMARK SMILES Cn1ccc(C(=O)NCc2ccc(C(=O)NCCCCNC(=O)c3ccc(-c4c5nc(c(-c6cccc(S(=O)(=O)[O-])c6F)c6ccc([nH]6)c(-c6cccc(S(=O)(=O)[O-])c6F)c6nc(c(-c7cccc(S(=O)(=O)[O-])c7F)c7ccc4[nH]7)C=C6)C=C5)cc3)cc2)cc1=O
REMARK SMILES IDX 18 1 17 2 16 3 14 4 15 5 13 7 10 8 11 9 88 10 12 11 87 12
REMARK SMILES IDX 9 13 8 14 6 15 7 16 5 18 1 19 2 20 3 21 90 22 4 23 89 24
REMARK SMILES IDX 91 25 19 26 20 27 21 28 22 29 23 31 24 32 25 33 86 34 26 35
REMARK SMILES IDX 85 36 27 37 28 38 29 39 79 40 30 41 84 42 78 43 80 44 31 45
REMARK SMILES IDX 83 46 77 47 76 48 32 50 64 51 44 52 63 53 45 54 48 55 62 56
REMARK SMILES IDX 81 57 46 58 47 59 61 61 82 62 49 63 33 64 34 65 42 66 35 67
REMARK SMILES IDX 37 68 43 69 36 70 38 71 39 72 40 73 41 74 65 75 66 76 74 77
REMARK SMILES IDX 67 78 69 79 75 80 68 81 70 82 71 83 72 84 73 85 50 86 51 87
REMARK SMILES IDX 59 88 52 89 54 90 60 91 53 92 55 93 56 94 57 95 58 96
REMARK H PARENT 16 6 8 17 21 30 80 49 48 60
REMARK Flexibility Score: inf
ROOT
ATOM      1  C   UNL A   1      32.037  29.831  24.955  1.00  0.00     0.023 C 
ENDROOT
BRANCH   1   2
ATOM      2  C   UNL A   1      30.642  30.428  24.750  1.00  0.00     0.116 C 
BRANCH   2   3
ATOM      3  N   UNL A   1      30.259  30.417  23.350  1.00  0.00    -0.352 N 
ATOM      4  C   UNL A   1      30.039  29.386  22.469  1.00  0.00     0.251 C 
ATOM      5  O   UNL A   1      29.610  29.668  21.350  1.00  0.00    -0.269 OA
ATOM      6  H   UNL A   1      30.134  31.312  22.961  1.00  0.00     0.163 HD
BRANCH   4   7
ATOM      7  C   UNL A   1      30.270  27.950  22.803  1.00  0.00     0.039 A 
ATOM      8  C   UNL A   1      30.531  25.198  23.464  1.00  0.00    -0.029 A 
ATOM      9  C   UNL A   1      29.420  25.934  23.895  1.00  0.00     0.006 A 
ATOM     10  C   UNL A   1      31.481  25.852  22.666  1.00  0.00     0.006 A 
ATOM     11  C   UNL A   1      29.296  27.293  23.572  1.00  0.00     0.014 A 
ATOM     12  C   UNL A   1      31.343  27.200  22.332  1.00  0.00     0.014 A 
BRANCH   8  13
ATOM     13  C   UNL A   1      30.654  23.721  23.768  1.00  0.00     0.152 C 
BRANCH  13  14
ATOM     14  N   UNL A   1      30.445  23.449  25.177  1.00  0.00    -0.348 N 
ATOM     15  C   UNL A   1      31.163  22.818  26.138  1.00  0.00     0.251 C 
ATOM     16  O   UNL A   1      30.591  22.627  27.216  1.00  0.00    -0.269 OA
ATOM     17  H   UNL A   1      29.589  23.802  25.512  1.00  0.00     0.164 HD
BRANCH  15  18
ATOM     18  C   UNL A   1      32.612  22.465  26.001  1.00  0.00     0.046 A 
ATOM     19  C   UNL A   1      36.807  21.987  25.527  1.00  0.00     0.153 C 
ATOM     20  N   UNL A   1      35.373  22.117  25.723  1.00  0.00    -0.319 N 
ATOM     21  C   UNL A   1      34.884  23.301  26.233  1.00  0.00     0.089 A 
ATOM     22  C   UNL A   1      34.538  21.048  25.413  1.00  0.00     0.251 A 
ATOM     23  C   UNL A   1      33.569  23.497  26.374  1.00  0.00     0.032 A 
ATOM     24  C   UNL A   1      33.079  21.264  25.628  1.00  0.00     0.085 A 
ATOM     25  O   UNL A   1      34.916  19.971  24.959  1.00  0.00    -0.269 OA
ENDBRANCH  15  18
ENDBRANCH  13  14
ENDBRANCH   8  13
ENDBRANCH   4   7
ENDBRANCH   2   3
ENDBRANCH   1   2
BRANCH   1  26
ATOM     26  C   UNL A   1      32.176  28.918  26.173  1.00  0.00     0.023 C 
BRANCH  26  27
ATOM     27  C   UNL A   1      33.283  29.302  27.147  1.00  0.00     0.116 C 
BRANCH  27  28
ATOM     28  N   UNL A   1      33.583  30.729  27.151  1.00  0.00    -0.352 N 
ATOM     29  C   UNL A   1      34.715  31.356  27.608  1.00  0.00     0.251 C 
ATOM     30  H   UNL A   1      32.885  31.317  26.780  1.00  0.00     0.163 HD
ATOM     31  O   UNL A   1      34.778  32.582  27.632  1.00  0.00    -0.269 OA
BRANCH  29  32
ATOM     32  C   UNL A   1      35.840  30.540  28.112  1.00  0.00     0.039 A 
ATOM     33  C   UNL A   1      36.995  30.428  27.332  1.00  0.00     0.014 A 
ATOM     34  C   UNL A   1      35.772  29.931  29.366  1.00  0.00     0.014 A 
ATOM     35  C   UNL A   1      38.107  29.757  27.843  1.00  0.00     0.010 A 
ATOM     36  C   UNL A   1      36.904  29.327  29.901  1.00  0.00     0.010 A 
ATOM     37  C   UNL A   1      38.081  29.231  29.144  1.00  0.00    -0.014 A 
BRANCH  37  38
ATOM     38  C   UNL A   1      39.280  28.594  29.743  1.00  0.00     0.031 A 
ATOM     39  C   UNL A   1      39.904  29.168  30.984  1.00  0.00     0.074 A 
ATOM     40  C   UNL A   1      39.874  27.569  29.102  1.00  0.00     0.049 A 
ATOM     41  N   UNL A   1      40.979  28.780  31.618  1.00  0.00    -0.248 NA
ATOM     42  C   UNL A   1      39.255  30.352  31.568  1.00  0.00     0.031 C 
ATOM     43  C   UNL A   1      39.431  26.999  27.828  1.00  0.00     0.029 A 
ATOM     44  N   UNL A   1      41.002  26.851  29.413  1.00  0.00    -0.354 N 
ATOM     45  C   UNL A   1      41.162  29.696  32.647  1.00  0.00     0.074 A 
ATOM     46  C   UNL A   1      40.106  30.678  32.530  1.00  0.00     0.031 C 
ATOM     47  C   UNL A   1      40.283  26.028  27.462  1.00  0.00     0.029 A 
ATOM     48  C   UNL A   1      41.341  25.918  28.463  1.00  0.00     0.049 A 
ATOM     49  H   UNL A   1      41.520  26.993  30.239  1.00  0.00     0.167 HD
ATOM     50  C   UNL A   1      42.104  29.704  33.620  1.00  0.00     0.034 A 
ATOM     51  C   UNL A   1      42.388  25.072  28.398  1.00  0.00     0.034 A 
ATOM     52  C   UNL A   1      43.119  28.695  33.762  1.00  0.00     0.049 A 
ATOM     53  C   UNL A   1      43.371  25.038  29.535  1.00  0.00     0.074 A 
ATOM     54  C   UNL A   1      44.035  28.534  34.787  1.00  0.00     0.029 A 
ATOM     55  N   UNL A   1      43.359  27.682  32.847  1.00  0.00    -0.354 N 
ATOM     56  N   UNL A   1      43.407  25.782  30.614  1.00  0.00    -0.248 NA
ATOM     57  C   UNL A   1      44.432  24.023  29.470  1.00  0.00     0.031 C 
ATOM     58  C   UNL A   1      44.844  27.433  34.479  1.00  0.00     0.029 A 
ATOM     59  C   UNL A   1      44.419  26.899  33.273  1.00  0.00     0.049 A 
ATOM     60  H   UNL A   1      42.851  27.540  32.016  1.00  0.00     0.167 HD
ATOM     61  C   UNL A   1      44.476  25.311  31.368  1.00  0.00     0.074 A 
ATOM     62  C   UNL A   1      45.047  24.201  30.633  1.00  0.00     0.031 C 
ATOM     63  C   UNL A   1      44.952  25.769  32.554  1.00  0.00     0.034 A 
BRANCH  50  64
ATOM     64  C   UNL A   1      42.037  30.810  34.639  1.00  0.00     0.023 A 
ATOM     65  C   UNL A   1      41.273  30.630  35.811  1.00  0.00     0.012 A 
ATOM     66  C   UNL A   1      42.746  32.013  34.456  1.00  0.00     0.148 A 
ATOM     67  C   UNL A   1      41.174  31.647  36.761  1.00  0.00     0.002 A 
ATOM     68  C   UNL A   1      42.679  33.005  35.430  1.00  0.00     0.091 A 
ATOM     69  F   UNL A   1      43.447  32.181  33.327  1.00  0.00    -0.205 F 
ATOM     70  C   UNL A   1      41.884  32.829  36.574  1.00  0.00     0.022 A 
BRANCH  68  71
ATOM     71  S   UNL A   1      43.623  34.529  35.309  1.00  0.00     0.127 S 
ATOM     72  O   UNL A   1      42.950  35.207  34.204  1.00  0.00    -0.237 OA
ATOM     73  O   UNL A   1      43.402  35.138  36.622  1.00  0.00    -0.237 OA
ATOM     74  O   UNL A   1      44.998  34.121  35.061  1.00  0.00    -0.744 OA
ENDBRANCH  68  71
ENDBRANCH  50  64
BRANCH  51  75
ATOM     75  C   UNL A   1      42.501  24.140  27.242  1.00  0.00     0.023 A 
ATOM     76  C   UNL A   1      43.257  24.520  26.118  1.00  0.00     0.012 A 
ATOM     77  C   UNL A   1      41.932  22.852  27.288  1.00  0.00     0.148 A 
ATOM     78  C   UNL A   1      43.430  23.640  25.048  1.00  0.00     0.002 A 
ATOM     79  C   UNL A   1      42.153  21.962  26.243  1.00  0.00     0.091 A 
ATOM     80  F   UNL A   1      41.211  22.515  28.366  1.00  0.00    -0.205 F 
ATOM     81  C   UNL A   1      42.890  22.359  25.116  1.00  0.00     0.022 A 
BRANCH  79  82
ATOM     82  S   UNL A   1      41.619  20.248  26.305  1.00  0.00     0.127 S 
ATOM     83  O   UNL A   1      42.047  19.849  27.643  1.00  0.00    -0.237 OA
ATOM     84  O   UNL A   1      40.172  20.378  26.132  1.00  0.00    -0.237 OA
ATOM     85  O   UNL A   1      42.299  19.583  25.202  1.00  0.00    -0.744 OA
ENDBRANCH  79  82
ENDBRANCH  51  75
BRANCH  63  86
ATOM     86  C   UNL A   1      46.146  25.067  33.145  1.00  0.00     0.023 A 
ATOM     87  C   UNL A   1      47.436  25.590  32.933  1.00  0.00     0.012 A 
ATOM     88  C   UNL A   1      45.984  23.941  33.976  1.00  0.00     0.148 A 
ATOM     89  C   UNL A   1      48.550  24.989  33.516  1.00  0.00     0.002 A 
ATOM     90  C   UNL A   1      47.094  23.375  34.592  1.00  0.00     0.091 A 
ATOM     91  F   UNL A   1      44.750  23.445  34.150  1.00  0.00    -0.205 F 
ATOM     92  C   UNL A   1      48.378  23.890  34.356  1.00  0.00     0.022 A 
BRANCH  90  93
ATOM     93  S   UNL A   1      46.953  22.017  35.762  1.00  0.00     0.127 S 
ATOM     94  O   UNL A   1      48.281  22.014  36.375  1.00  0.00    -0.237 OA
ATOM     95  O   UNL A   1      45.876  22.473  36.643  1.00  0.00    -0.237 OA
ATOM     96  O   UNL A   1      46.624  20.841  34.969  1.00  0.00    -0.744 OA
ENDBRANCH  90  93
ENDBRANCH  63  86
ENDBRANCH  37  38
ENDBRANCH  29  32
ENDBRANCH  27  28
ENDBRANCH  26  27
ENDBRANCH   1  26
TORSDOF 17
ENDMDL
MODEL 3
REMARK VINA RESULT:     -12.1      4.564      9.786
REMARK SMILES Cn1ccc(C(=O)NCc2ccc(C(=O)NCCCCNC(=O)c3ccc(-c4c5nc(c(-c6cccc(S(=O)(=O)[O-])c6F)c6ccc([nH]6)c(-c6cccc(S(=O)(=O)[O-])c6F)c6nc(c(-c7cccc(S(=O)(=O)[O-])c7F)c7ccc4[nH]7)C=C6)C=C5)cc3)cc2)cc1=O
REMARK SMILES IDX 18 1 17 2 16 3 14 4 15 5 13 7 10 8 11 9 88 10 12 11 87 12
REMARK SMILES IDX 9 13 8 14 6 15 7 16 5 18 1 19 2 20 3 21 90 22 4 23 89 24
REMARK SMILES IDX 91 25 19 26 20 27 21 28 22 29 23 31 24 32 25 33 86 34 26 35
REMARK SMILES IDX 85 36 27 37 28 38 29 39 79 40 30 41 84 42 78 43 80 44 31 45
REMARK SMILES IDX 83 46 77 47 76 48 32 50 64 51 44 52 63 53 45 54 48 55 62 56
REMARK SMILES IDX 81 57 46 58 47 59 61 61 82 62 49 63 33 64 34 65 42 66 35 67
REMARK SMILES IDX 37 68 43 69 36 70 38 71 39 72 40 73 41 74 65 75 66 76 74 77
REMARK SMILES IDX 67 78 69 79 75 80 68 81 70 82 71 83 72 84 73 85 50 86 51 87
REMARK SMILES IDX 59 88 52 89 54 90 60 91 53 92 55 93 56 94 57 95 58 96
REMARK H PARENT 16 6 8 17 21 30 80 49 48 60
REMARK Flexibility Score: inf
ROOT
ATOM      1  C   UNL A   1      32.614  29.540  25.043  1.00  0.00     0.023 C 
ENDROOT
BRANCH   1   2
ATOM      2  C   UNL A   1      31.085  29.605  24.998  1.00  0.00     0.116 C 
BRANCH   2   3
ATOM      3  N   UNL A   1      30.601  29.799  23.644  1.00  0.00    -0.352 N 
ATOM      4  C   UNL A   1      30.722  29.035  22.509  1.00  0.00     0.251 C 
ATOM      5  O   UNL A   1      30.107  29.394  21.504  1.00  0.00    -0.269 OA
ATOM      6  H   UNL A   1      30.093  30.633  23.514  1.00  0.00     0.163 HD
BRANCH   4   7
ATOM      7  C   UNL A   1      31.535  27.786  22.437  1.00  0.00     0.039 A 
ATOM      8  C   UNL A   1      32.937  25.321  22.248  1.00  0.00    -0.029 A 
ATOM      9  C   UNL A   1      31.547  25.340  22.415  1.00  0.00     0.006 A 
ATOM     10  C   UNL A   1      33.602  26.550  22.135  1.00  0.00     0.006 A 
ATOM     11  C   UNL A   1      30.859  26.558  22.514  1.00  0.00     0.014 A 
ATOM     12  C   UNL A   1      32.909  27.760  22.215  1.00  0.00     0.014 A 
BRANCH   8  13
ATOM     13  C   UNL A   1      33.685  24.014  22.094  1.00  0.00     0.152 C 
BRANCH  13  14
ATOM     14  N   UNL A   1      34.649  23.825  23.162  1.00  0.00    -0.348 N 
ATOM     15  C   UNL A   1      34.576  23.810  24.515  1.00  0.00     0.251 C 
ATOM     16  O   UNL A   1      35.650  23.784  25.124  1.00  0.00    -0.269 OA
ATOM     17  H   UNL A   1      35.564  23.676  22.829  1.00  0.00     0.164 HD
BRANCH  15  18
ATOM     18  C   UNL A   1      33.293  23.698  25.280  1.00  0.00     0.046 A 
ATOM     19  C   UNL A   1      29.570  22.926  27.176  1.00  0.00     0.153 C 
ATOM     20  N   UNL A   1      30.860  23.207  26.569  1.00  0.00    -0.319 N 
ATOM     21  C   UNL A   1      31.629  22.146  26.140  1.00  0.00     0.089 A 
ATOM     22  C   UNL A   1      31.293  24.525  26.454  1.00  0.00     0.251 A 
ATOM     23  C   UNL A   1      32.794  22.351  25.519  1.00  0.00     0.032 A 
ATOM     24  C   UNL A   1      32.620  24.731  25.807  1.00  0.00     0.085 A 
ATOM     25  O   UNL A   1      30.653  25.508  26.819  1.00  0.00    -0.269 OA
ENDBRANCH  15  18
ENDBRANCH  13  14
ENDBRANCH   8  13
ENDBRANCH   4   7
ENDBRANCH   2   3
ENDBRANCH   1   2
BRANCH   1  26
ATOM     26  C   UNL A   1      33.188  28.440  25.936  1.00  0.00     0.023 C 
BRANCH  26  27
ATOM     27  C   UNL A   1      33.452  28.850  27.379  1.00  0.00     0.116 C 
BRANCH  27  28
ATOM     28  N   UNL A   1      33.555  30.293  27.564  1.00  0.00    -0.352 N 
ATOM     29  C   UNL A   1      34.607  31.011  28.075  1.00  0.00     0.251 C 
ATOM     30  H   UNL A   1      32.769  30.819  27.287  1.00  0.00     0.163 HD
ATOM     31  O   UNL A   1      34.502  32.220  28.258  1.00  0.00    -0.269 OA
BRANCH  29  32
ATOM     32  C   UNL A   1      35.852  30.305  28.444  1.00  0.00     0.039 A 
ATOM     33  C   UNL A   1      36.943  30.360  27.573  1.00  0.00     0.014 A 
ATOM     34  C   UNL A   1      35.954  29.633  29.665  1.00  0.00     0.014 A 
ATOM     35  C   UNL A   1      38.160  29.796  27.959  1.00  0.00     0.010 A 
ATOM     36  C   UNL A   1      37.185  29.137  30.076  1.00  0.00     0.010 A 
ATOM     37  C   UNL A   1      38.299  29.209  29.227  1.00  0.00    -0.014 A 
BRANCH  37  38
ATOM     38  C   UNL A   1      39.606  28.685  29.694  1.00  0.00     0.031 A 
ATOM     39  C   UNL A   1      40.357  29.388  30.790  1.00  0.00     0.074 A 
ATOM     40  C   UNL A   1      40.169  27.643  29.053  1.00  0.00     0.049 A 
ATOM     41  N   UNL A   1      41.531  29.109  31.293  1.00  0.00    -0.248 NA
ATOM     42  C   UNL A   1      39.722  30.581  31.372  1.00  0.00     0.031 C 
ATOM     43  C   UNL A   1      39.592  26.950  27.899  1.00  0.00     0.029 A 
ATOM     44  N   UNL A   1      41.371  27.012  29.254  1.00  0.00    -0.354 N 
ATOM     45  C   UNL A   1      41.796  30.113  32.216  1.00  0.00     0.074 A 
ATOM     46  C   UNL A   1      40.675  31.027  32.179  1.00  0.00     0.031 C 
ATOM     47  C   UNL A   1      40.444  25.998  27.489  1.00  0.00     0.029 A 
ATOM     48  C   UNL A   1      41.634  26.023  28.335  1.00  0.00     0.049 A 
ATOM     49  H   UNL A   1      41.987  27.245  29.986  1.00  0.00     0.167 HD
ATOM     50  C   UNL A   1      42.860  30.247  33.043  1.00  0.00     0.034 A 
ATOM     51  C   UNL A   1      42.712  25.229  28.186  1.00  0.00     0.034 A 
ATOM     52  C   UNL A   1      43.945  29.306  33.114  1.00  0.00     0.049 A 
ATOM     53  C   UNL A   1      43.842  25.337  29.172  1.00  0.00     0.074 A 
ATOM     54  C   UNL A   1      45.001  29.275  34.008  1.00  0.00     0.029 A 
ATOM     55  N   UNL A   1      44.120  28.235  32.251  1.00  0.00    -0.354 N 
ATOM     56  N   UNL A   1      43.979  26.166  30.178  1.00  0.00    -0.248 NA
ATOM     57  C   UNL A   1      44.944  24.375  29.031  1.00  0.00     0.031 C 
ATOM     58  C   UNL A   1      45.826  28.195  33.670  1.00  0.00     0.029 A 
ATOM     59  C   UNL A   1      45.274  27.544  32.579  1.00  0.00     0.049 A 
ATOM     60  H   UNL A   1      43.512  28.001  31.512  1.00  0.00     0.167 HD
ATOM     61  C   UNL A   1      45.168  25.814  30.806  1.00  0.00     0.074 A 
ATOM     62  C   UNL A   1      45.700  24.678  30.080  1.00  0.00     0.031 C 
ATOM     63  C   UNL A   1      45.772  26.389  31.876  1.00  0.00     0.034 A 
BRANCH  50  64
ATOM     64  C   UNL A   1      42.865  31.427  33.979  1.00  0.00     0.023 A 
ATOM     65  C   UNL A   1      43.487  32.628  33.580  1.00  0.00     0.012 A 
ATOM     66  C   UNL A   1      42.237  31.361  35.238  1.00  0.00     0.148 A 
ATOM     67  C   UNL A   1      43.527  33.729  34.435  1.00  0.00     0.002 A 
ATOM     68  C   UNL A   1      42.242  32.478  36.068  1.00  0.00     0.091 A 
ATOM     69  F   UNL A   1      41.673  30.205  35.616  1.00  0.00    -0.205 F 
ATOM     70  C   UNL A   1      42.897  33.656  35.674  1.00  0.00     0.022 A 
BRANCH  68  71
ATOM     71  S   UNL A   1      41.388  32.499  37.648  1.00  0.00     0.127 S 
ATOM     72  O   UNL A   1      40.066  32.000  37.277  1.00  0.00    -0.237 OA
ATOM     73  O   UNL A   1      42.187  31.568  38.447  1.00  0.00    -0.237 OA
ATOM     74  O   UNL A   1      41.441  33.880  38.105  1.00  0.00    -0.744 OA
ENDBRANCH  68  71
ENDBRANCH  50  64
BRANCH  51  75
ATOM     75  C   UNL A   1      42.723  24.213  27.096  1.00  0.00     0.023 A 
ATOM     76  C   UNL A   1      43.446  24.471  25.917  1.00  0.00     0.012 A 
ATOM     77  C   UNL A   1      42.090  22.966  27.258  1.00  0.00     0.148 A 
ATOM     78  C   UNL A   1      43.524  23.511  24.907  1.00  0.00     0.002 A 
ATOM     79  C   UNL A   1      42.216  21.995  26.272  1.00  0.00     0.091 A 
ATOM     80  F   UNL A   1      41.401  22.746  28.386  1.00  0.00    -0.205 F 
ATOM     81  C   UNL A   1      42.921  22.269  25.090  1.00  0.00     0.022 A 
BRANCH  79  82
ATOM     82  S   UNL A   1      41.596  20.321  26.479  1.00  0.00     0.127 S 
ATOM     83  O   UNL A   1      42.166  19.645  25.317  1.00  0.00    -0.237 OA
ATOM     84  O   UNL A   1      42.182  19.940  27.765  1.00  0.00    -0.237 OA
ATOM     85  O   UNL A   1      40.144  20.437  26.492  1.00  0.00    -0.744 OA
ENDBRANCH  79  82
ENDBRANCH  51  75
BRANCH  63  86
ATOM     86  C   UNL A   1      47.077  25.799  32.343  1.00  0.00     0.023 A 
ATOM     87  C   UNL A   1      48.286  26.246  31.774  1.00  0.00     0.012 A 
ATOM     88  C   UNL A   1      47.112  24.865  33.396  1.00  0.00     0.148 A 
ATOM     89  C   UNL A   1      49.508  25.754  32.229  1.00  0.00     0.002 A 
ATOM     90  C   UNL A   1      48.335  24.414  33.877  1.00  0.00     0.091 A 
ATOM     91  F   UNL A   1      45.950  24.435  33.911  1.00  0.00    -0.205 F 
ATOM     92  C   UNL A   1      49.534  24.849  33.288  1.00  0.00     0.022 A 
BRANCH  90  93
ATOM     93  S   UNL A   1      48.465  23.321  35.297  1.00  0.00     0.127 S 
ATOM     94  O   UNL A   1      47.757  24.082  36.325  1.00  0.00    -0.237 OA
ATOM     95  O   UNL A   1      47.764  22.122  34.835  1.00  0.00    -0.237 OA
ATOM     96  O   UNL A   1      49.891  23.132  35.526  1.00  0.00    -0.744 OA
ENDBRANCH  90  93
ENDBRANCH  63  86
ENDBRANCH  37  38
ENDBRANCH  29  32
ENDBRANCH  27  28
ENDBRANCH  26  27
ENDBRANCH   1  26
TORSDOF 17
ENDMDL
