MODEL 1
REMARK VINA RESULT:     -11.9      0.000      0.000
REMARK SMILES COc1ccc(C(=O)Nc2cccc(C(=O)NCCCCNC(=O)c3ccc(-c4c5nc(c(-c6cccc(S(=O)(=O)[O-])c6F)c6ccc([nH]6)c(-c6cccc(S(=O)(=O)[O-])c6F)c6nc(c(-c7cccc(S(=O)(=O)[O-])c7F)c7ccc4[nH]7)C=C6)C=C5)cc3)c2)cc1
REMARK SMILES IDX 19 1 18 2 17 3 15 4 16 5 14 7 10 8 11 9 88 10 12 11 13 12
REMARK SMILES IDX 9 13 7 14 8 15 6 17 3 18 4 19 90 20 5 21 89 22 2 23 1 24
REMARK SMILES IDX 20 25 21 26 22 27 23 28 24 30 25 31 26 32 87 33 27 34 86 35
REMARK SMILES IDX 28 36 29 37 30 38 80 39 31 40 85 41 79 42 81 43 32 44 84 45
REMARK SMILES IDX 78 46 77 47 33 49 65 50 45 51 64 52 46 53 49 54 63 55 82 56
REMARK SMILES IDX 47 57 48 58 62 60 83 61 50 62 34 63 35 64 43 65 36 66 38 67
REMARK SMILES IDX 44 68 37 69 39 70 40 71 41 72 42 73 66 74 67 75 75 76 68 77
REMARK SMILES IDX 70 78 76 79 69 80 71 81 72 82 73 83 74 84 51 85 52 86 60 87
REMARK SMILES IDX 53 88 55 89 61 90 54 91 56 92 57 93 58 94 59 95
REMARK H PARENT 17 6 9 16 22 29 81 48 49 59
REMARK Flexibility Score: inf
ROOT
ATOM      1  C   UNL A   1      36.222  22.857  23.340  1.00  0.00     0.023 C 
ENDROOT
BRANCH   1   2
ATOM      2  C   UNL A   1      34.701  23.027  23.316  1.00  0.00     0.116 C 
BRANCH   2   3
ATOM      3  N   UNL A   1      34.311  24.095  22.416  1.00  0.00    -0.352 N 
ATOM      4  C   UNL A   1      33.662  25.287  22.607  1.00  0.00     0.251 C 
ATOM      5  O   UNL A   1      33.509  26.007  21.618  1.00  0.00    -0.269 OA
ATOM      6  H   UNL A   1      34.564  23.929  21.479  1.00  0.00     0.163 HD
BRANCH   4   7
ATOM      7  C   UNL A   1      33.181  25.789  23.930  1.00  0.00     0.041 A 
ATOM      8  C   UNL A   1      31.790  25.740  25.921  1.00  0.00     0.042 A 
ATOM      9  C   UNL A   1      32.475  26.827  26.458  1.00  0.00     0.026 A 
ATOM     10  C   UNL A   1      32.078  25.294  24.627  1.00  0.00     0.040 A 
ATOM     11  C   UNL A   1      33.548  27.368  25.758  1.00  0.00     0.003 A 
ATOM     12  C   UNL A   1      33.914  26.835  24.518  1.00  0.00     0.014 A 
BRANCH   8  13
ATOM     13  N   UNL A   1      30.865  25.070  26.735  1.00  0.00    -0.322 N 
ATOM     14  C   UNL A   1      30.626  23.710  26.844  1.00  0.00     0.255 C 
ATOM     15  O   UNL A   1      29.596  23.326  27.399  1.00  0.00    -0.269 OA
ATOM     16  H   UNL A   1      30.307  25.646  27.307  1.00  0.00     0.170 HD
BRANCH  14  17
ATOM     17  C   UNL A   1      31.643  22.693  26.425  1.00  0.00     0.040 A 
ATOM     18  C   UNL A   1      33.482  20.711  25.602  1.00  0.00     0.118 A 
ATOM     19  C   UNL A   1      32.255  20.863  24.949  1.00  0.00     0.047 A 
ATOM     20  C   UNL A   1      33.778  21.537  26.683  1.00  0.00     0.047 A 
ATOM     21  C   UNL A   1      31.341  21.844  25.353  1.00  0.00     0.017 A 
ATOM     22  C   UNL A   1      32.850  22.494  27.113  1.00  0.00     0.017 A 
BRANCH  18  23
ATOM     23  O   UNL A   1      34.290  19.730  25.102  1.00  0.00    -0.497 OA
ATOM     24  C   UNL A   1      33.653  18.548  24.628  1.00  0.00     0.278 C 
ENDBRANCH  18  23
ENDBRANCH  14  17
ENDBRANCH   8  13
ENDBRANCH   4   7
ENDBRANCH   2   3
ENDBRANCH   1   2
BRANCH   1  25
ATOM     25  C   UNL A   1      36.914  23.676  24.432  1.00  0.00     0.023 C 
BRANCH  25  26
ATOM     26  C   UNL A   1      36.890  23.037  25.817  1.00  0.00     0.116 C 
BRANCH  26  27
ATOM     27  N   UNL A   1      38.035  22.177  26.079  1.00  0.00    -0.352 N 
ATOM     28  C   UNL A   1      39.272  22.537  26.561  1.00  0.00     0.251 C 
ATOM     29  H   UNL A   1      37.907  21.219  25.887  1.00  0.00     0.163 HD
ATOM     30  O   UNL A   1      40.173  21.716  26.639  1.00  0.00    -0.269 OA
BRANCH  28  31
ATOM     31  C   UNL A   1      39.502  23.947  26.943  1.00  0.00     0.039 A 
ATOM     32  C   UNL A   1      39.278  24.333  28.265  1.00  0.00     0.014 A 
ATOM     33  C   UNL A   1      39.995  24.862  26.009  1.00  0.00     0.014 A 
ATOM     34  C   UNL A   1      39.612  25.627  28.668  1.00  0.00     0.010 A 
ATOM     35  C   UNL A   1      40.395  26.125  26.429  1.00  0.00     0.010 A 
ATOM     36  C   UNL A   1      40.205  26.523  27.762  1.00  0.00    -0.014 A 
BRANCH  36  37
ATOM     37  C   UNL A   1      40.644  27.874  28.191  1.00  0.00     0.031 A 
ATOM     38  C   UNL A   1      42.106  28.227  28.203  1.00  0.00     0.074 A 
ATOM     39  C   UNL A   1      39.733  28.753  28.656  1.00  0.00     0.049 A 
ATOM     40  N   UNL A   1      42.682  29.339  28.578  1.00  0.00    -0.248 NA
ATOM     41  C   UNL A   1      43.049  27.183  27.765  1.00  0.00     0.031 C 
ATOM     42  C   UNL A   1      38.297  28.494  28.786  1.00  0.00     0.029 A 
ATOM     43  N   UNL A   1      39.884  30.032  29.129  1.00  0.00    -0.354 N 
ATOM     44  C   UNL A   1      44.048  29.119  28.458  1.00  0.00     0.074 A 
ATOM     45  C   UNL A   1      44.219  27.754  28.013  1.00  0.00     0.031 C 
ATOM     46  C   UNL A   1      37.698  29.583  29.295  1.00  0.00     0.029 A 
ATOM     47  C   UNL A   1      38.707  30.608  29.548  1.00  0.00     0.049 A 
ATOM     48  H   UNL A   1      40.752  30.494  29.165  1.00  0.00     0.167 HD
ATOM     49  C   UNL A   1      45.069  29.985  28.664  1.00  0.00     0.034 A 
ATOM     50  C   UNL A   1      38.466  31.826  30.072  1.00  0.00     0.034 A 
ATOM     51  C   UNL A   1      44.892  31.358  29.052  1.00  0.00     0.049 A 
ATOM     52  C   UNL A   1      39.610  32.792  30.227  1.00  0.00     0.074 A 
ATOM     53  C   UNL A   1      45.852  32.344  29.189  1.00  0.00     0.029 A 
ATOM     54  N   UNL A   1      43.673  31.938  29.367  1.00  0.00    -0.354 N 
ATOM     55  N   UNL A   1      40.878  32.622  29.939  1.00  0.00    -0.248 NA
ATOM     56  C   UNL A   1      39.286  34.131  30.739  1.00  0.00     0.031 C 
ATOM     57  C   UNL A   1      45.215  33.519  29.602  1.00  0.00     0.029 A 
ATOM     58  C   UNL A   1      43.856  33.268  29.702  1.00  0.00     0.049 A 
ATOM     59  H   UNL A   1      42.806  31.473  29.354  1.00  0.00     0.167 HD
ATOM     60  C   UNL A   1      41.495  33.840  30.200  1.00  0.00     0.074 A 
ATOM     61  C   UNL A   1      40.458  34.745  30.649  1.00  0.00     0.031 C 
ATOM     62  C   UNL A   1      42.805  34.174  30.091  1.00  0.00     0.034 A 
BRANCH  49  63
ATOM     63  C   UNL A   1      46.467  29.489  28.406  1.00  0.00     0.023 A 
ATOM     64  C   UNL A   1      47.067  29.732  27.152  1.00  0.00     0.012 A 
ATOM     65  C   UNL A   1      47.207  28.833  29.409  1.00  0.00     0.148 A 
ATOM     66  C   UNL A   1      48.365  29.299  26.889  1.00  0.00     0.002 A 
ATOM     67  C   UNL A   1      48.517  28.443  29.153  1.00  0.00     0.091 A 
ATOM     68  F   UNL A   1      46.613  28.589  30.587  1.00  0.00    -0.205 F 
ATOM     69  C   UNL A   1      49.093  28.664  27.891  1.00  0.00     0.022 A 
BRANCH  67  70
ATOM     70  S   UNL A   1      49.563  27.688  30.404  1.00  0.00     0.127 S 
ATOM     71  O   UNL A   1      48.849  26.440  30.671  1.00  0.00    -0.237 OA
ATOM     72  O   UNL A   1      50.829  27.523  29.689  1.00  0.00    -0.237 OA
ATOM     73  O   UNL A   1      49.609  28.632  31.510  1.00  0.00    -0.744 OA
ENDBRANCH  67  70
ENDBRANCH  49  63
BRANCH  50  74
ATOM     74  C   UNL A   1      37.070  32.231  30.403  1.00  0.00     0.023 A 
ATOM     75  C   UNL A   1      36.586  32.020  31.708  1.00  0.00     0.012 A 
ATOM     76  C   UNL A   1      36.236  32.848  29.451  1.00  0.00     0.148 A 
ATOM     77  C   UNL A   1      35.285  32.390  32.053  1.00  0.00     0.002 A 
ATOM     78  C   UNL A   1      34.959  33.261  29.816  1.00  0.00     0.091 A 
ATOM     79  F   UNL A   1      36.711  33.027  28.211  1.00  0.00    -0.205 F 
ATOM     80  C   UNL A   1      34.476  33.018  31.111  1.00  0.00     0.022 A 
BRANCH  78  81
ATOM     81  S   UNL A   1      33.897  34.193  28.706  1.00  0.00     0.127 S 
ATOM     82  O   UNL A   1      33.519  33.176  27.729  1.00  0.00    -0.237 OA
ATOM     83  O   UNL A   1      32.820  34.617  29.603  1.00  0.00    -0.237 OA
ATOM     84  O   UNL A   1      34.721  35.284  28.203  1.00  0.00    -0.744 OA
ENDBRANCH  78  81
ENDBRANCH  50  74
BRANCH  62  85
ATOM     85  C   UNL A   1      43.197  35.587  30.431  1.00  0.00     0.023 A 
ATOM     86  C   UNL A   1      43.662  35.891  31.726  1.00  0.00     0.012 A 
ATOM     87  C   UNL A   1      43.185  36.594  29.445  1.00  0.00     0.148 A 
ATOM     88  C   UNL A   1      44.081  37.183  32.042  1.00  0.00     0.002 A 
ATOM     89  C   UNL A   1      43.649  37.867  29.755  1.00  0.00     0.091 A 
ATOM     90  F   UNL A   1      42.720  36.289  28.224  1.00  0.00    -0.205 F 
ATOM     91  C   UNL A   1      44.087  38.166  31.055  1.00  0.00     0.022 A 
BRANCH  89  92
ATOM     92  S   UNL A   1      43.782  39.166  28.521  1.00  0.00     0.127 S 
ATOM     93  O   UNL A   1      42.379  39.408  28.191  1.00  0.00    -0.237 OA
ATOM     94  O   UNL A   1      44.427  40.244  29.272  1.00  0.00    -0.237 OA
ATOM     95  O   UNL A   1      44.593  38.614  27.444  1.00  0.00    -0.744 OA
ENDBRANCH  89  92
ENDBRANCH  62  85
ENDBRANCH  36  37
ENDBRANCH  28  31
ENDBRANCH  26  27
ENDBRANCH  25  26
ENDBRANCH   1  25
TORSDOF 17
ENDMDL
MODEL 2
REMARK VINA RESULT:     -11.7      5.416      8.564
REMARK SMILES COc1ccc(C(=O)Nc2cccc(C(=O)NCCCCNC(=O)c3ccc(-c4c5nc(c(-c6cccc(S(=O)(=O)[O-])c6F)c6ccc([nH]6)c(-c6cccc(S(=O)(=O)[O-])c6F)c6nc(c(-c7cccc(S(=O)(=O)[O-])c7F)c7ccc4[nH]7)C=C6)C=C5)cc3)c2)cc1
REMARK SMILES IDX 19 1 18 2 17 3 15 4 16 5 14 7 10 8 11 9 88 10 12 11 13 12
REMARK SMILES IDX 9 13 7 14 8 15 6 17 3 18 4 19 90 20 5 21 89 22 2 23 1 24
REMARK SMILES IDX 20 25 21 26 22 27 23 28 24 30 25 31 26 32 87 33 27 34 86 35
REMARK SMILES IDX 28 36 29 37 30 38 80 39 31 40 85 41 79 42 81 43 32 44 84 45
REMARK SMILES IDX 78 46 77 47 33 49 65 50 45 51 64 52 46 53 49 54 63 55 82 56
REMARK SMILES IDX 47 57 48 58 62 60 83 61 50 62 34 63 35 64 43 65 36 66 38 67
REMARK SMILES IDX 44 68 37 69 39 70 40 71 41 72 42 73 66 74 67 75 75 76 68 77
REMARK SMILES IDX 70 78 76 79 69 80 71 81 72 82 73 83 74 84 51 85 52 86 60 87
REMARK SMILES IDX 53 88 55 89 61 90 54 91 56 92 57 93 58 94 59 95
REMARK H PARENT 17 6 9 16 22 29 81 48 49 59
REMARK Flexibility Score: inf
ROOT
ATOM      1  C   UNL A   1      32.178  30.482  26.741  1.00  0.00     0.023 C 
ENDROOT
BRANCH   1   2
ATOM      2  C   UNL A   1      31.679  29.874  25.428  1.00  0.00     0.116 C 
BRANCH   2   3
ATOM      3  N   UNL A   1      32.788  29.529  24.561  1.00  0.00    -0.352 N 
ATOM      4  C   UNL A   1      33.133  28.380  23.896  1.00  0.00     0.251 C 
ATOM      5  O   UNL A   1      34.145  28.419  23.194  1.00  0.00    -0.269 OA
ATOM      6  H   UNL A   1      33.422  30.269  24.421  1.00  0.00     0.163 HD
BRANCH   4   7
ATOM      7  C   UNL A   1      32.340  27.113  23.927  1.00  0.00     0.041 A 
ATOM      8  C   UNL A   1      31.159  25.289  25.013  1.00  0.00     0.042 A 
ATOM      9  C   UNL A   1      30.767  24.774  23.780  1.00  0.00     0.026 A 
ATOM     10  C   UNL A   1      32.021  26.389  25.075  1.00  0.00     0.040 A 
ATOM     11  C   UNL A   1      31.115  25.454  22.617  1.00  0.00     0.003 A 
ATOM     12  C   UNL A   1      31.871  26.627  22.693  1.00  0.00     0.014 A 
BRANCH   8  13
ATOM     13  N   UNL A   1      30.613  24.721  26.174  1.00  0.00    -0.322 N 
ATOM     14  C   UNL A   1      30.840  23.469  26.719  1.00  0.00     0.255 C 
ATOM     15  O   UNL A   1      30.070  23.044  27.581  1.00  0.00    -0.269 OA
ATOM     16  H   UNL A   1      29.981  25.291  26.668  1.00  0.00     0.170 HD
BRANCH  14  17
ATOM     17  C   UNL A   1      32.065  22.672  26.388  1.00  0.00     0.040 A 
ATOM     18  C   UNL A   1      34.433  21.255  25.782  1.00  0.00     0.118 A 
ATOM     19  C   UNL A   1      34.439  22.286  26.725  1.00  0.00     0.047 A 
ATOM     20  C   UNL A   1      33.245  20.949  25.124  1.00  0.00     0.047 A 
ATOM     21  C   UNL A   1      33.268  22.992  27.028  1.00  0.00     0.017 A 
ATOM     22  C   UNL A   1      32.080  21.676  25.399  1.00  0.00     0.017 A 
BRANCH  18  23
ATOM     23  O   UNL A   1      35.636  20.636  25.589  1.00  0.00    -0.497 OA
ATOM     24  C   UNL A   1      36.637  21.373  24.895  1.00  0.00     0.278 C 
ENDBRANCH  18  23
ENDBRANCH  14  17
ENDBRANCH   8  13
ENDBRANCH   4   7
ENDBRANCH   2   3
ENDBRANCH   1   2
BRANCH   1  25
ATOM     25  C   UNL A   1      31.839  31.966  26.899  1.00  0.00     0.023 C 
BRANCH  25  26
ATOM     26  C   UNL A   1      32.988  32.831  27.407  1.00  0.00     0.116 C 
BRANCH  26  27
ATOM     27  N   UNL A   1      32.589  34.194  27.728  1.00  0.00    -0.352 N 
ATOM     28  C   UNL A   1      33.110  35.022  28.696  1.00  0.00     0.251 C 
ATOM     29  H   UNL A   1      31.857  34.568  27.186  1.00  0.00     0.163 HD
ATOM     30  O   UNL A   1      32.608  36.113  28.918  1.00  0.00    -0.269 OA
BRANCH  28  31
ATOM     31  C   UNL A   1      34.264  34.548  29.491  1.00  0.00     0.039 A 
ATOM     32  C   UNL A   1      34.030  33.969  30.739  1.00  0.00     0.014 A 
ATOM     33  C   UNL A   1      35.559  34.622  28.972  1.00  0.00     0.014 A 
ATOM     34  C   UNL A   1      35.095  33.403  31.442  1.00  0.00     0.010 A 
ATOM     35  C   UNL A   1      36.603  33.993  29.640  1.00  0.00     0.010 A 
ATOM     36  C   UNL A   1      36.384  33.379  30.883  1.00  0.00    -0.014 A 
BRANCH  36  37
ATOM     37  C   UNL A   1      37.512  32.709  31.576  1.00  0.00     0.031 A 
ATOM     38  C   UNL A   1      38.220  31.553  30.926  1.00  0.00     0.074 A 
ATOM     39  C   UNL A   1      37.838  33.082  32.830  1.00  0.00     0.049 A 
ATOM     40  N   UNL A   1      39.199  30.820  31.389  1.00  0.00    -0.248 NA
ATOM     41  C   UNL A   1      37.748  31.144  29.592  1.00  0.00     0.031 C 
ATOM     42  C   UNL A   1      37.162  34.125  33.606  1.00  0.00     0.029 A 
ATOM     43  N   UNL A   1      38.806  32.610  33.681  1.00  0.00    -0.354 N 
ATOM     44  C   UNL A   1      39.434  29.847  30.427  1.00  0.00     0.074 A 
ATOM     45  C   UNL A   1      38.471  30.056  29.370  1.00  0.00     0.031 C 
ATOM     46  C   UNL A   1      37.741  34.219  34.814  1.00  0.00     0.029 A 
ATOM     47  C   UNL A   1      38.813  33.233  34.908  1.00  0.00     0.049 A 
ATOM     48  H   UNL A   1      39.435  31.895  33.437  1.00  0.00     0.167 HD
ATOM     49  C   UNL A   1      40.391  28.887  30.405  1.00  0.00     0.034 A 
ATOM     50  C   UNL A   1      39.598  33.035  35.986  1.00  0.00     0.034 A 
ATOM     51  C   UNL A   1      41.383  28.720  31.432  1.00  0.00     0.049 A 
ATOM     52  C   UNL A   1      40.696  32.008  35.909  1.00  0.00     0.074 A 
ATOM     53  C   UNL A   1      42.454  27.845  31.458  1.00  0.00     0.029 A 
ATOM     54  N   UNL A   1      41.424  29.439  32.616  1.00  0.00    -0.354 N 
ATOM     55  N   UNL A   1      41.015  31.215  34.915  1.00  0.00    -0.248 NA
ATOM     56  C   UNL A   1      41.568  31.876  37.085  1.00  0.00     0.031 C 
ATOM     57  C   UNL A   1      43.137  28.027  32.665  1.00  0.00     0.029 A 
ATOM     58  C   UNL A   1      42.500  29.028  33.382  1.00  0.00     0.049 A 
ATOM     59  H   UNL A   1      40.783  30.141  32.873  1.00  0.00     0.167 HD
ATOM     60  C   UNL A   1      42.144  30.518  35.331  1.00  0.00     0.074 A 
ATOM     61  C   UNL A   1      42.465  30.998  36.659  1.00  0.00     0.031 C 
ATOM     62  C   UNL A   1      42.842  29.557  34.677  1.00  0.00     0.034 A 
BRANCH  49  63
ATOM     63  C   UNL A   1      40.450  27.989  29.199  1.00  0.00     0.023 A 
ATOM     64  C   UNL A   1      39.531  26.924  29.083  1.00  0.00     0.012 A 
ATOM     65  C   UNL A   1      41.371  28.222  28.158  1.00  0.00     0.148 A 
ATOM     66  C   UNL A   1      39.552  26.084  27.971  1.00  0.00     0.002 A 
ATOM     67  C   UNL A   1      41.355  27.407  27.032  1.00  0.00     0.091 A 
ATOM     68  F   UNL A   1      42.252  29.224  28.295  1.00  0.00    -0.205 F 
ATOM     69  C   UNL A   1      40.456  26.332  26.942  1.00  0.00     0.022 A 
BRANCH  67  70
ATOM     70  S   UNL A   1      42.428  27.691  25.619  1.00  0.00     0.127 S 
ATOM     71  O   UNL A   1      42.140  26.521  24.789  1.00  0.00    -0.237 OA
ATOM     72  O   UNL A   1      41.913  28.954  25.089  1.00  0.00    -0.237 OA
ATOM     73  O   UNL A   1      43.780  27.764  26.152  1.00  0.00    -0.744 OA
ENDBRANCH  67  70
ENDBRANCH  49  63
BRANCH  50  74
ATOM     74  C   UNL A   1      39.430  33.890  37.195  1.00  0.00     0.023 A 
ATOM     75  C   UNL A   1      39.878  35.225  37.159  1.00  0.00     0.012 A 
ATOM     76  C   UNL A   1      38.805  33.406  38.360  1.00  0.00     0.148 A 
ATOM     77  C   UNL A   1      39.733  36.055  38.272  1.00  0.00     0.002 A 
ATOM     78  C   UNL A   1      38.617  34.252  39.447  1.00  0.00     0.091 A 
ATOM     79  F   UNL A   1      38.398  32.129  38.378  1.00  0.00    -0.205 F 
ATOM     80  C   UNL A   1      39.095  35.572  39.411  1.00  0.00     0.022 A 
BRANCH  78  81
ATOM     81  S   UNL A   1      37.692  33.755  40.904  1.00  0.00     0.127 S 
ATOM     82  O   UNL A   1      36.503  33.149  40.311  1.00  0.00    -0.237 OA
ATOM     83  O   UNL A   1      38.613  32.811  41.540  1.00  0.00    -0.237 OA
ATOM     84  O   UNL A   1      37.472  34.979  41.663  1.00  0.00    -0.744 OA
ENDBRANCH  78  81
ENDBRANCH  50  74
BRANCH  62  85
ATOM     85  C   UNL A   1      44.047  28.976  35.369  1.00  0.00     0.023 A 
ATOM     86  C   UNL A   1      45.314  29.558  35.171  1.00  0.00     0.012 A 
ATOM     87  C   UNL A   1      43.909  27.909  36.279  1.00  0.00     0.148 A 
ATOM     88  C   UNL A   1      46.432  29.068  35.845  1.00  0.00     0.002 A 
ATOM     89  C   UNL A   1      45.019  27.457  36.984  1.00  0.00     0.091 A 
ATOM     90  F   UNL A   1      42.698  27.355  36.438  1.00  0.00    -0.205 F 
ATOM     91  C   UNL A   1      46.282  28.028  36.760  1.00  0.00     0.022 A 
BRANCH  89  92
ATOM     92  S   UNL A   1      44.901  26.188  38.249  1.00  0.00     0.127 S 
ATOM     93  O   UNL A   1      44.446  25.036  37.474  1.00  0.00    -0.237 OA
ATOM     94  O   UNL A   1      46.280  26.095  38.728  1.00  0.00    -0.237 OA
ATOM     95  O   UNL A   1      43.955  26.693  39.235  1.00  0.00    -0.744 OA
ENDBRANCH  89  92
ENDBRANCH  62  85
ENDBRANCH  36  37
ENDBRANCH  28  31
ENDBRANCH  26  27
ENDBRANCH  25  26
ENDBRANCH   1  25
TORSDOF 17
ENDMDL
MODEL 3
REMARK VINA RESULT:     -11.7      4.578      9.655
REMARK SMILES COc1ccc(C(=O)Nc2cccc(C(=O)NCCCCNC(=O)c3ccc(-c4c5nc(c(-c6cccc(S(=O)(=O)[O-])c6F)c6ccc([nH]6)c(-c6cccc(S(=O)(=O)[O-])c6F)c6nc(c(-c7cccc(S(=O)(=O)[O-])c7F)c7ccc4[nH]7)C=C6)C=C5)cc3)c2)cc1
REMARK SMILES IDX 19 1 18 2 17 3 15 4 16 5 14 7 10 8 11 9 88 10 12 11 13 12
REMARK SMILES IDX 9 13 7 14 8 15 6 17 3 18 4 19 90 20 5 21 89 22 2 23 1 24
REMARK SMILES IDX 20 25 21 26 22 27 23 28 24 30 25 31 26 32 87 33 27 34 86 35
REMARK SMILES IDX 28 36 29 37 30 38 80 39 31 40 85 41 79 42 81 43 32 44 84 45
REMARK SMILES IDX 78 46 77 47 33 49 65 50 45 51 64 52 46 53 49 54 63 55 82 56
REMARK SMILES IDX 47 57 48 58 62 60 83 61 50 62 34 63 35 64 43 65 36 66 38 67
REMARK SMILES IDX 44 68 37 69 39 70 40 71 41 72 42 73 66 74 67 75 75 76 68 77
REMARK SMILES IDX 70 78 76 79 69 80 71 81 72 82 73 83 74 84 51 85 52 86 60 87
REMARK SMILES IDX 53 88 55 89 61 90 54 91 56 92 57 93 58 94 59 95
REMARK H PARENT 17 6 9 16 22 29 81 48 49 59
REMARK Flexibility Score: inf
ROOT
ATOM      1  C   UNL A   1      32.796  27.081  26.577  1.00  0.00     0.023 C 
ENDROOT
BRANCH   1   2
ATOM      2  C   UNL A   1      31.383  26.633  26.197  1.00  0.00     0.116 C 
BRANCH   2   3
ATOM      3  N   UNL A   1      31.048  25.374  26.831  1.00  0.00    -0.352 N 
ATOM      4  C   UNL A   1      31.580  24.113  26.746  1.00  0.00     0.251 C 
ATOM      5  O   UNL A   1      31.077  23.242  27.458  1.00  0.00    -0.269 OA
ATOM      6  H   UNL A   1      30.284  25.437  27.449  1.00  0.00     0.163 HD
BRANCH   4   7
ATOM      7  C   UNL A   1      32.750  23.743  25.892  1.00  0.00     0.041 A 
ATOM      8  C   UNL A   1      33.894  23.359  23.784  1.00  0.00     0.042 A 
ATOM      9  C   UNL A   1      35.092  23.111  24.449  1.00  0.00     0.026 A 
ATOM     10  C   UNL A   1      32.717  23.572  24.508  1.00  0.00     0.040 A 
ATOM     11  C   UNL A   1      35.138  23.228  25.835  1.00  0.00     0.003 A 
ATOM     12  C   UNL A   1      33.983  23.568  26.546  1.00  0.00     0.014 A 
BRANCH   8  13
ATOM     13  N   UNL A   1      33.920  23.457  22.385  1.00  0.00    -0.322 N 
ATOM     14  C   UNL A   1      33.274  24.367  21.565  1.00  0.00     0.255 C 
ATOM     15  O   UNL A   1      33.192  24.133  20.359  1.00  0.00    -0.269 OA
ATOM     16  H   UNL A   1      34.471  22.786  21.922  1.00  0.00     0.170 HD
BRANCH  14  17
ATOM     17  C   UNL A   1      32.788  25.688  22.079  1.00  0.00     0.040 A 
ATOM     18  C   UNL A   1      31.790  28.174  22.981  1.00  0.00     0.118 A 
ATOM     19  C   UNL A   1      30.921  27.179  22.522  1.00  0.00     0.047 A 
ATOM     20  C   UNL A   1      33.161  27.932  22.966  1.00  0.00     0.047 A 
ATOM     21  C   UNL A   1      31.411  25.946  22.073  1.00  0.00     0.017 A 
ATOM     22  C   UNL A   1      33.656  26.713  22.484  1.00  0.00     0.017 A 
BRANCH  18  23
ATOM     23  O   UNL A   1      31.185  29.323  23.404  1.00  0.00    -0.497 OA
ATOM     24  C   UNL A   1      29.967  29.686  22.763  1.00  0.00     0.278 C 
ENDBRANCH  18  23
ENDBRANCH  14  17
ENDBRANCH   8  13
ENDBRANCH   4   7
ENDBRANCH   2   3
ENDBRANCH   1   2
BRANCH   1  25
ATOM     25  C   UNL A   1      32.842  28.443  27.272  1.00  0.00     0.023 C 
BRANCH  25  26
ATOM     26  C   UNL A   1      33.685  29.494  26.556  1.00  0.00     0.116 C 
BRANCH  26  27
ATOM     27  N   UNL A   1      33.604  30.815  27.164  1.00  0.00    -0.352 N 
ATOM     28  C   UNL A   1      34.494  31.403  28.034  1.00  0.00     0.251 C 
ATOM     29  H   UNL A   1      32.816  31.353  26.922  1.00  0.00     0.163 HD
ATOM     30  O   UNL A   1      34.245  32.486  28.542  1.00  0.00    -0.269 OA
BRANCH  28  31
ATOM     31  C   UNL A   1      35.737  30.679  28.374  1.00  0.00     0.039 A 
ATOM     32  C   UNL A   1      36.904  30.972  27.667  1.00  0.00     0.014 A 
ATOM     33  C   UNL A   1      35.756  29.761  29.428  1.00  0.00     0.014 A 
ATOM     34  C   UNL A   1      38.110  30.390  28.062  1.00  0.00     0.010 A 
ATOM     35  C   UNL A   1      36.969  29.241  29.865  1.00  0.00     0.010 A 
ATOM     36  C   UNL A   1      38.158  29.547  29.185  1.00  0.00    -0.014 A 
BRANCH  36  37
ATOM     37  C   UNL A   1      39.443  28.985  29.672  1.00  0.00     0.031 A 
ATOM     38  C   UNL A   1      40.185  29.654  30.796  1.00  0.00     0.074 A 
ATOM     39  C   UNL A   1      39.986  27.925  29.041  1.00  0.00     0.049 A 
ATOM     40  N   UNL A   1      41.334  29.334  31.331  1.00  0.00    -0.248 NA
ATOM     41  C   UNL A   1      39.572  30.861  31.376  1.00  0.00     0.031 C 
ATOM     42  C   UNL A   1      39.412  27.247  27.876  1.00  0.00     0.029 A 
ATOM     43  N   UNL A   1      41.156  27.247  29.275  1.00  0.00    -0.354 N 
ATOM     44  C   UNL A   1      41.598  30.313  32.279  1.00  0.00     0.074 A 
ATOM     45  C   UNL A   1      40.510  31.263  32.221  1.00  0.00     0.031 C 
ATOM     46  C   UNL A   1      40.226  26.246  27.504  1.00  0.00     0.029 A 
ATOM     47  C   UNL A   1      41.388  26.222  28.387  1.00  0.00     0.049 A 
ATOM     48  H   UNL A   1      41.771  27.472  30.009  1.00  0.00     0.167 HD
ATOM     49  C   UNL A   1      42.635  30.397  33.148  1.00  0.00     0.034 A 
ATOM     50  C   UNL A   1      42.418  25.357  28.297  1.00  0.00     0.034 A 
ATOM     51  C   UNL A   1      43.685  29.420  33.240  1.00  0.00     0.049 A 
ATOM     52  C   UNL A   1      43.523  25.431  29.316  1.00  0.00     0.074 A 
ATOM     53  C   UNL A   1      44.725  29.358  34.150  1.00  0.00     0.029 A 
ATOM     54  N   UNL A   1      43.831  28.334  32.391  1.00  0.00    -0.354 N 
ATOM     55  N   UNL A   1      43.664  26.261  30.321  1.00  0.00    -0.248 NA
ATOM     56  C   UNL A   1      44.589  24.424  29.217  1.00  0.00     0.031 C 
ATOM     57  C   UNL A   1      45.509  28.241  33.843  1.00  0.00     0.029 A 
ATOM     58  C   UNL A   1      44.946  27.598  32.752  1.00  0.00     0.049 A 
ATOM     59  H   UNL A   1      43.231  28.118  31.642  1.00  0.00     0.167 HD
ATOM     60  C   UNL A   1      44.811  25.856  30.993  1.00  0.00     0.074 A 
ATOM     61  C   UNL A   1      45.315  24.693  30.293  1.00  0.00     0.031 C 
ATOM     62  C   UNL A   1      45.402  26.407  32.082  1.00  0.00     0.034 A 
BRANCH  49  63
ATOM     63  C   UNL A   1      42.645  31.552  34.113  1.00  0.00     0.023 A 
ATOM     64  C   UNL A   1      43.236  32.773  33.726  1.00  0.00     0.012 A 
ATOM     65  C   UNL A   1      42.029  31.453  35.376  1.00  0.00     0.148 A 
ATOM     66  C   UNL A   1      43.247  33.864  34.592  1.00  0.00     0.002 A 
ATOM     67  C   UNL A   1      42.006  32.560  36.217  1.00  0.00     0.091 A 
ATOM     68  F   UNL A   1      41.493  30.278  35.738  1.00  0.00    -0.205 F 
ATOM     69  C   UNL A   1      42.623  33.761  35.832  1.00  0.00     0.022 A 
BRANCH  67  70
ATOM     70  S   UNL A   1      41.161  32.552  37.803  1.00  0.00     0.127 S 
ATOM     71  O   UNL A   1      42.032  31.686  38.597  1.00  0.00    -0.237 OA
ATOM     72  O   UNL A   1      41.200  33.965  38.182  1.00  0.00    -0.237 OA
ATOM     73  O   UNL A   1      39.827  32.031  37.543  1.00  0.00    -0.744 OA
ENDBRANCH  67  70
ENDBRANCH  49  63
BRANCH  50  74
ATOM     74  C   UNL A   1      42.405  24.291  27.255  1.00  0.00     0.023 A 
ATOM     75  C   UNL A   1      43.255  24.412  26.139  1.00  0.00     0.012 A 
ATOM     76  C   UNL A   1      41.588  23.151  27.377  1.00  0.00     0.148 A 
ATOM     77  C   UNL A   1      43.270  23.430  25.146  1.00  0.00     0.002 A 
ATOM     78  C   UNL A   1      41.647  22.152  26.412  1.00  0.00     0.091 A 
ATOM     79  F   UNL A   1      40.778  23.061  28.441  1.00  0.00    -0.205 F 
ATOM     80  C   UNL A   1      42.475  22.297  25.288  1.00  0.00     0.022 A 
BRANCH  78  81
ATOM     81  S   UNL A   1      40.755  20.601  26.577  1.00  0.00     0.127 S 
ATOM     82  O   UNL A   1      39.397  20.996  26.214  1.00  0.00    -0.237 OA
ATOM     83  O   UNL A   1      41.435  19.755  25.595  1.00  0.00    -0.237 OA
ATOM     84  O   UNL A   1      40.949  20.186  27.960  1.00  0.00    -0.744 OA
ENDBRANCH  78  81
ENDBRANCH  50  74
BRANCH  62  85
ATOM     85  C   UNL A   1      46.645  25.744  32.614  1.00  0.00     0.023 A 
ATOM     86  C   UNL A   1      47.911  26.172  32.167  1.00  0.00     0.012 A 
ATOM     87  C   UNL A   1      46.561  24.758  33.617  1.00  0.00     0.148 A 
ATOM     88  C   UNL A   1      49.074  25.607  32.689  1.00  0.00     0.002 A 
ATOM     89  C   UNL A   1      47.726  24.234  34.167  1.00  0.00     0.091 A 
ATOM     90  F   UNL A   1      45.347  24.350  34.014  1.00  0.00    -0.205 F 
ATOM     91  C   UNL A   1      48.982  24.649  33.696  1.00  0.00     0.022 A 
BRANCH  89  92
ATOM     92  S   UNL A   1      47.701  23.068  35.533  1.00  0.00     0.127 S 
ATOM     93  O   UNL A   1      47.054  21.908  34.923  1.00  0.00    -0.237 OA
ATOM     94  O   UNL A   1      49.126  22.892  35.818  1.00  0.00    -0.237 OA
ATOM     95  O   UNL A   1      46.950  23.717  36.599  1.00  0.00    -0.744 OA
ENDBRANCH  89  92
ENDBRANCH  62  85
ENDBRANCH  36  37
ENDBRANCH  28  31
ENDBRANCH  26  27
ENDBRANCH  25  26
ENDBRANCH   1  25
TORSDOF 17
ENDMDL
