MODEL 1
REMARK VINA RESULT:     -12.7      0.000      0.000
REMARK SMILES CC1(C)CCN(C(=O)N[C@](C)(C(=O)NCCCCNC(=O)c2ccc(-c3c4nc(c(-c5cccc(S(=O)(=O)[O-])c5F)c5ccc([nH]5)c(-c5cccc(S(=O)(=O)[O-])c5F)c5nc(c(-c6cccc(S(=O)(=O)[O-])c6F)c6ccc3[nH]6)C=C5)C=C4)cc2)c2ccccc2)C1
REMARK SMILES IDX 17 1 16 2 15 3 14 4 12 5 13 6 10 8 11 9 9 10 7 11 8 12 6 14
REMARK SMILES IDX 1 15 2 16 3 17 4 18 91 19 5 20 85 21 86 22 90 23 87 24 89 25
REMARK SMILES IDX 88 26 18 27 19 28 20 29 21 31 22 32 23 33 84 34 24 35 83 36
REMARK SMILES IDX 25 37 26 38 27 39 77 40 28 41 82 42 76 43 78 44 29 45 81 46
REMARK SMILES IDX 75 47 74 48 30 50 62 51 42 52 61 53 43 54 46 55 60 56 79 57
REMARK SMILES IDX 44 58 45 59 59 61 80 62 47 63 31 64 32 65 40 66 33 67 35 68
REMARK SMILES IDX 41 69 34 70 36 71 37 72 38 73 39 74 63 75 64 76 72 77 65 78
REMARK SMILES IDX 67 79 73 80 66 81 68 82 69 83 70 84 71 85 48 86 49 87 57 88
REMARK SMILES IDX 50 89 52 90 58 91 51 92 53 93 54 94 55 95 56 96
REMARK H PARENT 14 7 9 13 19 30 78 49 46 60
REMARK Flexibility Score: inf
ROOT
ATOM      1  C   UNL A   1      37.535  20.003  24.987  1.00  0.00     0.023 C 
ENDROOT
BRANCH   1   2
ATOM      2  C   UNL A   1      36.239  20.780  24.733  1.00  0.00     0.023 C 
BRANCH   2   3
ATOM      3  C   UNL A   1      36.068  22.057  25.563  1.00  0.00     0.116 C 
BRANCH   3   4
ATOM      4  N   UNL A   1      35.130  22.969  24.948  1.00  0.00    -0.354 N 
ATOM      5  C   UNL A   1      33.779  22.999  24.792  1.00  0.00     0.250 C 
ATOM      6  O   UNL A   1      33.423  23.829  23.943  1.00  0.00    -0.272 OA
ATOM      7  H   UNL A   1      35.573  23.751  24.546  1.00  0.00     0.163 HD
BRANCH   5   8
ATOM      8  C   UNL A   1      32.735  22.094  25.604  1.00  0.00     0.143 C 
ATOM      9  C   UNL A   1      33.169  22.019  27.088  1.00  0.00     0.051 C 
BRANCH   8  10
ATOM     10  N   UNL A   1      31.409  22.782  25.643  1.00  0.00    -0.320 N 
ATOM     11  C   UNL A   1      30.952  23.745  26.472  1.00  0.00     0.318 C 
ATOM     12  O   UNL A   1      30.093  23.407  27.289  1.00  0.00    -0.249 OA
ATOM     13  H   UNL A   1      30.767  22.488  24.957  1.00  0.00     0.166 HD
BRANCH  11  14
ATOM     14  N   UNL A   1      31.250  25.057  26.238  1.00  0.00    -0.324 N 
ATOM     15  C   UNL A   1      33.345  27.934  25.705  1.00  0.00     0.013 C 
ATOM     16  C   UNL A   1      32.084  27.296  26.295  1.00  0.00    -0.016 C 
ATOM     17  C   UNL A   1      31.608  28.156  27.475  1.00  0.00     0.013 C 
ATOM     18  C   UNL A   1      30.945  27.192  25.257  1.00  0.00     0.030 C 
ATOM     19  C   UNL A   1      32.371  25.839  26.717  1.00  0.00     0.127 C 
ATOM     20  C   UNL A   1      30.666  25.709  25.087  1.00  0.00     0.122 C 
ENDBRANCH  11  14
ENDBRANCH   8  10
BRANCH   8  21
ATOM     21  C   UNL A   1      32.691  20.657  25.013  1.00  0.00    -0.013 A 
ATOM     22  C   UNL A   1      32.911  19.535  25.838  1.00  0.00     0.007 A 
ATOM     23  C   UNL A   1      32.428  20.395  23.649  1.00  0.00     0.007 A 
ATOM     24  C   UNL A   1      32.827  18.230  25.341  1.00  0.00     0.000 A 
ATOM     25  C   UNL A   1      32.384  19.091  23.145  1.00  0.00     0.000 A 
ATOM     26  C   UNL A   1      32.574  18.009  23.992  1.00  0.00     0.000 A 
ENDBRANCH   8  21
ENDBRANCH   5   8
ENDBRANCH   3   4
ENDBRANCH   2   3
ENDBRANCH   1   2
BRANCH   1  27
ATOM     27  C   UNL A   1      38.698  20.820  25.538  1.00  0.00     0.116 C 
BRANCH  27  28
ATOM     28  N   UNL A   1      39.749  19.997  26.115  1.00  0.00    -0.352 N 
ATOM     29  C   UNL A   1      40.841  20.388  26.857  1.00  0.00     0.251 C 
ATOM     30  H   UNL A   1      39.668  19.028  25.954  1.00  0.00     0.163 HD
ATOM     31  O   UNL A   1      41.691  19.577  27.184  1.00  0.00    -0.269 OA
BRANCH  29  32
ATOM     32  C   UNL A   1      40.987  21.816  27.214  1.00  0.00     0.039 A 
ATOM     33  C   UNL A   1      41.715  22.154  28.356  1.00  0.00     0.014 A 
ATOM     34  C   UNL A   1      40.457  22.809  26.386  1.00  0.00     0.014 A 
ATOM     35  C   UNL A   1      41.988  23.497  28.624  1.00  0.00     0.010 A 
ATOM     36  C   UNL A   1      40.781  24.140  26.622  1.00  0.00     0.010 A 
ATOM     37  C   UNL A   1      41.560  24.495  27.734  1.00  0.00    -0.014 A 
BRANCH  37  38
ATOM     38  C   UNL A   1      41.956  25.914  27.912  1.00  0.00     0.031 A 
ATOM     39  C   UNL A   1      43.328  26.372  27.511  1.00  0.00     0.074 A 
ATOM     40  C   UNL A   1      41.116  26.758  28.544  1.00  0.00     0.049 A 
ATOM     41  N   UNL A   1      43.884  27.544  27.669  1.00  0.00    -0.248 NA
ATOM     42  C   UNL A   1      44.202  25.372  26.875  1.00  0.00     0.031 C 
ATOM     43  C   UNL A   1      39.784  26.408  29.043  1.00  0.00     0.029 A 
ATOM     44  N   UNL A   1      41.271  28.073  28.904  1.00  0.00    -0.354 N 
ATOM     45  C   UNL A   1      45.181  27.416  27.188  1.00  0.00     0.074 A 
ATOM     46  C   UNL A   1      45.338  26.043  26.760  1.00  0.00     0.031 C 
ATOM     47  C   UNL A   1      39.241  27.483  29.636  1.00  0.00     0.029 A 
ATOM     48  C   UNL A   1      40.195  28.587  29.590  1.00  0.00     0.049 A 
ATOM     49  H   UNL A   1      42.074  28.599  28.690  1.00  0.00     0.167 HD
ATOM     50  C   UNL A   1      46.144  28.363  27.088  1.00  0.00     0.034 A 
ATOM     51  C   UNL A   1      40.002  29.807  30.127  1.00  0.00     0.034 A 
ATOM     52  C   UNL A   1      45.966  29.736  27.473  1.00  0.00     0.049 A 
ATOM     53  C   UNL A   1      41.085  30.843  29.993  1.00  0.00     0.074 A 
ATOM     54  C   UNL A   1      46.836  30.797  27.307  1.00  0.00     0.029 A 
ATOM     55  N   UNL A   1      44.842  30.236  28.113  1.00  0.00    -0.354 N 
ATOM     56  N   UNL A   1      42.240  30.753  29.379  1.00  0.00    -0.248 NA
ATOM     57  C   UNL A   1      40.829  32.155  30.603  1.00  0.00     0.031 C 
ATOM     58  C   UNL A   1      46.247  31.936  27.868  1.00  0.00     0.029 A 
ATOM     59  C   UNL A   1      45.004  31.586  28.370  1.00  0.00     0.049 A 
ATOM     60  H   UNL A   1      44.045  29.708  28.352  1.00  0.00     0.167 HD
ATOM     61  C   UNL A   1      42.835  32.004  29.500  1.00  0.00     0.074 A 
ATOM     62  C   UNL A   1      41.905  32.838  30.233  1.00  0.00     0.031 C 
ATOM     63  C   UNL A   1      44.049  32.418  29.059  1.00  0.00     0.034 A 
BRANCH  50  64
ATOM     64  C   UNL A   1      47.460  27.950  26.483  1.00  0.00     0.023 A 
ATOM     65  C   UNL A   1      48.541  27.627  27.330  1.00  0.00     0.012 A 
ATOM     66  C   UNL A   1      47.622  27.851  25.088  1.00  0.00     0.148 A 
ATOM     67  C   UNL A   1      49.774  27.252  26.797  1.00  0.00     0.002 A 
ATOM     68  C   UNL A   1      48.843  27.437  24.565  1.00  0.00     0.091 A 
ATOM     69  F   UNL A   1      46.595  28.187  24.295  1.00  0.00    -0.205 F 
ATOM     70  C   UNL A   1      49.922  27.149  25.418  1.00  0.00     0.022 A 
BRANCH  68  71
ATOM     71  S   UNL A   1      49.102  27.206  22.803  1.00  0.00     0.127 S 
ATOM     72  O   UNL A   1      50.551  27.023  22.738  1.00  0.00    -0.237 OA
ATOM     73  O   UNL A   1      48.323  25.997  22.528  1.00  0.00    -0.237 OA
ATOM     74  O   UNL A   1      48.585  28.411  22.168  1.00  0.00    -0.744 OA
ENDBRANCH  68  71
ENDBRANCH  50  64
BRANCH  51  75
ATOM     75  C   UNL A   1      38.697  30.140  30.766  1.00  0.00     0.023 A 
ATOM     76  C   UNL A   1      38.463  29.721  32.090  1.00  0.00     0.012 A 
ATOM     77  C   UNL A   1      37.714  30.899  30.101  1.00  0.00     0.148 A 
ATOM     78  C   UNL A   1      37.267  30.034  32.735  1.00  0.00     0.002 A 
ATOM     79  C   UNL A   1      36.545  31.250  30.766  1.00  0.00     0.091 A 
ATOM     80  F   UNL A   1      37.952  31.278  28.837  1.00  0.00    -0.205 F 
ATOM     81  C   UNL A   1      36.313  30.807  32.078  1.00  0.00     0.022 A 
BRANCH  79  82
ATOM     82  S   UNL A   1      35.315  32.346  30.050  1.00  0.00     0.127 S 
ATOM     83  O   UNL A   1      34.384  32.518  31.162  1.00  0.00    -0.237 OA
ATOM     84  O   UNL A   1      36.114  33.528  29.726  1.00  0.00    -0.237 OA
ATOM     85  O   UNL A   1      34.789  31.641  28.888  1.00  0.00    -0.744 OA
ENDBRANCH  79  82
ENDBRANCH  51  75
BRANCH  63  86
ATOM     86  C   UNL A   1      44.442  33.844  29.337  1.00  0.00     0.023 A 
ATOM     87  C   UNL A   1      45.184  34.145  30.497  1.00  0.00     0.012 A 
ATOM     88  C   UNL A   1      44.157  34.867  28.411  1.00  0.00     0.148 A 
ATOM     89  C   UNL A   1      45.616  35.448  30.742  1.00  0.00     0.002 A 
ATOM     90  C   UNL A   1      44.630  36.153  28.641  1.00  0.00     0.091 A 
ATOM     91  F   UNL A   1      43.434  34.562  27.324  1.00  0.00    -0.205 F 
ATOM     92  C   UNL A   1      45.352  36.447  29.809  1.00  0.00     0.022 A 
BRANCH  90  93
ATOM     93  S   UNL A   1      44.417  37.485  27.454  1.00  0.00     0.127 S 
ATOM     94  O   UNL A   1      43.188  37.083  26.772  1.00  0.00    -0.237 OA
ATOM     95  O   UNL A   1      44.279  38.655  28.322  1.00  0.00    -0.237 OA
ATOM     96  O   UNL A   1      45.618  37.483  26.629  1.00  0.00    -0.744 OA
ENDBRANCH  90  93
ENDBRANCH  63  86
ENDBRANCH  37  38
ENDBRANCH  29  32
ENDBRANCH  27  28
ENDBRANCH   1  27
TORSDOF 17
ENDMDL
MODEL 2
REMARK VINA RESULT:     -12.6      5.199     10.907
REMARK SMILES CC1(C)CCN(C(=O)N[C@](C)(C(=O)NCCCCNC(=O)c2ccc(-c3c4nc(c(-c5cccc(S(=O)(=O)[O-])c5F)c5ccc([nH]5)c(-c5cccc(S(=O)(=O)[O-])c5F)c5nc(c(-c6cccc(S(=O)(=O)[O-])c6F)c6ccc3[nH]6)C=C5)C=C4)cc2)c2ccccc2)C1
REMARK SMILES IDX 17 1 16 2 15 3 14 4 12 5 13 6 10 8 11 9 9 10 7 11 8 12 6 14
REMARK SMILES IDX 1 15 2 16 3 17 4 18 91 19 5 20 85 21 86 22 90 23 87 24 89 25
REMARK SMILES IDX 88 26 18 27 19 28 20 29 21 31 22 32 23 33 84 34 24 35 83 36
REMARK SMILES IDX 25 37 26 38 27 39 77 40 28 41 82 42 76 43 78 44 29 45 81 46
REMARK SMILES IDX 75 47 74 48 30 50 62 51 42 52 61 53 43 54 46 55 60 56 79 57
REMARK SMILES IDX 44 58 45 59 59 61 80 62 47 63 31 64 32 65 40 66 33 67 35 68
REMARK SMILES IDX 41 69 34 70 36 71 37 72 38 73 39 74 63 75 64 76 72 77 65 78
REMARK SMILES IDX 67 79 73 80 66 81 68 82 69 83 70 84 71 85 48 86 49 87 57 88
REMARK SMILES IDX 50 89 52 90 58 91 51 92 53 93 54 94 55 95 56 96
REMARK H PARENT 14 7 9 13 19 30 78 49 46 60
REMARK Flexibility Score: inf
ROOT
ATOM      1  C   UNL A   1      31.302  32.063  26.464  1.00  0.00     0.023 C 
ENDROOT
BRANCH   1   2
ATOM      2  C   UNL A   1      31.210  30.822  25.569  1.00  0.00     0.023 C 
BRANCH   2   3
ATOM      3  C   UNL A   1      32.436  29.902  25.598  1.00  0.00     0.116 C 
BRANCH   3   4
ATOM      4  N   UNL A   1      32.926  29.631  24.265  1.00  0.00    -0.354 N 
ATOM      5  C   UNL A   1      32.643  28.710  23.305  1.00  0.00     0.250 C 
ATOM      6  O   UNL A   1      33.512  28.670  22.423  1.00  0.00    -0.272 OA
ATOM      7  H   UNL A   1      33.631  30.261  23.988  1.00  0.00     0.163 HD
BRANCH   5   8
ATOM      8  C   UNL A   1      31.341  27.776  23.276  1.00  0.00     0.143 C 
ATOM      9  C   UNL A   1      31.563  26.621  22.268  1.00  0.00     0.051 C 
BRANCH   8  10
ATOM     10  N   UNL A   1      31.194  27.090  24.595  1.00  0.00    -0.320 N 
ATOM     11  C   UNL A   1      31.005  25.783  24.880  1.00  0.00     0.318 C 
ATOM     12  O   UNL A   1      29.890  25.467  25.303  1.00  0.00    -0.249 OA
ATOM     13  H   UNL A   1      31.243  27.682  25.380  1.00  0.00     0.166 HD
BRANCH  11  14
ATOM     14  N   UNL A   1      32.066  24.926  24.931  1.00  0.00    -0.324 N 
ATOM     15  C   UNL A   1      35.274  23.684  25.990  1.00  0.00     0.013 C 
ATOM     16  C   UNL A   1      34.219  23.890  24.898  1.00  0.00    -0.016 C 
ATOM     17  C   UNL A   1      34.918  23.845  23.531  1.00  0.00     0.013 C 
ATOM     18  C   UNL A   1      33.122  22.805  24.938  1.00  0.00     0.030 C 
ATOM     19  C   UNL A   1      33.471  25.221  25.123  1.00  0.00     0.127 C 
ATOM     20  C   UNL A   1      31.822  23.533  25.233  1.00  0.00     0.122 C 
ENDBRANCH  11  14
ENDBRANCH   8  10
BRANCH   8  21
ATOM     21  C   UNL A   1      30.096  28.597  22.842  1.00  0.00    -0.013 A 
ATOM     22  C   UNL A   1      28.801  28.195  23.226  1.00  0.00     0.007 A 
ATOM     23  C   UNL A   1      30.184  29.771  22.059  1.00  0.00     0.007 A 
ATOM     24  C   UNL A   1      27.668  28.944  22.890  1.00  0.00     0.000 A 
ATOM     25  C   UNL A   1      29.048  30.498  21.690  1.00  0.00     0.000 A 
ATOM     26  C   UNL A   1      27.792  30.090  22.114  1.00  0.00     0.000 A 
ENDBRANCH   8  21
ENDBRANCH   5   8
ENDBRANCH   3   4
ENDBRANCH   2   3
ENDBRANCH   1   2
BRANCH   1  27
ATOM     27  C   UNL A   1      32.621  32.246  27.206  1.00  0.00     0.116 C 
BRANCH  27  28
ATOM     28  N   UNL A   1      32.922  33.640  27.498  1.00  0.00    -0.352 N 
ATOM     29  C   UNL A   1      34.019  34.169  28.140  1.00  0.00     0.251 C 
ATOM     30  H   UNL A   1      32.250  34.293  27.193  1.00  0.00     0.163 HD
ATOM     31  O   UNL A   1      34.072  35.359  28.397  1.00  0.00    -0.269 OA
BRANCH  29  32
ATOM     32  C   UNL A   1      35.112  33.260  28.550  1.00  0.00     0.039 A 
ATOM     33  C   UNL A   1      36.433  33.660  28.342  1.00  0.00     0.014 A 
ATOM     34  C   UNL A   1      34.824  32.053  29.192  1.00  0.00     0.014 A 
ATOM     35  C   UNL A   1      37.474  32.885  28.857  1.00  0.00     0.010 A 
ATOM     36  C   UNL A   1      35.859  31.315  29.755  1.00  0.00     0.010 A 
ATOM     37  C   UNL A   1      37.191  31.731  29.605  1.00  0.00    -0.014 A 
BRANCH  37  38
ATOM     38  C   UNL A   1      38.264  30.967  30.287  1.00  0.00     0.031 A 
ATOM     39  C   UNL A   1      38.648  31.299  31.700  1.00  0.00     0.074 A 
ATOM     40  C   UNL A   1      38.969  30.054  29.588  1.00  0.00     0.049 A 
ATOM     41  N   UNL A   1      39.614  30.804  32.429  1.00  0.00    -0.248 NA
ATOM     42  C   UNL A   1      37.861  32.344  32.373  1.00  0.00     0.031 C 
ATOM     43  C   UNL A   1      38.735  29.698  28.187  1.00  0.00     0.029 A 
ATOM     44  N   UNL A   1      40.046  29.286  29.951  1.00  0.00    -0.354 N 
ATOM     45  C   UNL A   1      39.577  31.501  33.630  1.00  0.00     0.074 A 
ATOM     46  C   UNL A   1      38.511  32.473  33.520  1.00  0.00     0.031 C 
ATOM     47  C   UNL A   1      39.635  28.775  27.812  1.00  0.00     0.029 A 
ATOM     48  C   UNL A   1      40.530  28.499  28.931  1.00  0.00     0.049 A 
ATOM     49  H   UNL A   1      40.436  29.295  30.854  1.00  0.00     0.167 HD
ATOM     50  C   UNL A   1      40.343  31.329  34.733  1.00  0.00     0.034 A 
ATOM     51  C   UNL A   1      41.580  27.654  28.900  1.00  0.00     0.034 A 
ATOM     52  C   UNL A   1      41.370  30.330  34.851  1.00  0.00     0.049 A 
ATOM     53  C   UNL A   1      42.408  27.475  30.143  1.00  0.00     0.074 A 
ATOM     54  C   UNL A   1      42.124  29.997  35.961  1.00  0.00     0.029 A 
ATOM     55  N   UNL A   1      41.796  29.510  33.817  1.00  0.00    -0.354 N 
ATOM     56  N   UNL A   1      42.248  28.016  31.326  1.00  0.00    -0.248 NA
ATOM     57  C   UNL A   1      43.547  26.549  30.054  1.00  0.00     0.031 C 
ATOM     58  C   UNL A   1      43.022  28.989  35.591  1.00  0.00     0.029 A 
ATOM     59  C   UNL A   1      42.817  28.685  34.255  1.00  0.00     0.049 A 
ATOM     60  H   UNL A   1      41.426  29.514  32.904  1.00  0.00     0.167 HD
ATOM     61  C   UNL A   1      43.243  27.475  32.132  1.00  0.00     0.074 A 
ATOM     62  C   UNL A   1      43.992  26.550  31.305  1.00  0.00     0.031 C 
ATOM     63  C   UNL A   1      43.522  27.733  33.434  1.00  0.00     0.034 A 
BRANCH  50  64
ATOM     64  C   UNL A   1      40.054  32.208  35.921  1.00  0.00     0.023 A 
ATOM     65  C   UNL A   1      40.840  33.359  36.140  1.00  0.00     0.012 A 
ATOM     66  C   UNL A   1      38.993  31.919  36.801  1.00  0.00     0.148 A 
ATOM     67  C   UNL A   1      40.602  34.184  37.237  1.00  0.00     0.002 A 
ATOM     68  C   UNL A   1      38.736  32.770  37.871  1.00  0.00     0.091 A 
ATOM     69  F   UNL A   1      38.272  30.808  36.596  1.00  0.00    -0.205 F 
ATOM     70  C   UNL A   1      39.546  33.896  38.096  1.00  0.00     0.022 A 
BRANCH  68  71
ATOM     71  S   UNL A   1      37.352  32.515  38.986  1.00  0.00     0.127 S 
ATOM     72  O   UNL A   1      37.615  33.516  40.019  1.00  0.00    -0.237 OA
ATOM     73  O   UNL A   1      36.201  32.812  38.130  1.00  0.00    -0.237 OA
ATOM     74  O   UNL A   1      37.440  31.125  39.412  1.00  0.00    -0.744 OA
ENDBRANCH  68  71
ENDBRANCH  50  64
BRANCH  51  75
ATOM     75  C   UNL A   1      41.851  26.852  27.674  1.00  0.00     0.023 A 
ATOM     76  C   UNL A   1      42.429  27.491  26.560  1.00  0.00     0.012 A 
ATOM     77  C   UNL A   1      41.592  25.469  27.616  1.00  0.00     0.148 A 
ATOM     78  C   UNL A   1      42.725  26.773  25.402  1.00  0.00     0.002 A 
ATOM     79  C   UNL A   1      41.935  24.748  26.477  1.00  0.00     0.091 A 
ATOM     80  F   UNL A   1      41.032  24.883  28.683  1.00  0.00    -0.205 F 
ATOM     81  C   UNL A   1      42.489  25.401  25.364  1.00  0.00     0.022 A 
BRANCH  79  82
ATOM     82  S   UNL A   1      41.786  22.961  26.380  1.00  0.00     0.127 S 
ATOM     83  O   UNL A   1      42.519  22.535  27.569  1.00  0.00    -0.237 OA
ATOM     84  O   UNL A   1      40.336  22.775  26.448  1.00  0.00    -0.237 OA
ATOM     85  O   UNL A   1      42.379  22.586  25.103  1.00  0.00    -0.744 OA
ENDBRANCH  79  82
ENDBRANCH  51  75
BRANCH  63  86
ATOM     86  C   UNL A   1      44.675  26.995  34.060  1.00  0.00     0.023 A 
ATOM     87  C   UNL A   1      45.980  27.513  33.935  1.00  0.00     0.012 A 
ATOM     88  C   UNL A   1      44.458  25.844  34.841  1.00  0.00     0.148 A 
ATOM     89  C   UNL A   1      47.054  26.883  34.561  1.00  0.00     0.002 A 
ATOM     90  C   UNL A   1      45.527  25.248  35.499  1.00  0.00     0.091 A 
ATOM     91  F   UNL A   1      43.212  25.357  34.931  1.00  0.00    -0.205 F 
ATOM     92  C   UNL A   1      46.826  25.760  35.353  1.00  0.00     0.022 A 
BRANCH  90  93
ATOM     93  S   UNL A   1      45.318  23.853  36.612  1.00  0.00     0.127 S 
ATOM     94  O   UNL A   1      44.483  24.433  37.663  1.00  0.00    -0.237 OA
ATOM     95  O   UNL A   1      44.636  22.876  35.761  1.00  0.00    -0.237 OA
ATOM     96  O   UNL A   1      46.659  23.463  37.024  1.00  0.00    -0.744 OA
ENDBRANCH  90  93
ENDBRANCH  63  86
ENDBRANCH  37  38
ENDBRANCH  29  32
ENDBRANCH  27  28
ENDBRANCH   1  27
TORSDOF 17
ENDMDL
MODEL 3
REMARK VINA RESULT:     -12.6      5.816      9.447
REMARK SMILES CC1(C)CCN(C(=O)N[C@](C)(C(=O)NCCCCNC(=O)c2ccc(-c3c4nc(c(-c5cccc(S(=O)(=O)[O-])c5F)c5ccc([nH]5)c(-c5cccc(S(=O)(=O)[O-])c5F)c5nc(c(-c6cccc(S(=O)(=O)[O-])c6F)c6ccc3[nH]6)C=C5)C=C4)cc2)c2ccccc2)C1
REMARK SMILES IDX 17 1 16 2 15 3 14 4 12 5 13 6 10 8 11 9 9 10 7 11 8 12 6 14
REMARK SMILES IDX 1 15 2 16 3 17 4 18 91 19 5 20 85 21 86 22 90 23 87 24 89 25
REMARK SMILES IDX 88 26 18 27 19 28 20 29 21 31 22 32 23 33 84 34 24 35 83 36
REMARK SMILES IDX 25 37 26 38 27 39 77 40 28 41 82 42 76 43 78 44 29 45 81 46
REMARK SMILES IDX 75 47 74 48 30 50 62 51 42 52 61 53 43 54 46 55 60 56 79 57
REMARK SMILES IDX 44 58 45 59 59 61 80 62 47 63 31 64 32 65 40 66 33 67 35 68
REMARK SMILES IDX 41 69 34 70 36 71 37 72 38 73 39 74 63 75 64 76 72 77 65 78
REMARK SMILES IDX 67 79 73 80 66 81 68 82 69 83 70 84 71 85 48 86 49 87 57 88
REMARK SMILES IDX 50 89 52 90 58 91 51 92 53 93 54 94 55 95 56 96
REMARK H PARENT 14 7 9 13 19 30 78 49 46 60
REMARK Flexibility Score: inf
ROOT
ATOM      1  C   UNL A   1      32.022  31.428  26.723  1.00  0.00     0.023 C 
ENDROOT
BRANCH   1   2
ATOM      2  C   UNL A   1      32.133  29.917  26.959  1.00  0.00     0.023 C 
BRANCH   2   3
ATOM      3  C   UNL A   1      33.336  29.238  26.295  1.00  0.00     0.116 C 
BRANCH   3   4
ATOM      4  N   UNL A   1      33.330  29.431  24.862  1.00  0.00    -0.354 N 
ATOM      5  C   UNL A   1      32.667  28.867  23.818  1.00  0.00     0.250 C 
ATOM      6  O   UNL A   1      33.186  29.143  22.727  1.00  0.00    -0.272 OA
ATOM      7  H   UNL A   1      33.954  30.138  24.576  1.00  0.00     0.163 HD
BRANCH   5   8
ATOM      8  C   UNL A   1      31.354  27.956  23.941  1.00  0.00     0.143 C 
ATOM      9  C   UNL A   1      31.439  26.796  22.919  1.00  0.00     0.051 C 
BRANCH   8  10
ATOM     10  N   UNL A   1      31.348  27.274  25.271  1.00  0.00    -0.320 N 
ATOM     11  C   UNL A   1      31.130  25.978  25.584  1.00  0.00     0.318 C 
ATOM     12  O   UNL A   1      30.066  25.720  26.153  1.00  0.00    -0.249 OA
ATOM     13  H   UNL A   1      31.531  27.861  26.040  1.00  0.00     0.166 HD
BRANCH  11  14
ATOM     14  N   UNL A   1      32.142  25.067  25.497  1.00  0.00    -0.324 N 
ATOM     15  C   UNL A   1      35.368  23.624  26.179  1.00  0.00     0.013 C 
ATOM     16  C   UNL A   1      34.222  23.925  25.209  1.00  0.00    -0.016 C 
ATOM     17  C   UNL A   1      34.775  23.896  23.777  1.00  0.00     0.013 C 
ATOM     18  C   UNL A   1      33.076  22.896  25.327  1.00  0.00     0.030 C 
ATOM     19  C   UNL A   1      33.574  25.282  25.554  1.00  0.00     0.127 C 
ATOM     20  C   UNL A   1      31.854  23.678  25.777  1.00  0.00     0.122 C 
ENDBRANCH  11  14
ENDBRANCH   8  10
BRANCH   8  21
ATOM     21  C   UNL A   1      30.082  28.798  23.650  1.00  0.00    -0.013 A 
ATOM     22  C   UNL A   1      28.906  28.182  23.175  1.00  0.00     0.007 A 
ATOM     23  C   UNL A   1      30.025  30.197  23.844  1.00  0.00     0.007 A 
ATOM     24  C   UNL A   1      27.733  28.910  22.953  1.00  0.00     0.000 A 
ATOM     25  C   UNL A   1      28.864  30.931  23.583  1.00  0.00     0.000 A 
ATOM     26  C   UNL A   1      27.715  30.286  23.147  1.00  0.00     0.000 A 
ENDBRANCH   8  21
ENDBRANCH   5   8
ENDBRANCH   3   4
ENDBRANCH   2   3
ENDBRANCH   1   2
BRANCH   1  27
ATOM     27  C   UNL A   1      33.058  32.285  27.440  1.00  0.00     0.116 C 
BRANCH  27  28
ATOM     28  N   UNL A   1      32.615  33.655  27.654  1.00  0.00    -0.352 N 
ATOM     29  C   UNL A   1      33.105  34.593  28.535  1.00  0.00     0.251 C 
ATOM     30  H   UNL A   1      31.862  33.951  27.091  1.00  0.00     0.163 HD
ATOM     31  O   UNL A   1      32.552  35.672  28.663  1.00  0.00    -0.269 OA
BRANCH  29  32
ATOM     32  C   UNL A   1      34.289  34.252  29.353  1.00  0.00     0.039 A 
ATOM     33  C   UNL A   1      34.095  33.664  30.605  1.00  0.00     0.014 A 
ATOM     34  C   UNL A   1      35.577  34.457  28.853  1.00  0.00     0.014 A 
ATOM     35  C   UNL A   1      35.198  33.201  31.324  1.00  0.00     0.010 A 
ATOM     36  C   UNL A   1      36.668  33.941  29.543  1.00  0.00     0.010 A 
ATOM     37  C   UNL A   1      36.488  33.296  30.777  1.00  0.00    -0.014 A 
BRANCH  37  38
ATOM     38  C   UNL A   1      37.662  32.686  31.447  1.00  0.00     0.031 A 
ATOM     39  C   UNL A   1      38.377  31.528  30.813  1.00  0.00     0.074 A 
ATOM     40  C   UNL A   1      38.005  33.101  32.683  1.00  0.00     0.049 A 
ATOM     41  N   UNL A   1      39.363  30.810  31.284  1.00  0.00    -0.248 NA
ATOM     42  C   UNL A   1      37.905  31.103  29.485  1.00  0.00     0.031 C 
ATOM     43  C   UNL A   1      37.339  34.169  33.430  1.00  0.00     0.029 A 
ATOM     44  N   UNL A   1      38.978  32.653  33.540  1.00  0.00    -0.354 N 
ATOM     45  C   UNL A   1      39.604  29.827  30.333  1.00  0.00     0.074 A 
ATOM     46  C   UNL A   1      38.642  30.024  29.270  1.00  0.00     0.031 C 
ATOM     47  C   UNL A   1      37.927  34.300  34.630  1.00  0.00     0.029 A 
ATOM     48  C   UNL A   1      38.989  33.305  34.752  1.00  0.00     0.049 A 
ATOM     49  H   UNL A   1      39.610  31.934  33.311  1.00  0.00     0.167 HD
ATOM     50  C   UNL A   1      40.557  28.866  30.332  1.00  0.00     0.034 A 
ATOM     51  C   UNL A   1      39.761  33.118  35.839  1.00  0.00     0.034 A 
ATOM     52  C   UNL A   1      41.539  28.705  31.370  1.00  0.00     0.049 A 
ATOM     53  C   UNL A   1      40.819  32.049  35.807  1.00  0.00     0.074 A 
ATOM     54  C   UNL A   1      42.615  27.838  31.411  1.00  0.00     0.029 A 
ATOM     55  N   UNL A   1      41.555  29.421  32.558  1.00  0.00    -0.354 N 
ATOM     56  N   UNL A   1      41.147  31.243  34.827  1.00  0.00    -0.248 NA
ATOM     57  C   UNL A   1      41.630  31.881  37.022  1.00  0.00     0.031 C 
ATOM     58  C   UNL A   1      43.271  28.015  32.635  1.00  0.00     0.029 A 
ATOM     59  C   UNL A   1      42.611  29.001  33.349  1.00  0.00     0.049 A 
ATOM     60  H   UNL A   1      40.910  30.124  32.803  1.00  0.00     0.167 HD
ATOM     61  C   UNL A   1      42.221  30.493  35.293  1.00  0.00     0.074 A 
ATOM     62  C   UNL A   1      42.498  30.953  36.638  1.00  0.00     0.031 C 
ATOM     63  C   UNL A   1      42.905  29.502  34.669  1.00  0.00     0.034 A 
BRANCH  50  64
ATOM     64  C   UNL A   1      40.616  27.950  29.138  1.00  0.00     0.023 A 
ATOM     65  C   UNL A   1      39.740  26.846  29.068  1.00  0.00     0.012 A 
ATOM     66  C   UNL A   1      41.508  28.192  28.076  1.00  0.00     0.148 A 
ATOM     67  C   UNL A   1      39.779  25.976  27.980  1.00  0.00     0.002 A 
ATOM     68  C   UNL A   1      41.513  27.342  26.975  1.00  0.00     0.091 A 
ATOM     69  F   UNL A   1      42.352  29.229  28.169  1.00  0.00    -0.205 F 
ATOM     70  C   UNL A   1      40.658  26.228  26.931  1.00  0.00     0.022 A 
BRANCH  68  71
ATOM     71  S   UNL A   1      42.561  27.632  25.545  1.00  0.00     0.127 S 
ATOM     72  O   UNL A   1      42.007  28.878  25.020  1.00  0.00    -0.237 OA
ATOM     73  O   UNL A   1      43.888  27.763  26.151  1.00  0.00    -0.237 OA
ATOM     74  O   UNL A   1      42.402  26.459  24.697  1.00  0.00    -0.744 OA
ENDBRANCH  68  71
ENDBRANCH  50  64
BRANCH  51  75
ATOM     75  C   UNL A   1      39.618  34.022  37.016  1.00  0.00     0.023 A 
ATOM     76  C   UNL A   1      40.014  35.368  36.890  1.00  0.00     0.012 A 
ATOM     77  C   UNL A   1      39.056  33.581  38.230  1.00  0.00     0.148 A 
ATOM     78  C   UNL A   1      39.872  36.255  37.957  1.00  0.00     0.002 A 
ATOM     79  C   UNL A   1      38.872  34.481  39.274  1.00  0.00     0.091 A 
ATOM     80  F   UNL A   1      38.696  32.294  38.332  1.00  0.00    -0.205 F 
ATOM     81  C   UNL A   1      39.291  35.815  39.144  1.00  0.00     0.022 A 
BRANCH  79  82
ATOM     82  S   UNL A   1      38.020  34.042  40.793  1.00  0.00     0.127 S 
ATOM     83  O   UNL A   1      37.759  35.354  41.379  1.00  0.00    -0.237 OA
ATOM     84  O   UNL A   1      36.837  33.346  40.286  1.00  0.00    -0.237 OA
ATOM     85  O   UNL A   1      38.946  33.192  41.530  1.00  0.00    -0.744 OA
ENDBRANCH  79  82
ENDBRANCH  51  75
BRANCH  63  86
ATOM     86  C   UNL A   1      44.035  28.853  35.422  1.00  0.00     0.023 A 
ATOM     87  C   UNL A   1      45.331  29.399  35.333  1.00  0.00     0.012 A 
ATOM     88  C   UNL A   1      43.800  27.763  36.282  1.00  0.00     0.148 A 
ATOM     89  C   UNL A   1      46.381  28.855  36.072  1.00  0.00     0.002 A 
ATOM     90  C   UNL A   1      44.841  27.255  37.050  1.00  0.00     0.091 A 
ATOM     91  F   UNL A   1      42.564  27.247  36.336  1.00  0.00    -0.205 F 
ATOM     92  C   UNL A   1      46.134  27.794  36.939  1.00  0.00     0.022 A 
BRANCH  90  93
ATOM     93  S   UNL A   1      44.599  25.950  38.260  1.00  0.00     0.127 S 
ATOM     94  O   UNL A   1      45.940  25.818  38.828  1.00  0.00    -0.237 OA
ATOM     95  O   UNL A   1      43.609  26.542  39.161  1.00  0.00    -0.237 OA
ATOM     96  O   UNL A   1      44.121  24.794  37.513  1.00  0.00    -0.744 OA
ENDBRANCH  90  93
ENDBRANCH  63  86
ENDBRANCH  37  38
ENDBRANCH  29  32
ENDBRANCH  27  28
ENDBRANCH   1  27
TORSDOF 17
ENDMDL
