MODEL 1
REMARK VINA RESULT:     -12.5      0.000      0.000
REMARK SMILES O=C(NCCCCNC(=O)c1ccc(-c2c3nc(c(-c4cccc(S(=O)(=O)[O-])c4F)c4ccc([nH]4)c(-c4cccc(S(=O)(=O)[O-])c4F)c4nc(c(-c5cccc(S(=O)(=O)[O-])c5F)c5ccc2[nH]5)C=C4)C=C3)cc1)c1ccc(-c2ccc(=O)[nH]c2)cc1
REMARK SMILES IDX 6 1 5 2 4 3 3 4 1 5 2 6 74 8 75 9 86 10 76 11 85 12 77 13
REMARK SMILES IDX 78 14 79 15 84 16 80 17 83 18 81 19 82 21 7 22 8 23 9 24
REMARK SMILES IDX 10 26 11 27 12 28 73 29 13 30 72 31 14 32 15 33 16 34 66 35
REMARK SMILES IDX 17 36 71 37 65 38 67 39 18 40 70 41 64 42 63 43 19 45 51 46
REMARK SMILES IDX 31 47 50 48 32 49 35 50 49 51 68 52 33 53 34 54 48 56 69 57
REMARK SMILES IDX 36 58 20 59 21 60 29 61 22 62 24 63 30 64 23 65 25 66 26 67
REMARK SMILES IDX 27 68 28 69 52 70 53 71 61 72 54 73 56 74 62 75 55 76 57 77
REMARK SMILES IDX 58 78 59 79 60 80 37 81 38 82 46 83 39 84 41 85 47 86 40 87
REMARK SMILES IDX 42 88 43 89 44 90 45 91
REMARK H PARENT 3 7 83 20 8 25 67 44 35 55
REMARK Flexibility Score: inf
ROOT
ATOM      1  C   UNL A   1      32.080  28.002  26.110  1.00  0.00     0.023 C 
ENDROOT
BRANCH   1   2
ATOM      2  C   UNL A   1      32.676  26.608  25.930  1.00  0.00     0.023 C 
BRANCH   2   3
ATOM      3  C   UNL A   1      31.734  25.452  26.247  1.00  0.00     0.116 C 
BRANCH   3   4
ATOM      4  N   UNL A   1      31.658  24.476  25.171  1.00  0.00    -0.352 N 
ATOM      5  O   UNL A   1      30.980  23.632  23.183  1.00  0.00    -0.269 OA
ATOM      6  C   UNL A   1      31.078  24.597  23.932  1.00  0.00     0.251 C 
ATOM      7  H   UNL A   1      32.082  23.607  25.357  1.00  0.00     0.163 HD
BRANCH   6   8
ATOM      8  C   UNL A   1      30.541  25.904  23.506  1.00  0.00     0.039 A 
ATOM      9  C   UNL A   1      31.303  26.765  22.712  1.00  0.00     0.014 A 
ATOM     10  C   UNL A   1      29.256  26.269  23.911  1.00  0.00     0.014 A 
ATOM     11  C   UNL A   1      30.815  28.034  22.404  1.00  0.00     0.009 A 
ATOM     12  C   UNL A   1      28.760  27.531  23.581  1.00  0.00     0.009 A 
ATOM     13  C   UNL A   1      29.541  28.432  22.840  1.00  0.00    -0.017 A 
BRANCH  13  14
ATOM     14  C   UNL A   1      29.037  29.789  22.545  1.00  0.00    -0.002 A 
ATOM     15  C   UNL A   1      28.161  30.525  23.449  1.00  0.00     0.016 A 
ATOM     16  C   UNL A   1      29.404  30.385  21.395  1.00  0.00     0.094 A 
ATOM     17  C   UNL A   1      27.728  31.759  23.155  1.00  0.00     0.072 A 
ATOM     18  N   UNL A   1      28.973  31.652  21.083  1.00  0.00    -0.328 N 
ATOM     19  C   UNL A   1      28.149  32.401  21.885  1.00  0.00     0.247 A 
ATOM     20  H   UNL A   1      29.274  32.045  20.233  1.00  0.00     0.169 HD
ATOM     21  O   UNL A   1      27.775  33.529  21.586  1.00  0.00    -0.270 OA
ENDBRANCH  13  14
ENDBRANCH   6   8
ENDBRANCH   3   4
ENDBRANCH   2   3
ENDBRANCH   1   2
BRANCH   1  22
ATOM     22  C   UNL A   1      32.921  29.151  25.566  1.00  0.00     0.116 C 
BRANCH  22  23
ATOM     23  N   UNL A   1      32.479  30.457  26.031  1.00  0.00    -0.352 N 
ATOM     24  C   UNL A   1      33.065  31.300  26.946  1.00  0.00     0.251 C 
ATOM     25  H   UNL A   1      31.639  30.784  25.634  1.00  0.00     0.163 HD
ATOM     26  O   UNL A   1      32.480  32.319  27.301  1.00  0.00    -0.269 OA
BRANCH  24  27
ATOM     27  C   UNL A   1      34.385  30.960  27.524  1.00  0.00     0.039 A 
ATOM     28  C   UNL A   1      35.341  31.969  27.665  1.00  0.00     0.014 A 
ATOM     29  C   UNL A   1      34.671  29.659  27.946  1.00  0.00     0.014 A 
ATOM     30  C   UNL A   1      36.555  31.689  28.300  1.00  0.00     0.010 A 
ATOM     31  C   UNL A   1      35.845  29.403  28.650  1.00  0.00     0.010 A 
ATOM     32  C   UNL A   1      36.801  30.414  28.832  1.00  0.00    -0.014 A 
BRANCH  32  33
ATOM     33  C   UNL A   1      38.040  30.120  29.599  1.00  0.00     0.031 A 
ATOM     34  C   UNL A   1      39.082  29.191  29.034  1.00  0.00     0.074 A 
ATOM     35  C   UNL A   1      38.188  30.618  30.843  1.00  0.00     0.049 A 
ATOM     36  N   UNL A   1      40.201  28.781  29.573  1.00  0.00    -0.248 NA
ATOM     37  C   UNL A   1      38.819  28.627  27.700  1.00  0.00     0.031 C 
ATOM     38  C   UNL A   1      37.217  31.467  31.537  1.00  0.00     0.029 A 
ATOM     39  N   UNL A   1      39.203  30.462  31.756  1.00  0.00    -0.354 N 
ATOM     40  C   UNL A   1      40.754  27.884  28.667  1.00  0.00     0.074 A 
ATOM     41  C   UNL A   1      39.829  27.782  27.559  1.00  0.00     0.031 C 
ATOM     42  C   UNL A   1      37.688  31.768  32.758  1.00  0.00     0.029 A 
ATOM     43  C   UNL A   1      38.978  31.112  32.948  1.00  0.00     0.049 A 
ATOM     44  H   UNL A   1      40.015  29.937  31.574  1.00  0.00     0.167 HD
ATOM     45  C   UNL A   1      41.936  27.228  28.734  1.00  0.00     0.034 A 
ATOM     46  C   UNL A   1      39.724  31.170  34.068  1.00  0.00     0.034 A 
ATOM     47  C   UNL A   1      42.874  27.364  29.816  1.00  0.00     0.049 A 
ATOM     48  C   UNL A   1      41.049  30.458  34.103  1.00  0.00     0.074 A 
ATOM     49  C   UNL A   1      44.140  26.819  29.932  1.00  0.00     0.029 A 
ATOM     50  N   UNL A   1      42.644  28.090  30.974  1.00  0.00    -0.354 N 
ATOM     51  N   UNL A   1      41.632  29.751  33.166  1.00  0.00    -0.248 NA
ATOM     52  C   UNL A   1      41.835  30.579  35.339  1.00  0.00     0.031 C 
ATOM     53  C   UNL A   1      44.665  27.193  31.174  1.00  0.00     0.029 A 
ATOM     54  C   UNL A   1      43.738  27.996  31.818  1.00  0.00     0.049 A 
ATOM     55  H   UNL A   1      41.824  28.598  31.169  1.00  0.00     0.167 HD
ATOM     56  C   UNL A   1      42.868  29.378  33.681  1.00  0.00     0.074 A 
ATOM     57  C   UNL A   1      42.957  29.955  35.008  1.00  0.00     0.031 C 
ATOM     58  C   UNL A   1      43.837  28.618  33.113  1.00  0.00     0.034 A 
BRANCH  45  59
ATOM     59  C   UNL A   1      42.305  26.338  27.573  1.00  0.00     0.023 A 
ATOM     60  C   UNL A   1      43.084  26.856  26.518  1.00  0.00     0.012 A 
ATOM     61  C   UNL A   1      41.921  24.983  27.545  1.00  0.00     0.148 A 
ATOM     62  C   UNL A   1      43.436  26.054  25.433  1.00  0.00     0.002 A 
ATOM     63  C   UNL A   1      42.315  24.177  26.483  1.00  0.00     0.091 A 
ATOM     64  F   UNL A   1      41.163  24.511  28.545  1.00  0.00    -0.205 F 
ATOM     65  C   UNL A   1      43.060  24.714  25.420  1.00  0.00     0.022 A 
BRANCH  63  66
ATOM     66  S   UNL A   1      41.951  22.419  26.415  1.00  0.00     0.127 S 
ATOM     67  O   UNL A   1      40.490  22.424  26.342  1.00  0.00    -0.237 OA
ATOM     68  O   UNL A   1      42.622  22.011  25.181  1.00  0.00    -0.237 OA
ATOM     69  O   UNL A   1      42.517  21.848  27.630  1.00  0.00    -0.744 OA
ENDBRANCH  63  66
ENDBRANCH  45  59
BRANCH  46  70
ATOM     70  C   UNL A   1      39.276  32.003  35.221  1.00  0.00     0.023 A 
ATOM     71  C   UNL A   1      38.371  31.456  36.152  1.00  0.00     0.012 A 
ATOM     72  C   UNL A   1      39.751  33.315  35.415  1.00  0.00     0.148 A 
ATOM     73  C   UNL A   1      37.923  32.208  37.237  1.00  0.00     0.002 A 
ATOM     74  C   UNL A   1      39.341  34.040  36.527  1.00  0.00     0.091 A 
ATOM     75  F   UNL A   1      40.603  33.821  34.513  1.00  0.00    -0.205 F 
ATOM     76  C   UNL A   1      38.414  33.496  37.430  1.00  0.00     0.022 A 
BRANCH  74  77
ATOM     77  S   UNL A   1      40.016  35.657  36.928  1.00  0.00     0.127 S 
ATOM     78  O   UNL A   1      39.588  36.453  35.781  1.00  0.00    -0.237 OA
ATOM     79  O   UNL A   1      39.330  35.966  38.184  1.00  0.00    -0.237 OA
ATOM     80  O   UNL A   1      41.452  35.461  37.062  1.00  0.00    -0.744 OA
ENDBRANCH  74  77
ENDBRANCH  46  70
BRANCH  58  81
ATOM     81  C   UNL A   1      45.102  28.394  33.902  1.00  0.00     0.023 A 
ATOM     82  C   UNL A   1      46.169  29.308  33.796  1.00  0.00     0.012 A 
ATOM     83  C   UNL A   1      45.204  27.314  34.803  1.00  0.00     0.148 A 
ATOM     84  C   UNL A   1      47.331  29.132  34.546  1.00  0.00     0.002 A 
ATOM     85  C   UNL A   1      46.344  27.174  35.585  1.00  0.00     0.091 A 
ATOM     86  F   UNL A   1      44.186  26.445  34.876  1.00  0.00    -0.205 F 
ATOM     87  C   UNL A   1      47.413  28.073  35.448  1.00  0.00     0.022 A 
BRANCH  85  88
ATOM     88  S   UNL A   1      46.497  25.901  36.843  1.00  0.00     0.127 S 
ATOM     89  O   UNL A   1      46.590  24.688  36.031  1.00  0.00    -0.237 OA
ATOM     90  O   UNL A   1      47.738  26.279  37.519  1.00  0.00    -0.237 OA
ATOM     91  O   UNL A   1      45.302  26.010  37.670  1.00  0.00    -0.744 OA
ENDBRANCH  85  88
ENDBRANCH  58  81
ENDBRANCH  32  33
ENDBRANCH  24  27
ENDBRANCH  22  23
ENDBRANCH   1  22
TORSDOF 15
ENDMDL
MODEL 2
REMARK VINA RESULT:     -12.4      5.310     10.555
REMARK SMILES O=C(NCCCCNC(=O)c1ccc(-c2c3nc(c(-c4cccc(S(=O)(=O)[O-])c4F)c4ccc([nH]4)c(-c4cccc(S(=O)(=O)[O-])c4F)c4nc(c(-c5cccc(S(=O)(=O)[O-])c5F)c5ccc2[nH]5)C=C4)C=C3)cc1)c1ccc(-c2ccc(=O)[nH]c2)cc1
REMARK SMILES IDX 6 1 5 2 4 3 3 4 1 5 2 6 74 8 75 9 86 10 76 11 85 12 77 13
REMARK SMILES IDX 78 14 79 15 84 16 80 17 83 18 81 19 82 21 7 22 8 23 9 24
REMARK SMILES IDX 10 26 11 27 12 28 73 29 13 30 72 31 14 32 15 33 16 34 66 35
REMARK SMILES IDX 17 36 71 37 65 38 67 39 18 40 70 41 64 42 63 43 19 45 51 46
REMARK SMILES IDX 31 47 50 48 32 49 35 50 49 51 68 52 33 53 34 54 48 56 69 57
REMARK SMILES IDX 36 58 20 59 21 60 29 61 22 62 24 63 30 64 23 65 25 66 26 67
REMARK SMILES IDX 27 68 28 69 52 70 53 71 61 72 54 73 56 74 62 75 55 76 57 77
REMARK SMILES IDX 58 78 59 79 60 80 37 81 38 82 46 83 39 84 41 85 47 86 40 87
REMARK SMILES IDX 42 88 43 89 44 90 45 91
REMARK H PARENT 3 7 83 20 8 25 67 44 35 55
REMARK Flexibility Score: inf
ROOT
ATOM      1  C   UNL A   1      35.562  22.754  24.186  1.00  0.00     0.023 C 
ENDROOT
BRANCH   1   2
ATOM      2  C   UNL A   1      34.986  24.167  24.128  1.00  0.00     0.023 C 
BRANCH   2   3
ATOM      3  C   UNL A   1      34.128  24.470  22.904  1.00  0.00     0.116 C 
BRANCH   3   4
ATOM      4  N   UNL A   1      32.766  24.844  23.250  1.00  0.00    -0.352 N 
ATOM      5  O   UNL A   1      30.591  24.496  23.772  1.00  0.00    -0.269 OA
ATOM      6  C   UNL A   1      31.722  24.042  23.644  1.00  0.00     0.251 C 
ATOM      7  H   UNL A   1      32.564  25.805  23.194  1.00  0.00     0.163 HD
BRANCH   6   8
ATOM      8  C   UNL A   1      31.961  22.608  23.894  1.00  0.00     0.039 A 
ATOM      9  C   UNL A   1      31.986  22.104  25.197  1.00  0.00     0.014 A 
ATOM     10  C   UNL A   1      32.166  21.759  22.804  1.00  0.00     0.014 A 
ATOM     11  C   UNL A   1      32.311  20.766  25.413  1.00  0.00     0.009 A 
ATOM     12  C   UNL A   1      32.467  20.414  23.023  1.00  0.00     0.009 A 
ATOM     13  C   UNL A   1      32.561  19.909  24.329  1.00  0.00    -0.017 A 
BRANCH  13  14
ATOM     14  C   UNL A   1      32.941  18.500  24.559  1.00  0.00    -0.002 A 
ATOM     15  C   UNL A   1      33.641  17.694  23.566  1.00  0.00     0.016 A 
ATOM     16  C   UNL A   1      32.637  17.927  25.738  1.00  0.00     0.094 A 
ATOM     17  C   UNL A   1      33.979  16.420  23.809  1.00  0.00     0.072 A 
ATOM     18  N   UNL A   1      32.983  16.624  26.003  1.00  0.00    -0.328 N 
ATOM     19  C   UNL A   1      33.641  15.808  25.117  1.00  0.00     0.247 A 
ATOM     20  H   UNL A   1      32.743  16.252  26.882  1.00  0.00     0.169 HD
ATOM     21  O   UNL A   1      33.938  14.647  25.375  1.00  0.00    -0.270 OA
ENDBRANCH  13  14
ENDBRANCH   6   8
ENDBRANCH   3   4
ENDBRANCH   2   3
ENDBRANCH   1   2
BRANCH   1  22
ATOM     22  C   UNL A   1      36.008  22.282  25.564  1.00  0.00     0.116 C 
BRANCH  22  23
ATOM     23  N   UNL A   1      36.995  21.213  25.515  1.00  0.00    -0.352 N 
ATOM     24  C   UNL A   1      38.338  21.254  25.807  1.00  0.00     0.251 C 
ATOM     25  H   UNL A   1      36.652  20.335  25.230  1.00  0.00     0.163 HD
ATOM     26  O   UNL A   1      39.041  20.270  25.594  1.00  0.00    -0.269 OA
BRANCH  24  27
ATOM     27  C   UNL A   1      38.939  22.494  26.348  1.00  0.00     0.039 A 
ATOM     28  C   UNL A   1      40.045  22.394  27.196  1.00  0.00     0.014 A 
ATOM     29  C   UNL A   1      38.429  23.748  26.005  1.00  0.00     0.014 A 
ATOM     30  C   UNL A   1      40.687  23.556  27.636  1.00  0.00     0.010 A 
ATOM     31  C   UNL A   1      39.118  24.900  26.378  1.00  0.00     0.010 A 
ATOM     32  C   UNL A   1      40.253  24.817  27.199  1.00  0.00    -0.014 A 
BRANCH  32  33
ATOM     33  C   UNL A   1      40.980  26.059  27.572  1.00  0.00     0.031 A 
ATOM     34  C   UNL A   1      40.277  27.151  28.334  1.00  0.00     0.074 A 
ATOM     35  C   UNL A   1      42.245  26.243  27.147  1.00  0.00     0.049 A 
ATOM     36  N   UNL A   1      40.731  28.320  28.707  1.00  0.00    -0.248 NA
ATOM     37  C   UNL A   1      38.872  26.911  28.701  1.00  0.00     0.031 C 
ATOM     38  C   UNL A   1      43.013  25.297  26.335  1.00  0.00     0.029 A 
ATOM     39  N   UNL A   1      43.104  27.302  27.320  1.00  0.00    -0.354 N 
ATOM     40  C   UNL A   1      39.662  28.968  29.314  1.00  0.00     0.074 A 
ATOM     41  C   UNL A   1      38.526  28.076  29.228  1.00  0.00     0.031 C 
ATOM     42  C   UNL A   1      44.230  25.809  26.093  1.00  0.00     0.029 A 
ATOM     43  C   UNL A   1      44.322  27.132  26.703  1.00  0.00     0.049 A 
ATOM     44  H   UNL A   1      42.870  28.106  27.837  1.00  0.00     0.167 HD
ATOM     45  C   UNL A   1      39.633  30.180  29.916  1.00  0.00     0.034 A 
ATOM     46  C   UNL A   1      45.391  27.950  26.635  1.00  0.00     0.034 A 
ATOM     47  C   UNL A   1      40.775  31.047  30.039  1.00  0.00     0.049 A 
ATOM     48  C   UNL A   1      45.343  29.278  27.340  1.00  0.00     0.074 A 
ATOM     49  C   UNL A   1      40.874  32.251  30.714  1.00  0.00     0.029 A 
ATOM     50  N   UNL A   1      42.014  30.808  29.466  1.00  0.00    -0.354 N 
ATOM     51  N   UNL A   1      44.376  29.799  28.055  1.00  0.00    -0.248 NA
ATOM     52  C   UNL A   1      46.548  30.116  27.258  1.00  0.00     0.031 C 
ATOM     53  C   UNL A   1      42.166  32.753  30.526  1.00  0.00     0.029 A 
ATOM     54  C   UNL A   1      42.880  31.848  29.758  1.00  0.00     0.049 A 
ATOM     55  H   UNL A   1      42.244  30.015  28.929  1.00  0.00     0.167 HD
ATOM     56  C   UNL A   1      44.868  31.005  28.542  1.00  0.00     0.074 A 
ATOM     57  C   UNL A   1      46.227  31.127  28.054  1.00  0.00     0.031 C 
ATOM     58  C   UNL A   1      44.248  31.933  29.312  1.00  0.00     0.034 A 
BRANCH  45  59
ATOM     59  C   UNL A   1      38.330  30.620  30.535  1.00  0.00     0.023 A 
ATOM     60  C   UNL A   1      38.042  30.274  31.872  1.00  0.00     0.012 A 
ATOM     61  C   UNL A   1      37.411  31.407  29.814  1.00  0.00     0.148 A 
ATOM     62  C   UNL A   1      36.843  30.666  32.466  1.00  0.00     0.002 A 
ATOM     63  C   UNL A   1      36.239  31.833  30.428  1.00  0.00     0.091 A 
ATOM     64  F   UNL A   1      37.689  31.710  28.538  1.00  0.00    -0.205 F 
ATOM     65  C   UNL A   1      35.947  31.453  31.749  1.00  0.00     0.022 A 
BRANCH  63  66
ATOM     66  S   UNL A   1      35.060  32.918  29.615  1.00  0.00     0.127 S 
ATOM     67  O   UNL A   1      34.479  32.024  28.615  1.00  0.00    -0.237 OA
ATOM     68  O   UNL A   1      34.159  33.275  30.712  1.00  0.00    -0.237 OA
ATOM     69  O   UNL A   1      35.840  34.030  29.087  1.00  0.00    -0.744 OA
ENDBRANCH  63  66
ENDBRANCH  45  59
BRANCH  46  70
ATOM     70  C   UNL A   1      46.631  27.499  25.942  1.00  0.00     0.023 A 
ATOM     71  C   UNL A   1      46.794  27.784  24.571  1.00  0.00     0.012 A 
ATOM     72  C   UNL A   1      47.655  26.816  26.626  1.00  0.00     0.148 A 
ATOM     73  C   UNL A   1      47.936  27.370  23.887  1.00  0.00     0.002 A 
ATOM     74  C   UNL A   1      48.815  26.453  25.951  1.00  0.00     0.091 A 
ATOM     75  F   UNL A   1      47.478  26.545  27.926  1.00  0.00    -0.205 F 
ATOM     76  C   UNL A   1      48.950  26.713  24.578  1.00  0.00     0.022 A 
BRANCH  74  77
ATOM     77  S   UNL A   1      50.227  25.718  26.783  1.00  0.00     0.127 S 
ATOM     78  O   UNL A   1      49.669  24.456  27.262  1.00  0.00    -0.237 OA
ATOM     79  O   UNL A   1      51.189  25.590  25.687  1.00  0.00    -0.237 OA
ATOM     80  O   UNL A   1      50.616  26.670  27.814  1.00  0.00    -0.744 OA
ENDBRANCH  74  77
ENDBRANCH  46  70
BRANCH  58  81
ATOM     81  C   UNL A   1      45.040  33.149  29.716  1.00  0.00     0.023 A 
ATOM     82  C   UNL A   1      45.822  33.122  30.887  1.00  0.00     0.012 A 
ATOM     83  C   UNL A   1      45.064  34.295  28.894  1.00  0.00     0.148 A 
ATOM     84  C   UNL A   1      46.588  34.229  31.254  1.00  0.00     0.002 A 
ATOM     85  C   UNL A   1      45.870  35.374  29.239  1.00  0.00     0.091 A 
ATOM     86  F   UNL A   1      44.299  34.309  27.794  1.00  0.00    -0.205 F 
ATOM     87  C   UNL A   1      46.621  35.348  30.425  1.00  0.00     0.022 A 
BRANCH  85  88
ATOM     88  S   UNL A   1      46.052  36.815  28.183  1.00  0.00     0.127 S 
ATOM     89  O   UNL A   1      46.622  36.228  26.972  1.00  0.00    -0.237 OA
ATOM     90  O   UNL A   1      44.670  37.277  28.046  1.00  0.00    -0.237 OA
ATOM     91  O   UNL A   1      46.925  37.732  28.904  1.00  0.00    -0.744 OA
ENDBRANCH  85  88
ENDBRANCH  58  81
ENDBRANCH  32  33
ENDBRANCH  24  27
ENDBRANCH  22  23
ENDBRANCH   1  22
TORSDOF 15
ENDMDL
MODEL 3
REMARK VINA RESULT:     -12.4      2.031      8.073
REMARK SMILES O=C(NCCCCNC(=O)c1ccc(-c2c3nc(c(-c4cccc(S(=O)(=O)[O-])c4F)c4ccc([nH]4)c(-c4cccc(S(=O)(=O)[O-])c4F)c4nc(c(-c5cccc(S(=O)(=O)[O-])c5F)c5ccc2[nH]5)C=C4)C=C3)cc1)c1ccc(-c2ccc(=O)[nH]c2)cc1
REMARK SMILES IDX 6 1 5 2 4 3 3 4 1 5 2 6 74 8 75 9 86 10 76 11 85 12 77 13
REMARK SMILES IDX 78 14 79 15 84 16 80 17 83 18 81 19 82 21 7 22 8 23 9 24
REMARK SMILES IDX 10 26 11 27 12 28 73 29 13 30 72 31 14 32 15 33 16 34 66 35
REMARK SMILES IDX 17 36 71 37 65 38 67 39 18 40 70 41 64 42 63 43 19 45 51 46
REMARK SMILES IDX 31 47 50 48 32 49 35 50 49 51 68 52 33 53 34 54 48 56 69 57
REMARK SMILES IDX 36 58 20 59 21 60 29 61 22 62 24 63 30 64 23 65 25 66 26 67
REMARK SMILES IDX 27 68 28 69 52 70 53 71 61 72 54 73 56 74 62 75 55 76 57 77
REMARK SMILES IDX 58 78 59 79 60 80 37 81 38 82 46 83 39 84 41 85 47 86 40 87
REMARK SMILES IDX 42 88 43 89 44 90 45 91
REMARK H PARENT 3 7 83 20 8 25 67 44 35 55
REMARK Flexibility Score: inf
ROOT
ATOM      1  C   UNL A   1      33.013  27.381  25.925  1.00  0.00     0.023 C 
ENDROOT
BRANCH   1   2
ATOM      2  C   UNL A   1      33.239  25.871  25.950  1.00  0.00     0.023 C 
BRANCH   2   3
ATOM      3  C   UNL A   1      31.985  25.029  26.162  1.00  0.00     0.116 C 
BRANCH   3   4
ATOM      4  N   UNL A   1      31.768  24.065  25.094  1.00  0.00    -0.352 N 
ATOM      5  O   UNL A   1      30.871  23.265  23.176  1.00  0.00    -0.269 OA
ATOM      6  C   UNL A   1      31.079  24.219  23.916  1.00  0.00     0.251 C 
ATOM      7  H   UNL A   1      32.171  23.178  25.236  1.00  0.00     0.163 HD
BRANCH   6   8
ATOM      8  C   UNL A   1      30.560  25.550  23.547  1.00  0.00     0.039 A 
ATOM      9  C   UNL A   1      31.255  26.365  22.649  1.00  0.00     0.014 A 
ATOM     10  C   UNL A   1      29.360  25.986  24.113  1.00  0.00     0.014 A 
ATOM     11  C   UNL A   1      30.796  27.656  22.391  1.00  0.00     0.009 A 
ATOM     12  C   UNL A   1      28.891  27.271  23.835  1.00  0.00     0.009 A 
ATOM     13  C   UNL A   1      29.614  28.124  22.986  1.00  0.00    -0.017 A 
BRANCH  13  14
ATOM     14  C   UNL A   1      29.147  29.504  22.742  1.00  0.00    -0.002 A 
ATOM     15  C   UNL A   1      27.976  30.074  23.398  1.00  0.00     0.016 A 
ATOM     16  C   UNL A   1      29.830  30.281  21.882  1.00  0.00     0.094 A 
ATOM     17  C   UNL A   1      27.583  31.334  23.161  1.00  0.00     0.072 A 
ATOM     18  N   UNL A   1      29.443  31.576  21.633  1.00  0.00    -0.328 N 
ATOM     19  C   UNL A   1      28.354  32.176  22.214  1.00  0.00     0.247 A 
ATOM     20  H   UNL A   1      29.979  32.105  21.000  1.00  0.00     0.169 HD
ATOM     21  O   UNL A   1      28.026  33.333  21.976  1.00  0.00    -0.270 OA
ENDBRANCH  13  14
ENDBRANCH   6   8
ENDBRANCH   3   4
ENDBRANCH   2   3
ENDBRANCH   1   2
BRANCH   1  22
ATOM     22  C   UNL A   1      34.179  28.228  26.419  1.00  0.00     0.116 C 
BRANCH  22  23
ATOM     23  N   UNL A   1      33.796  29.589  26.764  1.00  0.00    -0.352 N 
ATOM     24  C   UNL A   1      34.446  30.502  27.561  1.00  0.00     0.251 C 
ATOM     25  H   UNL A   1      32.948  29.901  26.371  1.00  0.00     0.163 HD
ATOM     26  O   UNL A   1      33.907  31.571  27.832  1.00  0.00    -0.269 OA
BRANCH  24  27
ATOM     27  C   UNL A   1      35.780  30.180  28.115  1.00  0.00     0.039 A 
ATOM     28  C   UNL A   1      35.865  29.641  29.401  1.00  0.00     0.014 A 
ATOM     29  C   UNL A   1      36.940  30.387  27.364  1.00  0.00     0.014 A 
ATOM     30  C   UNL A   1      37.106  29.237  29.903  1.00  0.00     0.010 A 
ATOM     31  C   UNL A   1      38.161  29.910  27.832  1.00  0.00     0.010 A 
ATOM     32  C   UNL A   1      38.259  29.332  29.108  1.00  0.00    -0.014 A 
BRANCH  32  33
ATOM     33  C   UNL A   1      39.571  28.818  29.581  1.00  0.00     0.031 A 
ATOM     34  C   UNL A   1      40.303  29.514  30.697  1.00  0.00     0.074 A 
ATOM     35  C   UNL A   1      40.147  27.778  28.946  1.00  0.00     0.049 A 
ATOM     36  N   UNL A   1      41.475  29.241  31.211  1.00  0.00    -0.248 NA
ATOM     37  C   UNL A   1      39.647  30.689  31.294  1.00  0.00     0.031 C 
ATOM     38  C   UNL A   1      39.579  27.064  27.800  1.00  0.00     0.029 A 
ATOM     39  N   UNL A   1      41.352  27.152  29.160  1.00  0.00    -0.354 N 
ATOM     40  C   UNL A   1      41.713  30.228  32.161  1.00  0.00     0.074 A 
ATOM     41  C   UNL A   1      40.580  31.127  32.125  1.00  0.00     0.031 C 
ATOM     42  C   UNL A   1      40.425  26.092  27.422  1.00  0.00     0.029 A 
ATOM     43  C   UNL A   1      41.608  26.130  28.275  1.00  0.00     0.049 A 
ATOM     44  H   UNL A   1      41.972  27.410  29.879  1.00  0.00     0.167 HD
ATOM     45  C   UNL A   1      42.761  30.359  33.007  1.00  0.00     0.034 A 
ATOM     46  C   UNL A   1      42.678  25.318  28.162  1.00  0.00     0.034 A 
ATOM     47  C   UNL A   1      43.865  29.438  33.071  1.00  0.00     0.049 A 
ATOM     48  C   UNL A   1      43.815  25.465  29.136  1.00  0.00     0.074 A 
ATOM     49  C   UNL A   1      44.928  29.428  33.957  1.00  0.00     0.029 A 
ATOM     50  N   UNL A   1      44.055  28.371  32.207  1.00  0.00    -0.354 N 
ATOM     51  N   UNL A   1      43.942  26.300  30.138  1.00  0.00    -0.248 NA
ATOM     52  C   UNL A   1      44.942  24.533  28.984  1.00  0.00     0.031 C 
ATOM     53  C   UNL A   1      45.775  28.369  33.612  1.00  0.00     0.029 A 
ATOM     54  C   UNL A   1      45.225  27.703  32.529  1.00  0.00     0.049 A 
ATOM     55  H   UNL A   1      43.448  28.124  31.473  1.00  0.00     0.167 HD
ATOM     56  C   UNL A   1      45.140  25.969  30.761  1.00  0.00     0.074 A 
ATOM     57  C   UNL A   1      45.691  24.844  30.033  1.00  0.00     0.031 C 
ATOM     58  C   UNL A   1      45.736  26.551  31.831  1.00  0.00     0.034 A 
BRANCH  45  59
ATOM     59  C   UNL A   1      42.738  31.518  33.972  1.00  0.00     0.023 A 
ATOM     60  C   UNL A   1      43.274  32.762  33.579  1.00  0.00     0.012 A 
ATOM     61  C   UNL A   1      42.151  31.391  35.246  1.00  0.00     0.148 A 
ATOM     62  C   UNL A   1      43.266  33.848  34.454  1.00  0.00     0.002 A 
ATOM     63  C   UNL A   1      42.105  32.491  36.095  1.00  0.00     0.091 A 
ATOM     64  F   UNL A   1      41.665  30.197  35.613  1.00  0.00    -0.205 F 
ATOM     65  C   UNL A   1      42.674  33.715  35.707  1.00  0.00     0.022 A 
BRANCH  63  66
ATOM     66  S   UNL A   1      41.292  32.444  37.696  1.00  0.00     0.127 S 
ATOM     67  O   UNL A   1      42.156  31.527  38.439  1.00  0.00    -0.237 OA
ATOM     68  O   UNL A   1      41.373  33.840  38.127  1.00  0.00    -0.237 OA
ATOM     69  O   UNL A   1      39.939  31.966  37.443  1.00  0.00    -0.744 OA
ENDBRANCH  63  66
ENDBRANCH  45  59
BRANCH  46  70
ATOM     70  C   UNL A   1      42.686  24.235  27.137  1.00  0.00     0.023 A 
ATOM     71  C   UNL A   1      43.370  24.444  25.923  1.00  0.00     0.012 A 
ATOM     72  C   UNL A   1      42.048  23.000  27.360  1.00  0.00     0.148 A 
ATOM     73  C   UNL A   1      43.392  23.458  24.938  1.00  0.00     0.002 A 
ATOM     74  C   UNL A   1      42.118  22.001  26.396  1.00  0.00     0.091 A 
ATOM     75  F   UNL A   1      41.394  22.824  28.517  1.00  0.00    -0.205 F 
ATOM     76  C   UNL A   1      42.774  22.235  25.177  1.00  0.00     0.022 A 
BRANCH  74  77
ATOM     77  S   UNL A   1      41.463  20.350  26.666  1.00  0.00     0.127 S 
ATOM     78  O   UNL A   1      41.833  19.674  25.425  1.00  0.00    -0.237 OA
ATOM     79  O   UNL A   1      42.209  19.920  27.849  1.00  0.00    -0.237 OA
ATOM     80  O   UNL A   1      40.034  20.526  26.888  1.00  0.00    -0.744 OA
ENDBRANCH  74  77
ENDBRANCH  46  70
BRANCH  58  81
ATOM     81  C   UNL A   1      47.036  25.961  32.313  1.00  0.00     0.023 A 
ATOM     82  C   UNL A   1      48.257  26.407  31.768  1.00  0.00     0.012 A 
ATOM     83  C   UNL A   1      47.051  25.014  33.358  1.00  0.00     0.148 A 
ATOM     84  C   UNL A   1      49.469  25.895  32.229  1.00  0.00     0.002 A 
ATOM     85  C   UNL A   1      48.264  24.546  33.847  1.00  0.00     0.091 A 
ATOM     86  F   UNL A   1      45.879  24.588  33.851  1.00  0.00    -0.205 F 
ATOM     87  C   UNL A   1      49.473  24.974  33.276  1.00  0.00     0.022 A 
BRANCH  85  88
ATOM     88  S   UNL A   1      48.370  23.438  35.257  1.00  0.00     0.127 S 
ATOM     89  O   UNL A   1      47.658  22.259  34.764  1.00  0.00    -0.237 OA
ATOM     90  O   UNL A   1      49.815  23.260  35.405  1.00  0.00    -0.237 OA
ATOM     91  O   UNL A   1      47.732  24.136  36.364  1.00  0.00    -0.744 OA
ENDBRANCH  85  88
ENDBRANCH  58  81
ENDBRANCH  32  33
ENDBRANCH  24  27
ENDBRANCH  22  23
ENDBRANCH   1  22
TORSDOF 15
ENDMDL
