MODEL 1
REMARK VINA RESULT:     -12.3      0.000      0.000
REMARK SMILES O=C(NCCCCNC(=O)c1cccnc1Nc1cccc(C(F)(F)F)c1)c1ccc(-c2c3nc(c(-c4cccc(S(=O)(=O)[O-])c4F)c4ccc([nH]4)c(-c4cccc(S(=O)(=O)[O-])c4F)c4nc(c(-c5cccc(S(=O)(=O)[O-])c5F)c5ccc2[nH]5)C=C4)C=C3)cc1
REMARK SMILES IDX 5 1 4 2 3 3 1 4 2 5 28 7 29 8 90 9 30 10 89 11 31 12 32 13
REMARK SMILES IDX 33 14 83 15 34 16 88 17 82 18 84 19 35 20 87 21 81 22 80 23
REMARK SMILES IDX 36 25 68 26 48 27 67 28 49 29 52 30 66 31 85 32 50 33 51 34
REMARK SMILES IDX 65 36 86 37 53 38 37 39 38 40 46 41 39 42 41 43 47 44 40 45
REMARK SMILES IDX 42 46 43 47 44 48 45 49 69 50 70 51 78 52 71 53 73 54 79 55
REMARK SMILES IDX 72 56 74 57 75 58 76 59 77 60 54 61 55 62 63 63 56 64 58 65
REMARK SMILES IDX 64 66 57 67 59 68 60 69 61 70 62 71 6 72 7 73 8 74 9 75
REMARK SMILES IDX 10 77 11 78 12 79 16 80 13 81 15 82 14 83 17 84 18 86 19 87
REMARK SMILES IDX 27 88 20 89 22 90 21 91 23 92 24 93 25 94 26 95
REMARK H PARENT 3 6 84 24 52 35 8 76 17 85
REMARK Flexibility Score: inf
ROOT
ATOM      1  C   UNL A   1      31.415  31.960  26.516  1.00  0.00     0.023 C 
ENDROOT
BRANCH   1   2
ATOM      2  C   UNL A   1      32.631  32.442  27.301  1.00  0.00     0.116 C 
BRANCH   2   3
ATOM      3  N   UNL A   1      32.503  33.824  27.733  1.00  0.00    -0.352 N 
ATOM      4  O   UNL A   1      32.841  35.627  29.033  1.00  0.00    -0.269 OA
ATOM      5  C   UNL A   1      33.218  34.512  28.683  1.00  0.00     0.251 C 
ATOM      6  H   UNL A   1      31.802  34.344  27.277  1.00  0.00     0.163 HD
BRANCH   5   7
ATOM      7  C   UNL A   1      34.414  33.896  29.294  1.00  0.00     0.039 A 
ATOM      8  C   UNL A   1      34.290  32.945  30.311  1.00  0.00     0.014 A 
ATOM      9  C   UNL A   1      35.678  34.275  28.836  1.00  0.00     0.014 A 
ATOM     10  C   UNL A   1      35.426  32.475  30.963  1.00  0.00     0.010 A 
ATOM     11  C   UNL A   1      36.818  33.742  29.440  1.00  0.00     0.010 A 
ATOM     12  C   UNL A   1      36.701  32.862  30.529  1.00  0.00    -0.014 A 
BRANCH  12  13
ATOM     13  C   UNL A   1      37.916  32.304  31.172  1.00  0.00     0.031 A 
ATOM     14  C   UNL A   1      38.658  31.156  30.550  1.00  0.00     0.074 A 
ATOM     15  C   UNL A   1      38.310  32.798  32.362  1.00  0.00     0.049 A 
ATOM     16  N   UNL A   1      39.674  30.479  31.019  1.00  0.00    -0.248 NA
ATOM     17  C   UNL A   1      38.191  30.701  29.230  1.00  0.00     0.031 C 
ATOM     18  C   UNL A   1      37.648  33.890  33.078  1.00  0.00     0.029 A 
ATOM     19  N   UNL A   1      39.333  32.423  33.195  1.00  0.00    -0.354 N 
ATOM     20  C   UNL A   1      39.936  29.486  30.084  1.00  0.00     0.074 A 
ATOM     21  C   UNL A   1      38.971  29.650  29.017  1.00  0.00     0.031 C 
ATOM     22  C   UNL A   1      38.266  34.083  34.251  1.00  0.00     0.029 A 
ATOM     23  C   UNL A   1      39.329  33.094  34.395  1.00  0.00     0.049 A 
ATOM     24  H   UNL A   1      40.004  31.742  32.958  1.00  0.00     0.167 HD
ATOM     25  C   UNL A   1      40.897  28.530  30.110  1.00  0.00     0.034 A 
ATOM     26  C   UNL A   1      40.062  32.907  35.509  1.00  0.00     0.034 A 
ATOM     27  C   UNL A   1      41.860  28.388  31.169  1.00  0.00     0.049 A 
ATOM     28  C   UNL A   1      41.120  31.842  35.519  1.00  0.00     0.074 A 
ATOM     29  C   UNL A   1      42.920  27.502  31.254  1.00  0.00     0.029 A 
ATOM     30  N   UNL A   1      41.868  29.134  32.339  1.00  0.00    -0.354 N 
ATOM     31  N   UNL A   1      41.438  30.994  34.572  1.00  0.00    -0.248 NA
ATOM     32  C   UNL A   1      41.939  31.726  36.732  1.00  0.00     0.031 C 
ATOM     33  C   UNL A   1      43.544  27.685  32.493  1.00  0.00     0.029 A 
ATOM     34  C   UNL A   1      42.901  28.717  33.160  1.00  0.00     0.049 A 
ATOM     35  H   UNL A   1      41.232  29.854  32.553  1.00  0.00     0.167 HD
ATOM     36  C   UNL A   1      42.518  30.268  35.058  1.00  0.00     0.074 A 
ATOM     37  C   UNL A   1      42.801  30.780  36.383  1.00  0.00     0.031 C 
ATOM     38  C   UNL A   1      43.207  29.267  34.457  1.00  0.00     0.034 A 
BRANCH  25  39
ATOM     39  C   UNL A   1      40.954  27.563  28.954  1.00  0.00     0.023 A 
ATOM     40  C   UNL A   1      40.085  26.453  28.921  1.00  0.00     0.012 A 
ATOM     41  C   UNL A   1      41.845  27.774  27.883  1.00  0.00     0.148 A 
ATOM     42  C   UNL A   1      40.137  25.542  27.865  1.00  0.00     0.002 A 
ATOM     43  C   UNL A   1      41.857  26.887  26.811  1.00  0.00     0.091 A 
ATOM     44  F   UNL A   1      42.678  28.822  27.937  1.00  0.00    -0.205 F 
ATOM     45  C   UNL A   1      41.015  25.764  26.808  1.00  0.00     0.022 A 
BRANCH  43  46
ATOM     46  S   UNL A   1      42.896  27.138  25.368  1.00  0.00     0.127 S 
ATOM     47  O   UNL A   1      42.715  25.876  24.652  1.00  0.00    -0.237 OA
ATOM     48  O   UNL A   1      42.266  28.294  24.728  1.00  0.00    -0.237 OA
ATOM     49  O   UNL A   1      44.235  27.388  25.880  1.00  0.00    -0.744 OA
ENDBRANCH  43  46
ENDBRANCH  25  39
BRANCH  26  50
ATOM     50  C   UNL A   1      39.814  33.778  36.690  1.00  0.00     0.023 A 
ATOM     51  C   UNL A   1      40.108  35.151  36.617  1.00  0.00     0.012 A 
ATOM     52  C   UNL A   1      39.198  33.263  37.848  1.00  0.00     0.148 A 
ATOM     53  C   UNL A   1      39.804  35.998  37.683  1.00  0.00     0.002 A 
ATOM     54  C   UNL A   1      38.846  34.121  38.883  1.00  0.00     0.091 A 
ATOM     55  F   UNL A   1      38.929  31.950  37.893  1.00  0.00    -0.205 F 
ATOM     56  C   UNL A   1      39.162  35.486  38.808  1.00  0.00     0.022 A 
BRANCH  54  57
ATOM     57  S   UNL A   1      37.889  33.581  40.304  1.00  0.00     0.127 S 
ATOM     58  O   UNL A   1      37.722  34.831  41.043  1.00  0.00    -0.237 OA
ATOM     59  O   UNL A   1      36.673  33.074  39.668  1.00  0.00    -0.237 OA
ATOM     60  O   UNL A   1      38.696  32.565  40.964  1.00  0.00    -0.744 OA
ENDBRANCH  54  57
ENDBRANCH  26  50
BRANCH  38  61
ATOM     61  C   UNL A   1      44.383  28.680  35.192  1.00  0.00     0.023 A 
ATOM     62  C   UNL A   1      45.669  29.228  35.023  1.00  0.00     0.012 A 
ATOM     63  C   UNL A   1      44.183  27.659  36.143  1.00  0.00     0.148 A 
ATOM     64  C   UNL A   1      46.742  28.757  35.779  1.00  0.00     0.002 A 
ATOM     65  C   UNL A   1      45.245  27.231  36.928  1.00  0.00     0.091 A 
ATOM     66  F   UNL A   1      42.953  27.140  36.272  1.00  0.00    -0.205 F 
ATOM     67  C   UNL A   1      46.528  27.772  36.742  1.00  0.00     0.022 A 
BRANCH  65  68
ATOM     68  S   UNL A   1      45.042  26.043  38.261  1.00  0.00     0.127 S 
ATOM     69  O   UNL A   1      46.415  25.902  38.744  1.00  0.00    -0.237 OA
ATOM     70  O   UNL A   1      44.145  26.753  39.172  1.00  0.00    -0.237 OA
ATOM     71  O   UNL A   1      44.473  24.848  37.655  1.00  0.00    -0.744 OA
ENDBRANCH  65  68
ENDBRANCH  38  61
ENDBRANCH  12  13
ENDBRANCH   5   7
ENDBRANCH   2   3
ENDBRANCH   1   2
BRANCH   1  72
ATOM     72  C   UNL A   1      31.535  30.552  25.935  1.00  0.00     0.023 C 
BRANCH  72  73
ATOM     73  C   UNL A   1      32.962  30.024  25.807  1.00  0.00     0.116 C 
BRANCH  73  74
ATOM     74  N   UNL A   1      33.316  29.724  24.429  1.00  0.00    -0.352 N 
ATOM     75  C   UNL A   1      33.418  28.501  23.815  1.00  0.00     0.255 C 
ATOM     76  H   UNL A   1      33.507  30.504  23.859  1.00  0.00     0.163 HD
ATOM     77  O   UNL A   1      33.967  28.403  22.720  1.00  0.00    -0.269 OA
BRANCH  75  78
ATOM     78  C   UNL A   1      32.893  27.291  24.472  1.00  0.00     0.082 A 
ATOM     79  C   UNL A   1      33.600  26.703  25.531  1.00  0.00     0.019 A 
ATOM     80  C   UNL A   1      31.656  26.758  24.090  1.00  0.00     0.143 A 
ATOM     81  C   UNL A   1      33.117  25.541  26.113  1.00  0.00     0.021 A 
ATOM     82  N   UNL A   1      31.193  25.616  24.665  1.00  0.00    -0.238 NA
ATOM     83  C   UNL A   1      31.924  25.032  25.639  1.00  0.00     0.113 A 
BRANCH  80  84
ATOM     84  N   UNL A   1      30.910  27.328  23.037  1.00  0.00    -0.340 N 
ATOM     85  H   UNL A   1      31.241  27.166  22.124  1.00  0.00     0.168 HD
BRANCH  84  86
ATOM     86  C   UNL A   1      29.745  28.105  23.154  1.00  0.00     0.040 A 
ATOM     87  C   UNL A   1      28.503  27.479  23.286  1.00  0.00     0.026 A 
ATOM     88  C   UNL A   1      29.788  29.501  23.052  1.00  0.00     0.039 A 
ATOM     89  C   UNL A   1      27.333  28.233  23.386  1.00  0.00     0.003 A 
ATOM     90  C   UNL A   1      28.620  30.274  23.129  1.00  0.00     0.058 A 
ATOM     91  C   UNL A   1      27.390  29.625  23.312  1.00  0.00     0.013 A 
BRANCH  90  92
ATOM     92  C   UNL A   1      28.682  31.774  23.020  1.00  0.00     0.416 C 
ATOM     93  F   UNL A   1      29.230  32.190  21.843  1.00  0.00    -0.166 F 
ATOM     94  F   UNL A   1      27.451  32.356  23.078  1.00  0.00    -0.166 F 
ATOM     95  F   UNL A   1      29.419  32.373  23.998  1.00  0.00    -0.166 F 
ENDBRANCH  90  92
ENDBRANCH  84  86
ENDBRANCH  80  84
ENDBRANCH  75  78
ENDBRANCH  73  74
ENDBRANCH  72  73
ENDBRANCH   1  72
TORSDOF 17
ENDMDL
MODEL 2
REMARK VINA RESULT:     -12.2      6.865     11.993
REMARK SMILES O=C(NCCCCNC(=O)c1cccnc1Nc1cccc(C(F)(F)F)c1)c1ccc(-c2c3nc(c(-c4cccc(S(=O)(=O)[O-])c4F)c4ccc([nH]4)c(-c4cccc(S(=O)(=O)[O-])c4F)c4nc(c(-c5cccc(S(=O)(=O)[O-])c5F)c5ccc2[nH]5)C=C4)C=C3)cc1
REMARK SMILES IDX 5 1 4 2 3 3 1 4 2 5 28 7 29 8 90 9 30 10 89 11 31 12 32 13
REMARK SMILES IDX 33 14 83 15 34 16 88 17 82 18 84 19 35 20 87 21 81 22 80 23
REMARK SMILES IDX 36 25 68 26 48 27 67 28 49 29 52 30 66 31 85 32 50 33 51 34
REMARK SMILES IDX 65 36 86 37 53 38 37 39 38 40 46 41 39 42 41 43 47 44 40 45
REMARK SMILES IDX 42 46 43 47 44 48 45 49 69 50 70 51 78 52 71 53 73 54 79 55
REMARK SMILES IDX 72 56 74 57 75 58 76 59 77 60 54 61 55 62 63 63 56 64 58 65
REMARK SMILES IDX 64 66 57 67 59 68 60 69 61 70 62 71 6 72 7 73 8 74 9 75
REMARK SMILES IDX 10 77 11 78 12 79 16 80 13 81 15 82 14 83 17 84 18 86 19 87
REMARK SMILES IDX 27 88 20 89 22 90 21 91 23 92 24 93 25 94 26 95
REMARK H PARENT 3 6 84 24 52 35 8 76 17 85
REMARK Flexibility Score: inf
ROOT
ATOM      1  C   UNL A   1      37.756  19.615  24.713  1.00  0.00     0.023 C 
ENDROOT
BRANCH   1   2
ATOM      2  C   UNL A   1      38.830  20.221  25.611  1.00  0.00     0.116 C 
BRANCH   2   3
ATOM      3  N   UNL A   1      39.955  19.323  25.818  1.00  0.00    -0.352 N 
ATOM      4  O   UNL A   1      42.107  18.727  26.088  1.00  0.00    -0.269 OA
ATOM      5  C   UNL A   1      41.260  19.617  26.130  1.00  0.00     0.251 C 
ATOM      6  H   UNL A   1      39.752  18.365  25.720  1.00  0.00     0.163 HD
BRANCH   5   7
ATOM      7  C   UNL A   1      41.640  20.999  26.487  1.00  0.00     0.039 A 
ATOM      8  C   UNL A   1      41.806  21.975  25.499  1.00  0.00     0.014 A 
ATOM      9  C   UNL A   1      41.827  21.323  27.833  1.00  0.00     0.014 A 
ATOM     10  C   UNL A   1      42.290  23.233  25.841  1.00  0.00     0.010 A 
ATOM     11  C   UNL A   1      42.238  22.610  28.181  1.00  0.00     0.010 A 
ATOM     12  C   UNL A   1      42.503  23.567  27.186  1.00  0.00    -0.014 A 
BRANCH  12  13
ATOM     13  C   UNL A   1      42.946  24.932  27.562  1.00  0.00     0.031 A 
ATOM     14  C   UNL A   1      41.992  25.904  28.193  1.00  0.00     0.074 A 
ATOM     15  C   UNL A   1      44.204  25.314  27.267  1.00  0.00     0.049 A 
ATOM     16  N   UNL A   1      42.176  27.164  28.492  1.00  0.00    -0.248 NA
ATOM     17  C   UNL A   1      40.649  25.399  28.522  1.00  0.00     0.031 C 
ATOM     18  C   UNL A   1      45.210  24.466  26.624  1.00  0.00     0.029 A 
ATOM     19  N   UNL A   1      44.838  26.519  27.431  1.00  0.00    -0.354 N 
ATOM     20  C   UNL A   1      40.963  27.619  28.994  1.00  0.00     0.074 A 
ATOM     21  C   UNL A   1      40.048  26.497  28.960  1.00  0.00     0.031 C 
ATOM     22  C   UNL A   1      46.325  25.180  26.428  1.00  0.00     0.029 A 
ATOM     23  C   UNL A   1      46.096  26.549  26.877  1.00  0.00     0.049 A 
ATOM     24  H   UNL A   1      44.433  27.285  27.898  1.00  0.00     0.167 HD
ATOM     25  C   UNL A   1      40.644  28.856  29.447  1.00  0.00     0.034 A 
ATOM     26  C   UNL A   1      46.955  27.571  26.703  1.00  0.00     0.034 A 
ATOM     27  C   UNL A   1      41.568  29.958  29.491  1.00  0.00     0.049 A 
ATOM     28  C   UNL A   1      46.583  28.934  27.211  1.00  0.00     0.074 A 
ATOM     29  C   UNL A   1      41.367  31.228  30.002  1.00  0.00     0.029 A 
ATOM     30  N   UNL A   1      42.859  29.931  28.985  1.00  0.00    -0.354 N 
ATOM     31  N   UNL A   1      45.476  29.316  27.800  1.00  0.00    -0.248 NA
ATOM     32  C   UNL A   1      47.583  29.999  27.060  1.00  0.00     0.031 C 
ATOM     33  C   UNL A   1      42.522  31.981  29.768  1.00  0.00     0.029 A 
ATOM     34  C   UNL A   1      43.461  31.166  29.153  1.00  0.00     0.049 A 
ATOM     35  H   UNL A   1      43.286  29.148  28.568  1.00  0.00     0.167 HD
ATOM     36  C   UNL A   1      45.659  30.654  28.124  1.00  0.00     0.074 A 
ATOM     37  C   UNL A   1      46.986  31.015  27.669  1.00  0.00     0.031 C 
ATOM     38  C   UNL A   1      44.801  31.502  28.741  1.00  0.00     0.034 A 
BRANCH  25  39
ATOM     39  C   UNL A   1      39.235  29.081  29.935  1.00  0.00     0.023 A 
ATOM     40  C   UNL A   1      38.884  28.737  31.257  1.00  0.00     0.012 A 
ATOM     41  C   UNL A   1      38.267  29.665  29.095  1.00  0.00     0.148 A 
ATOM     42  C   UNL A   1      37.581  28.926  31.718  1.00  0.00     0.002 A 
ATOM     43  C   UNL A   1      36.983  29.894  29.577  1.00  0.00     0.091 A 
ATOM     44  F   UNL A   1      38.609  29.970  27.836  1.00  0.00    -0.205 F 
ATOM     45  C   UNL A   1      36.634  29.511  30.882  1.00  0.00     0.022 A 
BRANCH  43  46
ATOM     46  S   UNL A   1      35.721  30.719  28.600  1.00  0.00     0.127 S 
ATOM     47  O   UNL A   1      35.002  29.581  28.028  1.00  0.00    -0.237 OA
ATOM     48  O   UNL A   1      34.975  31.461  29.617  1.00  0.00    -0.237 OA
ATOM     49  O   UNL A   1      36.439  31.554  27.648  1.00  0.00    -0.744 OA
ENDBRANCH  43  46
ENDBRANCH  25  39
BRANCH  26  50
ATOM     50  C   UNL A   1      48.257  27.313  26.031  1.00  0.00     0.023 A 
ATOM     51  C   UNL A   1      49.322  26.760  26.765  1.00  0.00     0.012 A 
ATOM     52  C   UNL A   1      48.408  27.524  24.646  1.00  0.00     0.148 A 
ATOM     53  C   UNL A   1      50.522  26.433  26.133  1.00  0.00     0.002 A 
ATOM     54  C   UNL A   1      49.584  27.143  24.013  1.00  0.00     0.091 A 
ATOM     55  F   UNL A   1      47.379  28.053  23.970  1.00  0.00    -0.205 F 
ATOM     56  C   UNL A   1      50.648  26.611  24.758  1.00  0.00     0.022 A 
BRANCH  54  57
ATOM     57  S   UNL A   1      49.785  27.199  22.229  1.00  0.00     0.127 S 
ATOM     58  O   UNL A   1      51.153  26.709  22.067  1.00  0.00    -0.237 OA
ATOM     59  O   UNL A   1      48.742  26.274  21.783  1.00  0.00    -0.237 OA
ATOM     60  O   UNL A   1      49.567  28.586  21.847  1.00  0.00    -0.744 OA
ENDBRANCH  54  57
ENDBRANCH  26  50
BRANCH  38  61
ATOM     61  C   UNL A   1      45.275  32.903  29.025  1.00  0.00     0.023 A 
ATOM     62  C   UNL A   1      46.022  33.178  30.187  1.00  0.00     0.012 A 
ATOM     63  C   UNL A   1      45.078  33.922  28.069  1.00  0.00     0.148 A 
ATOM     64  C   UNL A   1      46.552  34.450  30.401  1.00  0.00     0.002 A 
ATOM     65  C   UNL A   1      45.652  35.170  28.265  1.00  0.00     0.091 A 
ATOM     66  F   UNL A   1      44.347  33.641  26.980  1.00  0.00    -0.205 F 
ATOM     67  C   UNL A   1      46.382  35.440  29.435  1.00  0.00     0.022 A 
BRANCH  65  68
ATOM     68  S   UNL A   1      45.575  36.473  27.030  1.00  0.00     0.127 S 
ATOM     69  O   UNL A   1      44.131  36.626  26.850  1.00  0.00    -0.237 OA
ATOM     70  O   UNL A   1      46.226  37.587  27.717  1.00  0.00    -0.237 OA
ATOM     71  O   UNL A   1      46.293  35.971  25.867  1.00  0.00    -0.744 OA
ENDBRANCH  65  68
ENDBRANCH  38  61
ENDBRANCH  12  13
ENDBRANCH   5   7
ENDBRANCH   2   3
ENDBRANCH   1   2
BRANCH   1  72
ATOM     72  C   UNL A   1      36.329  20.072  25.010  1.00  0.00     0.023 C 
BRANCH  72  73
ATOM     73  C   UNL A   1      36.212  21.456  25.646  1.00  0.00     0.116 C 
BRANCH  73  74
ATOM     74  N   UNL A   1      35.255  21.478  26.740  1.00  0.00    -0.352 N 
ATOM     75  C   UNL A   1      34.166  22.293  26.912  1.00  0.00     0.255 C 
ATOM     76  H   UNL A   1      35.411  20.818  27.455  1.00  0.00     0.163 HD
ATOM     77  O   UNL A   1      33.606  22.355  28.005  1.00  0.00    -0.269 OA
BRANCH  75  78
ATOM     78  C   UNL A   1      33.670  23.120  25.797  1.00  0.00     0.082 A 
ATOM     79  C   UNL A   1      34.216  24.391  25.569  1.00  0.00     0.019 A 
ATOM     80  C   UNL A   1      32.700  22.619  24.921  1.00  0.00     0.143 A 
ATOM     81  C   UNL A   1      33.711  25.177  24.543  1.00  0.00     0.021 A 
ATOM     82  N   UNL A   1      32.210  23.398  23.920  1.00  0.00    -0.238 NA
ATOM     83  C   UNL A   1      32.707  24.644  23.760  1.00  0.00     0.113 A 
BRANCH  80  84
ATOM     84  N   UNL A   1      32.136  21.340  25.112  1.00  0.00    -0.340 N 
ATOM     85  H   UNL A   1      31.488  21.249  25.848  1.00  0.00     0.168 HD
BRANCH  84  86
ATOM     86  C   UNL A   1      32.402  20.181  24.363  1.00  0.00     0.040 A 
ATOM     87  C   UNL A   1      32.080  20.144  23.004  1.00  0.00     0.026 A 
ATOM     88  C   UNL A   1      32.904  19.022  24.968  1.00  0.00     0.039 A 
ATOM     89  C   UNL A   1      32.321  18.996  22.247  1.00  0.00     0.003 A 
ATOM     90  C   UNL A   1      33.133  17.853  24.228  1.00  0.00     0.058 A 
ATOM     91  C   UNL A   1      32.849  17.856  22.855  1.00  0.00     0.013 A 
BRANCH  90  92
ATOM     92  C   UNL A   1      33.675  16.616  24.892  1.00  0.00     0.416 C 
ATOM     93  F   UNL A   1      35.028  16.505  24.763  1.00  0.00    -0.166 F 
ATOM     94  F   UNL A   1      33.431  16.590  26.233  1.00  0.00    -0.166 F 
ATOM     95  F   UNL A   1      33.165  15.451  24.401  1.00  0.00    -0.166 F 
ENDBRANCH  90  92
ENDBRANCH  84  86
ENDBRANCH  80  84
ENDBRANCH  75  78
ENDBRANCH  73  74
ENDBRANCH  72  73
ENDBRANCH   1  72
TORSDOF 17
ENDMDL
MODEL 3
REMARK VINA RESULT:     -12.1      0.450      7.739
REMARK SMILES O=C(NCCCCNC(=O)c1cccnc1Nc1cccc(C(F)(F)F)c1)c1ccc(-c2c3nc(c(-c4cccc(S(=O)(=O)[O-])c4F)c4ccc([nH]4)c(-c4cccc(S(=O)(=O)[O-])c4F)c4nc(c(-c5cccc(S(=O)(=O)[O-])c5F)c5ccc2[nH]5)C=C4)C=C3)cc1
REMARK SMILES IDX 5 1 4 2 3 3 1 4 2 5 28 7 29 8 90 9 30 10 89 11 31 12 32 13
REMARK SMILES IDX 33 14 83 15 34 16 88 17 82 18 84 19 35 20 87 21 81 22 80 23
REMARK SMILES IDX 36 25 68 26 48 27 67 28 49 29 52 30 66 31 85 32 50 33 51 34
REMARK SMILES IDX 65 36 86 37 53 38 37 39 38 40 46 41 39 42 41 43 47 44 40 45
REMARK SMILES IDX 42 46 43 47 44 48 45 49 69 50 70 51 78 52 71 53 73 54 79 55
REMARK SMILES IDX 72 56 74 57 75 58 76 59 77 60 54 61 55 62 63 63 56 64 58 65
REMARK SMILES IDX 64 66 57 67 59 68 60 69 61 70 62 71 6 72 7 73 8 74 9 75
REMARK SMILES IDX 10 77 11 78 12 79 16 80 13 81 15 82 14 83 17 84 18 86 19 87
REMARK SMILES IDX 27 88 20 89 22 90 21 91 23 92 24 93 25 94 26 95
REMARK H PARENT 3 6 84 24 52 35 8 76 17 85
REMARK Flexibility Score: inf
ROOT
ATOM      1  C   UNL A   1      31.449  31.995  26.510  1.00  0.00     0.023 C 
ENDROOT
BRANCH   1   2
ATOM      2  C   UNL A   1      32.661  32.485  27.295  1.00  0.00     0.116 C 
BRANCH   2   3
ATOM      3  N   UNL A   1      32.577  33.899  27.625  1.00  0.00    -0.352 N 
ATOM      4  O   UNL A   1      32.909  35.768  28.830  1.00  0.00    -0.269 OA
ATOM      5  C   UNL A   1      33.250  34.613  28.586  1.00  0.00     0.251 C 
ATOM      6  H   UNL A   1      31.945  34.421  27.079  1.00  0.00     0.163 HD
BRANCH   5   7
ATOM      7  C   UNL A   1      34.356  33.981  29.334  1.00  0.00     0.039 A 
ATOM      8  C   UNL A   1      35.689  34.240  28.997  1.00  0.00     0.014 A 
ATOM      9  C   UNL A   1      34.053  33.122  30.392  1.00  0.00     0.014 A 
ATOM     10  C   UNL A   1      36.712  33.537  29.625  1.00  0.00     0.010 A 
ATOM     11  C   UNL A   1      35.086  32.476  31.073  1.00  0.00     0.010 A 
ATOM     12  C   UNL A   1      36.422  32.653  30.675  1.00  0.00    -0.014 A 
BRANCH  12  13
ATOM     13  C   UNL A   1      37.515  31.960  31.398  1.00  0.00     0.031 A 
ATOM     14  C   UNL A   1      38.000  32.463  32.727  1.00  0.00     0.074 A 
ATOM     15  C   UNL A   1      38.118  30.906  30.814  1.00  0.00     0.049 A 
ATOM     16  N   UNL A   1      39.006  32.046  33.451  1.00  0.00    -0.248 NA
ATOM     17  C   UNL A   1      37.263  33.593  33.318  1.00  0.00     0.031 C 
ATOM     18  C   UNL A   1      37.755  30.348  29.510  1.00  0.00     0.029 A 
ATOM     19  N   UNL A   1      39.183  30.142  31.220  1.00  0.00    -0.354 N 
ATOM     20  C   UNL A   1      39.061  32.889  34.553  1.00  0.00     0.074 A 
ATOM     21  C   UNL A   1      37.983  33.844  34.404  1.00  0.00     0.031 C 
ATOM     22  C   UNL A   1      38.594  29.348  29.213  1.00  0.00     0.029 A 
ATOM     23  C   UNL A   1      39.588  29.231  30.274  1.00  0.00     0.049 A 
ATOM     24  H   UNL A   1      39.614  30.238  32.100  1.00  0.00     0.167 HD
ATOM     25  C   UNL A   1      39.926  32.866  35.596  1.00  0.00     0.034 A 
ATOM     26  C   UNL A   1      40.664  28.423  30.236  1.00  0.00     0.034 A 
ATOM     27  C   UNL A   1      40.984  31.900  35.740  1.00  0.00     0.049 A 
ATOM     28  C   UNL A   1      41.612  28.412  31.400  1.00  0.00     0.074 A 
ATOM     29  C   UNL A   1      41.865  31.743  36.795  1.00  0.00     0.029 A 
ATOM     30  N   UNL A   1      41.320  30.945  34.793  1.00  0.00    -0.354 N 
ATOM     31  N   UNL A   1      41.573  29.130  32.496  1.00  0.00    -0.248 NA
ATOM     32  C   UNL A   1      42.730  27.462  31.342  1.00  0.00     0.031 C 
ATOM     33  C   UNL A   1      42.760  30.719  36.467  1.00  0.00     0.029 A 
ATOM     34  C   UNL A   1      42.407  30.207  35.228  1.00  0.00     0.049 A 
ATOM     35  H   UNL A   1      40.853  30.811  33.936  1.00  0.00     0.167 HD
ATOM     36  C   UNL A   1      42.638  28.696  33.274  1.00  0.00     0.074 A 
ATOM     37  C   UNL A   1      43.301  27.648  32.525  1.00  0.00     0.031 C 
ATOM     38  C   UNL A   1      43.029  29.131  34.497  1.00  0.00     0.034 A 
BRANCH  25  39
ATOM     39  C   UNL A   1      39.762  33.915  36.666  1.00  0.00     0.023 A 
ATOM     40  C   UNL A   1      40.082  35.260  36.389  1.00  0.00     0.012 A 
ATOM     41  C   UNL A   1      39.257  33.574  37.937  1.00  0.00     0.148 A 
ATOM     42  C   UNL A   1      39.949  36.239  37.374  1.00  0.00     0.002 A 
ATOM     43  C   UNL A   1      39.083  34.564  38.898  1.00  0.00     0.091 A 
ATOM     44  F   UNL A   1      38.975  32.289  38.192  1.00  0.00    -0.205 F 
ATOM     45  C   UNL A   1      39.442  35.893  38.623  1.00  0.00     0.022 A 
BRANCH  43  46
ATOM     46  S   UNL A   1      38.358  34.226  40.506  1.00  0.00     0.127 S 
ATOM     47  O   UNL A   1      37.165  33.465  40.137  1.00  0.00    -0.237 OA
ATOM     48  O   UNL A   1      39.404  33.438  41.159  1.00  0.00    -0.237 OA
ATOM     49  O   UNL A   1      38.113  35.526  41.114  1.00  0.00    -0.744 OA
ENDBRANCH  43  46
ENDBRANCH  25  39
BRANCH  26  50
ATOM     50  C   UNL A   1      40.869  27.549  29.049  1.00  0.00     0.023 A 
ATOM     51  C   UNL A   1      40.111  26.372  28.911  1.00  0.00     0.012 A 
ATOM     52  C   UNL A   1      41.743  27.935  28.013  1.00  0.00     0.148 A 
ATOM     53  C   UNL A   1      40.229  25.585  27.766  1.00  0.00     0.002 A 
ATOM     54  C   UNL A   1      41.813  27.177  26.850  1.00  0.00     0.091 A 
ATOM     55  F   UNL A   1      42.455  29.060  28.170  1.00  0.00    -0.205 F 
ATOM     56  C   UNL A   1      41.068  25.994  26.732  1.00  0.00     0.022 A 
BRANCH  54  57
ATOM     57  S   UNL A   1      42.751  27.699  25.411  1.00  0.00     0.127 S 
ATOM     58  O   UNL A   1      42.789  26.472  24.619  1.00  0.00    -0.237 OA
ATOM     59  O   UNL A   1      41.899  28.757  24.868  1.00  0.00    -0.237 OA
ATOM     60  O   UNL A   1      44.036  28.158  25.918  1.00  0.00    -0.744 OA
ENDBRANCH  54  57
ENDBRANCH  26  50
BRANCH  38  61
ATOM     61  C   UNL A   1      44.198  28.443  35.150  1.00  0.00     0.023 A 
ATOM     62  C   UNL A   1      45.512  28.878  34.891  1.00  0.00     0.012 A 
ATOM     63  C   UNL A   1      43.977  27.442  36.118  1.00  0.00     0.148 A 
ATOM     64  C   UNL A   1      46.590  28.314  35.572  1.00  0.00     0.002 A 
ATOM     65  C   UNL A   1      45.049  26.922  36.829  1.00  0.00     0.091 A 
ATOM     66  F   UNL A   1      42.718  27.031  36.334  1.00  0.00    -0.205 F 
ATOM     67  C   UNL A   1      46.359  27.350  36.552  1.00  0.00     0.022 A 
BRANCH  65  68
ATOM     68  S   UNL A   1      44.838  25.755  38.179  1.00  0.00     0.127 S 
ATOM     69  O   UNL A   1      44.227  24.616  37.494  1.00  0.00    -0.237 OA
ATOM     70  O   UNL A   1      46.217  25.536  38.615  1.00  0.00    -0.237 OA
ATOM     71  O   UNL A   1      43.988  26.417  39.158  1.00  0.00    -0.744 OA
ENDBRANCH  65  68
ENDBRANCH  38  61
ENDBRANCH  12  13
ENDBRANCH   5   7
ENDBRANCH   2   3
ENDBRANCH   1   2
BRANCH   1  72
ATOM     72  C   UNL A   1      31.546  30.558  25.998  1.00  0.00     0.023 C 
BRANCH  72  73
ATOM     73  C   UNL A   1      32.955  29.972  25.981  1.00  0.00     0.116 C 
BRANCH  73  74
ATOM     74  N   UNL A   1      33.448  29.767  24.628  1.00  0.00    -0.352 N 
ATOM     75  C   UNL A   1      33.663  28.587  23.962  1.00  0.00     0.255 C 
ATOM     76  H   UNL A   1      33.655  30.586  24.122  1.00  0.00     0.163 HD
ATOM     77  O   UNL A   1      34.314  28.575  22.920  1.00  0.00    -0.269 OA
BRANCH  75  78
ATOM     78  C   UNL A   1      33.136  27.320  24.500  1.00  0.00     0.082 A 
ATOM     79  C   UNL A   1      33.839  26.636  25.502  1.00  0.00     0.019 A 
ATOM     80  C   UNL A   1      31.900  26.825  24.065  1.00  0.00     0.143 A 
ATOM     81  C   UNL A   1      33.354  25.423  25.970  1.00  0.00     0.021 A 
ATOM     82  N   UNL A   1      31.436  25.634  24.528  1.00  0.00    -0.238 NA
ATOM     83  C   UNL A   1      32.164  24.961  25.446  1.00  0.00     0.113 A 
BRANCH  80  84
ATOM     84  N   UNL A   1      31.159  27.492  23.067  1.00  0.00    -0.340 N 
ATOM     85  H   UNL A   1      31.587  27.583  22.185  1.00  0.00     0.168 HD
BRANCH  84  86
ATOM     86  C   UNL A   1      29.872  28.042  23.200  1.00  0.00     0.040 A 
ATOM     87  C   UNL A   1      28.775  27.201  23.399  1.00  0.00     0.026 A 
ATOM     88  C   UNL A   1      29.649  29.416  23.047  1.00  0.00     0.039 A 
ATOM     89  C   UNL A   1      27.487  27.727  23.516  1.00  0.00     0.003 A 
ATOM     90  C   UNL A   1      28.360  29.960  23.141  1.00  0.00     0.058 A 
ATOM     91  C   UNL A   1      27.280  29.101  23.392  1.00  0.00     0.013 A 
BRANCH  90  92
ATOM     92  C   UNL A   1      28.135  31.439  22.978  1.00  0.00     0.416 C 
ATOM     93  F   UNL A   1      29.212  32.177  23.372  1.00  0.00    -0.166 F 
ATOM     94  F   UNL A   1      27.900  31.795  21.683  1.00  0.00    -0.166 F 
ATOM     95  F   UNL A   1      27.080  31.924  23.691  1.00  0.00    -0.166 F 
ENDBRANCH  90  92
ENDBRANCH  84  86
ENDBRANCH  80  84
ENDBRANCH  75  78
ENDBRANCH  73  74
ENDBRANCH  72  73
ENDBRANCH   1  72
TORSDOF 17
ENDMDL
