MODEL 1
REMARK VINA RESULT:     -12.9      0.000      0.000
REMARK SMILES NC(=O)c1ccccc1NC(=O)[C@@H]1CC=CC[C@@H]1C(=O)NCCCCNC(=O)c1ccc(-c2c3nc(c(-c4cccc(S(=O)(=O)[O-])c4F)c4ccc([nH]4)c(-c4cccc(S(=O)(=O)[O-])c4F)c4nc(c(-c5cccc(S(=O)(=O)[O-])c5F)c5ccc2[nH]5)C=C4)C=C3)cc1
REMARK SMILES IDX 23 1 22 2 21 3 19 4 20 5 18 7 13 8 14 9 15 10 17 11 16 12
REMARK SMILES IDX 11 13 10 14 12 16 9 17 4 18 5 19 6 20 8 21 7 22 2 23 1 24
REMARK SMILES IDX 3 27 24 28 25 29 26 30 27 31 28 33 29 34 30 35 91 36 31 37
REMARK SMILES IDX 90 38 32 39 33 40 34 41 84 42 35 43 89 44 83 45 85 46 36 47
REMARK SMILES IDX 88 48 82 49 81 50 37 52 69 53 49 54 68 55 50 56 53 57 67 58
REMARK SMILES IDX 86 59 51 60 52 61 66 63 87 64 54 65 38 66 39 67 47 68 40 69
REMARK SMILES IDX 42 70 48 71 41 72 43 73 44 74 45 75 46 76 70 77 71 78 79 79
REMARK SMILES IDX 72 80 74 81 80 82 73 83 75 84 76 85 77 86 78 87 55 88 56 89
REMARK SMILES IDX 64 90 57 91 59 92 65 93 58 94 60 95 61 96 62 97 63 98
REMARK H PARENT 21 6 10 15 1 25 1 26 26 32 85 51 53 62
REMARK Flexibility Score: inf
ROOT
ATOM      1  C   UNL A   1      32.046  27.370  26.998  1.00  0.00     0.023 C 
ENDROOT
BRANCH   1   2
ATOM      2  C   UNL A   1      30.978  26.320  26.700  1.00  0.00     0.116 C 
BRANCH   2   3
ATOM      3  N   UNL A   1      31.472  24.966  26.806  1.00  0.00    -0.356 N 
ATOM      4  C   UNL A   1      32.460  24.260  26.215  1.00  0.00     0.224 C 
ATOM      5  O   UNL A   1      32.664  23.142  26.717  1.00  0.00    -0.275 OA
ATOM      6  H   UNL A   1      30.970  24.432  27.464  1.00  0.00     0.163 HD
BRANCH   4   7
ATOM      7  C   UNL A   1      33.256  24.627  24.948  1.00  0.00     0.095 C 
ATOM      8  C   UNL A   1      33.451  23.665  23.743  1.00  0.00     0.095 C 
ATOM      9  C   UNL A   1      34.591  22.656  23.995  1.00  0.00     0.041 C 
ATOM     10  C   UNL A   1      35.611  23.015  25.034  1.00  0.00    -0.030 C 
ATOM     11  C   UNL A   1      34.596  25.236  25.408  1.00  0.00     0.041 C 
ATOM     12  C   UNL A   1      35.638  24.196  25.656  1.00  0.00    -0.030 C 
BRANCH   8  13
ATOM     13  C   UNL A   1      32.071  23.177  23.247  1.00  0.00     0.228 C 
ATOM     14  N   UNL A   1      31.013  23.945  22.871  1.00  0.00    -0.325 N 
ATOM     15  H   UNL A   1      30.269  23.406  22.518  1.00  0.00     0.169 HD
ATOM     16  O   UNL A   1      31.847  21.959  23.179  1.00  0.00    -0.274 OA
BRANCH  14  17
ATOM     17  C   UNL A   1      30.722  25.321  22.860  1.00  0.00     0.053 A 
ATOM     18  C   UNL A   1      31.543  26.208  22.133  1.00  0.00     0.063 A 
ATOM     19  C   UNL A   1      31.482  27.587  22.388  1.00  0.00     0.016 A 
ATOM     20  C   UNL A   1      30.540  28.094  23.279  1.00  0.00     0.001 A 
ATOM     21  C   UNL A   1      29.666  25.863  23.582  1.00  0.00     0.027 A 
ATOM     22  C   UNL A   1      29.599  27.236  23.834  1.00  0.00     0.002 A 
BRANCH  18  23
ATOM     23  C   UNL A   1      32.491  25.775  21.073  1.00  0.00     0.250 C 
ATOM     24  N   UNL A   1      31.966  25.530  19.834  1.00  0.00    -0.366 N 
ATOM     25  H   UNL A   1      32.553  25.241  19.098  1.00  0.00     0.159 HD
ATOM     26  H   UNL A   1      31.000  25.644  19.677  1.00  0.00     0.159 HD
ATOM     27  O   UNL A   1      33.699  25.715  21.265  1.00  0.00    -0.269 OA
ENDBRANCH  18  23
ENDBRANCH  14  17
ENDBRANCH   8  13
ENDBRANCH   4   7
ENDBRANCH   2   3
ENDBRANCH   1   2
BRANCH   1  28
ATOM     28  C   UNL A   1      31.600  28.812  26.802  1.00  0.00     0.023 C 
BRANCH  28  29
ATOM     29  C   UNL A   1      32.690  29.759  26.321  1.00  0.00     0.116 C 
BRANCH  29  30
ATOM     30  N   UNL A   1      32.468  31.160  26.659  1.00  0.00    -0.352 N 
ATOM     31  C   UNL A   1      33.325  32.001  27.339  1.00  0.00     0.251 C 
ATOM     32  H   UNL A   1      31.612  31.550  26.370  1.00  0.00     0.163 HD
ATOM     33  O   UNL A   1      32.981  33.137  27.644  1.00  0.00    -0.269 OA
BRANCH  31  34
ATOM     34  C   UNL A   1      34.644  31.471  27.745  1.00  0.00     0.039 A 
ATOM     35  C   UNL A   1      35.690  32.366  27.972  1.00  0.00     0.014 A 
ATOM     36  C   UNL A   1      34.795  30.113  28.034  1.00  0.00     0.014 A 
ATOM     37  C   UNL A   1      36.863  31.906  28.571  1.00  0.00     0.010 A 
ATOM     38  C   UNL A   1      35.918  29.681  28.728  1.00  0.00     0.010 A 
ATOM     39  C   UNL A   1      36.968  30.571  29.002  1.00  0.00    -0.014 A 
BRANCH  39  40
ATOM     40  C   UNL A   1      38.160  30.100  29.752  1.00  0.00     0.031 A 
ATOM     41  C   UNL A   1      38.403  30.568  31.162  1.00  0.00     0.074 A 
ATOM     42  C   UNL A   1      39.063  29.307  29.140  1.00  0.00     0.049 A 
ATOM     43  N   UNL A   1      39.381  30.260  31.974  1.00  0.00    -0.248 NA
ATOM     44  C   UNL A   1      37.440  31.528  31.727  1.00  0.00     0.031 C 
ATOM     45  C   UNL A   1      38.998  28.868  27.744  1.00  0.00     0.029 A 
ATOM     46  N   UNL A   1      40.222  28.739  29.610  1.00  0.00    -0.354 N 
ATOM     47  C   UNL A   1      39.171  31.010  33.124  1.00  0.00     0.074 A 
ATOM     48  C   UNL A   1      38.000  31.824  32.891  1.00  0.00     0.031 C 
ATOM     49  C   UNL A   1      40.055  28.083  27.477  1.00  0.00     0.029 A 
ATOM     50  C   UNL A   1      40.889  27.986  28.671  1.00  0.00     0.049 A 
ATOM     51  H   UNL A   1      40.545  28.860  30.532  1.00  0.00     0.167 HD
ATOM     52  C   UNL A   1      39.865  30.997  34.286  1.00  0.00     0.034 A 
ATOM     53  C   UNL A   1      42.043  27.296  28.760  1.00  0.00     0.034 A 
ATOM     54  C   UNL A   1      41.007  30.158  34.529  1.00  0.00     0.049 A 
ATOM     55  C   UNL A   1      42.769  27.260  30.077  1.00  0.00     0.074 A 
ATOM     56  C   UNL A   1      41.722  29.998  35.702  1.00  0.00     0.029 A 
ATOM     57  N   UNL A   1      41.610  29.348  33.579  1.00  0.00    -0.354 N 
ATOM     58  N   UNL A   1      42.454  27.837  31.211  1.00  0.00    -0.248 NA
ATOM     59  C   UNL A   1      43.992  26.445  30.140  1.00  0.00     0.031 C 
ATOM     60  C   UNL A   1      42.780  29.119  35.451  1.00  0.00     0.029 A 
ATOM     61  C   UNL A   1      42.698  28.698  34.133  1.00  0.00     0.049 A 
ATOM     62  H   UNL A   1      41.307  29.250  32.647  1.00  0.00     0.167 HD
ATOM     63  C   UNL A   1      43.416  27.430  32.128  1.00  0.00     0.074 A 
ATOM     64  C   UNL A   1      44.311  26.535  31.424  1.00  0.00     0.031 C 
ATOM     65  C   UNL A   1      43.556  27.778  33.431  1.00  0.00     0.034 A 
BRANCH  52  66
ATOM     66  C   UNL A   1      39.379  31.887  35.401  1.00  0.00     0.023 A 
ATOM     67  C   UNL A   1      38.475  31.377  36.358  1.00  0.00     0.012 A 
ATOM     68  C   UNL A   1      39.852  33.206  35.533  1.00  0.00     0.148 A 
ATOM     69  C   UNL A   1      38.020  32.179  37.404  1.00  0.00     0.002 A 
ATOM     70  C   UNL A   1      39.433  33.982  36.608  1.00  0.00     0.091 A 
ATOM     71  F   UNL A   1      40.694  33.680  34.604  1.00  0.00    -0.205 F 
ATOM     72  C   UNL A   1      38.506  33.477  37.534  1.00  0.00     0.022 A 
BRANCH  70  73
ATOM     73  S   UNL A   1      40.065  35.635  36.914  1.00  0.00     0.127 S 
ATOM     74  O   UNL A   1      39.591  36.356  35.733  1.00  0.00    -0.237 OA
ATOM     75  O   UNL A   1      39.388  35.995  38.161  1.00  0.00    -0.237 OA
ATOM     76  O   UNL A   1      41.511  35.501  37.023  1.00  0.00    -0.744 OA
ENDBRANCH  70  73
ENDBRANCH  52  66
BRANCH  53  77
ATOM     77  C   UNL A   1      42.550  26.531  27.585  1.00  0.00     0.023 A 
ATOM     78  C   UNL A   1      43.411  27.158  26.662  1.00  0.00     0.012 A 
ATOM     79  C   UNL A   1      42.200  25.181  27.386  1.00  0.00     0.148 A 
ATOM     80  C   UNL A   1      43.883  26.469  25.545  1.00  0.00     0.002 A 
ATOM     81  C   UNL A   1      42.720  24.483  26.303  1.00  0.00     0.091 A 
ATOM     82  F   UNL A   1      41.373  24.604  28.269  1.00  0.00    -0.205 F 
ATOM     83  C   UNL A   1      43.546  25.130  25.370  1.00  0.00     0.022 A 
BRANCH  81  84
ATOM     84  S   UNL A   1      42.448  22.723  26.071  1.00  0.00     0.127 S 
ATOM     85  O   UNL A   1      43.061  22.495  24.765  1.00  0.00    -0.237 OA
ATOM     86  O   UNL A   1      43.180  22.154  27.204  1.00  0.00    -0.237 OA
ATOM     87  O   UNL A   1      41.005  22.535  26.134  1.00  0.00    -0.744 OA
ENDBRANCH  81  84
ENDBRANCH  53  77
BRANCH  65  88
ATOM     88  C   UNL A   1      44.700  27.163  34.197  1.00  0.00     0.023 A 
ATOM     89  C   UNL A   1      45.940  27.828  34.265  1.00  0.00     0.012 A 
ATOM     90  C   UNL A   1      44.524  25.954  34.898  1.00  0.00     0.148 A 
ATOM     91  C   UNL A   1      47.001  27.278  34.984  1.00  0.00     0.002 A 
ATOM     92  C   UNL A   1      45.567  25.439  35.658  1.00  0.00     0.091 A 
ATOM     93  F   UNL A   1      43.342  25.328  34.808  1.00  0.00    -0.205 F 
ATOM     94  C   UNL A   1      46.811  26.091  35.689  1.00  0.00     0.022 A 
BRANCH  92  95
ATOM     95  S   UNL A   1      45.385  23.972  36.676  1.00  0.00     0.127 S 
ATOM     96  O   UNL A   1      44.654  24.499  37.828  1.00  0.00    -0.237 OA
ATOM     97  O   UNL A   1      44.605  23.088  35.811  1.00  0.00    -0.237 OA
ATOM     98  O   UNL A   1      46.737  23.506  36.956  1.00  0.00    -0.744 OA
ENDBRANCH  92  95
ENDBRANCH  65  88
ENDBRANCH  39  40
ENDBRANCH  31  34
ENDBRANCH  29  30
ENDBRANCH  28  29
ENDBRANCH   1  28
TORSDOF 17
ENDMDL
MODEL 2
REMARK VINA RESULT:     -12.7      1.125      2.656
REMARK SMILES NC(=O)c1ccccc1NC(=O)[C@@H]1CC=CC[C@@H]1C(=O)NCCCCNC(=O)c1ccc(-c2c3nc(c(-c4cccc(S(=O)(=O)[O-])c4F)c4ccc([nH]4)c(-c4cccc(S(=O)(=O)[O-])c4F)c4nc(c(-c5cccc(S(=O)(=O)[O-])c5F)c5ccc2[nH]5)C=C4)C=C3)cc1
REMARK SMILES IDX 23 1 22 2 21 3 19 4 20 5 18 7 13 8 14 9 15 10 17 11 16 12
REMARK SMILES IDX 11 13 10 14 12 16 9 17 4 18 5 19 6 20 8 21 7 22 2 23 1 24
REMARK SMILES IDX 3 27 24 28 25 29 26 30 27 31 28 33 29 34 30 35 91 36 31 37
REMARK SMILES IDX 90 38 32 39 33 40 34 41 84 42 35 43 89 44 83 45 85 46 36 47
REMARK SMILES IDX 88 48 82 49 81 50 37 52 69 53 49 54 68 55 50 56 53 57 67 58
REMARK SMILES IDX 86 59 51 60 52 61 66 63 87 64 54 65 38 66 39 67 47 68 40 69
REMARK SMILES IDX 42 70 48 71 41 72 43 73 44 74 45 75 46 76 70 77 71 78 79 79
REMARK SMILES IDX 72 80 74 81 80 82 73 83 75 84 76 85 77 86 78 87 55 88 56 89
REMARK SMILES IDX 64 90 57 91 59 92 65 93 58 94 60 95 61 96 62 97 63 98
REMARK H PARENT 21 6 10 15 1 25 1 26 26 32 85 51 53 62
REMARK Flexibility Score: inf
ROOT
ATOM      1  C   UNL A   1      32.861  29.312  24.182  1.00  0.00     0.023 C 
ENDROOT
BRANCH   1   2
ATOM      2  C   UNL A   1      33.449  27.914  23.999  1.00  0.00     0.116 C 
BRANCH   2   3
ATOM      3  N   UNL A   1      33.245  27.061  25.146  1.00  0.00    -0.356 N 
ATOM      4  C   UNL A   1      32.657  25.863  25.354  1.00  0.00     0.224 C 
ATOM      5  O   UNL A   1      32.843  25.389  26.488  1.00  0.00    -0.275 OA
ATOM      6  H   UNL A   1      33.622  27.442  25.972  1.00  0.00     0.163 HD
BRANCH   4   7
ATOM      7  C   UNL A   1      31.709  25.098  24.410  1.00  0.00     0.095 C 
ATOM      8  C   UNL A   1      31.835  25.114  22.862  1.00  0.00     0.095 C 
ATOM      9  C   UNL A   1      31.197  26.379  22.248  1.00  0.00     0.041 C 
ATOM     10  C   UNL A   1      30.179  27.106  23.075  1.00  0.00    -0.030 C 
ATOM     11  C   UNL A   1      30.267  25.403  24.863  1.00  0.00     0.041 C 
ATOM     12  C   UNL A   1      29.730  26.653  24.248  1.00  0.00    -0.030 C 
BRANCH   8  13
ATOM     13  C   UNL A   1      33.266  24.688  22.460  1.00  0.00     0.228 C 
ATOM     14  N   UNL A   1      33.884  23.510  22.744  1.00  0.00    -0.325 N 
ATOM     15  H   UNL A   1      34.766  23.440  22.313  1.00  0.00     0.169 HD
ATOM     16  O   UNL A   1      33.975  25.477  21.817  1.00  0.00    -0.274 OA
BRANCH  14  17
ATOM     17  C   UNL A   1      33.570  22.367  23.501  1.00  0.00     0.053 A 
ATOM     18  C   UNL A   1      34.301  22.076  24.671  1.00  0.00     0.063 A 
ATOM     19  C   UNL A   1      34.243  20.791  25.232  1.00  0.00     0.016 A 
ATOM     20  C   UNL A   1      33.384  19.833  24.701  1.00  0.00     0.001 A 
ATOM     21  C   UNL A   1      32.580  21.470  23.117  1.00  0.00     0.027 A 
ATOM     22  C   UNL A   1      32.516  20.191  23.677  1.00  0.00     0.002 A 
BRANCH  18  23
ATOM     23  C   UNL A   1      35.149  23.069  25.383  1.00  0.00     0.250 C 
ATOM     24  N   UNL A   1      35.050  23.102  26.747  1.00  0.00    -0.366 N 
ATOM     25  H   UNL A   1      35.591  23.742  27.265  1.00  0.00     0.159 HD
ATOM     26  H   UNL A   1      34.438  22.486  27.212  1.00  0.00     0.159 HD
ATOM     27  O   UNL A   1      35.962  23.771  24.796  1.00  0.00    -0.269 OA
ENDBRANCH  18  23
ENDBRANCH  14  17
ENDBRANCH   8  13
ENDBRANCH   4   7
ENDBRANCH   2   3
ENDBRANCH   1   2
BRANCH   1  28
ATOM     28  C   UNL A   1      31.867  29.444  25.327  1.00  0.00     0.023 C 
BRANCH  28  29
ATOM     29  C   UNL A   1      32.469  29.912  26.645  1.00  0.00     0.116 C 
BRANCH  29  30
ATOM     30  N   UNL A   1      32.344  31.343  26.894  1.00  0.00    -0.352 N 
ATOM     31  C   UNL A   1      33.276  32.173  27.482  1.00  0.00     0.251 C 
ATOM     32  H   UNL A   1      31.501  31.765  26.610  1.00  0.00     0.163 HD
ATOM     33  O   UNL A   1      33.014  33.346  27.720  1.00  0.00    -0.269 OA
BRANCH  31  34
ATOM     34  C   UNL A   1      34.577  31.591  27.875  1.00  0.00     0.039 A 
ATOM     35  C   UNL A   1      35.687  32.429  27.980  1.00  0.00     0.014 A 
ATOM     36  C   UNL A   1      34.655  30.254  28.272  1.00  0.00     0.014 A 
ATOM     37  C   UNL A   1      36.856  31.942  28.565  1.00  0.00     0.010 A 
ATOM     38  C   UNL A   1      35.781  29.806  28.952  1.00  0.00     0.010 A 
ATOM     39  C   UNL A   1      36.897  30.643  29.103  1.00  0.00    -0.014 A 
BRANCH  39  40
ATOM     40  C   UNL A   1      38.092  30.156  29.840  1.00  0.00     0.031 A 
ATOM     41  C   UNL A   1      38.376  30.648  31.234  1.00  0.00     0.074 A 
ATOM     42  C   UNL A   1      38.959  29.325  29.228  1.00  0.00     0.049 A 
ATOM     43  N   UNL A   1      39.363  30.332  32.032  1.00  0.00    -0.248 NA
ATOM     44  C   UNL A   1      37.452  31.646  31.796  1.00  0.00     0.031 C 
ATOM     45  C   UNL A   1      38.854  28.857  27.844  1.00  0.00     0.029 A 
ATOM     46  N   UNL A   1      40.112  28.736  29.687  1.00  0.00    -0.354 N 
ATOM     47  C   UNL A   1      39.197  31.112  33.169  1.00  0.00     0.074 A 
ATOM     48  C   UNL A   1      38.045  31.953  32.941  1.00  0.00     0.031 C 
ATOM     49  C   UNL A   1      39.883  28.037  27.574  1.00  0.00     0.029 A 
ATOM     50  C   UNL A   1      40.739  27.944  28.752  1.00  0.00     0.049 A 
ATOM     51  H   UNL A   1      40.458  28.868  30.599  1.00  0.00     0.167 HD
ATOM     52  C   UNL A   1      39.915  31.106  34.316  1.00  0.00     0.034 A 
ATOM     53  C   UNL A   1      41.876  27.224  28.833  1.00  0.00     0.034 A 
ATOM     54  C   UNL A   1      41.038  30.242  34.555  1.00  0.00     0.049 A 
ATOM     55  C   UNL A   1      42.628  27.198  30.136  1.00  0.00     0.074 A 
ATOM     56  C   UNL A   1      41.774  30.089  35.717  1.00  0.00     0.029 A 
ATOM     57  N   UNL A   1      41.599  29.395  33.612  1.00  0.00    -0.354 N 
ATOM     58  N   UNL A   1      42.352  27.809  31.262  1.00  0.00    -0.248 NA
ATOM     59  C   UNL A   1      43.829  26.351  30.191  1.00  0.00     0.031 C 
ATOM     60  C   UNL A   1      42.802  29.175  35.464  1.00  0.00     0.029 A 
ATOM     61  C   UNL A   1      42.681  28.728  34.158  1.00  0.00     0.049 A 
ATOM     62  H   UNL A   1      41.275  29.284  32.689  1.00  0.00     0.167 HD
ATOM     63  C   UNL A   1      43.322  27.396  32.169  1.00  0.00     0.074 A 
ATOM     64  C   UNL A   1      44.177  26.461  31.466  1.00  0.00     0.031 C 
ATOM     65  C   UNL A   1      43.499  27.769  33.460  1.00  0.00     0.034 A 
BRANCH  52  66
ATOM     66  C   UNL A   1      39.477  32.033  35.420  1.00  0.00     0.023 A 
ATOM     67  C   UNL A   1      38.573  31.573  36.402  1.00  0.00     0.012 A 
ATOM     68  C   UNL A   1      39.995  33.339  35.518  1.00  0.00     0.148 A 
ATOM     69  C   UNL A   1      38.161  32.411  37.439  1.00  0.00     0.002 A 
ATOM     70  C   UNL A   1      39.618  34.150  36.583  1.00  0.00     0.091 A 
ATOM     71  F   UNL A   1      40.836  33.766  34.566  1.00  0.00    -0.205 F 
ATOM     72  C   UNL A   1      38.692  33.694  37.534  1.00  0.00     0.022 A 
BRANCH  70  73
ATOM     73  S   UNL A   1      40.309  35.787  36.845  1.00  0.00     0.127 S 
ATOM     74  O   UNL A   1      39.658  36.555  35.785  1.00  0.00    -0.237 OA
ATOM     75  O   UNL A   1      39.847  36.101  38.198  1.00  0.00    -0.237 OA
ATOM     76  O   UNL A   1      41.752  35.643  36.713  1.00  0.00    -0.744 OA
ENDBRANCH  70  73
ENDBRANCH  52  66
BRANCH  53  77
ATOM     77  C   UNL A   1      42.337  26.420  27.666  1.00  0.00     0.023 A 
ATOM     78  C   UNL A   1      43.177  27.009  26.700  1.00  0.00     0.012 A 
ATOM     79  C   UNL A   1      41.964  25.070  27.516  1.00  0.00     0.148 A 
ATOM     80  C   UNL A   1      43.605  26.283  25.589  1.00  0.00     0.002 A 
ATOM     81  C   UNL A   1      42.442  24.335  26.438  1.00  0.00     0.091 A 
ATOM     82  F   UNL A   1      41.157  24.530  28.440  1.00  0.00    -0.205 F 
ATOM     83  C   UNL A   1      43.247  24.944  25.463  1.00  0.00     0.022 A 
BRANCH  81  84
ATOM     84  S   UNL A   1      42.141  22.572  26.265  1.00  0.00     0.127 S 
ATOM     85  O   UNL A   1      42.804  22.278  24.998  1.00  0.00    -0.237 OA
ATOM     86  O   UNL A   1      42.811  22.036  27.451  1.00  0.00    -0.237 OA
ATOM     87  O   UNL A   1      40.693  22.417  26.272  1.00  0.00    -0.744 OA
ENDBRANCH  81  84
ENDBRANCH  53  77
BRANCH  65  88
ATOM     88  C   UNL A   1      44.641  27.140  34.216  1.00  0.00     0.023 A 
ATOM     89  C   UNL A   1      45.896  27.780  34.258  1.00  0.00     0.012 A 
ATOM     90  C   UNL A   1      44.452  25.943  34.934  1.00  0.00     0.148 A 
ATOM     91  C   UNL A   1      46.956  27.217  34.968  1.00  0.00     0.002 A 
ATOM     92  C   UNL A   1      45.496  25.416  35.684  1.00  0.00     0.091 A 
ATOM     93  F   UNL A   1      43.256  25.340  34.869  1.00  0.00    -0.205 F 
ATOM     94  C   UNL A   1      46.753  26.043  35.690  1.00  0.00     0.022 A 
BRANCH  92  95
ATOM     95  S   UNL A   1      45.300  23.965  36.723  1.00  0.00     0.127 S 
ATOM     96  O   UNL A   1      46.670  23.739  37.182  1.00  0.00    -0.237 OA
ATOM     97  O   UNL A   1      44.381  24.445  37.757  1.00  0.00    -0.237 OA
ATOM     98  O   UNL A   1      44.750  22.926  35.863  1.00  0.00    -0.744 OA
ENDBRANCH  92  95
ENDBRANCH  65  88
ENDBRANCH  39  40
ENDBRANCH  31  34
ENDBRANCH  29  30
ENDBRANCH  28  29
ENDBRANCH   1  28
TORSDOF 17
ENDMDL
MODEL 3
REMARK VINA RESULT:     -12.4      1.776      2.942
REMARK SMILES NC(=O)c1ccccc1NC(=O)[C@@H]1CC=CC[C@@H]1C(=O)NCCCCNC(=O)c1ccc(-c2c3nc(c(-c4cccc(S(=O)(=O)[O-])c4F)c4ccc([nH]4)c(-c4cccc(S(=O)(=O)[O-])c4F)c4nc(c(-c5cccc(S(=O)(=O)[O-])c5F)c5ccc2[nH]5)C=C4)C=C3)cc1
REMARK SMILES IDX 23 1 22 2 21 3 19 4 20 5 18 7 13 8 14 9 15 10 17 11 16 12
REMARK SMILES IDX 11 13 10 14 12 16 9 17 4 18 5 19 6 20 8 21 7 22 2 23 1 24
REMARK SMILES IDX 3 27 24 28 25 29 26 30 27 31 28 33 29 34 30 35 91 36 31 37
REMARK SMILES IDX 90 38 32 39 33 40 34 41 84 42 35 43 89 44 83 45 85 46 36 47
REMARK SMILES IDX 88 48 82 49 81 50 37 52 69 53 49 54 68 55 50 56 53 57 67 58
REMARK SMILES IDX 86 59 51 60 52 61 66 63 87 64 54 65 38 66 39 67 47 68 40 69
REMARK SMILES IDX 42 70 48 71 41 72 43 73 44 74 45 75 46 76 70 77 71 78 79 79
REMARK SMILES IDX 72 80 74 81 80 82 73 83 75 84 76 85 77 86 78 87 55 88 56 89
REMARK SMILES IDX 64 90 57 91 59 92 65 93 58 94 60 95 61 96 62 97 63 98
REMARK H PARENT 21 6 10 15 1 25 1 26 26 32 85 51 53 62
REMARK Flexibility Score: inf
ROOT
ATOM      1  C   UNL A   1      32.426  27.805  24.793  1.00  0.00     0.023 C 
ENDROOT
BRANCH   1   2
ATOM      2  C   UNL A   1      33.610  26.878  24.525  1.00  0.00     0.116 C 
BRANCH   2   3
ATOM      3  N   UNL A   1      33.648  25.740  25.414  1.00  0.00    -0.356 N 
ATOM      4  C   UNL A   1      34.414  24.633  25.518  1.00  0.00     0.224 C 
ATOM      5  O   UNL A   1      34.217  23.966  26.547  1.00  0.00    -0.275 OA
ATOM      6  H   UNL A   1      32.951  25.781  26.109  1.00  0.00     0.163 HD
BRANCH   4   7
ATOM      7  C   UNL A   1      35.390  24.058  24.473  1.00  0.00     0.095 C 
ATOM      8  C   UNL A   1      35.082  22.811  23.598  1.00  0.00     0.095 C 
ATOM      9  C   UNL A   1      35.349  21.496  24.362  1.00  0.00     0.041 C 
ATOM     10  C   UNL A   1      36.270  21.561  25.544  1.00  0.00    -0.030 C 
ATOM     11  C   UNL A   1      36.772  23.947  25.148  1.00  0.00     0.041 C 
ATOM     12  C   UNL A   1      36.943  22.662  25.888  1.00  0.00    -0.030 C 
BRANCH   8  13
ATOM     13  C   UNL A   1      33.744  23.025  22.854  1.00  0.00     0.228 C 
ATOM     14  N   UNL A   1      32.676  22.183  22.824  1.00  0.00    -0.325 N 
ATOM     15  H   UNL A   1      31.909  22.573  22.347  1.00  0.00     0.169 HD
ATOM     16  O   UNL A   1      33.581  24.056  22.185  1.00  0.00    -0.274 OA
BRANCH  14  17
ATOM     17  C   UNL A   1      32.398  20.892  23.310  1.00  0.00     0.053 A 
ATOM     18  C   UNL A   1      32.175  20.692  24.688  1.00  0.00     0.063 A 
ATOM     19  C   UNL A   1      32.245  19.398  25.228  1.00  0.00     0.016 A 
ATOM     20  C   UNL A   1      32.426  18.300  24.392  1.00  0.00     0.001 A 
ATOM     21  C   UNL A   1      32.374  19.776  22.482  1.00  0.00     0.027 A 
ATOM     22  C   UNL A   1      32.438  18.486  23.015  1.00  0.00     0.002 A 
BRANCH  18  23
ATOM     23  C   UNL A   1      31.851  21.788  25.640  1.00  0.00     0.250 C 
ATOM     24  N   UNL A   1      32.415  21.713  26.884  1.00  0.00    -0.366 N 
ATOM     25  H   UNL A   1      32.231  22.414  27.550  1.00  0.00     0.159 HD
ATOM     26  H   UNL A   1      33.006  20.959  27.113  1.00  0.00     0.159 HD
ATOM     27  O   UNL A   1      31.180  22.758  25.312  1.00  0.00    -0.269 OA
ENDBRANCH  18  23
ENDBRANCH  14  17
ENDBRANCH   8  13
ENDBRANCH   4   7
ENDBRANCH   2   3
ENDBRANCH   1   2
BRANCH   1  28
ATOM     28  C   UNL A   1      32.800  29.239  25.139  1.00  0.00     0.023 C 
BRANCH  28  29
ATOM     29  C   UNL A   1      32.536  29.639  26.584  1.00  0.00     0.116 C 
BRANCH  29  30
ATOM     30  N   UNL A   1      32.369  31.071  26.796  1.00  0.00    -0.352 N 
ATOM     31  C   UNL A   1      33.282  31.946  27.347  1.00  0.00     0.251 C 
ATOM     32  H   UNL A   1      31.509  31.458  26.513  1.00  0.00     0.163 HD
ATOM     33  O   UNL A   1      32.985  33.117  27.558  1.00  0.00    -0.269 OA
BRANCH  31  34
ATOM     34  C   UNL A   1      34.606  31.417  27.737  1.00  0.00     0.039 A 
ATOM     35  C   UNL A   1      35.661  32.310  27.926  1.00  0.00     0.014 A 
ATOM     36  C   UNL A   1      34.755  30.063  28.048  1.00  0.00     0.014 A 
ATOM     37  C   UNL A   1      36.843  31.855  28.510  1.00  0.00     0.010 A 
ATOM     38  C   UNL A   1      35.890  29.638  28.728  1.00  0.00     0.010 A 
ATOM     39  C   UNL A   1      36.950  30.527  28.963  1.00  0.00    -0.014 A 
BRANCH  39  40
ATOM     40  C   UNL A   1      38.155  30.064  29.699  1.00  0.00     0.031 A 
ATOM     41  C   UNL A   1      38.425  30.552  31.097  1.00  0.00     0.074 A 
ATOM     42  C   UNL A   1      39.043  29.258  29.083  1.00  0.00     0.049 A 
ATOM     43  N   UNL A   1      39.417  30.253  31.895  1.00  0.00    -0.248 NA
ATOM     44  C   UNL A   1      37.475  31.523  31.665  1.00  0.00     0.031 C 
ATOM     45  C   UNL A   1      38.951  28.798  27.695  1.00  0.00     0.029 A 
ATOM     46  N   UNL A   1      40.209  28.694  29.539  1.00  0.00    -0.354 N 
ATOM     47  C   UNL A   1      39.230  31.021  33.037  1.00  0.00     0.074 A 
ATOM     48  C   UNL A   1      38.058  31.836  32.813  1.00  0.00     0.031 C 
ATOM     49  C   UNL A   1      40.000  28.006  27.421  1.00  0.00     0.029 A 
ATOM     50  C   UNL A   1      40.856  27.924  28.600  1.00  0.00     0.049 A 
ATOM     51  H   UNL A   1      40.549  28.827  30.453  1.00  0.00     0.167 HD
ATOM     52  C   UNL A   1      39.946  31.023  34.186  1.00  0.00     0.034 A 
ATOM     53  C   UNL A   1      42.010  27.231  28.678  1.00  0.00     0.034 A 
ATOM     54  C   UNL A   1      41.089  30.185  34.421  1.00  0.00     0.049 A 
ATOM     55  C   UNL A   1      42.760  27.213  29.982  1.00  0.00     0.074 A 
ATOM     56  C   UNL A   1      41.826  30.040  35.583  1.00  0.00     0.029 A 
ATOM     57  N   UNL A   1      41.672  29.358  33.472  1.00  0.00    -0.354 N 
ATOM     58  N   UNL A   1      42.467  27.808  31.112  1.00  0.00    -0.248 NA
ATOM     59  C   UNL A   1      43.981  26.395  30.034  1.00  0.00     0.031 C 
ATOM     60  C   UNL A   1      42.877  29.153  35.325  1.00  0.00     0.029 A 
ATOM     61  C   UNL A   1      42.769  28.713  34.016  1.00  0.00     0.049 A 
ATOM     62  H   UNL A   1      41.352  29.246  32.547  1.00  0.00     0.167 HD
ATOM     63  C   UNL A   1      43.445  27.413  32.018  1.00  0.00     0.074 A 
ATOM     64  C   UNL A   1      44.324  26.504  31.310  1.00  0.00     0.031 C 
ATOM     65  C   UNL A   1      43.611  27.780  33.312  1.00  0.00     0.034 A 
BRANCH  52  66
ATOM     66  C   UNL A   1      39.484  31.931  35.296  1.00  0.00     0.023 A 
ATOM     67  C   UNL A   1      39.762  33.314  35.230  1.00  0.00     0.012 A 
ATOM     68  C   UNL A   1      38.733  31.431  36.377  1.00  0.00     0.148 A 
ATOM     69  C   UNL A   1      39.335  34.175  36.240  1.00  0.00     0.002 A 
ATOM     70  C   UNL A   1      38.267  32.304  37.354  1.00  0.00     0.091 A 
ATOM     71  F   UNL A   1      38.496  30.112  36.434  1.00  0.00    -0.205 F 
ATOM     72  C   UNL A   1      38.580  33.671  37.295  1.00  0.00     0.022 A 
BRANCH  70  73
ATOM     73  S   UNL A   1      37.215  31.770  38.708  1.00  0.00     0.127 S 
ATOM     74  O   UNL A   1      36.104  32.716  38.609  1.00  0.00    -0.237 OA
ATOM     75  O   UNL A   1      36.885  30.399  38.316  1.00  0.00    -0.237 OA
ATOM     76  O   UNL A   1      38.022  31.881  39.915  1.00  0.00    -0.744 OA
ENDBRANCH  70  73
ENDBRANCH  52  66
BRANCH  53  77
ATOM     77  C   UNL A   1      42.493  26.447  27.506  1.00  0.00     0.023 A 
ATOM     78  C   UNL A   1      43.333  27.059  26.554  1.00  0.00     0.012 A 
ATOM     79  C   UNL A   1      42.139  25.094  27.337  1.00  0.00     0.148 A 
ATOM     80  C   UNL A   1      43.781  26.352  25.439  1.00  0.00     0.002 A 
ATOM     81  C   UNL A   1      42.637  24.378  26.255  1.00  0.00     0.091 A 
ATOM     82  F   UNL A   1      41.332  24.532  28.246  1.00  0.00    -0.205 F 
ATOM     83  C   UNL A   1      43.442  25.009  25.294  1.00  0.00     0.022 A 
BRANCH  81  84
ATOM     84  S   UNL A   1      42.361  22.614  26.058  1.00  0.00     0.127 S 
ATOM     85  O   UNL A   1      40.903  22.537  26.062  1.00  0.00    -0.237 OA
ATOM     86  O   UNL A   1      42.990  22.355  24.762  1.00  0.00    -0.237 OA
ATOM     87  O   UNL A   1      43.031  21.982  27.187  1.00  0.00    -0.744 OA
ENDBRANCH  81  84
ENDBRANCH  53  77
BRANCH  65  88
ATOM     88  C   UNL A   1      44.766  27.172  34.066  1.00  0.00     0.023 A 
ATOM     89  C   UNL A   1      46.043  27.764  33.993  1.00  0.00     0.012 A 
ATOM     90  C   UNL A   1      44.571  26.049  34.893  1.00  0.00     0.148 A 
ATOM     91  C   UNL A   1      47.117  27.222  34.699  1.00  0.00     0.002 A 
ATOM     92  C   UNL A   1      45.632  25.547  35.637  1.00  0.00     0.091 A 
ATOM     93  F   UNL A   1      43.353  25.491  34.937  1.00  0.00    -0.205 F 
ATOM     94  C   UNL A   1      46.909  26.122  35.529  1.00  0.00     0.022 A 
BRANCH  92  95
ATOM     95  S   UNL A   1      45.436  24.199  36.806  1.00  0.00     0.127 S 
ATOM     96  O   UNL A   1      46.760  24.147  37.426  1.00  0.00    -0.237 OA
ATOM     97  O   UNL A   1      44.373  24.697  37.679  1.00  0.00    -0.237 OA
ATOM     98  O   UNL A   1      45.071  23.031  36.015  1.00  0.00    -0.744 OA
ENDBRANCH  92  95
ENDBRANCH  65  88
ENDBRANCH  39  40
ENDBRANCH  31  34
ENDBRANCH  29  30
ENDBRANCH  28  29
ENDBRANCH   1  28
TORSDOF 17
ENDMDL
