MODEL 1
REMARK VINA RESULT:     -12.6      0.000      0.000
REMARK SMILES CCn1ncc(-c2cc(C(F)(F)F)nc(-n3ccc(C(=O)NCCCCNC(=O)c4ccc(-c5c6nc(c(-c7cccc(S(=O)(=O)[O-])c7F)c7ccc([nH]7)c(-c7cccc(S(=O)(=O)[O-])c7F)c7nc(c(-c8cccc(S(=O)(=O)[O-])c8F)c8ccc5[nH]8)C=C7)C=C6)cc4)n3)n2)c1C
REMARK SMILES IDX 24 1 23 2 22 3 20 4 21 5 19 7 16 8 17 9 93 10 18 11 15 12
REMARK SMILES IDX 7 13 8 14 94 15 9 16 14 17 6 18 3 19 4 20 95 21 5 22 96 23
REMARK SMILES IDX 2 24 1 25 10 26 11 27 12 28 13 29 25 30 26 31 27 32 28 33
REMARK SMILES IDX 29 35 30 36 31 37 92 38 32 39 91 40 33 41 34 42 35 43 85 44
REMARK SMILES IDX 36 45 90 46 84 47 86 48 37 49 89 50 83 51 82 52 38 54 70 55
REMARK SMILES IDX 50 56 69 57 51 58 54 59 68 60 87 61 52 62 53 63 67 65 88 66
REMARK SMILES IDX 55 67 39 68 40 69 48 70 41 71 43 72 49 73 42 74 44 75 45 76
REMARK SMILES IDX 46 77 47 78 71 79 72 80 80 81 73 82 75 83 81 84 74 85 76 86
REMARK SMILES IDX 77 87 78 88 79 89 56 90 57 91 65 92 58 93 60 94 66 95 59 96
REMARK SMILES IDX 61 97 62 98 63 99 64 100
REMARK H PARENT 22 6 27 34 86 53 54 64
REMARK Flexibility Score: inf
ROOT
ATOM      1  C   UNL A   1      36.222  23.137  23.386  1.00  0.00     0.023 C 
ENDROOT
BRANCH   1   2
ATOM      2  C   UNL A   1      34.760  22.768  23.096  1.00  0.00     0.116 C 
BRANCH   2   3
ATOM      3  N   UNL A   1      34.046  22.315  24.279  1.00  0.00    -0.351 N 
ATOM      4  C   UNL A   1      32.880  22.764  24.867  1.00  0.00     0.271 C 
ATOM      5  O   UNL A   1      32.593  22.310  25.976  1.00  0.00    -0.267 OA
ATOM      6  H   UNL A   1      34.468  21.556  24.742  1.00  0.00     0.163 HD
BRANCH   4   7
ATOM      7  C   UNL A   1      32.057  23.821  24.251  1.00  0.00     0.150 A 
ATOM      8  N   UNL A   1      31.241  25.754  23.817  1.00  0.00    -0.205 N 
ATOM      9  C   UNL A   1      30.311  24.860  23.341  1.00  0.00     0.119 A 
ATOM     10  N   UNL A   1      32.356  25.130  24.263  1.00  0.00    -0.160 NA
ATOM     11  C   UNL A   1      30.839  23.609  23.544  1.00  0.00     0.056 A 
BRANCH   8  12
ATOM     12  C   UNL A   1      31.078  27.168  23.965  1.00  0.00     0.251 A 
ATOM     13  C   UNL A   1      31.447  29.074  25.181  1.00  0.00     0.080 A 
ATOM     14  C   UNL A   1      30.622  29.808  24.360  1.00  0.00     0.062 A 
ATOM     15  N   UNL A   1      31.626  27.753  25.042  1.00  0.00    -0.211 NA
ATOM     16  C   UNL A   1      30.063  29.132  23.288  1.00  0.00     0.150 A 
ATOM     17  N   UNL A   1      30.340  27.822  23.042  1.00  0.00    -0.207 NA
BRANCH  13  18
ATOM     18  C   UNL A   1      32.296  29.728  26.154  1.00  0.00     0.041 A 
ATOM     19  N   UNL A   1      34.005  30.122  27.485  1.00  0.00    -0.269 N 
ATOM     20  N   UNL A   1      33.300  31.276  27.489  1.00  0.00    -0.181 NA
ATOM     21  C   UNL A   1      33.476  29.176  26.637  1.00  0.00     0.045 A 
ATOM     22  C   UNL A   1      32.240  31.012  26.724  1.00  0.00     0.145 A 
ATOM     23  C   UNL A   1      34.094  27.854  26.334  1.00  0.00     0.067 C 
BRANCH  19  24
ATOM     24  C   UNL A   1      35.251  30.059  28.231  1.00  0.00     0.141 C 
ATOM     25  C   UNL A   1      36.500  30.078  27.363  1.00  0.00     0.029 C 
ENDBRANCH  19  24
ENDBRANCH  13  18
BRANCH  16  26
ATOM     26  C   UNL A   1      29.091  29.856  22.371  1.00  0.00     0.433 C 
ATOM     27  F   UNL A   1      28.552  30.976  22.932  1.00  0.00    -0.165 F 
ATOM     28  F   UNL A   1      29.667  30.257  21.202  1.00  0.00    -0.165 F 
ATOM     29  F   UNL A   1      28.022  29.086  22.002  1.00  0.00    -0.165 F 
ENDBRANCH  16  26
ENDBRANCH   8  12
ENDBRANCH   4   7
ENDBRANCH   2   3
ENDBRANCH   1   2
BRANCH   1  30
ATOM     30  C   UNL A   1      36.990  22.214  24.345  1.00  0.00     0.023 C 
BRANCH  30  31
ATOM     31  C   UNL A   1      37.509  22.886  25.606  1.00  0.00     0.116 C 
BRANCH  31  32
ATOM     32  N   UNL A   1      38.425  22.047  26.393  1.00  0.00    -0.352 N 
ATOM     33  C   UNL A   1      39.652  22.407  26.943  1.00  0.00     0.251 C 
ATOM     34  H   UNL A   1      38.135  21.119  26.549  1.00  0.00     0.163 HD
ATOM     35  O   UNL A   1      40.488  21.570  27.231  1.00  0.00    -0.269 OA
BRANCH  33  36
ATOM     36  C   UNL A   1      39.895  23.841  27.195  1.00  0.00     0.039 A 
ATOM     37  C   UNL A   1      38.908  24.822  27.072  1.00  0.00     0.014 A 
ATOM     38  C   UNL A   1      41.171  24.169  27.629  1.00  0.00     0.014 A 
ATOM     39  C   UNL A   1      39.221  26.123  27.468  1.00  0.00     0.010 A 
ATOM     40  C   UNL A   1      41.378  25.353  28.267  1.00  0.00     0.010 A 
ATOM     41  C   UNL A   1      40.461  26.369  28.081  1.00  0.00    -0.014 A 
BRANCH  41  42
ATOM     42  C   UNL A   1      40.839  27.669  28.602  1.00  0.00     0.031 A 
ATOM     43  C   UNL A   1      42.047  28.246  27.973  1.00  0.00     0.074 A 
ATOM     44  C   UNL A   1      40.044  28.380  29.432  1.00  0.00     0.049 A 
ATOM     45  N   UNL A   1      43.237  28.258  28.469  1.00  0.00    -0.248 NA
ATOM     46  C   UNL A   1      41.977  28.686  26.573  1.00  0.00     0.031 C 
ATOM     47  C   UNL A   1      38.673  28.087  29.881  1.00  0.00     0.029 A 
ATOM     48  N   UNL A   1      40.268  29.607  29.966  1.00  0.00    -0.354 N 
ATOM     49  C   UNL A   1      44.011  28.964  27.556  1.00  0.00     0.074 A 
ATOM     50  C   UNL A   1      43.258  28.980  26.329  1.00  0.00     0.031 C 
ATOM     51  C   UNL A   1      38.117  29.201  30.407  1.00  0.00     0.029 A 
ATOM     52  C   UNL A   1      39.143  30.220  30.507  1.00  0.00     0.049 A 
ATOM     53  H   UNL A   1      41.157  30.031  29.971  1.00  0.00     0.167 HD
ATOM     54  C   UNL A   1      45.070  29.710  27.978  1.00  0.00     0.034 A 
ATOM     55  C   UNL A   1      39.068  31.488  30.979  1.00  0.00     0.034 A 
ATOM     56  C   UNL A   1      45.378  29.428  29.363  1.00  0.00     0.049 A 
ATOM     57  C   UNL A   1      40.451  31.890  31.329  1.00  0.00     0.074 A 
ATOM     58  C   UNL A   1      45.733  28.302  30.081  1.00  0.00     0.029 A 
ATOM     59  N   UNL A   1      44.915  30.334  30.289  1.00  0.00    -0.354 N 
ATOM     60  N   UNL A   1      41.139  31.314  32.276  1.00  0.00    -0.248 NA
ATOM     61  C   UNL A   1      41.231  32.592  30.324  1.00  0.00     0.031 C 
ATOM     62  C   UNL A   1      45.019  28.415  31.313  1.00  0.00     0.029 A 
ATOM     63  C   UNL A   1      44.334  29.633  31.312  1.00  0.00     0.049 A 
ATOM     64  H   UNL A   1      44.987  31.315  30.227  1.00  0.00     0.167 HD
ATOM     65  C   UNL A   1      42.409  31.168  31.735  1.00  0.00     0.074 A 
ATOM     66  C   UNL A   1      42.434  32.070  30.582  1.00  0.00     0.031 C 
ATOM     67  C   UNL A   1      43.212  30.118  32.087  1.00  0.00     0.034 A 
BRANCH  54  68
ATOM     68  C   UNL A   1      45.586  30.968  27.317  1.00  0.00     0.023 A 
ATOM     69  C   UNL A   1      46.986  31.067  27.151  1.00  0.00     0.012 A 
ATOM     70  C   UNL A   1      44.833  32.146  27.115  1.00  0.00     0.148 A 
ATOM     71  C   UNL A   1      47.611  32.286  26.876  1.00  0.00     0.002 A 
ATOM     72  C   UNL A   1      45.452  33.344  26.772  1.00  0.00     0.091 A 
ATOM     73  F   UNL A   1      43.525  32.163  27.375  1.00  0.00    -0.205 F 
ATOM     74  C   UNL A   1      46.844  33.427  26.686  1.00  0.00     0.022 A 
BRANCH  72  75
ATOM     75  S   UNL A   1      44.512  34.847  26.478  1.00  0.00     0.127 S 
ATOM     76  O   UNL A   1      45.571  35.787  26.124  1.00  0.00    -0.237 OA
ATOM     77  O   UNL A   1      43.643  34.442  25.372  1.00  0.00    -0.237 OA
ATOM     78  O   UNL A   1      43.805  35.119  27.724  1.00  0.00    -0.744 OA
ENDBRANCH  72  75
ENDBRANCH  54  68
BRANCH  55  79
ATOM     79  C   UNL A   1      37.958  32.464  30.881  1.00  0.00     0.023 A 
ATOM     80  C   UNL A   1      37.408  32.781  29.622  1.00  0.00     0.012 A 
ATOM     81  C   UNL A   1      37.244  32.851  32.036  1.00  0.00     0.148 A 
ATOM     82  C   UNL A   1      36.170  33.428  29.519  1.00  0.00     0.002 A 
ATOM     83  C   UNL A   1      36.015  33.495  31.928  1.00  0.00     0.091 A 
ATOM     84  F   UNL A   1      37.728  32.505  33.237  1.00  0.00    -0.205 F 
ATOM     85  C   UNL A   1      35.468  33.775  30.670  1.00  0.00     0.022 A 
BRANCH  83  86
ATOM     86  S   UNL A   1      35.032  33.939  33.369  1.00  0.00     0.127 S 
ATOM     87  O   UNL A   1      35.368  35.353  33.536  1.00  0.00    -0.237 OA
ATOM     88  O   UNL A   1      33.675  33.684  32.896  1.00  0.00    -0.237 OA
ATOM     89  O   UNL A   1      35.499  33.078  34.447  1.00  0.00    -0.744 OA
ENDBRANCH  83  86
ENDBRANCH  55  79
BRANCH  67  90
ATOM     90  C   UNL A   1      42.765  29.244  33.237  1.00  0.00     0.023 A 
ATOM     91  C   UNL A   1      41.810  28.217  33.083  1.00  0.00     0.012 A 
ATOM     92  C   UNL A   1      43.450  29.348  34.459  1.00  0.00     0.148 A 
ATOM     93  C   UNL A   1      41.529  27.328  34.126  1.00  0.00     0.002 A 
ATOM     94  C   UNL A   1      43.199  28.439  35.480  1.00  0.00     0.091 A 
ATOM     95  F   UNL A   1      44.364  30.321  34.589  1.00  0.00    -0.205 F 
ATOM     96  C   UNL A   1      42.232  27.433  35.323  1.00  0.00     0.022 A 
BRANCH  94  97
ATOM     97  S   UNL A   1      44.151  28.444  37.000  1.00  0.00     0.127 S 
ATOM     98  O   UNL A   1      45.521  28.336  36.503  1.00  0.00    -0.237 OA
ATOM     99  O   UNL A   1      43.810  29.746  37.579  1.00  0.00    -0.237 OA
ATOM    100  O   UNL A   1      43.677  27.306  37.777  1.00  0.00    -0.744 OA
ENDBRANCH  94  97
ENDBRANCH  67  90
ENDBRANCH  41  42
ENDBRANCH  33  36
ENDBRANCH  31  32
ENDBRANCH  30  31
ENDBRANCH   1  30
TORSDOF 18
ENDMDL
MODEL 2
REMARK VINA RESULT:     -12.1      2.388      3.471
REMARK SMILES CCn1ncc(-c2cc(C(F)(F)F)nc(-n3ccc(C(=O)NCCCCNC(=O)c4ccc(-c5c6nc(c(-c7cccc(S(=O)(=O)[O-])c7F)c7ccc([nH]7)c(-c7cccc(S(=O)(=O)[O-])c7F)c7nc(c(-c8cccc(S(=O)(=O)[O-])c8F)c8ccc5[nH]8)C=C7)C=C6)cc4)n3)n2)c1C
REMARK SMILES IDX 24 1 23 2 22 3 20 4 21 5 19 7 16 8 17 9 93 10 18 11 15 12
REMARK SMILES IDX 7 13 8 14 94 15 9 16 14 17 6 18 3 19 4 20 95 21 5 22 96 23
REMARK SMILES IDX 2 24 1 25 10 26 11 27 12 28 13 29 25 30 26 31 27 32 28 33
REMARK SMILES IDX 29 35 30 36 31 37 92 38 32 39 91 40 33 41 34 42 35 43 85 44
REMARK SMILES IDX 36 45 90 46 84 47 86 48 37 49 89 50 83 51 82 52 38 54 70 55
REMARK SMILES IDX 50 56 69 57 51 58 54 59 68 60 87 61 52 62 53 63 67 65 88 66
REMARK SMILES IDX 55 67 39 68 40 69 48 70 41 71 43 72 49 73 42 74 44 75 45 76
REMARK SMILES IDX 46 77 47 78 71 79 72 80 80 81 73 82 75 83 81 84 74 85 76 86
REMARK SMILES IDX 77 87 78 88 79 89 56 90 57 91 65 92 58 93 60 94 66 95 59 96
REMARK SMILES IDX 61 97 62 98 63 99 64 100
REMARK H PARENT 22 6 27 34 86 53 54 64
REMARK Flexibility Score: inf
ROOT
ATOM      1  C   UNL A   1      37.674  23.095  25.966  1.00  0.00     0.023 C 
ENDROOT
BRANCH   1   2
ATOM      2  C   UNL A   1      36.215  22.936  25.513  1.00  0.00     0.116 C 
BRANCH   2   3
ATOM      3  N   UNL A   1      35.436  22.091  26.404  1.00  0.00    -0.351 N 
ATOM      4  C   UNL A   1      34.170  22.249  26.933  1.00  0.00     0.271 C 
ATOM      5  O   UNL A   1      33.821  21.459  27.811  1.00  0.00    -0.267 OA
ATOM      6  H   UNL A   1      35.890  21.263  26.677  1.00  0.00     0.163 HD
BRANCH   4   7
ATOM      7  C   UNL A   1      33.302  23.377  26.547  1.00  0.00     0.150 A 
ATOM      8  N   UNL A   1      32.645  25.373  26.131  1.00  0.00    -0.205 N 
ATOM      9  C   UNL A   1      31.490  24.652  26.325  1.00  0.00     0.119 A 
ATOM     10  N   UNL A   1      33.743  24.581  26.147  1.00  0.00    -0.160 NA
ATOM     11  C   UNL A   1      31.878  23.350  26.527  1.00  0.00     0.056 A 
BRANCH   8  12
ATOM     12  C   UNL A   1      32.765  26.796  26.036  1.00  0.00     0.251 A 
ATOM     13  C   UNL A   1      32.126  28.762  25.049  1.00  0.00     0.080 A 
ATOM     14  C   UNL A   1      33.111  29.462  25.708  1.00  0.00     0.062 A 
ATOM     15  N   UNL A   1      31.989  27.432  25.145  1.00  0.00    -0.211 NA
ATOM     16  C   UNL A   1      33.898  28.735  26.586  1.00  0.00     0.150 A 
ATOM     17  N   UNL A   1      33.688  27.409  26.809  1.00  0.00    -0.207 NA
BRANCH  13  18
ATOM     18  C   UNL A   1      31.079  29.456  24.330  1.00  0.00     0.041 A 
ATOM     19  N   UNL A   1      29.516  29.880  22.838  1.00  0.00    -0.269 N 
ATOM     20  N   UNL A   1      29.373  30.855  23.765  1.00  0.00    -0.181 NA
ATOM     21  C   UNL A   1      30.491  28.968  23.169  1.00  0.00     0.045 A 
ATOM     22  C   UNL A   1      30.356  30.622  24.636  1.00  0.00     0.145 A 
ATOM     23  C   UNL A   1      30.799  27.725  22.405  1.00  0.00     0.067 C 
BRANCH  19  24
ATOM     24  C   UNL A   1      28.585  29.830  21.723  1.00  0.00     0.141 C 
ATOM     25  C   UNL A   1      28.152  31.194  21.210  1.00  0.00     0.029 C 
ENDBRANCH  19  24
ENDBRANCH  13  18
BRANCH  16  26
ATOM     26  C   UNL A   1      35.047  29.422  27.305  1.00  0.00     0.433 C 
ATOM     27  F   UNL A   1      34.891  29.460  28.659  1.00  0.00    -0.165 F 
ATOM     28  F   UNL A   1      36.248  28.817  27.078  1.00  0.00    -0.165 F 
ATOM     29  F   UNL A   1      35.221  30.724  26.923  1.00  0.00    -0.165 F 
ENDBRANCH  16  26
ENDBRANCH   8  12
ENDBRANCH   4   7
ENDBRANCH   2   3
ENDBRANCH   1   2
BRANCH   1  30
ATOM     30  C   UNL A   1      38.610  21.904  25.708  1.00  0.00     0.023 C 
BRANCH  30  31
ATOM     31  C   UNL A   1      39.799  21.806  26.652  1.00  0.00     0.116 C 
BRANCH  31  32
ATOM     32  N   UNL A   1      41.102  21.865  25.974  1.00  0.00    -0.352 N 
ATOM     33  C   UNL A   1      41.904  22.983  25.759  1.00  0.00     0.251 C 
ATOM     34  H   UNL A   1      41.450  21.010  25.629  1.00  0.00     0.163 HD
ATOM     35  O   UNL A   1      42.745  23.002  24.879  1.00  0.00    -0.269 OA
BRANCH  33  36
ATOM     36  C   UNL A   1      41.718  24.140  26.657  1.00  0.00     0.039 A 
ATOM     37  C   UNL A   1      42.278  24.222  27.934  1.00  0.00     0.014 A 
ATOM     38  C   UNL A   1      40.989  25.198  26.133  1.00  0.00     0.014 A 
ATOM     39  C   UNL A   1      42.148  25.421  28.635  1.00  0.00     0.010 A 
ATOM     40  C   UNL A   1      41.106  26.434  26.692  1.00  0.00     0.010 A 
ATOM     41  C   UNL A   1      41.570  26.527  27.990  1.00  0.00    -0.014 A 
BRANCH  41  42
ATOM     42  C   UNL A   1      41.469  27.835  28.608  1.00  0.00     0.031 A 
ATOM     43  C   UNL A   1      42.418  28.834  28.069  1.00  0.00     0.074 A 
ATOM     44  C   UNL A   1      40.463  28.170  29.446  1.00  0.00     0.049 A 
ATOM     45  N   UNL A   1      43.522  29.214  28.616  1.00  0.00    -0.248 NA
ATOM     46  C   UNL A   1      42.228  29.326  26.698  1.00  0.00     0.031 C 
ATOM     47  C   UNL A   1      39.267  27.395  29.816  1.00  0.00     0.029 A 
ATOM     48  N   UNL A   1      40.242  29.357  30.065  1.00  0.00    -0.354 N 
ATOM     49  C   UNL A   1      44.024  30.206  27.784  1.00  0.00     0.074 A 
ATOM     50  C   UNL A   1      43.335  30.055  26.529  1.00  0.00     0.031 C 
ATOM     51  C   UNL A   1      38.353  28.211  30.386  1.00  0.00     0.029 A 
ATOM     52  C   UNL A   1      38.965  29.508  30.594  1.00  0.00     0.049 A 
ATOM     53  H   UNL A   1      40.932  30.056  30.135  1.00  0.00     0.167 HD
ATOM     54  C   UNL A   1      44.755  31.236  28.297  1.00  0.00     0.034 A 
ATOM     55  C   UNL A   1      38.451  30.636  31.141  1.00  0.00     0.034 A 
ATOM     56  C   UNL A   1      45.114  30.974  29.673  1.00  0.00     0.049 A 
ATOM     57  C   UNL A   1      39.605  31.458  31.575  1.00  0.00     0.074 A 
ATOM     58  C   UNL A   1      45.820  29.987  30.334  1.00  0.00     0.029 A 
ATOM     59  N   UNL A   1      44.351  31.598  30.633  1.00  0.00    -0.354 N 
ATOM     60  N   UNL A   1      40.430  31.083  32.513  1.00  0.00    -0.248 NA
ATOM     61  C   UNL A   1      40.116  32.456  30.651  1.00  0.00     0.031 C 
ATOM     62  C   UNL A   1      45.087  29.759  31.539  1.00  0.00     0.029 A 
ATOM     63  C   UNL A   1      44.027  30.667  31.584  1.00  0.00     0.049 A 
ATOM     64  H   UNL A   1      44.084  32.546  30.637  1.00  0.00     0.167 HD
ATOM     65  C   UNL A   1      41.684  31.419  32.019  1.00  0.00     0.074 A 
ATOM     66  C   UNL A   1      41.420  32.357  30.927  1.00  0.00     0.031 C 
ATOM     67  C   UNL A   1      42.791  30.682  32.339  1.00  0.00     0.034 A 
BRANCH  54  68
ATOM     68  C   UNL A   1      44.821  32.639  27.739  1.00  0.00     0.023 A 
ATOM     69  C   UNL A   1      46.051  33.036  27.169  1.00  0.00     0.012 A 
ATOM     70  C   UNL A   1      43.873  33.657  27.988  1.00  0.00     0.148 A 
ATOM     71  C   UNL A   1      46.354  34.380  26.931  1.00  0.00     0.002 A 
ATOM     72  C   UNL A   1      44.151  34.986  27.685  1.00  0.00     0.091 A 
ATOM     73  F   UNL A   1      42.741  33.380  28.638  1.00  0.00    -0.205 F 
ATOM     74  C   UNL A   1      45.403  35.357  27.190  1.00  0.00     0.022 A 
BRANCH  72  75
ATOM     75  S   UNL A   1      42.948  36.293  27.963  1.00  0.00     0.127 S 
ATOM     76  O   UNL A   1      41.794  35.787  27.225  1.00  0.00    -0.237 OA
ATOM     77  O   UNL A   1      42.815  36.268  29.420  1.00  0.00    -0.237 OA
ATOM     78  O   UNL A   1      43.560  37.508  27.440  1.00  0.00    -0.744 OA
ENDBRANCH  72  75
ENDBRANCH  54  68
BRANCH  55  79
ATOM     79  C   UNL A   1      37.076  31.180  31.057  1.00  0.00     0.023 A 
ATOM     80  C   UNL A   1      36.297  31.311  32.225  1.00  0.00     0.012 A 
ATOM     81  C   UNL A   1      36.643  31.847  29.890  1.00  0.00     0.148 A 
ATOM     82  C   UNL A   1      35.147  32.110  32.238  1.00  0.00     0.002 A 
ATOM     83  C   UNL A   1      35.498  32.639  29.908  1.00  0.00     0.091 A 
ATOM     84  F   UNL A   1      37.405  31.778  28.790  1.00  0.00    -0.205 F 
ATOM     85  C   UNL A   1      34.753  32.783  31.085  1.00  0.00     0.022 A 
BRANCH  83  86
ATOM     86  S   UNL A   1      34.949  33.568  28.469  1.00  0.00     0.127 S 
ATOM     87  O   UNL A   1      33.709  32.874  28.120  1.00  0.00    -0.237 OA
ATOM     88  O   UNL A   1      34.766  34.905  29.026  1.00  0.00    -0.237 OA
ATOM     89  O   UNL A   1      36.012  33.434  27.482  1.00  0.00    -0.744 OA
ENDBRANCH  83  86
ENDBRANCH  55  79
BRANCH  67  90
ATOM     90  C   UNL A   1      42.649  29.626  33.412  1.00  0.00     0.023 A 
ATOM     91  C   UNL A   1      42.065  28.365  33.163  1.00  0.00     0.012 A 
ATOM     92  C   UNL A   1      43.274  29.845  34.651  1.00  0.00     0.148 A 
ATOM     93  C   UNL A   1      42.084  27.356  34.131  1.00  0.00     0.002 A 
ATOM     94  C   UNL A   1      43.329  28.827  35.596  1.00  0.00     0.091 A 
ATOM     95  F   UNL A   1      43.836  31.043  34.870  1.00  0.00    -0.205 F 
ATOM     96  C   UNL A   1      42.727  27.583  35.345  1.00  0.00     0.022 A 
BRANCH  94  97
ATOM     97  S   UNL A   1      44.240  29.014  37.129  1.00  0.00     0.127 S 
ATOM     98  O   UNL A   1      43.527  30.113  37.776  1.00  0.00    -0.237 OA
ATOM     99  O   UNL A   1      44.055  27.707  37.764  1.00  0.00    -0.237 OA
ATOM    100  O   UNL A   1      45.617  29.301  36.748  1.00  0.00    -0.744 OA
ENDBRANCH  94  97
ENDBRANCH  67  90
ENDBRANCH  41  42
ENDBRANCH  33  36
ENDBRANCH  31  32
ENDBRANCH  30  31
ENDBRANCH   1  30
TORSDOF 18
ENDMDL
MODEL 3
REMARK VINA RESULT:     -12.1      3.043      9.060
REMARK SMILES CCn1ncc(-c2cc(C(F)(F)F)nc(-n3ccc(C(=O)NCCCCNC(=O)c4ccc(-c5c6nc(c(-c7cccc(S(=O)(=O)[O-])c7F)c7ccc([nH]7)c(-c7cccc(S(=O)(=O)[O-])c7F)c7nc(c(-c8cccc(S(=O)(=O)[O-])c8F)c8ccc5[nH]8)C=C7)C=C6)cc4)n3)n2)c1C
REMARK SMILES IDX 24 1 23 2 22 3 20 4 21 5 19 7 16 8 17 9 93 10 18 11 15 12
REMARK SMILES IDX 7 13 8 14 94 15 9 16 14 17 6 18 3 19 4 20 95 21 5 22 96 23
REMARK SMILES IDX 2 24 1 25 10 26 11 27 12 28 13 29 25 30 26 31 27 32 28 33
REMARK SMILES IDX 29 35 30 36 31 37 92 38 32 39 91 40 33 41 34 42 35 43 85 44
REMARK SMILES IDX 36 45 90 46 84 47 86 48 37 49 89 50 83 51 82 52 38 54 70 55
REMARK SMILES IDX 50 56 69 57 51 58 54 59 68 60 87 61 52 62 53 63 67 65 88 66
REMARK SMILES IDX 55 67 39 68 40 69 48 70 41 71 43 72 49 73 42 74 44 75 45 76
REMARK SMILES IDX 46 77 47 78 71 79 72 80 80 81 73 82 75 83 81 84 74 85 76 86
REMARK SMILES IDX 77 87 78 88 79 89 56 90 57 91 65 92 58 93 60 94 66 95 59 96
REMARK SMILES IDX 61 97 62 98 63 99 64 100
REMARK H PARENT 22 6 27 34 86 53 54 64
REMARK Flexibility Score: inf
ROOT
ATOM      1  C   UNL A   1      35.933  31.841  32.485  1.00  0.00     0.023 C 
ENDROOT
BRANCH   1   2
ATOM      2  C   UNL A   1      35.497  31.385  31.084  1.00  0.00     0.116 C 
BRANCH   2   3
ATOM      3  N   UNL A   1      34.824  32.433  30.334  1.00  0.00    -0.351 N 
ATOM      4  C   UNL A   1      34.395  32.483  29.023  1.00  0.00     0.271 C 
ATOM      5  O   UNL A   1      34.011  33.571  28.592  1.00  0.00    -0.267 OA
ATOM      6  H   UNL A   1      34.641  33.249  30.852  1.00  0.00     0.163 HD
BRANCH   4   7
ATOM      7  C   UNL A   1      34.488  31.312  28.131  1.00  0.00     0.150 A 
ATOM      8  N   UNL A   1      33.912  29.707  26.833  1.00  0.00    -0.205 N 
ATOM      9  C   UNL A   1      35.172  29.375  27.272  1.00  0.00     0.119 A 
ATOM     10  N   UNL A   1      33.540  30.938  27.256  1.00  0.00    -0.160 NA
ATOM     11  C   UNL A   1      35.597  30.421  28.054  1.00  0.00     0.056 A 
BRANCH   8  12
ATOM     12  C   UNL A   1      33.002  28.867  26.117  1.00  0.00     0.251 A 
ATOM     13  C   UNL A   1      32.357  26.767  25.467  1.00  0.00     0.080 A 
ATOM     14  C   UNL A   1      31.403  27.276  24.617  1.00  0.00     0.062 A 
ATOM     15  N   UNL A   1      33.204  27.541  26.161  1.00  0.00    -0.211 NA
ATOM     16  C   UNL A   1      31.272  28.656  24.597  1.00  0.00     0.150 A 
ATOM     17  N   UNL A   1      32.024  29.460  25.397  1.00  0.00    -0.207 NA
BRANCH  13  18
ATOM     18  C   UNL A   1      32.394  25.354  25.778  1.00  0.00     0.041 A 
ATOM     19  N   UNL A   1      33.062  23.256  25.826  1.00  0.00    -0.269 N 
ATOM     20  N   UNL A   1      32.098  23.326  26.772  1.00  0.00    -0.181 NA
ATOM     21  C   UNL A   1      33.327  24.474  25.243  1.00  0.00     0.045 A 
ATOM     22  C   UNL A   1      31.663  24.585  26.701  1.00  0.00     0.145 A 
ATOM     23  C   UNL A   1      34.411  24.733  24.254  1.00  0.00     0.067 C 
BRANCH  19  24
ATOM     24  C   UNL A   1      33.767  21.999  25.634  1.00  0.00     0.141 C 
ATOM     25  C   UNL A   1      35.136  21.945  26.293  1.00  0.00     0.029 C 
ENDBRANCH  19  24
ENDBRANCH  13  18
BRANCH  16  26
ATOM     26  C   UNL A   1      30.284  29.299  23.637  1.00  0.00     0.433 C 
ATOM     27  F   UNL A   1      29.833  30.513  24.061  1.00  0.00    -0.165 F 
ATOM     28  F   UNL A   1      30.810  29.502  22.396  1.00  0.00    -0.165 F 
ATOM     29  F   UNL A   1      29.161  28.545  23.435  1.00  0.00    -0.165 F 
ENDBRANCH  16  26
ENDBRANCH   8  12
ENDBRANCH   4   7
ENDBRANCH   2   3
ENDBRANCH   1   2
BRANCH   1  30
ATOM     30  C   UNL A   1      35.988  33.357  32.732  1.00  0.00     0.023 C 
BRANCH  30  31
ATOM     31  C   UNL A   1      37.327  34.009  32.423  1.00  0.00     0.116 C 
BRANCH  31  32
ATOM     32  N   UNL A   1      37.434  34.526  31.051  1.00  0.00    -0.352 N 
ATOM     33  C   UNL A   1      38.400  34.219  30.097  1.00  0.00     0.251 C 
ATOM     34  H   UNL A   1      36.739  35.166  30.774  1.00  0.00     0.163 HD
ATOM     35  O   UNL A   1      38.626  34.964  29.160  1.00  0.00    -0.269 OA
BRANCH  33  36
ATOM     36  C   UNL A   1      39.125  32.942  30.243  1.00  0.00     0.039 A 
ATOM     37  C   UNL A   1      38.593  31.707  29.864  1.00  0.00     0.014 A 
ATOM     38  C   UNL A   1      40.419  33.036  30.733  1.00  0.00     0.014 A 
ATOM     39  C   UNL A   1      39.423  30.587  29.922  1.00  0.00     0.010 A 
ATOM     40  C   UNL A   1      41.292  32.013  30.523  1.00  0.00     0.010 A 
ATOM     41  C   UNL A   1      40.780  30.760  30.241  1.00  0.00    -0.014 A 
BRANCH  41  42
ATOM     42  C   UNL A   1      41.736  29.669  30.243  1.00  0.00     0.031 A 
ATOM     43  C   UNL A   1      42.084  29.171  31.591  1.00  0.00     0.074 A 
ATOM     44  C   UNL A   1      42.111  29.028  29.114  1.00  0.00     0.049 A 
ATOM     45  N   UNL A   1      43.154  29.445  32.256  1.00  0.00    -0.248 NA
ATOM     46  C   UNL A   1      41.066  28.449  32.366  1.00  0.00     0.031 C 
ATOM     47  C   UNL A   1      41.602  29.190  27.742  1.00  0.00     0.029 A 
ATOM     48  N   UNL A   1      42.970  27.986  28.983  1.00  0.00    -0.354 N 
ATOM     49  C   UNL A   1      43.066  28.697  33.423  1.00  0.00     0.074 A 
ATOM     50  C   UNL A   1      41.683  28.314  33.543  1.00  0.00     0.031 C 
ATOM     51  C   UNL A   1      41.980  28.134  26.988  1.00  0.00     0.029 A 
ATOM     52  C   UNL A   1      42.906  27.329  27.759  1.00  0.00     0.049 A 
ATOM     53  H   UNL A   1      43.590  27.716  29.698  1.00  0.00     0.167 HD
ATOM     54  C   UNL A   1      44.192  28.227  34.030  1.00  0.00     0.034 A 
ATOM     55  C   UNL A   1      43.556  26.188  27.425  1.00  0.00     0.034 A 
ATOM     56  C   UNL A   1      45.375  28.830  33.457  1.00  0.00     0.049 A 
ATOM     57  C   UNL A   1      44.722  26.086  28.333  1.00  0.00     0.074 A 
ATOM     58  C   UNL A   1      45.849  30.119  33.313  1.00  0.00     0.029 A 
ATOM     59  N   UNL A   1      46.064  28.071  32.539  1.00  0.00    -0.354 N 
ATOM     60  N   UNL A   1      45.706  26.943  28.324  1.00  0.00    -0.248 NA
ATOM     61  C   UNL A   1      44.564  25.324  29.560  1.00  0.00     0.031 C 
ATOM     62  C   UNL A   1      46.430  30.151  32.008  1.00  0.00     0.029 A 
ATOM     63  C   UNL A   1      46.350  28.867  31.462  1.00  0.00     0.049 A 
ATOM     64  H   UNL A   1      46.309  27.122  32.638  1.00  0.00     0.167 HD
ATOM     65  C   UNL A   1      45.973  27.171  29.668  1.00  0.00     0.074 A 
ATOM     66  C   UNL A   1      45.319  26.068  30.374  1.00  0.00     0.031 C 
ATOM     67  C   UNL A   1      46.437  28.383  30.101  1.00  0.00     0.034 A 
BRANCH  54  68
ATOM     68  C   UNL A   1      44.294  26.956  34.842  1.00  0.00     0.023 A 
ATOM     69  C   UNL A   1      44.849  27.075  36.137  1.00  0.00     0.012 A 
ATOM     70  C   UNL A   1      44.150  25.648  34.327  1.00  0.00     0.148 A 
ATOM     71  C   UNL A   1      45.308  25.964  36.848  1.00  0.00     0.002 A 
ATOM     72  C   UNL A   1      44.543  24.537  35.067  1.00  0.00     0.091 A 
ATOM     73  F   UNL A   1      43.753  25.461  33.067  1.00  0.00    -0.205 F 
ATOM     74  C   UNL A   1      45.155  24.692  36.312  1.00  0.00     0.022 A 
BRANCH  72  75
ATOM     75  S   UNL A   1      44.340  22.864  34.444  1.00  0.00     0.127 S 
ATOM     76  O   UNL A   1      44.813  22.073  35.576  1.00  0.00    -0.237 OA
ATOM     77  O   UNL A   1      42.896  22.809  34.207  1.00  0.00    -0.237 OA
ATOM     78  O   UNL A   1      45.147  22.794  33.233  1.00  0.00    -0.744 OA
ENDBRANCH  72  75
ENDBRANCH  54  68
BRANCH  55  79
ATOM     79  C   UNL A   1      43.096  25.053  26.593  1.00  0.00     0.023 A 
ATOM     80  C   UNL A   1      43.885  24.603  25.515  1.00  0.00     0.012 A 
ATOM     81  C   UNL A   1      42.042  24.224  27.037  1.00  0.00     0.148 A 
ATOM     82  C   UNL A   1      43.656  23.354  24.925  1.00  0.00     0.002 A 
ATOM     83  C   UNL A   1      41.817  22.983  26.447  1.00  0.00     0.091 A 
ATOM     84  F   UNL A   1      41.321  24.613  28.097  1.00  0.00    -0.205 F 
ATOM     85  C   UNL A   1      42.631  22.538  25.397  1.00  0.00     0.022 A 
BRANCH  83  86
ATOM     86  S   UNL A   1      40.537  21.860  27.027  1.00  0.00     0.127 S 
ATOM     87  O   UNL A   1      39.329  22.666  26.849  1.00  0.00    -0.237 OA
ATOM     88  O   UNL A   1      40.671  20.744  26.095  1.00  0.00    -0.237 OA
ATOM     89  O   UNL A   1      40.867  21.567  28.416  1.00  0.00    -0.744 OA
ENDBRANCH  83  86
ENDBRANCH  55  79
BRANCH  67  90
ATOM     90  C   UNL A   1      46.854  29.393  29.056  1.00  0.00     0.023 A 
ATOM     91  C   UNL A   1      48.116  29.355  28.426  1.00  0.00     0.012 A 
ATOM     92  C   UNL A   1      45.889  30.293  28.576  1.00  0.00     0.148 A 
ATOM     93  C   UNL A   1      48.416  30.208  27.358  1.00  0.00     0.002 A 
ATOM     94  C   UNL A   1      46.175  31.110  27.489  1.00  0.00     0.091 A 
ATOM     95  F   UNL A   1      44.689  30.311  29.176  1.00  0.00    -0.205 F 
ATOM     96  C   UNL A   1      47.441  31.079  26.882  1.00  0.00     0.022 A 
BRANCH  94  97
ATOM     97  S   UNL A   1      44.928  32.169  26.753  1.00  0.00     0.127 S 
ATOM     98  O   UNL A   1      44.531  33.006  27.883  1.00  0.00    -0.237 OA
ATOM     99  O   UNL A   1      45.685  32.866  25.711  1.00  0.00    -0.237 OA
ATOM    100  O   UNL A   1      43.893  31.279  26.241  1.00  0.00    -0.744 OA
ENDBRANCH  94  97
ENDBRANCH  67  90
ENDBRANCH  41  42
ENDBRANCH  33  36
ENDBRANCH  31  32
ENDBRANCH  30  31
ENDBRANCH   1  30
TORSDOF 18
ENDMDL
