MODEL 1
REMARK VINA RESULT:     -12.4      0.000      0.000
REMARK SMILES Cc1ccc(F)c(C(=O)N[C@@H]2C=C[C@@H](C(=O)NCCCCNC(=O)c3ccc(-c4c5nc(c(-c6cccc(S(=O)(=O)[O-])c6F)c6ccc([nH]6)c(-c6cccc(S(=O)(=O)[O-])c6F)c6nc(c(-c7cccc(S(=O)(=O)[O-])c7F)c7ccc4[nH]7)C=C6)C=C5)cc3)C2)c1
REMARK SMILES IDX 20 1 19 2 18 3 17 4 15 5 16 6 14 8 11 9 12 10 88 11 13 12
REMARK SMILES IDX 10 13 8 14 9 15 7 17 1 18 2 19 3 20 89 21 4 22 5 23 6 24
REMARK SMILES IDX 21 25 22 26 23 27 24 29 25 30 26 31 87 32 27 33 86 34 28 35
REMARK SMILES IDX 29 36 30 37 80 38 31 39 85 40 79 41 81 42 32 43 84 44 78 45
REMARK SMILES IDX 77 46 33 48 65 49 45 50 64 51 46 52 49 53 63 54 82 55 47 56
REMARK SMILES IDX 48 57 62 59 83 60 50 61 34 62 35 63 43 64 36 65 38 66 44 67
REMARK SMILES IDX 37 68 39 69 40 70 41 71 42 72 66 73 67 74 75 75 68 76 70 77
REMARK SMILES IDX 76 78 69 79 71 80 72 81 73 82 74 83 51 84 52 85 60 86 53 87
REMARK SMILES IDX 55 88 61 89 54 90 56 91 57 92 58 93 59 94
REMARK H PARENT 17 7 10 16 22 28 81 47 49 58
REMARK Flexibility Score: inf
ROOT
ATOM      1  C   UNL A   1      35.060  21.493  25.327  1.00  0.00     0.023 C 
ENDROOT
BRANCH   1   2
ATOM      2  C   UNL A   1      34.216  21.299  26.589  1.00  0.00     0.023 C 
BRANCH   2   3
ATOM      3  C   UNL A   1      33.866  22.582  27.340  1.00  0.00     0.116 C 
BRANCH   3   4
ATOM      4  N   UNL A   1      32.452  22.709  27.628  1.00  0.00    -0.356 N 
ATOM      5  C   UNL A   1      31.456  23.381  26.992  1.00  0.00     0.227 C 
ATOM      6  O   UNL A   1      30.300  23.141  27.359  1.00  0.00    -0.274 OA
ATOM      7  H   UNL A   1      32.160  22.217  28.430  1.00  0.00     0.163 HD
BRANCH   5   8
ATOM      8  C   UNL A   1      31.700  24.473  25.940  1.00  0.00     0.103 C 
ATOM      9  C   UNL A   1      31.374  24.142  23.520  1.00  0.00     0.106 C 
ATOM     10  C   UNL A   1      30.405  25.132  24.091  1.00  0.00    -0.006 C 
ATOM     11  C   UNL A   1      32.350  23.909  24.679  1.00  0.00     0.047 C 
ATOM     12  C   UNL A   1      30.541  25.258  25.419  1.00  0.00    -0.016 C 
BRANCH   9  13
ATOM     13  N   UNL A   1      31.959  24.647  22.299  1.00  0.00    -0.346 N 
ATOM     14  C   UNL A   1      32.635  25.823  22.042  1.00  0.00     0.254 C 
ATOM     15  O   UNL A   1      33.219  25.936  20.965  1.00  0.00    -0.269 OA
ATOM     16  H   UNL A   1      31.861  24.053  21.521  1.00  0.00     0.164 HD
BRANCH  14  17
ATOM     17  C   UNL A   1      32.602  26.968  22.989  1.00  0.00     0.075 A 
ATOM     18  C   UNL A   1      34.071  27.976  26.347  1.00  0.00     0.044 C 
ATOM     19  C   UNL A   1      33.260  28.022  25.083  1.00  0.00    -0.050 A 
ATOM     20  C   UNL A   1      32.193  28.917  24.966  1.00  0.00     0.006 A 
ATOM     21  C   UNL A   1      33.521  27.125  24.033  1.00  0.00     0.020 A 
ATOM     22  C   UNL A   1      31.358  28.866  23.852  1.00  0.00     0.040 A 
ATOM     23  C   UNL A   1      31.545  27.877  22.888  1.00  0.00     0.135 A 
ATOM     24  F   UNL A   1      30.647  27.795  21.896  1.00  0.00    -0.206 F 
ENDBRANCH  14  17
ENDBRANCH   9  13
ENDBRANCH   5   8
ENDBRANCH   3   4
ENDBRANCH   2   3
ENDBRANCH   1   2
BRANCH   1  25
ATOM     25  C   UNL A   1      36.452  22.063  25.574  1.00  0.00     0.116 C 
BRANCH  25  26
ATOM     26  N   UNL A   1      37.471  21.028  25.668  1.00  0.00    -0.352 N 
ATOM     27  C   UNL A   1      38.805  21.150  25.980  1.00  0.00     0.251 C 
ATOM     28  H   UNL A   1      37.163  20.113  25.480  1.00  0.00     0.163 HD
ATOM     29  O   UNL A   1      39.550  20.187  25.856  1.00  0.00    -0.269 OA
BRANCH  27  30
ATOM     30  C   UNL A   1      39.331  22.451  26.444  1.00  0.00     0.039 A 
ATOM     31  C   UNL A   1      40.361  22.464  27.387  1.00  0.00     0.014 A 
ATOM     32  C   UNL A   1      38.822  23.650  25.939  1.00  0.00     0.014 A 
ATOM     33  C   UNL A   1      40.916  23.681  27.783  1.00  0.00     0.010 A 
ATOM     34  C   UNL A   1      39.435  24.854  26.269  1.00  0.00     0.010 A 
ATOM     35  C   UNL A   1      40.480  24.885  27.203  1.00  0.00    -0.014 A 
BRANCH  35  36
ATOM     36  C   UNL A   1      41.117  26.178  27.555  1.00  0.00     0.031 A 
ATOM     37  C   UNL A   1      42.541  26.460  27.162  1.00  0.00     0.074 A 
ATOM     38  C   UNL A   1      40.436  27.070  28.301  1.00  0.00     0.049 A 
ATOM     39  N   UNL A   1      43.267  27.521  27.403  1.00  0.00    -0.248 NA
ATOM     40  C   UNL A   1      43.253  25.401  26.431  1.00  0.00     0.031 C 
ATOM     41  C   UNL A   1      39.085  26.871  28.830  1.00  0.00     0.029 A 
ATOM     42  N   UNL A   1      40.796  28.309  28.765  1.00  0.00    -0.354 N 
ATOM     43  C   UNL A   1      44.525  27.247  26.882  1.00  0.00     0.074 A 
ATOM     44  C   UNL A   1      44.478  25.900  26.357  1.00  0.00     0.031 C 
ATOM     45  C   UNL A   1      38.731  27.949  29.546  1.00  0.00     0.029 A 
ATOM     46  C   UNL A   1      39.836  28.901  29.551  1.00  0.00     0.049 A 
ATOM     47  H   UNL A   1      41.659  28.733  28.556  1.00  0.00     0.167 HD
ATOM     48  C   UNL A   1      45.613  28.051  26.814  1.00  0.00     0.034 A 
ATOM     49  C   UNL A   1      39.848  30.074  30.214  1.00  0.00     0.034 A 
ATOM     50  C   UNL A   1      45.649  29.398  27.320  1.00  0.00     0.049 A 
ATOM     51  C   UNL A   1      41.046  30.972  30.090  1.00  0.00     0.074 A 
ATOM     52  C   UNL A   1      46.670  30.326  27.226  1.00  0.00     0.029 A 
ATOM     53  N   UNL A   1      44.625  30.002  28.034  1.00  0.00    -0.354 N 
ATOM     54  N   UNL A   1      42.168  30.764  29.445  1.00  0.00    -0.248 NA
ATOM     55  C   UNL A   1      40.965  32.282  30.749  1.00  0.00     0.031 C 
ATOM     56  C   UNL A   1      46.276  31.480  27.915  1.00  0.00     0.029 A 
ATOM     57  C   UNL A   1      44.993  31.286  28.402  1.00  0.00     0.049 A 
ATOM     58  H   UNL A   1      43.762  29.580  28.248  1.00  0.00     0.167 HD
ATOM     59  C   UNL A   1      42.917  31.925  29.598  1.00  0.00     0.074 A 
ATOM     60  C   UNL A   1      42.106  32.843  30.372  1.00  0.00     0.031 C 
ATOM     61  C   UNL A   1      44.168  32.201  29.150  1.00  0.00     0.034 A 
BRANCH  48  62
ATOM     62  C   UNL A   1      46.840  27.498  26.131  1.00  0.00     0.023 A 
ATOM     63  C   UNL A   1      47.005  27.673  24.740  1.00  0.00     0.012 A 
ATOM     64  C   UNL A   1      47.836  26.822  26.861  1.00  0.00     0.148 A 
ATOM     65  C   UNL A   1      48.108  27.136  24.079  1.00  0.00     0.002 A 
ATOM     66  C   UNL A   1      48.961  26.334  26.204  1.00  0.00     0.091 A 
ATOM     67  F   UNL A   1      47.658  26.644  28.178  1.00  0.00    -0.205 F 
ATOM     68  C   UNL A   1      49.090  26.474  24.811  1.00  0.00     0.022 A 
BRANCH  66  69
ATOM     69  S   UNL A   1      50.320  25.542  27.069  1.00  0.00     0.127 S 
ATOM     70  O   UNL A   1      51.276  25.327  25.983  1.00  0.00    -0.237 OA
ATOM     71  O   UNL A   1      50.713  26.570  28.033  1.00  0.00    -0.237 OA
ATOM     72  O   UNL A   1      49.765  24.334  27.665  1.00  0.00    -0.744 OA
ENDBRANCH  66  69
ENDBRANCH  48  62
BRANCH  49  73
ATOM     73  C   UNL A   1      38.657  30.475  31.014  1.00  0.00     0.023 A 
ATOM     74  C   UNL A   1      38.627  30.229  32.400  1.00  0.00     0.012 A 
ATOM     75  C   UNL A   1      37.580  31.156  30.412  1.00  0.00     0.148 A 
ATOM     76  C   UNL A   1      37.534  30.631  33.169  1.00  0.00     0.002 A 
ATOM     77  C   UNL A   1      36.524  31.606  31.192  1.00  0.00     0.091 A 
ATOM     78  F   UNL A   1      37.629  31.374  29.090  1.00  0.00    -0.205 F 
ATOM     79  C   UNL A   1      36.489  31.330  32.568  1.00  0.00     0.022 A 
BRANCH  77  80
ATOM     80  S   UNL A   1      35.210  32.639  30.533  1.00  0.00     0.127 S 
ATOM     81  O   UNL A   1      34.278  32.690  31.656  1.00  0.00    -0.237 OA
ATOM     82  O   UNL A   1      35.920  33.889  30.262  1.00  0.00    -0.237 OA
ATOM     83  O   UNL A   1      34.725  31.953  29.344  1.00  0.00    -0.744 OA
ENDBRANCH  77  80
ENDBRANCH  49  73
BRANCH  61  84
ATOM     84  C   UNL A   1      44.734  33.563  29.468  1.00  0.00     0.023 A 
ATOM     85  C   UNL A   1      45.453  33.766  30.662  1.00  0.00     0.012 A 
ATOM     86  C   UNL A   1      44.590  34.630  28.559  1.00  0.00     0.148 A 
ATOM     87  C   UNL A   1      45.983  35.020  30.969  1.00  0.00     0.002 A 
ATOM     88  C   UNL A   1      45.166  35.862  28.846  1.00  0.00     0.091 A 
ATOM     89  F   UNL A   1      43.886  34.425  27.436  1.00  0.00    -0.205 F 
ATOM     90  C   UNL A   1      45.849  36.063  30.056  1.00  0.00     0.022 A 
BRANCH  88  91
ATOM     91  S   UNL A   1      45.129  37.234  27.687  1.00  0.00     0.127 S 
ATOM     92  O   UNL A   1      43.693  37.397  27.466  1.00  0.00    -0.237 OA
ATOM     93  O   UNL A   1      45.754  38.308  28.458  1.00  0.00    -0.237 OA
ATOM     94  O   UNL A   1      45.895  36.800  26.527  1.00  0.00    -0.744 OA
ENDBRANCH  88  91
ENDBRANCH  61  84
ENDBRANCH  35  36
ENDBRANCH  27  30
ENDBRANCH  25  26
ENDBRANCH   1  25
TORSDOF 16
ENDMDL
MODEL 2
REMARK VINA RESULT:     -12.4      5.560      8.718
REMARK SMILES Cc1ccc(F)c(C(=O)N[C@@H]2C=C[C@@H](C(=O)NCCCCNC(=O)c3ccc(-c4c5nc(c(-c6cccc(S(=O)(=O)[O-])c6F)c6ccc([nH]6)c(-c6cccc(S(=O)(=O)[O-])c6F)c6nc(c(-c7cccc(S(=O)(=O)[O-])c7F)c7ccc4[nH]7)C=C6)C=C5)cc3)C2)c1
REMARK SMILES IDX 20 1 19 2 18 3 17 4 15 5 16 6 14 8 11 9 12 10 88 11 13 12
REMARK SMILES IDX 10 13 8 14 9 15 7 17 1 18 2 19 3 20 89 21 4 22 5 23 6 24
REMARK SMILES IDX 21 25 22 26 23 27 24 29 25 30 26 31 87 32 27 33 86 34 28 35
REMARK SMILES IDX 29 36 30 37 80 38 31 39 85 40 79 41 81 42 32 43 84 44 78 45
REMARK SMILES IDX 77 46 33 48 65 49 45 50 64 51 46 52 49 53 63 54 82 55 47 56
REMARK SMILES IDX 48 57 62 59 83 60 50 61 34 62 35 63 43 64 36 65 38 66 44 67
REMARK SMILES IDX 37 68 39 69 40 70 41 71 42 72 66 73 67 74 75 75 68 76 70 77
REMARK SMILES IDX 76 78 69 79 71 80 72 81 73 82 74 83 51 84 52 85 60 86 53 87
REMARK SMILES IDX 55 88 61 89 54 90 56 91 57 92 58 93 59 94
REMARK H PARENT 17 7 10 16 22 28 81 47 49 58
REMARK Flexibility Score: inf
ROOT
ATOM      1  C   UNL A   1      31.588  31.461  26.466  1.00  0.00     0.023 C 
ENDROOT
BRANCH   1   2
ATOM      2  C   UNL A   1      30.683  32.410  25.677  1.00  0.00     0.023 C 
BRANCH   2   3
ATOM      3  C   UNL A   1      29.668  31.729  24.763  1.00  0.00     0.116 C 
BRANCH   3   4
ATOM      4  N   UNL A   1      29.269  32.552  23.639  1.00  0.00    -0.356 N 
ATOM      5  C   UNL A   1      28.660  32.243  22.462  1.00  0.00     0.227 C 
ATOM      6  O   UNL A   1      28.261  33.191  21.777  1.00  0.00    -0.274 OA
ATOM      7  H   UNL A   1      29.475  33.509  23.748  1.00  0.00     0.163 HD
BRANCH   5   8
ATOM      8  C   UNL A   1      28.543  30.813  21.913  1.00  0.00     0.103 C 
ATOM      9  C   UNL A   1      29.781  28.888  22.824  1.00  0.00     0.106 C 
ATOM     10  C   UNL A   1      28.303  28.759  23.033  1.00  0.00    -0.006 C 
ATOM     11  C   UNL A   1      29.893  30.101  21.894  1.00  0.00     0.047 C 
ATOM     12  C   UNL A   1      27.640  29.839  22.597  1.00  0.00    -0.016 C 
BRANCH   9  13
ATOM     13  N   UNL A   1      30.334  27.653  22.315  1.00  0.00    -0.346 N 
ATOM     14  C   UNL A   1      31.215  26.757  22.886  1.00  0.00     0.254 C 
ATOM     15  O   UNL A   1      31.380  25.671  22.333  1.00  0.00    -0.269 OA
ATOM     16  H   UNL A   1      30.031  27.411  21.410  1.00  0.00     0.164 HD
BRANCH  14  17
ATOM     17  C   UNL A   1      32.017  27.105  24.088  1.00  0.00     0.075 A 
ATOM     18  C   UNL A   1      31.493  27.997  27.745  1.00  0.00     0.044 C 
ATOM     19  C   UNL A   1      32.177  27.735  26.433  1.00  0.00    -0.050 A 
ATOM     20  C   UNL A   1      33.483  28.186  26.221  1.00  0.00     0.006 A 
ATOM     21  C   UNL A   1      31.495  27.094  25.386  1.00  0.00     0.020 A 
ATOM     22  C   UNL A   1      34.068  28.064  24.963  1.00  0.00     0.040 A 
ATOM     23  C   UNL A   1      33.326  27.556  23.898  1.00  0.00     0.135 A 
ATOM     24  F   UNL A   1      33.892  27.566  22.682  1.00  0.00    -0.206 F 
ENDBRANCH  14  17
ENDBRANCH   9  13
ENDBRANCH   5   8
ENDBRANCH   3   4
ENDBRANCH   2   3
ENDBRANCH   1   2
BRANCH   1  25
ATOM     25  C   UNL A   1      32.754  32.137  27.178  1.00  0.00     0.116 C 
BRANCH  25  26
ATOM     26  N   UNL A   1      32.506  33.547  27.442  1.00  0.00    -0.352 N 
ATOM     27  C   UNL A   1      33.092  34.371  28.373  1.00  0.00     0.251 C 
ATOM     28  H   UNL A   1      31.822  33.969  26.875  1.00  0.00     0.163 HD
ATOM     29  O   UNL A   1      32.644  35.495  28.561  1.00  0.00    -0.269 OA
BRANCH  27  30
ATOM     30  C   UNL A   1      34.247  33.884  29.157  1.00  0.00     0.039 A 
ATOM     31  C   UNL A   1      34.016  33.022  30.232  1.00  0.00     0.014 A 
ATOM     32  C   UNL A   1      35.549  34.263  28.824  1.00  0.00     0.014 A 
ATOM     33  C   UNL A   1      35.100  32.498  30.937  1.00  0.00     0.010 A 
ATOM     34  C   UNL A   1      36.628  33.672  29.471  1.00  0.00     0.010 A 
ATOM     35  C   UNL A   1      36.416  32.793  30.544  1.00  0.00    -0.014 A 
BRANCH  35  36
ATOM     36  C   UNL A   1      37.577  32.179  31.234  1.00  0.00     0.031 A 
ATOM     37  C   UNL A   1      38.318  31.029  30.609  1.00  0.00     0.074 A 
ATOM     38  C   UNL A   1      37.916  32.606  32.467  1.00  0.00     0.049 A 
ATOM     39  N   UNL A   1      39.337  30.354  31.075  1.00  0.00    -0.248 NA
ATOM     40  C   UNL A   1      37.831  30.554  29.304  1.00  0.00     0.031 C 
ATOM     41  C   UNL A   1      37.212  33.644  33.223  1.00  0.00     0.029 A 
ATOM     42  N   UNL A   1      38.919  32.202  33.310  1.00  0.00    -0.354 N 
ATOM     43  C   UNL A   1      39.594  29.360  30.139  1.00  0.00     0.074 A 
ATOM     44  C   UNL A   1      38.593  29.489  29.103  1.00  0.00     0.031 C 
ATOM     45  C   UNL A   1      37.805  33.795  34.417  1.00  0.00     0.029 A 
ATOM     46  C   UNL A   1      38.909  32.847  34.523  1.00  0.00     0.049 A 
ATOM     47  H   UNL A   1      39.581  31.515  33.070  1.00  0.00     0.167 HD
ATOM     48  C   UNL A   1      40.592  28.444  30.122  1.00  0.00     0.034 A 
ATOM     49  C   UNL A   1      39.694  32.686  35.607  1.00  0.00     0.034 A 
ATOM     50  C   UNL A   1      41.598  28.333  31.145  1.00  0.00     0.049 A 
ATOM     51  C   UNL A   1      40.823  31.697  35.553  1.00  0.00     0.074 A 
ATOM     52  C   UNL A   1      42.701  27.499  31.182  1.00  0.00     0.029 A 
ATOM     53  N   UNL A   1      41.613  29.066  32.322  1.00  0.00    -0.354 N 
ATOM     54  N   UNL A   1      41.157  30.880  34.583  1.00  0.00    -0.248 NA
ATOM     55  C   UNL A   1      41.709  31.635  36.722  1.00  0.00     0.031 C 
ATOM     56  C   UNL A   1      43.362  27.703  32.399  1.00  0.00     0.029 A 
ATOM     57  C   UNL A   1      42.696  28.694  33.102  1.00  0.00     0.049 A 
ATOM     58  H   UNL A   1      40.951  29.751  32.568  1.00  0.00     0.167 HD
ATOM     59  C   UNL A   1      42.304  30.224  35.013  1.00  0.00     0.074 A 
ATOM     60  C   UNL A   1      42.624  30.764  36.320  1.00  0.00     0.031 C 
ATOM     61  C   UNL A   1      43.020  29.255  34.390  1.00  0.00     0.034 A 
BRANCH  48  62
ATOM     62  C   UNL A   1      40.658  27.516  28.934  1.00  0.00     0.023 A 
ATOM     63  C   UNL A   1      39.750  26.440  28.836  1.00  0.00     0.012 A 
ATOM     64  C   UNL A   1      41.603  27.712  27.908  1.00  0.00     0.148 A 
ATOM     65  C   UNL A   1      39.816  25.544  27.771  1.00  0.00     0.002 A 
ATOM     66  C   UNL A   1      41.629  26.845  26.821  1.00  0.00     0.091 A 
ATOM     67  F   UNL A   1      42.473  28.725  28.023  1.00  0.00    -0.205 F 
ATOM     68  C   UNL A   1      40.750  25.751  26.759  1.00  0.00     0.022 A 
BRANCH  66  69
ATOM     69  S   UNL A   1      42.737  27.076  25.427  1.00  0.00     0.127 S 
ATOM     70  O   UNL A   1      44.027  27.233  26.098  1.00  0.00    -0.237 OA
ATOM     71  O   UNL A   1      42.579  25.818  24.697  1.00  0.00    -0.237 OA
ATOM     72  O   UNL A   1      42.250  28.252  24.720  1.00  0.00    -0.744 OA
ENDBRANCH  66  69
ENDBRANCH  48  62
BRANCH  49  73
ATOM     73  C   UNL A   1      39.455  33.526  36.815  1.00  0.00     0.023 A 
ATOM     74  C   UNL A   1      39.847  34.878  36.818  1.00  0.00     0.012 A 
ATOM     75  C   UNL A   1      38.782  33.001  37.936  1.00  0.00     0.148 A 
ATOM     76  C   UNL A   1      39.597  35.687  37.927  1.00  0.00     0.002 A 
ATOM     77  C   UNL A   1      38.483  33.826  39.011  1.00  0.00     0.091 A 
ATOM     78  F   UNL A   1      38.423  31.709  37.911  1.00  0.00    -0.205 F 
ATOM     79  C   UNL A   1      38.904  35.165  39.018  1.00  0.00     0.022 A 
BRANCH  77  80
ATOM     80  S   UNL A   1      37.469  33.282  40.391  1.00  0.00     0.127 S 
ATOM     81  O   UNL A   1      36.240  32.876  39.716  1.00  0.00    -0.237 OA
ATOM     82  O   UNL A   1      38.268  32.183  40.933  1.00  0.00    -0.237 OA
ATOM     83  O   UNL A   1      37.351  34.433  41.275  1.00  0.00    -0.744 OA
ENDBRANCH  77  80
ENDBRANCH  49  73
BRANCH  61  84
ATOM     84  C   UNL A   1      44.239  28.725  35.103  1.00  0.00     0.023 A 
ATOM     85  C   UNL A   1      45.503  29.299  34.861  1.00  0.00     0.012 A 
ATOM     86  C   UNL A   1      44.122  27.688  36.050  1.00  0.00     0.148 A 
ATOM     87  C   UNL A   1      46.638  28.819  35.514  1.00  0.00     0.002 A 
ATOM     88  C   UNL A   1      45.249  27.251  36.736  1.00  0.00     0.091 A 
ATOM     89  F   UNL A   1      42.916  27.140  36.255  1.00  0.00    -0.205 F 
ATOM     90  C   UNL A   1      46.509  27.804  36.459  1.00  0.00     0.022 A 
BRANCH  88  91
ATOM     91  S   UNL A   1      45.163  26.017  38.039  1.00  0.00     0.127 S 
ATOM     92  O   UNL A   1      46.524  26.052  38.571  1.00  0.00    -0.237 OA
ATOM     93  O   UNL A   1      44.146  26.576  38.929  1.00  0.00    -0.237 OA
ATOM     94  O   UNL A   1      44.777  24.773  37.388  1.00  0.00    -0.744 OA
ENDBRANCH  88  91
ENDBRANCH  61  84
ENDBRANCH  35  36
ENDBRANCH  27  30
ENDBRANCH  25  26
ENDBRANCH   1  25
TORSDOF 16
ENDMDL
MODEL 3
REMARK VINA RESULT:     -12.3      4.331      9.287
REMARK SMILES Cc1ccc(F)c(C(=O)N[C@@H]2C=C[C@@H](C(=O)NCCCCNC(=O)c3ccc(-c4c5nc(c(-c6cccc(S(=O)(=O)[O-])c6F)c6ccc([nH]6)c(-c6cccc(S(=O)(=O)[O-])c6F)c6nc(c(-c7cccc(S(=O)(=O)[O-])c7F)c7ccc4[nH]7)C=C6)C=C5)cc3)C2)c1
REMARK SMILES IDX 20 1 19 2 18 3 17 4 15 5 16 6 14 8 11 9 12 10 88 11 13 12
REMARK SMILES IDX 10 13 8 14 9 15 7 17 1 18 2 19 3 20 89 21 4 22 5 23 6 24
REMARK SMILES IDX 21 25 22 26 23 27 24 29 25 30 26 31 87 32 27 33 86 34 28 35
REMARK SMILES IDX 29 36 30 37 80 38 31 39 85 40 79 41 81 42 32 43 84 44 78 45
REMARK SMILES IDX 77 46 33 48 65 49 45 50 64 51 46 52 49 53 63 54 82 55 47 56
REMARK SMILES IDX 48 57 62 59 83 60 50 61 34 62 35 63 43 64 36 65 38 66 44 67
REMARK SMILES IDX 37 68 39 69 40 70 41 71 42 72 66 73 67 74 75 75 68 76 70 77
REMARK SMILES IDX 76 78 69 79 71 80 72 81 73 82 74 83 51 84 52 85 60 86 53 87
REMARK SMILES IDX 55 88 61 89 54 90 56 91 57 92 58 93 59 94
REMARK H PARENT 17 7 10 16 22 28 81 47 49 58
REMARK Flexibility Score: inf
ROOT
ATOM      1  C   UNL A   1      34.091  27.968  24.828  1.00  0.00     0.023 C 
ENDROOT
BRANCH   1   2
ATOM      2  C   UNL A   1      33.583  29.122  23.961  1.00  0.00     0.023 C 
BRANCH   2   3
ATOM      3  C   UNL A   1      32.663  28.715  22.812  1.00  0.00     0.116 C 
BRANCH   3   4
ATOM      4  N   UNL A   1      33.167  27.592  22.047  1.00  0.00    -0.356 N 
ATOM      5  C   UNL A   1      32.644  26.363  21.793  1.00  0.00     0.227 C 
ATOM      6  O   UNL A   1      33.217  25.681  20.936  1.00  0.00    -0.274 OA
ATOM      7  H   UNL A   1      34.048  27.749  21.635  1.00  0.00     0.163 HD
BRANCH   5   8
ATOM      8  C   UNL A   1      31.470  25.757  22.577  1.00  0.00     0.103 C 
ATOM      9  C   UNL A   1      31.425  25.542  25.031  1.00  0.00     0.106 C 
ATOM     10  C   UNL A   1      30.390  26.501  24.529  1.00  0.00    -0.006 C 
ATOM     11  C   UNL A   1      31.950  24.898  23.743  1.00  0.00     0.047 C 
ATOM     12  C   UNL A   1      30.462  26.666  23.201  1.00  0.00    -0.016 C 
BRANCH   9  13
ATOM     13  N   UNL A   1      30.854  24.633  25.999  1.00  0.00    -0.346 N 
ATOM     14  C   UNL A   1      31.413  23.567  26.674  1.00  0.00     0.254 C 
ATOM     15  O   UNL A   1      30.779  23.070  27.603  1.00  0.00    -0.269 OA
ATOM     16  H   UNL A   1      29.909  24.805  26.214  1.00  0.00     0.164 HD
BRANCH  14  17
ATOM     17  C   UNL A   1      32.704  22.963  26.252  1.00  0.00     0.075 A 
ATOM     18  C   UNL A   1      36.358  23.941  25.881  1.00  0.00     0.044 C 
ATOM     19  C   UNL A   1      35.096  23.128  25.833  1.00  0.00    -0.050 A 
ATOM     20  C   UNL A   1      35.036  21.973  25.048  1.00  0.00     0.006 A 
ATOM     21  C   UNL A   1      33.946  23.549  26.521  1.00  0.00     0.020 A 
ATOM     22  C   UNL A   1      33.829  21.295  24.894  1.00  0.00     0.040 A 
ATOM     23  C   UNL A   1      32.667  21.807  25.468  1.00  0.00     0.135 A 
ATOM     24  F   UNL A   1      31.510  21.185  25.197  1.00  0.00    -0.206 F 
ENDBRANCH  14  17
ENDBRANCH   9  13
ENDBRANCH   5   8
ENDBRANCH   3   4
ENDBRANCH   2   3
ENDBRANCH   1   2
BRANCH   1  25
ATOM     25  C   UNL A   1      34.008  28.216  26.330  1.00  0.00     0.116 C 
BRANCH  25  26
ATOM     26  N   UNL A   1      33.674  29.596  26.651  1.00  0.00    -0.352 N 
ATOM     27  C   UNL A   1      34.336  30.481  27.470  1.00  0.00     0.251 C 
ATOM     28  H   UNL A   1      32.860  29.945  26.222  1.00  0.00     0.163 HD
ATOM     29  O   UNL A   1      33.821  31.556  27.748  1.00  0.00    -0.269 OA
BRANCH  27  30
ATOM     30  C   UNL A   1      35.657  30.116  28.025  1.00  0.00     0.039 A 
ATOM     31  C   UNL A   1      35.727  29.633  29.333  1.00  0.00     0.014 A 
ATOM     32  C   UNL A   1      36.815  30.235  27.253  1.00  0.00     0.014 A 
ATOM     33  C   UNL A   1      36.956  29.219  29.848  1.00  0.00     0.010 A 
ATOM     34  C   UNL A   1      38.021  29.740  27.736  1.00  0.00     0.010 A 
ATOM     35  C   UNL A   1      38.108  29.238  29.043  1.00  0.00    -0.014 A 
BRANCH  35  36
ATOM     36  C   UNL A   1      39.405  28.725  29.551  1.00  0.00     0.031 A 
ATOM     37  C   UNL A   1      40.125  29.437  30.663  1.00  0.00     0.074 A 
ATOM     38  C   UNL A   1      39.975  27.659  28.955  1.00  0.00     0.049 A 
ATOM     39  N   UNL A   1      41.274  29.149  31.217  1.00  0.00    -0.248 NA
ATOM     40  C   UNL A   1      39.488  30.649  31.201  1.00  0.00     0.031 C 
ATOM     41  C   UNL A   1      39.425  26.944  27.802  1.00  0.00     0.029 A 
ATOM     42  N   UNL A   1      41.154  27.010  29.218  1.00  0.00    -0.354 N 
ATOM     43  C   UNL A   1      41.511  30.155  32.145  1.00  0.00     0.074 A 
ATOM     44  C   UNL A   1      40.411  31.089  32.043  1.00  0.00     0.031 C 
ATOM     45  C   UNL A   1      40.264  25.956  27.457  1.00  0.00     0.029 A 
ATOM     46  C   UNL A   1      41.423  25.985  28.344  1.00  0.00     0.049 A 
ATOM     47  H   UNL A   1      41.750  27.256  29.962  1.00  0.00     0.167 HD
ATOM     48  C   UNL A   1      42.533  30.278  33.027  1.00  0.00     0.034 A 
ATOM     49  C   UNL A   1      42.490  25.166  28.256  1.00  0.00     0.034 A 
ATOM     50  C   UNL A   1      43.615  29.336  33.138  1.00  0.00     0.049 A 
ATOM     51  C   UNL A   1      43.591  25.288  29.270  1.00  0.00     0.074 A 
ATOM     52  C   UNL A   1      44.652  29.319  34.053  1.00  0.00     0.029 A 
ATOM     53  N   UNL A   1      43.811  28.253  32.294  1.00  0.00    -0.354 N 
ATOM     54  N   UNL A   1      43.714  26.146  30.254  1.00  0.00    -0.248 NA
ATOM     55  C   UNL A   1      44.679  24.306  29.190  1.00  0.00     0.031 C 
ATOM     56  C   UNL A   1      45.495  28.247  33.739  1.00  0.00     0.029 A 
ATOM     57  C   UNL A   1      44.961  27.570  32.654  1.00  0.00     0.049 A 
ATOM     58  H   UNL A   1      43.220  28.006  31.546  1.00  0.00     0.167 HD
ATOM     59  C   UNL A   1      44.878  25.794  30.925  1.00  0.00     0.074 A 
ATOM     60  C   UNL A   1      45.407  24.624  30.253  1.00  0.00     0.031 C 
ATOM     61  C   UNL A   1      45.464  26.391  31.993  1.00  0.00     0.034 A 
BRANCH  48  62
ATOM     62  C   UNL A   1      42.498  31.460  33.965  1.00  0.00     0.023 A 
ATOM     63  C   UNL A   1      43.230  32.624  33.648  1.00  0.00     0.012 A 
ATOM     64  C   UNL A   1      41.735  31.428  35.147  1.00  0.00     0.148 A 
ATOM     65  C   UNL A   1      43.249  33.714  34.518  1.00  0.00     0.002 A 
ATOM     66  C   UNL A   1      41.716  32.539  35.984  1.00  0.00     0.091 A 
ATOM     67  F   UNL A   1      41.061  30.309  35.446  1.00  0.00    -0.205 F 
ATOM     68  C   UNL A   1      42.485  33.675  35.680  1.00  0.00     0.022 A 
BRANCH  66  69
ATOM     69  S   UNL A   1      40.699  32.619  37.462  1.00  0.00     0.127 S 
ATOM     70  O   UNL A   1      41.580  32.014  38.459  1.00  0.00    -0.237 OA
ATOM     71  O   UNL A   1      40.498  34.060  37.619  1.00  0.00    -0.237 OA
ATOM     72  O   UNL A   1      39.488  31.869  37.155  1.00  0.00    -0.744 OA
ENDBRANCH  66  69
ENDBRANCH  48  62
BRANCH  49  73
ATOM     73  C   UNL A   1      42.530  24.129  27.187  1.00  0.00     0.023 A 
ATOM     74  C   UNL A   1      43.229  24.382  25.991  1.00  0.00     0.012 A 
ATOM     75  C   UNL A   1      41.929  22.870  27.381  1.00  0.00     0.148 A 
ATOM     76  C   UNL A   1      43.307  23.407  24.995  1.00  0.00     0.002 A 
ATOM     77  C   UNL A   1      42.061  21.884  26.412  1.00  0.00     0.091 A 
ATOM     78  F   UNL A   1      41.264  22.656  28.525  1.00  0.00    -0.205 F 
ATOM     79  C   UNL A   1      42.734  22.155  25.210  1.00  0.00     0.022 A 
BRANCH  77  80
ATOM     80  S   UNL A   1      41.484  20.202  26.664  1.00  0.00     0.127 S 
ATOM     81  O   UNL A   1      40.044  20.398  26.805  1.00  0.00    -0.237 OA
ATOM     82  O   UNL A   1      41.900  19.554  25.420  1.00  0.00    -0.237 OA
ATOM     83  O   UNL A   1      42.174  19.721  27.853  1.00  0.00    -0.744 OA
ENDBRANCH  77  80
ENDBRANCH  49  73
BRANCH  61  84
ATOM     84  C   UNL A   1      46.738  25.778  32.519  1.00  0.00     0.023 A 
ATOM     85  C   UNL A   1      46.697  24.910  33.628  1.00  0.00     0.012 A 
ATOM     86  C   UNL A   1      47.970  26.027  31.884  1.00  0.00     0.148 A 
ATOM     87  C   UNL A   1      47.867  24.335  34.125  1.00  0.00     0.002 A 
ATOM     88  C   UNL A   1      49.124  25.409  32.351  1.00  0.00     0.091 A 
ATOM     89  F   UNL A   1      47.995  26.870  30.841  1.00  0.00    -0.205 F 
ATOM     90  C   UNL A   1      49.077  24.575  33.480  1.00  0.00     0.022 A 
BRANCH  88  91
ATOM     91  S   UNL A   1      50.710  25.582  31.525  1.00  0.00     0.127 S 
ATOM     92  O   UNL A   1      51.572  24.745  32.357  1.00  0.00    -0.237 OA
ATOM     93  O   UNL A   1      50.429  25.038  30.197  1.00  0.00    -0.237 OA
ATOM     94  O   UNL A   1      51.017  27.006  31.540  1.00  0.00    -0.744 OA
ENDBRANCH  88  91
ENDBRANCH  61  84
ENDBRANCH  35  36
ENDBRANCH  27  30
ENDBRANCH  25  26
ENDBRANCH   1  25
TORSDOF 16
ENDMDL
