MODEL 1
REMARK VINA RESULT:     -10.7      0.000      0.000
REMARK SMILES NC(=O)CC[C@H](NC(=O)CC1CC1)C(=O)NCCCCNC(=O)c1ccc(-c2c3nc(c(-c4cccc(S(=O)(=O)[O-])c4F)c4ccc([nH]4)c(-c4cccc(S(=O)(=O)[O-])c4F)c4nc(c(-c5cccc(S(=O)(=O)[O-])c5F)c5ccc2[nH]5)C=C4)C=C3)cc1
REMARK SMILES IDX 18 1 17 2 16 3 14 4 15 5 6 7 5 8 4 9 2 10 1 11 3 14 7 15
REMARK SMILES IDX 8 16 9 18 10 19 11 20 12 21 13 22 19 23 20 24 21 25 22 26
REMARK SMILES IDX 23 28 24 29 25 30 86 31 26 32 85 33 27 34 28 35 29 36 79 37
REMARK SMILES IDX 30 38 84 39 78 40 80 41 31 42 83 43 77 44 76 45 32 47 64 48
REMARK SMILES IDX 44 49 63 50 45 51 48 52 62 53 81 54 46 55 47 56 61 58 82 59
REMARK SMILES IDX 49 60 33 61 34 62 42 63 35 64 37 65 43 66 36 67 38 68 39 69
REMARK SMILES IDX 40 70 41 71 65 72 66 73 74 74 67 75 69 76 75 77 68 78 70 79
REMARK SMILES IDX 71 80 72 81 73 82 50 83 51 84 59 85 52 86 54 87 60 88 53 89
REMARK SMILES IDX 55 90 56 91 57 92 58 93
REMARK H PARENT 16 6 1 12 1 13 7 17 21 27 80 46 48 57
REMARK Flexibility Score: inf
ROOT
ATOM      1  C   UNL A   1      33.673  28.419  24.942  1.00  0.00     0.023 C 
ENDROOT
BRANCH   1   2
ATOM      2  C   UNL A   1      33.279  27.044  24.418  1.00  0.00     0.116 C 
BRANCH   2   3
ATOM      3  N   UNL A   1      33.515  26.778  23.011  1.00  0.00    -0.354 N 
ATOM      4  C   UNL A   1      33.458  25.590  22.325  1.00  0.00     0.242 C 
ATOM      5  O   UNL A   1      33.436  25.669  21.090  1.00  0.00    -0.273 OA
ATOM      6  H   UNL A   1      33.752  27.564  22.470  1.00  0.00     0.163 HD
BRANCH   4   7
ATOM      7  C   UNL A   1      33.535  24.170  23.002  1.00  0.00     0.171 C 
BRANCH   7   8
ATOM      8  C   UNL A   1      34.978  23.788  23.400  1.00  0.00     0.045 C 
BRANCH   8   9
ATOM      9  C   UNL A   1      35.383  23.862  24.879  1.00  0.00     0.102 C 
BRANCH   9  10
ATOM     10  C   UNL A   1      36.598  23.075  25.314  1.00  0.00     0.217 C 
ATOM     11  N   UNL A   1      37.789  23.530  24.836  1.00  0.00    -0.370 N 
ATOM     12  H   UNL A   1      38.624  23.067  25.077  1.00  0.00     0.159 HD
ATOM     13  H   UNL A   1      37.816  24.320  24.250  1.00  0.00     0.159 HD
ATOM     14  O   UNL A   1      36.542  22.088  26.038  1.00  0.00    -0.275 OA
ENDBRANCH   9  10
ENDBRANCH   8   9
ENDBRANCH   7   8
BRANCH   7  15
ATOM     15  N   UNL A   1      32.735  23.110  22.401  1.00  0.00    -0.344 N 
ATOM     16  C   UNL A   1      32.157  21.974  22.871  1.00  0.00     0.220 C 
ATOM     17  H   UNL A   1      32.578  23.249  21.439  1.00  0.00     0.164 HD
ATOM     18  O   UNL A   1      31.791  21.155  22.023  1.00  0.00    -0.275 OA
BRANCH  16  19
ATOM     19  C   UNL A   1      31.944  21.717  24.342  1.00  0.00     0.103 C 
BRANCH  19  20
ATOM     20  C   UNL A   1      32.473  20.425  24.892  1.00  0.00    -0.002 C 
ATOM     21  C   UNL A   1      33.001  19.244  24.106  1.00  0.00     0.004 C 
ATOM     22  C   UNL A   1      33.960  20.196  24.748  1.00  0.00     0.004 C 
ENDBRANCH  19  20
ENDBRANCH  16  19
ENDBRANCH   7  15
ENDBRANCH   4   7
ENDBRANCH   2   3
ENDBRANCH   1   2
BRANCH   1  23
ATOM     23  C   UNL A   1      32.567  29.445  25.152  1.00  0.00     0.023 C 
BRANCH  23  24
ATOM     24  C   UNL A   1      32.260  29.851  26.589  1.00  0.00     0.116 C 
BRANCH  24  25
ATOM     25  N   UNL A   1      32.269  31.288  26.830  1.00  0.00    -0.352 N 
ATOM     26  C   UNL A   1      33.237  32.098  27.382  1.00  0.00     0.251 C 
ATOM     27  H   UNL A   1      31.449  31.757  26.553  1.00  0.00     0.163 HD
ATOM     28  O   UNL A   1      33.005  33.297  27.540  1.00  0.00    -0.269 OA
BRANCH  26  29
ATOM     29  C   UNL A   1      34.532  31.539  27.830  1.00  0.00     0.039 A 
ATOM     30  C   UNL A   1      35.621  32.403  27.978  1.00  0.00     0.014 A 
ATOM     31  C   UNL A   1      34.678  30.183  28.127  1.00  0.00     0.014 A 
ATOM     32  C   UNL A   1      36.816  31.927  28.524  1.00  0.00     0.010 A 
ATOM     33  C   UNL A   1      35.835  29.731  28.759  1.00  0.00     0.010 A 
ATOM     34  C   UNL A   1      36.916  30.599  28.976  1.00  0.00    -0.014 A 
BRANCH  34  35
ATOM     35  C   UNL A   1      38.118  30.135  29.722  1.00  0.00     0.031 A 
ATOM     36  C   UNL A   1      38.427  30.655  31.101  1.00  0.00     0.074 A 
ATOM     37  C   UNL A   1      38.984  29.293  29.119  1.00  0.00     0.049 A 
ATOM     38  N   UNL A   1      39.425  30.350  31.890  1.00  0.00    -0.248 NA
ATOM     39  C   UNL A   1      37.515  31.667  31.658  1.00  0.00     0.031 C 
ATOM     40  C   UNL A   1      38.862  28.796  27.746  1.00  0.00     0.029 A 
ATOM     41  N   UNL A   1      40.147  28.721  29.572  1.00  0.00    -0.354 N 
ATOM     42  C   UNL A   1      39.280  31.148  33.019  1.00  0.00     0.074 A 
ATOM     43  C   UNL A   1      38.119  31.981  32.794  1.00  0.00     0.031 C 
ATOM     44  C   UNL A   1      39.894  27.980  27.477  1.00  0.00     0.029 A 
ATOM     45  C   UNL A   1      40.767  27.917  28.644  1.00  0.00     0.049 A 
ATOM     46  H   UNL A   1      40.503  28.872  30.478  1.00  0.00     0.167 HD
ATOM     47  C   UNL A   1      40.024  31.167  34.151  1.00  0.00     0.034 A 
ATOM     48  C   UNL A   1      41.910  27.204  28.720  1.00  0.00     0.034 A 
ATOM     49  C   UNL A   1      41.157  30.312  34.388  1.00  0.00     0.049 A 
ATOM     50  C   UNL A   1      42.683  27.199  30.010  1.00  0.00     0.074 A 
ATOM     51  C   UNL A   1      41.914  30.188  35.540  1.00  0.00     0.029 A 
ATOM     52  N   UNL A   1      41.706  29.446  33.456  1.00  0.00    -0.354 N 
ATOM     53  N   UNL A   1      42.422  27.825  31.132  1.00  0.00    -0.248 NA
ATOM     54  C   UNL A   1      43.886  26.356  30.058  1.00  0.00     0.031 C 
ATOM     55  C   UNL A   1      42.940  29.269  35.294  1.00  0.00     0.029 A 
ATOM     56  C   UNL A   1      42.800  28.794  34.001  1.00  0.00     0.049 A 
ATOM     57  H   UNL A   1      41.369  29.313  32.541  1.00  0.00     0.167 HD
ATOM     58  C   UNL A   1      43.410  27.429  32.028  1.00  0.00     0.074 A 
ATOM     59  C   UNL A   1      44.253  26.482  31.326  1.00  0.00     0.031 C 
ATOM     60  C   UNL A   1      43.611  27.826  33.308  1.00  0.00     0.034 A 
BRANCH  47  61
ATOM     61  C   UNL A   1      39.602  32.108  35.251  1.00  0.00     0.023 A 
ATOM     62  C   UNL A   1      38.678  31.671  36.224  1.00  0.00     0.012 A 
ATOM     63  C   UNL A   1      40.167  33.394  35.364  1.00  0.00     0.148 A 
ATOM     64  C   UNL A   1      38.297  32.510  37.271  1.00  0.00     0.002 A 
ATOM     65  C   UNL A   1      39.818  34.206  36.436  1.00  0.00     0.091 A 
ATOM     66  F   UNL A   1      41.028  33.799  34.420  1.00  0.00    -0.205 F 
ATOM     67  C   UNL A   1      38.875  33.771  37.383  1.00  0.00     0.022 A 
BRANCH  65  68
ATOM     68  S   UNL A   1      40.564  35.816  36.720  1.00  0.00     0.127 S 
ATOM     69  O   UNL A   1      39.732  36.679  35.882  1.00  0.00    -0.237 OA
ATOM     70  O   UNL A   1      40.372  35.994  38.159  1.00  0.00    -0.237 OA
ATOM     71  O   UNL A   1      41.954  35.694  36.301  1.00  0.00    -0.744 OA
ENDBRANCH  65  68
ENDBRANCH  47  61
BRANCH  48  72
ATOM     72  C   UNL A   1      42.356  26.382  27.560  1.00  0.00     0.023 A 
ATOM     73  C   UNL A   1      43.218  26.946  26.599  1.00  0.00     0.012 A 
ATOM     74  C   UNL A   1      41.948  25.042  27.412  1.00  0.00     0.148 A 
ATOM     75  C   UNL A   1      43.634  26.205  25.492  1.00  0.00     0.002 A 
ATOM     76  C   UNL A   1      42.413  24.291  26.339  1.00  0.00     0.091 A 
ATOM     77  F   UNL A   1      41.118  24.527  28.330  1.00  0.00    -0.205 F 
ATOM     78  C   UNL A   1      43.239  24.876  25.367  1.00  0.00     0.022 A 
BRANCH  76  79
ATOM     79  S   UNL A   1      42.068  22.536  26.174  1.00  0.00     0.127 S 
ATOM     80  O   UNL A   1      42.809  22.197  24.961  1.00  0.00    -0.237 OA
ATOM     81  O   UNL A   1      42.632  21.999  27.412  1.00  0.00    -0.237 OA
ATOM     82  O   UNL A   1      40.618  22.428  26.081  1.00  0.00    -0.744 OA
ENDBRANCH  76  79
ENDBRANCH  48  72
BRANCH  60  83
ATOM     83  C   UNL A   1      44.778  27.219  34.046  1.00  0.00     0.023 A 
ATOM     84  C   UNL A   1      46.039  27.848  34.004  1.00  0.00     0.012 A 
ATOM     85  C   UNL A   1      44.617  26.049  34.814  1.00  0.00     0.148 A 
ATOM     86  C   UNL A   1      47.131  27.295  34.673  1.00  0.00     0.002 A 
ATOM     87  C   UNL A   1      45.697  25.533  35.521  1.00  0.00     0.091 A 
ATOM     88  F   UNL A   1      43.416  25.452  34.829  1.00  0.00    -0.205 F 
ATOM     89  C   UNL A   1      46.957  26.145  35.440  1.00  0.00     0.022 A 
BRANCH  87  90
ATOM     90  S   UNL A   1      45.541  24.113  36.610  1.00  0.00     0.127 S 
ATOM     91  O   UNL A   1      45.173  23.057  35.669  1.00  0.00    -0.237 OA
ATOM     92  O   UNL A   1      46.890  23.994  37.163  1.00  0.00    -0.237 OA
ATOM     93  O   UNL A   1      44.520  24.469  37.586  1.00  0.00    -0.744 OA
ENDBRANCH  87  90
ENDBRANCH  60  83
ENDBRANCH  34  35
ENDBRANCH  26  29
ENDBRANCH  24  25
ENDBRANCH  23  24
ENDBRANCH   1  23
TORSDOF 20
ENDMDL
MODEL 2
REMARK VINA RESULT:     -10.6      1.360      2.218
REMARK SMILES NC(=O)CC[C@H](NC(=O)CC1CC1)C(=O)NCCCCNC(=O)c1ccc(-c2c3nc(c(-c4cccc(S(=O)(=O)[O-])c4F)c4ccc([nH]4)c(-c4cccc(S(=O)(=O)[O-])c4F)c4nc(c(-c5cccc(S(=O)(=O)[O-])c5F)c5ccc2[nH]5)C=C4)C=C3)cc1
REMARK SMILES IDX 18 1 17 2 16 3 14 4 15 5 6 7 5 8 4 9 2 10 1 11 3 14 7 15
REMARK SMILES IDX 8 16 9 18 10 19 11 20 12 21 13 22 19 23 20 24 21 25 22 26
REMARK SMILES IDX 23 28 24 29 25 30 86 31 26 32 85 33 27 34 28 35 29 36 79 37
REMARK SMILES IDX 30 38 84 39 78 40 80 41 31 42 83 43 77 44 76 45 32 47 64 48
REMARK SMILES IDX 44 49 63 50 45 51 48 52 62 53 81 54 46 55 47 56 61 58 82 59
REMARK SMILES IDX 49 60 33 61 34 62 42 63 35 64 37 65 43 66 36 67 38 68 39 69
REMARK SMILES IDX 40 70 41 71 65 72 66 73 74 74 67 75 69 76 75 77 68 78 70 79
REMARK SMILES IDX 71 80 72 81 73 82 50 83 51 84 59 85 52 86 54 87 60 88 53 89
REMARK SMILES IDX 55 90 56 91 57 92 58 93
REMARK H PARENT 16 6 1 12 1 13 7 17 21 27 80 46 48 57
REMARK Flexibility Score: inf
ROOT
ATOM      1  C   UNL A   1      33.253  29.111  25.388  1.00  0.00     0.023 C 
ENDROOT
BRANCH   1   2
ATOM      2  C   UNL A   1      33.049  27.730  25.997  1.00  0.00     0.116 C 
BRANCH   2   3
ATOM      3  N   UNL A   1      34.107  26.756  25.803  1.00  0.00    -0.354 N 
ATOM      4  C   UNL A   1      34.020  25.415  25.520  1.00  0.00     0.242 C 
ATOM      5  O   UNL A   1      35.061  24.866  25.138  1.00  0.00    -0.273 OA
ATOM      6  H   UNL A   1      35.022  27.108  25.886  1.00  0.00     0.163 HD
BRANCH   4   7
ATOM      7  C   UNL A   1      32.734  24.539  25.763  1.00  0.00     0.171 C 
BRANCH   7   8
ATOM      8  C   UNL A   1      32.938  23.494  26.881  1.00  0.00     0.045 C 
BRANCH   8   9
ATOM      9  C   UNL A   1      33.006  22.007  26.504  1.00  0.00     0.102 C 
BRANCH   9  10
ATOM     10  C   UNL A   1      34.337  21.462  26.037  1.00  0.00     0.217 C 
ATOM     11  N   UNL A   1      35.433  22.038  26.602  1.00  0.00    -0.370 N 
ATOM     12  H   UNL A   1      36.335  21.734  26.346  1.00  0.00     0.159 HD
ATOM     13  H   UNL A   1      35.327  22.757  27.265  1.00  0.00     0.159 HD
ATOM     14  O   UNL A   1      34.448  20.572  25.202  1.00  0.00    -0.275 OA
ENDBRANCH   9  10
ENDBRANCH   8   9
ENDBRANCH   7   8
BRANCH   7  15
ATOM     15  N   UNL A   1      32.019  24.079  24.580  1.00  0.00    -0.344 N 
ATOM     16  C   UNL A   1      30.801  24.349  24.041  1.00  0.00     0.220 C 
ATOM     17  H   UNL A   1      32.533  23.426  24.052  1.00  0.00     0.164 HD
ATOM     18  O   UNL A   1      30.397  23.561  23.180  1.00  0.00    -0.275 OA
BRANCH  16  19
ATOM     19  C   UNL A   1      29.981  25.550  24.441  1.00  0.00     0.103 C 
BRANCH  19  20
ATOM     20  C   UNL A   1      29.830  26.642  23.424  1.00  0.00    -0.002 C 
ATOM     21  C   UNL A   1      30.095  28.120  23.622  1.00  0.00     0.004 C 
ATOM     22  C   UNL A   1      31.111  27.272  22.924  1.00  0.00     0.004 C 
ENDBRANCH  19  20
ENDBRANCH  16  19
ENDBRANCH   7  15
ENDBRANCH   4   7
ENDBRANCH   2   3
ENDBRANCH   1   2
BRANCH   1  23
ATOM     23  C   UNL A   1      32.151  30.144  25.578  1.00  0.00     0.023 C 
BRANCH  23  24
ATOM     24  C   UNL A   1      31.956  30.703  26.983  1.00  0.00     0.116 C 
BRANCH  24  25
ATOM     25  N   UNL A   1      32.123  32.146  27.091  1.00  0.00    -0.352 N 
ATOM     26  C   UNL A   1      33.193  32.894  27.533  1.00  0.00     0.251 C 
ATOM     27  H   UNL A   1      31.344  32.673  26.802  1.00  0.00     0.163 HD
ATOM     28  O   UNL A   1      33.092  34.120  27.590  1.00  0.00    -0.269 OA
BRANCH  26  29
ATOM     29  C   UNL A   1      34.442  32.242  27.984  1.00  0.00     0.039 A 
ATOM     30  C   UNL A   1      35.613  33.004  28.046  1.00  0.00     0.014 A 
ATOM     31  C   UNL A   1      34.468  30.900  28.366  1.00  0.00     0.014 A 
ATOM     32  C   UNL A   1      36.774  32.451  28.592  1.00  0.00     0.010 A 
ATOM     33  C   UNL A   1      35.597  30.379  28.998  1.00  0.00     0.010 A 
ATOM     34  C   UNL A   1      36.762  31.151  29.129  1.00  0.00    -0.014 A 
BRANCH  34  35
ATOM     35  C   UNL A   1      37.938  30.621  29.873  1.00  0.00     0.031 A 
ATOM     36  C   UNL A   1      38.239  31.074  31.277  1.00  0.00     0.074 A 
ATOM     37  C   UNL A   1      38.788  29.779  29.249  1.00  0.00     0.049 A 
ATOM     38  N   UNL A   1      39.215  30.708  32.068  1.00  0.00    -0.248 NA
ATOM     39  C   UNL A   1      37.348  32.090  31.861  1.00  0.00     0.031 C 
ATOM     40  C   UNL A   1      38.674  29.342  27.854  1.00  0.00     0.029 A 
ATOM     41  N   UNL A   1      39.926  29.154  29.696  1.00  0.00    -0.354 N 
ATOM     42  C   UNL A   1      39.074  31.464  33.226  1.00  0.00     0.074 A 
ATOM     43  C   UNL A   1      37.941  32.340  33.019  1.00  0.00     0.031 C 
ATOM     44  C   UNL A   1      39.686  28.508  27.568  1.00  0.00     0.029 A 
ATOM     45  C   UNL A   1      40.538  28.371  28.745  1.00  0.00     0.049 A 
ATOM     46  H   UNL A   1      40.272  29.258  30.612  1.00  0.00     0.167 HD
ATOM     47  C   UNL A   1      39.800  31.414  34.369  1.00  0.00     0.034 A 
ATOM     48  C   UNL A   1      41.658  27.622  28.809  1.00  0.00     0.034 A 
ATOM     49  C   UNL A   1      40.903  30.517  34.588  1.00  0.00     0.049 A 
ATOM     50  C   UNL A   1      42.410  27.542  30.109  1.00  0.00     0.074 A 
ATOM     51  C   UNL A   1      41.637  30.324  35.745  1.00  0.00     0.029 A 
ATOM     52  N   UNL A   1      41.443  29.674  33.630  1.00  0.00    -0.354 N 
ATOM     53  N   UNL A   1      42.149  28.128  31.251  1.00  0.00    -0.248 NA
ATOM     54  C   UNL A   1      43.587  26.662  30.140  1.00  0.00     0.031 C 
ATOM     55  C   UNL A   1      42.640  29.385  35.477  1.00  0.00     0.029 A 
ATOM     56  C   UNL A   1      42.508  28.968  34.163  1.00  0.00     0.049 A 
ATOM     57  H   UNL A   1      41.116  29.589  32.705  1.00  0.00     0.167 HD
ATOM     58  C   UNL A   1      43.110  27.667  32.145  1.00  0.00     0.074 A 
ATOM     59  C   UNL A   1      43.936  26.725  31.417  1.00  0.00     0.031 C 
ATOM     60  C   UNL A   1      43.301  28.005  33.443  1.00  0.00     0.034 A 
BRANCH  47  61
ATOM     61  C   UNL A   1      39.388  32.321  35.501  1.00  0.00     0.023 A 
ATOM     62  C   UNL A   1      38.581  31.813  36.541  1.00  0.00     0.012 A 
ATOM     63  C   UNL A   1      39.850  33.650  35.573  1.00  0.00     0.148 A 
ATOM     64  C   UNL A   1      38.214  32.622  37.616  1.00  0.00     0.002 A 
ATOM     65  C   UNL A   1      39.519  34.435  36.671  1.00  0.00     0.091 A 
ATOM     66  F   UNL A   1      40.600  34.122  34.566  1.00  0.00    -0.205 F 
ATOM     67  C   UNL A   1      38.692  33.927  37.687  1.00  0.00     0.022 A 
BRANCH  65  68
ATOM     68  S   UNL A   1      40.149  36.102  36.899  1.00  0.00     0.127 S 
ATOM     69  O   UNL A   1      41.584  35.859  37.040  1.00  0.00    -0.237 OA
ATOM     70  O   UNL A   1      39.760  36.752  35.647  1.00  0.00    -0.237 OA
ATOM     71  O   UNL A   1      39.485  36.624  38.086  1.00  0.00    -0.744 OA
ENDBRANCH  65  68
ENDBRANCH  47  61
BRANCH  48  72
ATOM     72  C   UNL A   1      42.099  26.835  27.622  1.00  0.00     0.023 A 
ATOM     73  C   UNL A   1      42.840  27.468  26.605  1.00  0.00     0.012 A 
ATOM     74  C   UNL A   1      41.806  25.463  27.504  1.00  0.00     0.148 A 
ATOM     75  C   UNL A   1      43.247  26.760  25.473  1.00  0.00     0.002 A 
ATOM     76  C   UNL A   1      42.266  24.749  26.403  1.00  0.00     0.091 A 
ATOM     77  F   UNL A   1      41.090  24.881  28.476  1.00  0.00    -0.205 F 
ATOM     78  C   UNL A   1      42.968  25.399  25.378  1.00  0.00     0.022 A 
BRANCH  76  79
ATOM     79  S   UNL A   1      42.072  22.968  26.264  1.00  0.00     0.127 S 
ATOM     80  O   UNL A   1      42.802  22.495  27.438  1.00  0.00    -0.237 OA
ATOM     81  O   UNL A   1      40.619  22.816  26.338  1.00  0.00    -0.237 OA
ATOM     82  O   UNL A   1      42.647  22.611  24.974  1.00  0.00    -0.744 OA
ENDBRANCH  76  79
ENDBRANCH  48  72
BRANCH  60  83
ATOM     83  C   UNL A   1      44.439  27.334  34.173  1.00  0.00     0.023 A 
ATOM     84  C   UNL A   1      45.728  27.901  34.137  1.00  0.00     0.012 A 
ATOM     85  C   UNL A   1      44.221  26.164  34.929  1.00  0.00     0.148 A 
ATOM     86  C   UNL A   1      46.792  27.289  34.799  1.00  0.00     0.002 A 
ATOM     87  C   UNL A   1      45.275  25.590  35.629  1.00  0.00     0.091 A 
ATOM     88  F   UNL A   1      42.992  25.627  34.938  1.00  0.00    -0.205 F 
ATOM     89  C   UNL A   1      46.564  26.140  35.552  1.00  0.00     0.022 A 
BRANCH  87  90
ATOM     90  S   UNL A   1      45.051  24.167  36.702  1.00  0.00     0.127 S 
ATOM     91  O   UNL A   1      44.215  24.725  37.764  1.00  0.00    -0.237 OA
ATOM     92  O   UNL A   1      44.368  23.217  35.824  1.00  0.00    -0.237 OA
ATOM     93  O   UNL A   1      46.390  23.758  37.107  1.00  0.00    -0.744 OA
ENDBRANCH  87  90
ENDBRANCH  60  83
ENDBRANCH  34  35
ENDBRANCH  26  29
ENDBRANCH  24  25
ENDBRANCH  23  24
ENDBRANCH   1  23
TORSDOF 20
ENDMDL
MODEL 3
REMARK VINA RESULT:     -10.6      1.802      2.416
REMARK SMILES NC(=O)CC[C@H](NC(=O)CC1CC1)C(=O)NCCCCNC(=O)c1ccc(-c2c3nc(c(-c4cccc(S(=O)(=O)[O-])c4F)c4ccc([nH]4)c(-c4cccc(S(=O)(=O)[O-])c4F)c4nc(c(-c5cccc(S(=O)(=O)[O-])c5F)c5ccc2[nH]5)C=C4)C=C3)cc1
REMARK SMILES IDX 18 1 17 2 16 3 14 4 15 5 6 7 5 8 4 9 2 10 1 11 3 14 7 15
REMARK SMILES IDX 8 16 9 18 10 19 11 20 12 21 13 22 19 23 20 24 21 25 22 26
REMARK SMILES IDX 23 28 24 29 25 30 86 31 26 32 85 33 27 34 28 35 29 36 79 37
REMARK SMILES IDX 30 38 84 39 78 40 80 41 31 42 83 43 77 44 76 45 32 47 64 48
REMARK SMILES IDX 44 49 63 50 45 51 48 52 62 53 81 54 46 55 47 56 61 58 82 59
REMARK SMILES IDX 49 60 33 61 34 62 42 63 35 64 37 65 43 66 36 67 38 68 39 69
REMARK SMILES IDX 40 70 41 71 65 72 66 73 74 74 67 75 69 76 75 77 68 78 70 79
REMARK SMILES IDX 71 80 72 81 73 82 50 83 51 84 59 85 52 86 54 87 60 88 53 89
REMARK SMILES IDX 55 90 56 91 57 92 58 93
REMARK H PARENT 16 6 1 12 1 13 7 17 21 27 80 46 48 57
REMARK Flexibility Score: inf
ROOT
ATOM      1  C   UNL A   1      33.239  28.935  24.447  1.00  0.00     0.023 C 
ENDROOT
BRANCH   1   2
ATOM      2  C   UNL A   1      33.486  27.440  24.600  1.00  0.00     0.116 C 
BRANCH   2   3
ATOM      3  N   UNL A   1      33.754  26.685  23.390  1.00  0.00    -0.354 N 
ATOM      4  C   UNL A   1      33.105  25.587  22.883  1.00  0.00     0.242 C 
ATOM      5  O   UNL A   1      33.354  25.295  21.707  1.00  0.00    -0.273 OA
ATOM      6  H   UNL A   1      34.512  27.008  22.853  1.00  0.00     0.163 HD
BRANCH   4   7
ATOM      7  C   UNL A   1      32.177  24.635  23.730  1.00  0.00     0.171 C 
BRANCH   7   8
ATOM      8  C   UNL A   1      30.697  25.072  23.690  1.00  0.00     0.045 C 
BRANCH   8   9
ATOM      9  C   UNL A   1      30.243  26.237  24.582  1.00  0.00     0.102 C 
BRANCH   9  10
ATOM     10  C   UNL A   1      30.172  25.993  26.073  1.00  0.00     0.217 C 
ATOM     11  N   UNL A   1      29.403  24.937  26.455  1.00  0.00    -0.370 N 
ATOM     12  H   UNL A   1      29.309  24.717  27.410  1.00  0.00     0.159 HD
ATOM     13  H   UNL A   1      28.940  24.393  25.778  1.00  0.00     0.159 HD
ATOM     14  O   UNL A   1      30.750  26.688  26.900  1.00  0.00    -0.275 OA
ENDBRANCH   9  10
ENDBRANCH   8   9
ENDBRANCH   7   8
BRANCH   7  15
ATOM     15  N   UNL A   1      32.684  24.208  25.028  1.00  0.00    -0.344 N 
ATOM     16  C   UNL A   1      33.400  23.138  25.462  1.00  0.00     0.220 C 
ATOM     17  H   UNL A   1      32.456  24.834  25.752  1.00  0.00     0.164 HD
ATOM     18  O   UNL A   1      33.410  22.945  26.682  1.00  0.00    -0.275 OA
BRANCH  16  19
ATOM     19  C   UNL A   1      34.166  22.237  24.527  1.00  0.00     0.103 C 
BRANCH  19  20
ATOM     20  C   UNL A   1      33.528  20.927  24.167  1.00  0.00    -0.002 C 
ATOM     21  C   UNL A   1      33.889  19.557  24.700  1.00  0.00     0.004 C 
ATOM     22  C   UNL A   1      32.693  20.272  25.243  1.00  0.00     0.004 C 
ENDBRANCH  19  20
ENDBRANCH  16  19
ENDBRANCH   7  15
ENDBRANCH   4   7
ENDBRANCH   2   3
ENDBRANCH   1   2
BRANCH   1  23
ATOM     23  C   UNL A   1      32.182  29.577  25.336  1.00  0.00     0.023 C 
BRANCH  23  24
ATOM     24  C   UNL A   1      32.591  29.922  26.764  1.00  0.00     0.116 C 
BRANCH  24  25
ATOM     25  N   UNL A   1      32.642  31.349  27.053  1.00  0.00    -0.352 N 
ATOM     26  C   UNL A   1      33.636  32.114  27.623  1.00  0.00     0.251 C 
ATOM     27  H   UNL A   1      31.833  31.849  26.800  1.00  0.00     0.163 HD
ATOM     28  O   UNL A   1      33.438  33.312  27.825  1.00  0.00    -0.269 OA
BRANCH  26  29
ATOM     29  C   UNL A   1      34.919  31.505  28.040  1.00  0.00     0.039 A 
ATOM     30  C   UNL A   1      36.051  32.321  28.133  1.00  0.00     0.014 A 
ATOM     31  C   UNL A   1      35.014  30.150  28.361  1.00  0.00     0.014 A 
ATOM     32  C   UNL A   1      37.241  31.802  28.649  1.00  0.00     0.010 A 
ATOM     33  C   UNL A   1      36.171  29.658  28.964  1.00  0.00     0.010 A 
ATOM     34  C   UNL A   1      37.296  30.480  29.126  1.00  0.00    -0.014 A 
BRANCH  34  35
ATOM     35  C   UNL A   1      38.501  29.976  29.841  1.00  0.00     0.031 A 
ATOM     36  C   UNL A   1      38.864  30.487  31.210  1.00  0.00     0.074 A 
ATOM     37  C   UNL A   1      39.321  29.104  29.218  1.00  0.00     0.049 A 
ATOM     38  N   UNL A   1      39.871  30.150  31.974  1.00  0.00    -0.248 NA
ATOM     39  C   UNL A   1      38.002  31.531  31.788  1.00  0.00     0.031 C 
ATOM     40  C   UNL A   1      39.146  28.609  27.850  1.00  0.00     0.029 A 
ATOM     41  N   UNL A   1      40.475  28.493  29.642  1.00  0.00    -0.354 N 
ATOM     42  C   UNL A   1      39.784  30.955  33.103  1.00  0.00     0.074 A 
ATOM     43  C   UNL A   1      38.646  31.827  32.907  1.00  0.00     0.031 C 
ATOM     44  C   UNL A   1      40.142  27.758  27.556  1.00  0.00     0.029 A 
ATOM     45  C   UNL A   1      41.043  27.666  28.700  1.00  0.00     0.049 A 
ATOM     46  H   UNL A   1      40.861  28.633  30.538  1.00  0.00     0.167 HD
ATOM     47  C   UNL A   1      40.557  30.950  34.216  1.00  0.00     0.034 A 
ATOM     48  C   UNL A   1      42.162  26.915  28.748  1.00  0.00     0.034 A 
ATOM     49  C   UNL A   1      41.666  30.058  34.426  1.00  0.00     0.049 A 
ATOM     50  C   UNL A   1      42.968  26.886  30.017  1.00  0.00     0.074 A 
ATOM     51  C   UNL A   1      42.448  29.910  35.557  1.00  0.00     0.029 A 
ATOM     52  N   UNL A   1      42.161  29.171  33.482  1.00  0.00    -0.354 N 
ATOM     53  N   UNL A   1      42.759  27.522  31.144  1.00  0.00    -0.248 NA
ATOM     54  C   UNL A   1      44.143  26.002  30.036  1.00  0.00     0.031 C 
ATOM     55  C   UNL A   1      43.436  28.955  35.287  1.00  0.00     0.029 A 
ATOM     56  C   UNL A   1      43.246  28.483  33.999  1.00  0.00     0.049 A 
ATOM     57  H   UNL A   1      41.795  29.049  32.576  1.00  0.00     0.167 HD
ATOM     58  C   UNL A   1      43.756  27.094  32.014  1.00  0.00     0.074 A 
ATOM     59  C   UNL A   1      44.547  26.118  31.293  1.00  0.00     0.031 C 
ATOM     60  C   UNL A   1      44.004  27.486  33.288  1.00  0.00     0.034 A 
BRANCH  47  61
ATOM     61  C   UNL A   1      40.197  31.907  35.324  1.00  0.00     0.023 A 
ATOM     62  C   UNL A   1      40.832  33.165  35.391  1.00  0.00     0.012 A 
ATOM     63  C   UNL A   1      39.190  31.592  36.257  1.00  0.00     0.148 A 
ATOM     64  C   UNL A   1      40.494  34.081  36.387  1.00  0.00     0.002 A 
ATOM     65  C   UNL A   1      38.825  32.528  37.218  1.00  0.00     0.091 A 
ATOM     66  F   UNL A   1      38.611  30.384  36.191  1.00  0.00    -0.205 F 
ATOM     67  C   UNL A   1      39.484  33.767  37.292  1.00  0.00     0.022 A 
BRANCH  65  68
ATOM     68  S   UNL A   1      37.481  32.257  38.379  1.00  0.00     0.127 S 
ATOM     69  O   UNL A   1      38.036  32.819  39.610  1.00  0.00    -0.237 OA
ATOM     70  O   UNL A   1      36.399  33.041  37.784  1.00  0.00    -0.237 OA
ATOM     71  O   UNL A   1      37.252  30.819  38.399  1.00  0.00    -0.744 OA
ENDBRANCH  65  68
ENDBRANCH  47  61
BRANCH  48  72
ATOM     72  C   UNL A   1      42.549  26.076  27.578  1.00  0.00     0.023 A 
ATOM     73  C   UNL A   1      43.378  26.619  26.577  1.00  0.00     0.012 A 
ATOM     74  C   UNL A   1      42.117  24.741  27.461  1.00  0.00     0.148 A 
ATOM     75  C   UNL A   1      43.737  25.862  25.461  1.00  0.00     0.002 A 
ATOM     76  C   UNL A   1      42.528  23.973  26.377  1.00  0.00     0.091 A 
ATOM     77  F   UNL A   1      41.320  24.245  28.418  1.00  0.00    -0.205 F 
ATOM     78  C   UNL A   1      43.321  24.537  25.367  1.00  0.00     0.022 A 
BRANCH  76  79
ATOM     79  S   UNL A   1      42.154  22.221  26.245  1.00  0.00     0.127 S 
ATOM     80  O   UNL A   1      42.652  21.710  27.519  1.00  0.00    -0.237 OA
ATOM     81  O   UNL A   1      40.698  22.232  26.110  1.00  0.00    -0.237 OA
ATOM     82  O   UNL A   1      42.860  21.758  25.057  1.00  0.00    -0.744 OA
ENDBRANCH  76  79
ENDBRANCH  48  72
BRANCH  60  83
ATOM     83  C   UNL A   1      45.169  26.841  33.996  1.00  0.00     0.023 A 
ATOM     84  C   UNL A   1      46.451  27.422  33.914  1.00  0.00     0.012 A 
ATOM     85  C   UNL A   1      44.987  25.682  34.777  1.00  0.00     0.148 A 
ATOM     86  C   UNL A   1      47.540  26.834  34.555  1.00  0.00     0.002 A 
ATOM     87  C   UNL A   1      46.067  25.132  35.457  1.00  0.00     0.091 A 
ATOM     88  F   UNL A   1      43.765  25.131  34.831  1.00  0.00    -0.205 F 
ATOM     89  C   UNL A   1      47.346  25.696  35.335  1.00  0.00     0.022 A 
BRANCH  87  90
ATOM     90  S   UNL A   1      45.890  23.725  36.561  1.00  0.00     0.127 S 
ATOM     91  O   UNL A   1      45.383  22.698  35.653  1.00  0.00    -0.237 OA
ATOM     92  O   UNL A   1      47.264  23.511  37.016  1.00  0.00    -0.237 OA
ATOM     93  O   UNL A   1      44.969  24.151  37.605  1.00  0.00    -0.744 OA
ENDBRANCH  87  90
ENDBRANCH  60  83
ENDBRANCH  34  35
ENDBRANCH  26  29
ENDBRANCH  24  25
ENDBRANCH  23  24
ENDBRANCH   1  23
TORSDOF 20
ENDMDL
