MODEL 1
REMARK VINA RESULT:     -11.3      0.000      0.000
REMARK SMILES C=C(c1ccccc1)[C@@H](C(=O)NCCCCNC(=O)c1ccc(-c2c3nc(c(-c4cccc(S(=O)(=O)[O-])c4F)c4ccc([nH]4)c(-c4cccc(S(=O)(=O)[O-])c4F)c4nc(c(-c5cccc(S(=O)(=O)[O-])c5F)c5ccc2[nH]5)C=C4)C=C3)cc1)S(C)(=O)=O
REMARK SMILES IDX 15 1 14 2 13 3 12 4 10 5 11 6 9 8 2 9 1 10 3 11 4 12 8 13
REMARK SMILES IDX 5 14 7 15 6 16 83 17 84 18 85 19 86 20 16 21 17 22 18 23
REMARK SMILES IDX 19 25 20 26 21 27 82 28 22 29 81 30 23 31 24 32 25 33 75 34
REMARK SMILES IDX 26 35 80 36 74 37 76 38 27 39 79 40 73 41 72 42 28 44 60 45
REMARK SMILES IDX 40 46 59 47 41 48 44 49 58 50 77 51 42 52 43 53 57 55 78 56
REMARK SMILES IDX 45 57 29 58 30 59 38 60 31 61 33 62 39 63 32 64 34 65 35 66
REMARK SMILES IDX 36 67 37 68 61 69 62 70 70 71 63 72 65 73 71 74 64 75 66 76
REMARK SMILES IDX 67 77 68 78 69 79 46 80 47 81 55 82 48 83 50 84 56 85 49 86
REMARK SMILES IDX 51 87 52 88 53 89 54 90
REMARK H PARENT 12 7 17 24 76 43 44 54
REMARK Flexibility Score: inf
ROOT
ATOM      1  C   UNL A   1      31.909  31.033  26.970  1.00  0.00     0.023 C 
ENDROOT
BRANCH   1   2
ATOM      2  C   UNL A   1      32.010  30.138  25.735  1.00  0.00     0.023 C 
BRANCH   2   3
ATOM      3  C   UNL A   1      33.406  29.578  25.455  1.00  0.00     0.116 C 
BRANCH   3   4
ATOM      4  N   UNL A   1      33.460  28.155  25.720  1.00  0.00    -0.355 N 
ATOM      5  C   UNL A   1      32.889  27.111  25.035  1.00  0.00     0.242 C 
ATOM      6  O   UNL A   1      32.936  26.010  25.581  1.00  0.00    -0.273 OA
ATOM      7  H   UNL A   1      33.986  27.897  26.511  1.00  0.00     0.163 HD
BRANCH   5   8
ATOM      8  C   UNL A   1      32.267  27.358  23.660  1.00  0.00     0.227 C 
BRANCH   8   9
ATOM      9  C   UNL A   1      30.774  27.030  23.605  1.00  0.00    -0.020 C 
ATOM     10  C   UNL A   1      30.281  25.834  23.983  1.00  0.00     0.015 C 
BRANCH   9  11
ATOM     11  C   UNL A   1      29.835  28.110  23.178  1.00  0.00    -0.021 A 
ATOM     12  C   UNL A   1      28.450  28.021  23.387  1.00  0.00     0.008 A 
ATOM     13  C   UNL A   1      30.304  29.216  22.446  1.00  0.00     0.008 A 
ATOM     14  C   UNL A   1      27.572  28.983  22.876  1.00  0.00     0.001 A 
ATOM     15  C   UNL A   1      29.427  30.171  21.920  1.00  0.00     0.001 A 
ATOM     16  C   UNL A   1      28.060  30.052  22.133  1.00  0.00     0.000 A 
ENDBRANCH   9  11
ENDBRANCH   8   9
BRANCH   8  17
ATOM     17  S   UNL A   1      33.195  26.419  22.417  1.00  0.00     0.163 S 
ATOM     18  C   UNL A   1      31.995  25.989  21.183  1.00  0.00     0.159 C 
ATOM     19  O   UNL A   1      34.106  27.331  21.740  1.00  0.00    -0.228 OA
ATOM     20  O   UNL A   1      33.672  25.152  22.942  1.00  0.00    -0.228 OA
ENDBRANCH   8  17
ENDBRANCH   5   8
ENDBRANCH   3   4
ENDBRANCH   2   3
ENDBRANCH   1   2
BRANCH   1  21
ATOM     21  C   UNL A   1      33.084  31.979  27.187  1.00  0.00     0.116 C 
BRANCH  21  22
ATOM     22  N   UNL A   1      32.675  33.353  27.444  1.00  0.00    -0.352 N 
ATOM     23  C   UNL A   1      33.165  34.241  28.373  1.00  0.00     0.251 C 
ATOM     24  H   UNL A   1      31.947  33.693  26.874  1.00  0.00     0.163 HD
ATOM     25  O   UNL A   1      32.621  35.330  28.528  1.00  0.00    -0.269 OA
BRANCH  23  26
ATOM     26  C   UNL A   1      34.325  33.860  29.207  1.00  0.00     0.039 A 
ATOM     27  C   UNL A   1      34.116  33.033  30.315  1.00  0.00     0.014 A 
ATOM     28  C   UNL A   1      35.616  34.279  28.876  1.00  0.00     0.014 A 
ATOM     29  C   UNL A   1      35.211  32.561  31.040  1.00  0.00     0.010 A 
ATOM     30  C   UNL A   1      36.710  33.749  29.553  1.00  0.00     0.010 A 
ATOM     31  C   UNL A   1      36.519  32.878  30.637  1.00  0.00    -0.014 A 
BRANCH  31  32
ATOM     32  C   UNL A   1      37.700  32.265  31.297  1.00  0.00     0.031 A 
ATOM     33  C   UNL A   1      38.434  31.123  30.652  1.00  0.00     0.074 A 
ATOM     34  C   UNL A   1      38.041  32.663  32.539  1.00  0.00     0.049 A 
ATOM     35  N   UNL A   1      39.445  30.431  31.109  1.00  0.00    -0.248 NA
ATOM     36  C   UNL A   1      37.949  30.681  29.334  1.00  0.00     0.031 C 
ATOM     37  C   UNL A   1      37.341  33.687  33.317  1.00  0.00     0.029 A 
ATOM     38  N   UNL A   1      39.034  32.226  33.380  1.00  0.00    -0.354 N 
ATOM     39  C   UNL A   1      39.695  29.450  30.158  1.00  0.00     0.074 A 
ATOM     40  C   UNL A   1      38.706  29.616  29.113  1.00  0.00     0.031 C 
ATOM     41  C   UNL A   1      37.919  33.794  34.523  1.00  0.00     0.029 A 
ATOM     42  C   UNL A   1      39.012  32.830  34.615  1.00  0.00     0.049 A 
ATOM     43  H   UNL A   1      39.697  31.546  33.123  1.00  0.00     0.167 HD
ATOM     44  C   UNL A   1      40.677  28.516  30.137  1.00  0.00     0.034 A 
ATOM     45  C   UNL A   1      39.776  32.627  35.706  1.00  0.00     0.034 A 
ATOM     46  C   UNL A   1      41.680  28.379  31.158  1.00  0.00     0.049 A 
ATOM     47  C   UNL A   1      40.890  31.622  35.645  1.00  0.00     0.074 A 
ATOM     48  C   UNL A   1      42.786  27.548  31.173  1.00  0.00     0.029 A 
ATOM     49  N   UNL A   1      41.689  29.075  32.358  1.00  0.00    -0.354 N 
ATOM     50  N   UNL A   1      41.238  30.839  34.651  1.00  0.00    -0.248 NA
ATOM     51  C   UNL A   1      41.742  31.496  36.837  1.00  0.00     0.031 C 
ATOM     52  C   UNL A   1      43.450  27.723  32.393  1.00  0.00     0.029 A 
ATOM     53  C   UNL A   1      42.769  28.680  33.129  1.00  0.00     0.049 A 
ATOM     54  H   UNL A   1      41.026  29.753  32.621  1.00  0.00     0.167 HD
ATOM     55  C   UNL A   1      42.356  30.139  35.091  1.00  0.00     0.074 A 
ATOM     56  C   UNL A   1      42.646  30.614  36.429  1.00  0.00     0.031 C 
ATOM     57  C   UNL A   1      43.068  29.179  34.449  1.00  0.00     0.034 A 
BRANCH  44  58
ATOM     58  C   UNL A   1      40.739  27.606  28.937  1.00  0.00     0.023 A 
ATOM     59  C   UNL A   1      39.825  26.538  28.828  1.00  0.00     0.012 A 
ATOM     60  C   UNL A   1      41.677  27.818  27.908  1.00  0.00     0.148 A 
ATOM     61  C   UNL A   1      39.872  25.667  27.740  1.00  0.00     0.002 A 
ATOM     62  C   UNL A   1      41.690  26.972  26.805  1.00  0.00     0.091 A 
ATOM     63  F   UNL A   1      42.556  28.821  28.037  1.00  0.00    -0.205 F 
ATOM     64  C   UNL A   1      40.798  25.889  26.725  1.00  0.00     0.022 A 
BRANCH  62  65
ATOM     65  S   UNL A   1      42.795  27.227  25.412  1.00  0.00     0.127 S 
ATOM     66  O   UNL A   1      42.666  25.958  24.696  1.00  0.00    -0.237 OA
ATOM     67  O   UNL A   1      42.186  28.372  24.735  1.00  0.00    -0.237 OA
ATOM     68  O   UNL A   1      44.104  27.496  25.991  1.00  0.00    -0.744 OA
ENDBRANCH  62  65
ENDBRANCH  44  58
BRANCH  45  69
ATOM     69  C   UNL A   1      39.533  33.446  36.926  1.00  0.00     0.023 A 
ATOM     70  C   UNL A   1      39.952  34.790  36.952  1.00  0.00     0.012 A 
ATOM     71  C   UNL A   1      38.817  32.926  38.023  1.00  0.00     0.148 A 
ATOM     72  C   UNL A   1      39.676  35.599  38.055  1.00  0.00     0.002 A 
ATOM     73  C   UNL A   1      38.497  33.752  39.092  1.00  0.00     0.091 A 
ATOM     74  F   UNL A   1      38.436  31.641  37.977  1.00  0.00    -0.205 F 
ATOM     75  C   UNL A   1      38.937  35.084  39.118  1.00  0.00     0.022 A 
BRANCH  73  76
ATOM     76  S   UNL A   1      37.428  33.221  40.436  1.00  0.00     0.127 S 
ATOM     77  O   UNL A   1      37.364  34.424  41.261  1.00  0.00    -0.237 OA
ATOM     78  O   UNL A   1      36.191  32.896  39.722  1.00  0.00    -0.237 OA
ATOM     79  O   UNL A   1      38.091  32.074  41.040  1.00  0.00    -0.744 OA
ENDBRANCH  73  76
ENDBRANCH  45  69
BRANCH  57  80
ATOM     80  C   UNL A   1      44.233  28.568  35.184  1.00  0.00     0.023 A 
ATOM     81  C   UNL A   1      45.533  29.060  34.956  1.00  0.00     0.012 A 
ATOM     82  C   UNL A   1      44.034  27.561  36.149  1.00  0.00     0.148 A 
ATOM     83  C   UNL A   1      46.621  28.541  35.657  1.00  0.00     0.002 A 
ATOM     84  C   UNL A   1      45.117  27.081  36.878  1.00  0.00     0.091 A 
ATOM     85  F   UNL A   1      42.792  27.092  36.338  1.00  0.00    -0.205 F 
ATOM     86  C   UNL A   1      46.413  27.562  36.624  1.00  0.00     0.022 A 
BRANCH  84  87
ATOM     87  S   UNL A   1      44.932  25.885  38.205  1.00  0.00     0.127 S 
ATOM     88  O   UNL A   1      44.317  24.757  37.507  1.00  0.00    -0.237 OA
ATOM     89  O   UNL A   1      46.318  25.663  38.619  1.00  0.00    -0.237 OA
ATOM     90  O   UNL A   1      44.098  26.529  39.211  1.00  0.00    -0.744 OA
ENDBRANCH  84  87
ENDBRANCH  57  80
ENDBRANCH  31  32
ENDBRANCH  23  26
ENDBRANCH  21  22
ENDBRANCH   1  21
TORSDOF 17
ENDMDL
MODEL 2
REMARK VINA RESULT:     -11.3      2.198      7.963
REMARK SMILES C=C(c1ccccc1)[C@@H](C(=O)NCCCCNC(=O)c1ccc(-c2c3nc(c(-c4cccc(S(=O)(=O)[O-])c4F)c4ccc([nH]4)c(-c4cccc(S(=O)(=O)[O-])c4F)c4nc(c(-c5cccc(S(=O)(=O)[O-])c5F)c5ccc2[nH]5)C=C4)C=C3)cc1)S(C)(=O)=O
REMARK SMILES IDX 15 1 14 2 13 3 12 4 10 5 11 6 9 8 2 9 1 10 3 11 4 12 8 13
REMARK SMILES IDX 5 14 7 15 6 16 83 17 84 18 85 19 86 20 16 21 17 22 18 23
REMARK SMILES IDX 19 25 20 26 21 27 82 28 22 29 81 30 23 31 24 32 25 33 75 34
REMARK SMILES IDX 26 35 80 36 74 37 76 38 27 39 79 40 73 41 72 42 28 44 60 45
REMARK SMILES IDX 40 46 59 47 41 48 44 49 58 50 77 51 42 52 43 53 57 55 78 56
REMARK SMILES IDX 45 57 29 58 30 59 38 60 31 61 33 62 39 63 32 64 34 65 35 66
REMARK SMILES IDX 36 67 37 68 61 69 62 70 70 71 63 72 65 73 71 74 64 75 66 76
REMARK SMILES IDX 67 77 68 78 69 79 46 80 47 81 55 82 48 83 50 84 56 85 49 86
REMARK SMILES IDX 51 87 52 88 53 89 54 90
REMARK H PARENT 12 7 17 24 76 43 44 54
REMARK Flexibility Score: inf
ROOT
ATOM      1  C   UNL A   1      31.463  29.342  27.035  1.00  0.00     0.023 C 
ENDROOT
BRANCH   1   2
ATOM      2  C   UNL A   1      31.925  27.929  27.392  1.00  0.00     0.023 C 
BRANCH   2   3
ATOM      3  C   UNL A   1      33.074  27.390  26.538  1.00  0.00     0.116 C 
BRANCH   3   4
ATOM      4  N   UNL A   1      32.717  26.129  25.918  1.00  0.00    -0.355 N 
ATOM      5  C   UNL A   1      31.909  25.880  24.836  1.00  0.00     0.242 C 
ATOM      6  O   UNL A   1      31.622  24.703  24.630  1.00  0.00    -0.273 OA
ATOM      7  H   UNL A   1      33.112  25.331  26.336  1.00  0.00     0.163 HD
BRANCH   5   8
ATOM      8  C   UNL A   1      31.445  27.041  23.955  1.00  0.00     0.227 C 
BRANCH   8   9
ATOM      9  C   UNL A   1      29.930  27.077  23.752  1.00  0.00    -0.020 C 
ATOM     10  C   UNL A   1      29.157  25.980  23.876  1.00  0.00     0.015 C 
BRANCH   9  11
ATOM     11  C   UNL A   1      29.292  28.398  23.474  1.00  0.00    -0.021 A 
ATOM     12  C   UNL A   1      29.978  29.610  23.649  1.00  0.00     0.008 A 
ATOM     13  C   UNL A   1      27.931  28.475  23.126  1.00  0.00     0.008 A 
ATOM     14  C   UNL A   1      29.331  30.842  23.500  1.00  0.00     0.001 A 
ATOM     15  C   UNL A   1      27.278  29.705  22.991  1.00  0.00     0.001 A 
ATOM     16  C   UNL A   1      27.979  30.889  23.181  1.00  0.00     0.000 A 
ENDBRANCH   9  11
ENDBRANCH   8   9
BRANCH   8  17
ATOM     17  S   UNL A   1      32.321  26.961  22.368  1.00  0.00     0.163 S 
ATOM     18  C   UNL A   1      33.621  25.780  22.626  1.00  0.00     0.159 C 
ATOM     19  O   UNL A   1      31.444  26.331  21.392  1.00  0.00    -0.228 OA
ATOM     20  O   UNL A   1      32.997  28.208  22.059  1.00  0.00    -0.228 OA
ENDBRANCH   8  17
ENDBRANCH   5   8
ENDBRANCH   3   4
ENDBRANCH   2   3
ENDBRANCH   1   2
BRANCH   1  21
ATOM     21  C   UNL A   1      32.475  30.183  26.266  1.00  0.00     0.116 C 
BRANCH  21  22
ATOM     22  N   UNL A   1      32.412  31.600  26.595  1.00  0.00    -0.352 N 
ATOM     23  C   UNL A   1      33.279  32.350  27.357  1.00  0.00     0.251 C 
ATOM     24  H   UNL A   1      31.643  32.089  26.222  1.00  0.00     0.163 HD
ATOM     25  O   UNL A   1      33.008  33.516  27.626  1.00  0.00    -0.269 OA
BRANCH  23  26
ATOM     26  C   UNL A   1      34.516  31.731  27.877  1.00  0.00     0.039 A 
ATOM     27  C   UNL A   1      35.646  32.533  28.061  1.00  0.00     0.014 A 
ATOM     28  C   UNL A   1      34.551  30.377  28.223  1.00  0.00     0.014 A 
ATOM     29  C   UNL A   1      36.783  31.996  28.667  1.00  0.00     0.010 A 
ATOM     30  C   UNL A   1      35.657  29.864  28.894  1.00  0.00     0.010 A 
ATOM     31  C   UNL A   1      36.782  30.670  29.131  1.00  0.00    -0.014 A 
BRANCH  31  32
ATOM     32  C   UNL A   1      37.919  30.125  29.914  1.00  0.00     0.031 A 
ATOM     33  C   UNL A   1      38.178  30.592  31.318  1.00  0.00     0.074 A 
ATOM     34  C   UNL A   1      38.791  29.291  29.314  1.00  0.00     0.049 A 
ATOM     35  N   UNL A   1      39.155  30.269  32.126  1.00  0.00    -0.248 NA
ATOM     36  C   UNL A   1      37.235  31.573  31.878  1.00  0.00     0.031 C 
ATOM     37  C   UNL A   1      38.711  28.847  27.921  1.00  0.00     0.029 A 
ATOM     38  N   UNL A   1      39.938  28.701  29.786  1.00  0.00    -0.354 N 
ATOM     39  C   UNL A   1      38.967  31.031  33.273  1.00  0.00     0.074 A 
ATOM     40  C   UNL A   1      37.802  31.859  33.041  1.00  0.00     0.031 C 
ATOM     41  C   UNL A   1      39.765  28.064  27.648  1.00  0.00     0.029 A 
ATOM     42  C   UNL A   1      40.610  27.970  28.835  1.00  0.00     0.049 A 
ATOM     43  H   UNL A   1      40.248  28.793  30.715  1.00  0.00     0.167 HD
ATOM     44  C   UNL A   1      39.679  31.022  34.425  1.00  0.00     0.034 A 
ATOM     45  C   UNL A   1      41.781  27.308  28.903  1.00  0.00     0.034 A 
ATOM     46  C   UNL A   1      40.814  30.172  34.665  1.00  0.00     0.049 A 
ATOM     47  C   UNL A   1      42.530  27.269  30.205  1.00  0.00     0.074 A 
ATOM     48  C   UNL A   1      41.528  29.999  35.838  1.00  0.00     0.029 A 
ATOM     49  N   UNL A   1      41.415  29.365  33.710  1.00  0.00    -0.354 N 
ATOM     50  N   UNL A   1      42.224  27.840  31.345  1.00  0.00    -0.248 NA
ATOM     51  C   UNL A   1      43.761  26.467  30.243  1.00  0.00     0.031 C 
ATOM     52  C   UNL A   1      42.577  29.107  35.584  1.00  0.00     0.029 A 
ATOM     53  C   UNL A   1      42.503  28.708  34.259  1.00  0.00     0.049 A 
ATOM     54  H   UNL A   1      41.111  29.273  32.779  1.00  0.00     0.167 HD
ATOM     55  C   UNL A   1      43.215  27.455  32.241  1.00  0.00     0.074 A 
ATOM     56  C   UNL A   1      44.112  26.577  31.518  1.00  0.00     0.031 C 
ATOM     57  C   UNL A   1      43.375  27.811  33.541  1.00  0.00     0.034 A 
BRANCH  44  58
ATOM     58  C   UNL A   1      39.209  31.928  35.534  1.00  0.00     0.023 A 
ATOM     59  C   UNL A   1      38.247  31.459  36.453  1.00  0.00     0.012 A 
ATOM     60  C   UNL A   1      39.733  33.226  35.688  1.00  0.00     0.148 A 
ATOM     61  C   UNL A   1      37.778  32.282  37.476  1.00  0.00     0.002 A 
ATOM     62  C   UNL A   1      39.292  34.025  36.738  1.00  0.00     0.091 A 
ATOM     63  F   UNL A   1      40.628  33.668  34.794  1.00  0.00    -0.205 F 
ATOM     64  C   UNL A   1      38.307  33.560  37.624  1.00  0.00     0.022 A 
BRANCH  62  65
ATOM     65  S   UNL A   1      39.974  35.657  37.053  1.00  0.00     0.127 S 
ATOM     66  O   UNL A   1      39.279  36.035  38.283  1.00  0.00    -0.237 OA
ATOM     67  O   UNL A   1      41.399  35.374  37.222  1.00  0.00    -0.237 OA
ATOM     68  O   UNL A   1      39.653  36.453  35.877  1.00  0.00    -0.744 OA
ENDBRANCH  62  65
ENDBRANCH  44  58
BRANCH  45  69
ATOM     69  C   UNL A   1      42.275  26.581  27.700  1.00  0.00     0.023 A 
ATOM     70  C   UNL A   1      43.127  27.239  26.794  1.00  0.00     0.012 A 
ATOM     71  C   UNL A   1      41.971  25.219  27.496  1.00  0.00     0.148 A 
ATOM     72  C   UNL A   1      43.659  26.560  25.697  1.00  0.00     0.002 A 
ATOM     73  C   UNL A   1      42.549  24.535  26.434  1.00  0.00     0.091 A 
ATOM     74  F   UNL A   1      41.152  24.616  28.369  1.00  0.00    -0.205 F 
ATOM     75  C   UNL A   1      43.381  25.206  25.525  1.00  0.00     0.022 A 
BRANCH  73  76
ATOM     76  S   UNL A   1      42.367  22.760  26.216  1.00  0.00     0.127 S 
ATOM     77  O   UNL A   1      43.015  22.244  27.419  1.00  0.00    -0.237 OA
ATOM     78  O   UNL A   1      40.911  22.612  26.188  1.00  0.00    -0.237 OA
ATOM     79  O   UNL A   1      43.027  22.446  24.957  1.00  0.00    -0.744 OA
ENDBRANCH  73  76
ENDBRANCH  45  69
BRANCH  57  80
ATOM     80  C   UNL A   1      44.568  27.255  34.273  1.00  0.00     0.023 A 
ATOM     81  C   UNL A   1      45.768  27.993  34.308  1.00  0.00     0.012 A 
ATOM     82  C   UNL A   1      44.482  26.043  34.987  1.00  0.00     0.148 A 
ATOM     83  C   UNL A   1      46.872  27.521  35.017  1.00  0.00     0.002 A 
ATOM     84  C   UNL A   1      45.572  25.601  35.729  1.00  0.00     0.091 A 
ATOM     85  F   UNL A   1      43.338  25.345  34.926  1.00  0.00    -0.205 F 
ATOM     86  C   UNL A   1      46.770  26.333  35.736  1.00  0.00     0.022 A 
BRANCH  84  87
ATOM     87  S   UNL A   1      45.504  24.130  36.758  1.00  0.00     0.127 S 
ATOM     88  O   UNL A   1      46.914  23.933  37.091  1.00  0.00    -0.237 OA
ATOM     89  O   UNL A   1      44.670  24.570  37.876  1.00  0.00    -0.237 OA
ATOM     90  O   UNL A   1      44.905  23.090  35.931  1.00  0.00    -0.744 OA
ENDBRANCH  84  87
ENDBRANCH  57  80
ENDBRANCH  31  32
ENDBRANCH  23  26
ENDBRANCH  21  22
ENDBRANCH   1  21
TORSDOF 17
ENDMDL
MODEL 3
REMARK VINA RESULT:     -11.3      2.606      8.424
REMARK SMILES C=C(c1ccccc1)[C@@H](C(=O)NCCCCNC(=O)c1ccc(-c2c3nc(c(-c4cccc(S(=O)(=O)[O-])c4F)c4ccc([nH]4)c(-c4cccc(S(=O)(=O)[O-])c4F)c4nc(c(-c5cccc(S(=O)(=O)[O-])c5F)c5ccc2[nH]5)C=C4)C=C3)cc1)S(C)(=O)=O
REMARK SMILES IDX 15 1 14 2 13 3 12 4 10 5 11 6 9 8 2 9 1 10 3 11 4 12 8 13
REMARK SMILES IDX 5 14 7 15 6 16 83 17 84 18 85 19 86 20 16 21 17 22 18 23
REMARK SMILES IDX 19 25 20 26 21 27 82 28 22 29 81 30 23 31 24 32 25 33 75 34
REMARK SMILES IDX 26 35 80 36 74 37 76 38 27 39 79 40 73 41 72 42 28 44 60 45
REMARK SMILES IDX 40 46 59 47 41 48 44 49 58 50 77 51 42 52 43 53 57 55 78 56
REMARK SMILES IDX 45 57 29 58 30 59 38 60 31 61 33 62 39 63 32 64 34 65 35 66
REMARK SMILES IDX 36 67 37 68 61 69 62 70 70 71 63 72 65 73 71 74 64 75 66 76
REMARK SMILES IDX 67 77 68 78 69 79 46 80 47 81 55 82 48 83 50 84 56 85 49 86
REMARK SMILES IDX 51 87 52 88 53 89 54 90
REMARK H PARENT 12 7 17 24 76 43 44 54
REMARK Flexibility Score: inf
ROOT
ATOM      1  C   UNL A   1      32.545  29.563  25.044  1.00  0.00     0.023 C 
ENDROOT
BRANCH   1   2
ATOM      2  C   UNL A   1      33.549  28.427  24.848  1.00  0.00     0.023 C 
BRANCH   2   3
ATOM      3  C   UNL A   1      33.995  28.202  23.402  1.00  0.00     0.116 C 
BRANCH   3   4
ATOM      4  N   UNL A   1      32.909  27.685  22.595  1.00  0.00    -0.355 N 
ATOM      5  C   UNL A   1      32.366  26.425  22.555  1.00  0.00     0.242 C 
ATOM      6  O   UNL A   1      31.573  26.201  21.642  1.00  0.00    -0.273 OA
ATOM      7  H   UNL A   1      32.499  28.335  21.981  1.00  0.00     0.163 HD
BRANCH   5   8
ATOM      8  C   UNL A   1      32.743  25.404  23.630  1.00  0.00     0.227 C 
BRANCH   8   9
ATOM      9  C   UNL A   1      33.573  24.238  23.091  1.00  0.00    -0.020 C 
ATOM     10  C   UNL A   1      33.220  23.546  21.990  1.00  0.00     0.015 C 
BRANCH   9  11
ATOM     11  C   UNL A   1      34.855  23.911  23.785  1.00  0.00    -0.021 A 
ATOM     12  C   UNL A   1      35.800  23.033  23.232  1.00  0.00     0.008 A 
ATOM     13  C   UNL A   1      35.109  24.397  25.081  1.00  0.00     0.008 A 
ATOM     14  C   UNL A   1      36.939  22.645  23.947  1.00  0.00     0.001 A 
ATOM     15  C   UNL A   1      36.239  23.998  25.803  1.00  0.00     0.001 A 
ATOM     16  C   UNL A   1      37.152  23.119  25.236  1.00  0.00     0.000 A 
ENDBRANCH   9  11
ENDBRANCH   8   9
BRANCH   8  17
ATOM     17  S   UNL A   1      31.230  24.818  24.440  1.00  0.00     0.163 S 
ATOM     18  C   UNL A   1      30.737  26.151  25.502  1.00  0.00     0.159 C 
ATOM     19  O   UNL A   1      30.175  24.738  23.440  1.00  0.00    -0.228 OA
ATOM     20  O   UNL A   1      31.491  23.700  25.330  1.00  0.00    -0.228 OA
ENDBRANCH   8  17
ENDBRANCH   5   8
ENDBRANCH   3   4
ENDBRANCH   2   3
ENDBRANCH   1   2
BRANCH   1  21
ATOM     21  C   UNL A   1      32.288  29.963  26.492  1.00  0.00     0.116 C 
BRANCH  21  22
ATOM     22  N   UNL A   1      32.248  31.405  26.691  1.00  0.00    -0.352 N 
ATOM     23  C   UNL A   1      33.162  32.215  27.325  1.00  0.00     0.251 C 
ATOM     24  H   UNL A   1      31.458  31.863  26.322  1.00  0.00     0.163 HD
ATOM     25  O   UNL A   1      32.910  33.403  27.500  1.00  0.00    -0.269 OA
BRANCH  23  26
ATOM     26  C   UNL A   1      34.428  31.638  27.823  1.00  0.00     0.039 A 
ATOM     27  C   UNL A   1      35.501  32.494  28.087  1.00  0.00     0.014 A 
ATOM     28  C   UNL A   1      34.543  30.268  28.071  1.00  0.00     0.014 A 
ATOM     29  C   UNL A   1      36.661  31.986  28.676  1.00  0.00     0.010 A 
ATOM     30  C   UNL A   1      35.669  29.776  28.725  1.00  0.00     0.010 A 
ATOM     31  C   UNL A   1      36.737  30.632  29.042  1.00  0.00    -0.014 A 
BRANCH  31  32
ATOM     32  C   UNL A   1      37.894  30.102  29.806  1.00  0.00     0.031 A 
ATOM     33  C   UNL A   1      38.175  30.578  31.203  1.00  0.00     0.074 A 
ATOM     34  C   UNL A   1      38.765  29.275  29.194  1.00  0.00     0.049 A 
ATOM     35  N   UNL A   1      39.169  30.270  31.995  1.00  0.00    -0.248 NA
ATOM     36  C   UNL A   1      37.231  31.552  31.776  1.00  0.00     0.031 C 
ATOM     37  C   UNL A   1      38.663  28.824  27.804  1.00  0.00     0.029 A 
ATOM     38  N   UNL A   1      39.926  28.700  29.646  1.00  0.00    -0.354 N 
ATOM     39  C   UNL A   1      38.995  31.035  33.141  1.00  0.00     0.074 A 
ATOM     40  C   UNL A   1      37.817  31.849  32.928  1.00  0.00     0.031 C 
ATOM     41  C   UNL A   1      39.721  28.052  27.515  1.00  0.00     0.029 A 
ATOM     42  C   UNL A   1      40.589  27.973  28.686  1.00  0.00     0.049 A 
ATOM     43  H   UNL A   1      40.253  28.800  30.569  1.00  0.00     0.167 HD
ATOM     44  C   UNL A   1      39.728  31.039  34.280  1.00  0.00     0.034 A 
ATOM     45  C   UNL A   1      41.768  27.323  28.735  1.00  0.00     0.034 A 
ATOM     46  C   UNL A   1      40.876  30.202  34.503  1.00  0.00     0.049 A 
ATOM     47  C   UNL A   1      42.541  27.298  30.023  1.00  0.00     0.074 A 
ATOM     48  C   UNL A   1      41.614  30.042  35.662  1.00  0.00     0.029 A 
ATOM     49  N   UNL A   1      41.468  29.398  33.540  1.00  0.00    -0.354 N 
ATOM     50  N   UNL A   1      42.250  27.871  31.167  1.00  0.00    -0.248 NA
ATOM     51  C   UNL A   1      43.781  26.510  30.042  1.00  0.00     0.031 C 
ATOM     52  C   UNL A   1      42.668  29.160  35.393  1.00  0.00     0.029 A 
ATOM     53  C   UNL A   1      42.574  28.755  34.071  1.00  0.00     0.049 A 
ATOM     54  H   UNL A   1      41.148  29.298  32.614  1.00  0.00     0.167 HD
ATOM     55  C   UNL A   1      43.262  27.501  32.046  1.00  0.00     0.074 A 
ATOM     56  C   UNL A   1      44.155  26.629  31.310  1.00  0.00     0.031 C 
ATOM     57  C   UNL A   1      43.441  27.865  33.341  1.00  0.00     0.034 A 
BRANCH  44  58
ATOM     58  C   UNL A   1      39.269  31.944  35.394  1.00  0.00     0.023 A 
ATOM     59  C   UNL A   1      38.320  31.473  36.325  1.00  0.00     0.012 A 
ATOM     60  C   UNL A   1      39.790  33.244  35.540  1.00  0.00     0.148 A 
ATOM     61  C   UNL A   1      37.860  32.295  37.353  1.00  0.00     0.002 A 
ATOM     62  C   UNL A   1      39.360  34.043  36.594  1.00  0.00     0.091 A 
ATOM     63  F   UNL A   1      40.672  33.688  34.634  1.00  0.00    -0.205 F 
ATOM     64  C   UNL A   1      38.386  33.576  37.493  1.00  0.00     0.022 A 
BRANCH  62  65
ATOM     65  S   UNL A   1      40.039  35.678  36.899  1.00  0.00     0.127 S 
ATOM     66  O   UNL A   1      39.371  36.047  38.146  1.00  0.00    -0.237 OA
ATOM     67  O   UNL A   1      41.469  35.402  37.034  1.00  0.00    -0.237 OA
ATOM     68  O   UNL A   1      39.687  36.475  35.733  1.00  0.00    -0.744 OA
ENDBRANCH  62  65
ENDBRANCH  44  58
BRANCH  45  69
ATOM     69  C   UNL A   1      42.247  26.596  27.526  1.00  0.00     0.023 A 
ATOM     70  C   UNL A   1      43.056  27.267  26.590  1.00  0.00     0.012 A 
ATOM     71  C   UNL A   1      41.974  25.225  27.345  1.00  0.00     0.148 A 
ATOM     72  C   UNL A   1      43.575  26.590  25.485  1.00  0.00     0.002 A 
ATOM     73  C   UNL A   1      42.540  24.545  26.274  1.00  0.00     0.091 A 
ATOM     74  F   UNL A   1      41.195  24.611  28.246  1.00  0.00    -0.205 F 
ATOM     75  C   UNL A   1      43.328  25.227  25.335  1.00  0.00     0.022 A 
BRANCH  73  76
ATOM     76  S   UNL A   1      42.399  22.764  26.079  1.00  0.00     0.127 S 
ATOM     77  O   UNL A   1      43.069  22.278  27.283  1.00  0.00    -0.237 OA
ATOM     78  O   UNL A   1      40.947  22.580  26.065  1.00  0.00    -0.237 OA
ATOM     79  O   UNL A   1      43.057  22.450  24.819  1.00  0.00    -0.744 OA
ENDBRANCH  73  76
ENDBRANCH  45  69
BRANCH  57  80
ATOM     80  C   UNL A   1      44.655  27.325  34.053  1.00  0.00     0.023 A 
ATOM     81  C   UNL A   1      45.855  28.062  34.037  1.00  0.00     0.012 A 
ATOM     82  C   UNL A   1      44.587  26.130  34.797  1.00  0.00     0.148 A 
ATOM     83  C   UNL A   1      46.978  27.606  34.726  1.00  0.00     0.002 A 
ATOM     84  C   UNL A   1      45.697  25.705  35.520  1.00  0.00     0.091 A 
ATOM     85  F   UNL A   1      43.442  25.432  34.785  1.00  0.00    -0.205 F 
ATOM     86  C   UNL A   1      46.896  26.435  35.476  1.00  0.00     0.022 A 
BRANCH  84  87
ATOM     87  S   UNL A   1      45.657  24.259  36.584  1.00  0.00     0.127 S 
ATOM     88  O   UNL A   1      47.030  24.218  37.085  1.00  0.00    -0.237 OA
ATOM     89  O   UNL A   1      44.655  24.634  37.582  1.00  0.00    -0.237 OA
ATOM     90  O   UNL A   1      45.269  23.143  35.731  1.00  0.00    -0.744 OA
ENDBRANCH  84  87
ENDBRANCH  57  80
ENDBRANCH  31  32
ENDBRANCH  23  26
ENDBRANCH  21  22
ENDBRANCH   1  21
TORSDOF 17
ENDMDL
