MODEL 1
REMARK VINA RESULT:     -11.6      0.000      0.000
REMARK SMILES CC(C)C[C@H](CNC(=O)N[C@@H](C)C1CCCCC1)C(=O)NCCCCNC(=O)c1ccc(-c2c3nc(c(-c4cccc(S(=O)(=O)[O-])c4F)c4ccc([nH]4)c(-c4cccc(S(=O)(=O)[O-])c4F)c4nc(c(-c5cccc(S(=O)(=O)[O-])c5F)c5ccc2[nH]5)C=C4)C=C3)cc1
REMARK SMILES IDX 23 1 22 2 21 3 19 4 20 5 5 7 4 8 2 9 1 10 3 11 6 12 7 13
REMARK SMILES IDX 8 14 9 16 10 17 11 19 12 20 13 21 14 22 18 23 15 24 17 25
REMARK SMILES IDX 16 26 24 27 25 28 26 29 27 30 28 32 29 33 30 34 91 35 31 36
REMARK SMILES IDX 90 37 32 38 33 39 34 40 84 41 35 42 89 43 83 44 85 45 36 46
REMARK SMILES IDX 88 47 82 48 81 49 37 51 69 52 49 53 68 54 50 55 53 56 67 57
REMARK SMILES IDX 86 58 51 59 52 60 66 62 87 63 54 64 38 65 39 66 47 67 40 68
REMARK SMILES IDX 42 69 48 70 41 71 43 72 44 73 45 74 46 75 70 76 71 77 79 78
REMARK SMILES IDX 72 79 74 80 80 81 73 82 75 83 76 84 77 85 78 86 55 87 56 88
REMARK SMILES IDX 64 89 57 90 59 91 65 92 58 93 60 94 61 95 62 96 63 97
REMARK H PARENT 21 6 7 15 10 18 26 31 85 50 53 61
REMARK Flexibility Score: inf
ROOT
ATOM      1  C   UNL A   1      32.255  27.604  26.680  1.00  0.00     0.023 C 
ENDROOT
BRANCH   1   2
ATOM      2  C   UNL A   1      33.699  27.408  26.222  1.00  0.00     0.116 C 
BRANCH   2   3
ATOM      3  N   UNL A   1      33.758  26.842  24.889  1.00  0.00    -0.356 N 
ATOM      4  C   UNL A   1      33.928  25.561  24.467  1.00  0.00     0.224 C 
ATOM      5  O   UNL A   1      34.021  25.372  23.251  1.00  0.00    -0.275 OA
ATOM      6  H   UNL A   1      33.657  27.500  24.164  1.00  0.00     0.163 HD
BRANCH   4   7
ATOM      7  C   UNL A   1      33.964  24.375  25.424  1.00  0.00     0.098 C 
BRANCH   7   8
ATOM      8  C   UNL A   1      35.390  23.804  25.589  1.00  0.00     0.018 C 
BRANCH   8   9
ATOM      9  C   UNL A   1      35.728  22.592  24.696  1.00  0.00    -0.017 C 
ATOM     10  C   UNL A   1      36.616  22.979  23.513  1.00  0.00     0.007 C 
ATOM     11  C   UNL A   1      36.434  21.525  25.540  1.00  0.00     0.007 C 
ENDBRANCH   8   9
ENDBRANCH   7   8
BRANCH   7  12
ATOM     12  C   UNL A   1      32.950  23.289  25.041  1.00  0.00     0.131 C 
BRANCH  12  13
ATOM     13  N   UNL A   1      31.879  23.175  26.014  1.00  0.00    -0.337 N 
ATOM     14  C   UNL A   1      30.754  23.838  26.267  1.00  0.00     0.315 C 
ATOM     15  H   UNL A   1      32.019  22.425  26.637  1.00  0.00     0.165 HD
ATOM     16  O   UNL A   1      30.116  23.509  27.271  1.00  0.00    -0.249 OA
ATOM     17  N   UNL A   1      30.262  24.828  25.527  1.00  0.00    -0.335 N 
ATOM     18  H   UNL A   1      29.485  25.247  25.965  1.00  0.00     0.165 HD
BRANCH  17  19
ATOM     19  C   UNL A   1      30.556  25.466  24.243  1.00  0.00     0.083 C 
ATOM     20  C   UNL A   1      30.249  24.448  23.140  1.00  0.00     0.031 C 
BRANCH  19  21
ATOM     21  C   UNL A   1      29.840  26.850  24.096  1.00  0.00     0.011 C 
ATOM     22  C   UNL A   1      30.640  27.869  23.259  1.00  0.00     0.006 C 
ATOM     23  C   UNL A   1      28.389  26.765  23.583  1.00  0.00     0.006 C 
ATOM     24  C   UNL A   1      29.953  29.230  23.170  1.00  0.00     0.000 C 
ATOM     25  C   UNL A   1      27.721  28.136  23.514  1.00  0.00     0.000 C 
ATOM     26  C   UNL A   1      28.523  29.105  22.660  1.00  0.00     0.000 C 
ENDBRANCH  19  21
ENDBRANCH  17  19
ENDBRANCH  12  13
ENDBRANCH   7  12
ENDBRANCH   4   7
ENDBRANCH   2   3
ENDBRANCH   1   2
BRANCH   1  27
ATOM     27  C   UNL A   1      31.782  29.057  26.668  1.00  0.00     0.023 C 
BRANCH  27  28
ATOM     28  C   UNL A   1      32.777  30.059  26.092  1.00  0.00     0.116 C 
BRANCH  28  29
ATOM     29  N   UNL A   1      32.553  31.425  26.547  1.00  0.00    -0.352 N 
ATOM     30  C   UNL A   1      33.314  32.164  27.424  1.00  0.00     0.251 C 
ATOM     31  H   UNL A   1      31.759  31.876  26.181  1.00  0.00     0.163 HD
ATOM     32  O   UNL A   1      32.946  33.272  27.784  1.00  0.00    -0.269 OA
BRANCH  30  33
ATOM     33  C   UNL A   1      34.561  31.575  27.950  1.00  0.00     0.039 A 
ATOM     34  C   UNL A   1      35.721  32.354  27.965  1.00  0.00     0.014 A 
ATOM     35  C   UNL A   1      34.563  30.284  28.483  1.00  0.00     0.014 A 
ATOM     36  C   UNL A   1      36.872  31.857  28.578  1.00  0.00     0.010 A 
ATOM     37  C   UNL A   1      35.689  29.820  29.153  1.00  0.00     0.010 A 
ATOM     38  C   UNL A   1      36.853  30.601  29.207  1.00  0.00    -0.014 A 
BRANCH  38  39
ATOM     39  C   UNL A   1      38.035  30.090  29.942  1.00  0.00     0.031 A 
ATOM     40  C   UNL A   1      38.310  30.560  31.344  1.00  0.00     0.074 A 
ATOM     41  C   UNL A   1      38.912  29.284  29.312  1.00  0.00     0.049 A 
ATOM     42  N   UNL A   1      39.323  30.280  32.121  1.00  0.00    -0.248 NA
ATOM     43  C   UNL A   1      37.336  31.491  31.938  1.00  0.00     0.031 C 
ATOM     44  C   UNL A   1      38.800  28.835  27.922  1.00  0.00     0.029 A 
ATOM     45  N   UNL A   1      40.086  28.725  29.748  1.00  0.00    -0.354 N 
ATOM     46  C   UNL A   1      39.129  31.025  33.278  1.00  0.00     0.074 A 
ATOM     47  C   UNL A   1      37.921  31.797  33.086  1.00  0.00     0.031 C 
ATOM     48  C   UNL A   1      39.863  28.072  27.621  1.00  0.00     0.029 A 
ATOM     49  C   UNL A   1      40.740  27.994  28.784  1.00  0.00     0.049 A 
ATOM     50  H   UNL A   1      40.429  28.837  30.664  1.00  0.00     0.167 HD
ATOM     51  C   UNL A   1      39.869  31.038  34.411  1.00  0.00     0.034 A 
ATOM     52  C   UNL A   1      41.915  27.336  28.833  1.00  0.00     0.034 A 
ATOM     53  C   UNL A   1      41.039  30.229  34.616  1.00  0.00     0.049 A 
ATOM     54  C   UNL A   1      42.686  27.315  30.125  1.00  0.00     0.074 A 
ATOM     55  C   UNL A   1      41.806  30.098  35.760  1.00  0.00     0.029 A 
ATOM     56  N   UNL A   1      41.612  29.412  33.654  1.00  0.00    -0.354 N 
ATOM     57  N   UNL A   1      42.395  27.891  31.266  1.00  0.00    -0.248 NA
ATOM     58  C   UNL A   1      43.923  26.521  30.150  1.00  0.00     0.031 C 
ATOM     59  C   UNL A   1      42.850  29.208  35.486  1.00  0.00     0.029 A 
ATOM     60  C   UNL A   1      42.724  28.774  34.176  1.00  0.00     0.049 A 
ATOM     61  H   UNL A   1      41.277  29.302  32.735  1.00  0.00     0.167 HD
ATOM     62  C   UNL A   1      43.394  27.505  32.153  1.00  0.00     0.074 A 
ATOM     63  C   UNL A   1      44.284  26.626  31.422  1.00  0.00     0.031 C 
ATOM     64  C   UNL A   1      43.568  27.859  33.451  1.00  0.00     0.034 A 
BRANCH  51  65
ATOM     65  C   UNL A   1      39.390  31.906  35.544  1.00  0.00     0.023 A 
ATOM     66  C   UNL A   1      39.716  33.279  35.548  1.00  0.00     0.012 A 
ATOM     67  C   UNL A   1      38.587  31.385  36.577  1.00  0.00     0.148 A 
ATOM     68  C   UNL A   1      39.281  34.111  36.579  1.00  0.00     0.002 A 
ATOM     69  C   UNL A   1      38.122  32.230  37.579  1.00  0.00     0.091 A 
ATOM     70  F   UNL A   1      38.309  30.073  36.572  1.00  0.00    -0.205 F 
ATOM     71  C   UNL A   1      38.477  33.589  37.587  1.00  0.00     0.022 A 
BRANCH  69  72
ATOM     72  S   UNL A   1      37.019  31.668  38.881  1.00  0.00     0.127 S 
ATOM     73  O   UNL A   1      37.872  31.788  40.061  1.00  0.00    -0.237 OA
ATOM     74  O   UNL A   1      35.933  32.647  38.811  1.00  0.00    -0.237 OA
ATOM     75  O   UNL A   1      36.634  30.311  38.519  1.00  0.00    -0.744 OA
ENDBRANCH  69  72
ENDBRANCH  51  65
BRANCH  52  76
ATOM     76  C   UNL A   1      42.388  26.575  27.642  1.00  0.00     0.023 A 
ATOM     77  C   UNL A   1      43.207  27.219  26.694  1.00  0.00     0.012 A 
ATOM     78  C   UNL A   1      42.070  25.216  27.463  1.00  0.00     0.148 A 
ATOM     79  C   UNL A   1      43.678  26.532  25.575  1.00  0.00     0.002 A 
ATOM     80  C   UNL A   1      42.586  24.521  26.373  1.00  0.00     0.091 A 
ATOM     81  F   UNL A   1      41.278  24.623  28.368  1.00  0.00    -0.205 F 
ATOM     82  C   UNL A   1      43.377  25.181  25.421  1.00  0.00     0.022 A 
BRANCH  80  83
ATOM     83  S   UNL A   1      42.361  22.751  26.170  1.00  0.00     0.127 S 
ATOM     84  O   UNL A   1      42.867  22.538  24.817  1.00  0.00    -0.237 OA
ATOM     85  O   UNL A   1      43.206  22.212  27.237  1.00  0.00    -0.237 OA
ATOM     86  O   UNL A   1      40.936  22.514  26.362  1.00  0.00    -0.744 OA
ENDBRANCH  80  83
ENDBRANCH  52  76
BRANCH  64  87
ATOM     87  C   UNL A   1      44.750  27.279  34.180  1.00  0.00     0.023 A 
ATOM     88  C   UNL A   1      45.977  27.970  34.179  1.00  0.00     0.012 A 
ATOM     89  C   UNL A   1      44.623  26.093  34.932  1.00  0.00     0.148 A 
ATOM     90  C   UNL A   1      47.067  27.478  34.895  1.00  0.00     0.002 A 
ATOM     91  C   UNL A   1      45.700  25.633  35.678  1.00  0.00     0.091 A 
ATOM     92  F   UNL A   1      43.452  25.439  34.902  1.00  0.00    -0.205 F 
ATOM     93  C   UNL A   1      46.926  26.318  35.653  1.00  0.00     0.022 A 
BRANCH  91  94
ATOM     94  S   UNL A   1      45.579  24.201  36.756  1.00  0.00     0.127 S 
ATOM     95  O   UNL A   1      45.349  23.123  35.795  1.00  0.00    -0.237 OA
ATOM     96  O   UNL A   1      46.895  24.178  37.396  1.00  0.00    -0.237 OA
ATOM     97  O   UNL A   1      44.473  24.478  37.664  1.00  0.00    -0.744 OA
ENDBRANCH  91  94
ENDBRANCH  64  87
ENDBRANCH  38  39
ENDBRANCH  30  33
ENDBRANCH  28  29
ENDBRANCH  27  28
ENDBRANCH   1  27
TORSDOF 20
ENDMDL
MODEL 2
REMARK VINA RESULT:     -11.2      5.097      9.903
REMARK SMILES CC(C)C[C@H](CNC(=O)N[C@@H](C)C1CCCCC1)C(=O)NCCCCNC(=O)c1ccc(-c2c3nc(c(-c4cccc(S(=O)(=O)[O-])c4F)c4ccc([nH]4)c(-c4cccc(S(=O)(=O)[O-])c4F)c4nc(c(-c5cccc(S(=O)(=O)[O-])c5F)c5ccc2[nH]5)C=C4)C=C3)cc1
REMARK SMILES IDX 23 1 22 2 21 3 19 4 20 5 5 7 4 8 2 9 1 10 3 11 6 12 7 13
REMARK SMILES IDX 8 14 9 16 10 17 11 19 12 20 13 21 14 22 18 23 15 24 17 25
REMARK SMILES IDX 16 26 24 27 25 28 26 29 27 30 28 32 29 33 30 34 91 35 31 36
REMARK SMILES IDX 90 37 32 38 33 39 34 40 84 41 35 42 89 43 83 44 85 45 36 46
REMARK SMILES IDX 88 47 82 48 81 49 37 51 69 52 49 53 68 54 50 55 53 56 67 57
REMARK SMILES IDX 86 58 51 59 52 60 66 62 87 63 54 64 38 65 39 66 47 67 40 68
REMARK SMILES IDX 42 69 48 70 41 71 43 72 44 73 45 74 46 75 70 76 71 77 79 78
REMARK SMILES IDX 72 79 74 80 80 81 73 82 75 83 76 84 77 85 78 86 55 87 56 88
REMARK SMILES IDX 64 89 57 90 59 91 65 92 58 93 60 94 61 95 62 96 63 97
REMARK H PARENT 21 6 7 15 10 18 26 31 85 50 53 61
REMARK Flexibility Score: inf
ROOT
ATOM      1  C   UNL A   1      35.939  23.325  23.491  1.00  0.00     0.023 C 
ENDROOT
BRANCH   1   2
ATOM      2  C   UNL A   1      34.489  23.404  23.965  1.00  0.00     0.116 C 
BRANCH   2   3
ATOM      3  N   UNL A   1      33.580  22.860  22.977  1.00  0.00    -0.356 N 
ATOM      4  C   UNL A   1      32.858  21.708  22.962  1.00  0.00     0.224 C 
ATOM      5  O   UNL A   1      32.217  21.454  21.939  1.00  0.00    -0.275 OA
ATOM      6  H   UNL A   1      33.465  23.423  22.177  1.00  0.00     0.163 HD
BRANCH   4   7
ATOM      7  C   UNL A   1      32.784  20.766  24.159  1.00  0.00     0.098 C 
BRANCH   7   8
ATOM      8  C   UNL A   1      32.436  19.321  23.740  1.00  0.00     0.018 C 
BRANCH   8   9
ATOM      9  C   UNL A   1      33.426  18.235  24.209  1.00  0.00    -0.017 C 
ATOM     10  C   UNL A   1      33.763  17.243  23.096  1.00  0.00     0.007 C 
ATOM     11  C   UNL A   1      34.713  18.906  24.704  1.00  0.00     0.007 C 
ENDBRANCH   8   9
ENDBRANCH   7   8
BRANCH   7  12
ATOM     12  C   UNL A   1      31.844  21.290  25.252  1.00  0.00     0.131 C 
BRANCH  12  13
ATOM     13  N   UNL A   1      32.533  21.491  26.514  1.00  0.00    -0.337 N 
ATOM     14  C   UNL A   1      32.815  22.539  27.282  1.00  0.00     0.315 C 
ATOM     15  H   UNL A   1      32.873  20.647  26.892  1.00  0.00     0.165 HD
ATOM     16  O   UNL A   1      33.528  22.341  28.271  1.00  0.00    -0.249 OA
ATOM     17  N   UNL A   1      32.394  23.783  27.072  1.00  0.00    -0.335 N 
ATOM     18  H   UNL A   1      32.818  24.414  27.699  1.00  0.00     0.165 HD
BRANCH  17  19
ATOM     19  C   UNL A   1      31.473  24.473  26.167  1.00  0.00     0.083 C 
ATOM     20  C   UNL A   1      30.047  24.149  26.624  1.00  0.00     0.031 C 
BRANCH  19  21
ATOM     21  C   UNL A   1      31.806  25.997  26.039  1.00  0.00     0.011 C 
ATOM     22  C   UNL A   1      33.319  26.296  26.020  1.00  0.00     0.006 C 
ATOM     23  C   UNL A   1      31.112  26.704  24.858  1.00  0.00     0.006 C 
ATOM     24  C   UNL A   1      33.626  27.790  25.949  1.00  0.00     0.000 C 
ATOM     25  C   UNL A   1      31.425  28.197  24.815  1.00  0.00     0.000 C 
ATOM     26  C   UNL A   1      32.924  28.452  24.770  1.00  0.00     0.000 C 
ENDBRANCH  19  21
ENDBRANCH  17  19
ENDBRANCH  12  13
ENDBRANCH   7  12
ENDBRANCH   4   7
ENDBRANCH   2   3
ENDBRANCH   1   2
BRANCH   1  27
ATOM     27  C   UNL A   1      36.647  22.016  23.840  1.00  0.00     0.023 C 
BRANCH  27  28
ATOM     28  C   UNL A   1      37.011  21.849  25.312  1.00  0.00     0.116 C 
BRANCH  28  29
ATOM     29  N   UNL A   1      37.984  20.791  25.552  1.00  0.00    -0.352 N 
ATOM     30  C   UNL A   1      39.240  20.902  26.104  1.00  0.00     0.251 C 
ATOM     31  H   UNL A   1      37.709  19.885  25.285  1.00  0.00     0.163 HD
ATOM     32  O   UNL A   1      39.983  19.933  26.155  1.00  0.00    -0.269 OA
BRANCH  30  33
ATOM     33  C   UNL A   1      39.685  22.221  26.595  1.00  0.00     0.039 A 
ATOM     34  C   UNL A   1      40.764  22.282  27.479  1.00  0.00     0.014 A 
ATOM     35  C   UNL A   1      39.076  23.390  26.131  1.00  0.00     0.014 A 
ATOM     36  C   UNL A   1      41.278  23.525  27.849  1.00  0.00     0.010 A 
ATOM     37  C   UNL A   1      39.633  24.624  26.446  1.00  0.00     0.010 A 
ATOM     38  C   UNL A   1      40.738  24.703  27.307  1.00  0.00    -0.014 A 
BRANCH  38  39
ATOM     39  C   UNL A   1      41.323  26.031  27.614  1.00  0.00     0.031 A 
ATOM     40  C   UNL A   1      42.741  26.338  27.218  1.00  0.00     0.074 A 
ATOM     41  C   UNL A   1      40.613  26.920  28.336  1.00  0.00     0.049 A 
ATOM     42  N   UNL A   1      43.447  27.412  27.456  1.00  0.00    -0.248 NA
ATOM     43  C   UNL A   1      43.470  25.288  26.487  1.00  0.00     0.031 C 
ATOM     44  C   UNL A   1      39.261  26.699  28.855  1.00  0.00     0.029 A 
ATOM     45  N   UNL A   1      40.940  28.174  28.783  1.00  0.00    -0.354 N 
ATOM     46  C   UNL A   1      44.711  27.155  26.939  1.00  0.00     0.074 A 
ATOM     47  C   UNL A   1      44.685  25.810  26.406  1.00  0.00     0.031 C 
ATOM     48  C   UNL A   1      38.876  27.780  29.552  1.00  0.00     0.029 A 
ATOM     49  C   UNL A   1      39.957  28.761  29.547  1.00  0.00     0.049 A 
ATOM     50  H   UNL A   1      41.796  28.613  28.578  1.00  0.00     0.167 HD
ATOM     51  C   UNL A   1      45.785  27.977  26.879  1.00  0.00     0.034 A 
ATOM     52  C   UNL A   1      39.932  29.954  30.173  1.00  0.00     0.034 A 
ATOM     53  C   UNL A   1      45.789  29.331  27.361  1.00  0.00     0.049 A 
ATOM     54  C   UNL A   1      41.115  30.873  30.037  1.00  0.00     0.074 A 
ATOM     55  C   UNL A   1      46.793  30.277  27.265  1.00  0.00     0.029 A 
ATOM     56  N   UNL A   1      44.735  29.932  28.033  1.00  0.00    -0.354 N 
ATOM     57  N   UNL A   1      42.241  30.677  29.395  1.00  0.00    -0.248 NA
ATOM     58  C   UNL A   1      41.010  32.194  30.675  1.00  0.00     0.031 C 
ATOM     59  C   UNL A   1      46.350  31.449  27.888  1.00  0.00     0.029 A 
ATOM     60  C   UNL A   1      45.064  31.236  28.358  1.00  0.00     0.049 A 
ATOM     61  H   UNL A   1      43.879  29.495  28.246  1.00  0.00     0.167 HD
ATOM     62  C   UNL A   1      42.965  31.857  29.524  1.00  0.00     0.074 A 
ATOM     63  C   UNL A   1      42.138  32.772  30.286  1.00  0.00     0.031 C 
ATOM     64  C   UNL A   1      44.207  32.152  29.068  1.00  0.00     0.034 A 
BRANCH  51  65
ATOM     65  C   UNL A   1      47.025  27.454  26.203  1.00  0.00     0.023 A 
ATOM     66  C   UNL A   1      47.220  27.703  24.829  1.00  0.00     0.012 A 
ATOM     67  C   UNL A   1      48.014  26.758  26.926  1.00  0.00     0.148 A 
ATOM     68  C   UNL A   1      48.361  27.239  24.176  1.00  0.00     0.002 A 
ATOM     69  C   UNL A   1      49.169  26.336  26.277  1.00  0.00     0.091 A 
ATOM     70  F   UNL A   1      47.800  26.508  28.226  1.00  0.00    -0.205 F 
ATOM     71  C   UNL A   1      49.338  26.565  24.901  1.00  0.00     0.022 A 
BRANCH  69  72
ATOM     72  S   UNL A   1      50.520  25.526  27.140  1.00  0.00     0.127 S 
ATOM     73  O   UNL A   1      51.458  25.274  26.048  1.00  0.00    -0.237 OA
ATOM     74  O   UNL A   1      50.947  26.557  28.086  1.00  0.00    -0.237 OA
ATOM     75  O   UNL A   1      49.943  24.340  27.758  1.00  0.00    -0.744 OA
ENDBRANCH  69  72
ENDBRANCH  51  65
BRANCH  52  76
ATOM     76  C   UNL A   1      38.710  30.375  30.915  1.00  0.00     0.023 A 
ATOM     77  C   UNL A   1      38.615  30.108  32.295  1.00  0.00     0.012 A 
ATOM     78  C   UNL A   1      37.666  31.071  30.277  1.00  0.00     0.148 A 
ATOM     79  C   UNL A   1      37.491  30.502  33.020  1.00  0.00     0.002 A 
ATOM     80  C   UNL A   1      36.572  31.508  31.016  1.00  0.00     0.091 A 
ATOM     81  F   UNL A   1      37.769  31.305  28.960  1.00  0.00    -0.205 F 
ATOM     82  C   UNL A   1      36.475  31.211  32.384  1.00  0.00     0.022 A 
BRANCH  80  83
ATOM     83  S   UNL A   1      35.286  32.544  30.308  1.00  0.00     0.127 S 
ATOM     84  O   UNL A   1      34.357  32.674  31.426  1.00  0.00    -0.237 OA
ATOM     85  O   UNL A   1      36.026  33.762  29.975  1.00  0.00    -0.237 OA
ATOM     86  O   UNL A   1      34.791  31.812  29.150  1.00  0.00    -0.744 OA
ENDBRANCH  80  83
ENDBRANCH  52  76
BRANCH  64  87
ATOM     87  C   UNL A   1      44.747  33.528  29.354  1.00  0.00     0.023 A 
ATOM     88  C   UNL A   1      45.473  33.760  30.538  1.00  0.00     0.012 A 
ATOM     89  C   UNL A   1      44.606  34.567  28.412  1.00  0.00     0.148 A 
ATOM     90  C   UNL A   1      46.029  35.012  30.794  1.00  0.00     0.002 A 
ATOM     91  C   UNL A   1      45.201  35.799  28.654  1.00  0.00     0.091 A 
ATOM     92  F   UNL A   1      43.894  34.332  27.300  1.00  0.00    -0.205 F 
ATOM     93  C   UNL A   1      45.904  36.027  29.847  1.00  0.00     0.022 A 
BRANCH  91  94
ATOM     94  S   UNL A   1      45.170  37.132  27.449  1.00  0.00     0.127 S 
ATOM     95  O   UNL A   1      45.726  38.243  28.219  1.00  0.00    -0.237 OA
ATOM     96  O   UNL A   1      46.047  36.621  26.394  1.00  0.00    -0.237 OA
ATOM     97  O   UNL A   1      43.775  37.279  27.053  1.00  0.00    -0.744 OA
ENDBRANCH  91  94
ENDBRANCH  64  87
ENDBRANCH  38  39
ENDBRANCH  30  33
ENDBRANCH  28  29
ENDBRANCH  27  28
ENDBRANCH   1  27
TORSDOF 20
ENDMDL
MODEL 3
REMARK VINA RESULT:     -11.2      1.557      3.500
REMARK SMILES CC(C)C[C@H](CNC(=O)N[C@@H](C)C1CCCCC1)C(=O)NCCCCNC(=O)c1ccc(-c2c3nc(c(-c4cccc(S(=O)(=O)[O-])c4F)c4ccc([nH]4)c(-c4cccc(S(=O)(=O)[O-])c4F)c4nc(c(-c5cccc(S(=O)(=O)[O-])c5F)c5ccc2[nH]5)C=C4)C=C3)cc1
REMARK SMILES IDX 23 1 22 2 21 3 19 4 20 5 5 7 4 8 2 9 1 10 3 11 6 12 7 13
REMARK SMILES IDX 8 14 9 16 10 17 11 19 12 20 13 21 14 22 18 23 15 24 17 25
REMARK SMILES IDX 16 26 24 27 25 28 26 29 27 30 28 32 29 33 30 34 91 35 31 36
REMARK SMILES IDX 90 37 32 38 33 39 34 40 84 41 35 42 89 43 83 44 85 45 36 46
REMARK SMILES IDX 88 47 82 48 81 49 37 51 69 52 49 53 68 54 50 55 53 56 67 57
REMARK SMILES IDX 86 58 51 59 52 60 66 62 87 63 54 64 38 65 39 66 47 67 40 68
REMARK SMILES IDX 42 69 48 70 41 71 43 72 44 73 45 74 46 75 70 76 71 77 79 78
REMARK SMILES IDX 72 79 74 80 80 81 73 82 75 83 76 84 77 85 78 86 55 87 56 88
REMARK SMILES IDX 64 89 57 90 59 91 65 92 58 93 60 94 61 95 62 96 63 97
REMARK H PARENT 21 6 7 15 10 18 26 31 85 50 53 61
REMARK Flexibility Score: inf
ROOT
ATOM      1  C   UNL A   1      31.219  28.779  25.400  1.00  0.00     0.023 C 
ENDROOT
BRANCH   1   2
ATOM      2  C   UNL A   1      31.962  27.717  26.209  1.00  0.00     0.116 C 
BRANCH   2   3
ATOM      3  N   UNL A   1      31.089  26.617  26.565  1.00  0.00    -0.356 N 
ATOM      4  C   UNL A   1      30.950  25.375  26.030  1.00  0.00     0.224 C 
ATOM      5  O   UNL A   1      30.057  24.657  26.488  1.00  0.00    -0.275 OA
ATOM      6  H   UNL A   1      30.494  26.801  27.326  1.00  0.00     0.163 HD
BRANCH   4   7
ATOM      7  C   UNL A   1      31.871  24.839  24.938  1.00  0.00     0.098 C 
BRANCH   7   8
ATOM      8  C   UNL A   1      31.324  25.131  23.523  1.00  0.00     0.018 C 
BRANCH   8   9
ATOM      9  C   UNL A   1      32.143  26.137  22.688  1.00  0.00    -0.017 C 
ATOM     10  C   UNL A   1      33.542  26.360  23.265  1.00  0.00     0.007 C 
ATOM     11  C   UNL A   1      32.258  25.623  21.248  1.00  0.00     0.007 C 
ENDBRANCH   8   9
ENDBRANCH   7   8
BRANCH   7  12
ATOM     12  C   UNL A   1      32.199  23.353  25.133  1.00  0.00     0.131 C 
BRANCH  12  13
ATOM     13  N   UNL A   1      32.579  23.053  26.501  1.00  0.00    -0.337 N 
ATOM     14  C   UNL A   1      33.291  22.102  27.099  1.00  0.00     0.315 C 
ATOM     15  H   UNL A   1      32.223  23.712  27.141  1.00  0.00     0.165 HD
ATOM     16  O   UNL A   1      33.323  22.110  28.334  1.00  0.00    -0.249 OA
ATOM     17  N   UNL A   1      33.971  21.143  26.476  1.00  0.00    -0.335 N 
ATOM     18  H   UNL A   1      34.327  20.485  27.117  1.00  0.00     0.165 HD
BRANCH  17  19
ATOM     19  C   UNL A   1      34.337  20.798  25.101  1.00  0.00     0.083 C 
ATOM     20  C   UNL A   1      35.842  21.041  24.949  1.00  0.00     0.031 C 
BRANCH  19  21
ATOM     21  C   UNL A   1      33.846  19.365  24.705  1.00  0.00     0.011 C 
ATOM     22  C   UNL A   1      32.929  19.352  23.465  1.00  0.00     0.006 C 
ATOM     23  C   UNL A   1      34.975  18.328  24.540  1.00  0.00     0.006 C 
ATOM     24  C   UNL A   1      32.417  17.954  23.124  1.00  0.00     0.000 C 
ATOM     25  C   UNL A   1      34.437  16.938  24.211  1.00  0.00     0.000 C 
ATOM     26  C   UNL A   1      33.560  16.959  22.969  1.00  0.00     0.000 C 
ENDBRANCH  19  21
ENDBRANCH  17  19
ENDBRANCH  12  13
ENDBRANCH   7  12
ENDBRANCH   4   7
ENDBRANCH   2   3
ENDBRANCH   1   2
BRANCH   1  27
ATOM     27  C   UNL A   1      31.847  30.171  25.458  1.00  0.00     0.023 C 
BRANCH  27  28
ATOM     28  C   UNL A   1      32.224  30.654  26.855  1.00  0.00     0.116 C 
BRANCH  28  29
ATOM     29  N   UNL A   1      32.263  32.106  26.975  1.00  0.00    -0.352 N 
ATOM     30  C   UNL A   1      33.253  32.887  27.526  1.00  0.00     0.251 C 
ATOM     31  H   UNL A   1      31.483  32.588  26.618  1.00  0.00     0.163 HD
ATOM     32  O   UNL A   1      33.100  34.094  27.640  1.00  0.00    -0.269 OA
BRANCH  30  33
ATOM     33  C   UNL A   1      34.484  32.232  28.011  1.00  0.00     0.039 A 
ATOM     34  C   UNL A   1      35.644  32.999  28.153  1.00  0.00     0.014 A 
ATOM     35  C   UNL A   1      34.469  30.886  28.383  1.00  0.00     0.014 A 
ATOM     36  C   UNL A   1      36.776  32.426  28.732  1.00  0.00     0.010 A 
ATOM     37  C   UNL A   1      35.576  30.339  29.022  1.00  0.00     0.010 A 
ATOM     38  C   UNL A   1      36.739  31.103  29.202  1.00  0.00    -0.014 A 
BRANCH  38  39
ATOM     39  C   UNL A   1      37.900  30.502  29.903  1.00  0.00     0.031 A 
ATOM     40  C   UNL A   1      38.217  30.904  31.316  1.00  0.00     0.074 A 
ATOM     41  C   UNL A   1      38.723  29.672  29.232  1.00  0.00     0.049 A 
ATOM     42  N   UNL A   1      39.222  30.540  32.068  1.00  0.00    -0.248 NA
ATOM     43  C   UNL A   1      37.303  31.864  31.956  1.00  0.00     0.031 C 
ATOM     44  C   UNL A   1      38.570  29.281  27.828  1.00  0.00     0.029 A 
ATOM     45  N   UNL A   1      39.869  29.034  29.631  1.00  0.00    -0.354 N 
ATOM     46  C   UNL A   1      39.083  31.252  33.254  1.00  0.00     0.074 A 
ATOM     47  C   UNL A   1      37.918  32.096  33.107  1.00  0.00     0.031 C 
ATOM     48  C   UNL A   1      39.585  28.472  27.485  1.00  0.00     0.029 A 
ATOM     49  C   UNL A   1      40.471  28.303  28.632  1.00  0.00     0.049 A 
ATOM     50  H   UNL A   1      40.229  29.093  30.545  1.00  0.00     0.167 HD
ATOM     51  C   UNL A   1      39.836  31.183  34.377  1.00  0.00     0.034 A 
ATOM     52  C   UNL A   1      41.608  27.581  28.641  1.00  0.00     0.034 A 
ATOM     53  C   UNL A   1      40.962  30.304  34.536  1.00  0.00     0.049 A 
ATOM     54  C   UNL A   1      42.391  27.470  29.920  1.00  0.00     0.074 A 
ATOM     55  C   UNL A   1      41.734  30.090  35.664  1.00  0.00     0.029 A 
ATOM     56  N   UNL A   1      41.478  29.493  33.538  1.00  0.00    -0.354 N 
ATOM     57  N   UNL A   1      42.147  28.019  31.086  1.00  0.00    -0.248 NA
ATOM     58  C   UNL A   1      43.583  26.609  29.900  1.00  0.00     0.031 C 
ATOM     59  C   UNL A   1      42.724  29.154  35.343  1.00  0.00     0.029 A 
ATOM     60  C   UNL A   1      42.559  28.776  34.021  1.00  0.00     0.049 A 
ATOM     61  H   UNL A   1      41.126  29.435  32.620  1.00  0.00     0.167 HD
ATOM     62  C   UNL A   1      43.133  27.546  31.944  1.00  0.00     0.074 A 
ATOM     63  C   UNL A   1      43.964  26.647  31.170  1.00  0.00     0.031 C 
ATOM     64  C   UNL A   1      43.342  27.842  33.252  1.00  0.00     0.034 A 
BRANCH  51  65
ATOM     65  C   UNL A   1      39.420  32.034  35.547  1.00  0.00     0.023 A 
ATOM     66  C   UNL A   1      39.807  33.390  35.587  1.00  0.00     0.012 A 
ATOM     67  C   UNL A   1      38.615  31.515  36.580  1.00  0.00     0.148 A 
ATOM     68  C   UNL A   1      39.430  34.206  36.652  1.00  0.00     0.002 A 
ATOM     69  C   UNL A   1      38.209  32.347  37.617  1.00  0.00     0.091 A 
ATOM     70  F   UNL A   1      38.279  30.218  36.540  1.00  0.00    -0.205 F 
ATOM     71  C   UNL A   1      38.625  33.688  37.661  1.00  0.00     0.022 A 
BRANCH  69  72
ATOM     72  S   UNL A   1      37.108  31.793  38.925  1.00  0.00     0.127 S 
ATOM     73  O   UNL A   1      37.938  31.990  40.112  1.00  0.00    -0.237 OA
ATOM     74  O   UNL A   1      35.987  32.724  38.802  1.00  0.00    -0.237 OA
ATOM     75  O   UNL A   1      36.782  30.408  38.610  1.00  0.00    -0.744 OA
ENDBRANCH  69  72
ENDBRANCH  51  65
BRANCH  52  76
ATOM     76  C   UNL A   1      42.024  26.839  27.417  1.00  0.00     0.023 A 
ATOM     77  C   UNL A   1      42.624  27.544  26.355  1.00  0.00     0.012 A 
ATOM     78  C   UNL A   1      41.869  25.444  27.313  1.00  0.00     0.148 A 
ATOM     79  C   UNL A   1      43.037  26.878  25.202  1.00  0.00     0.002 A 
ATOM     80  C   UNL A   1      42.331  24.778  26.183  1.00  0.00     0.091 A 
ATOM     81  F   UNL A   1      41.283  24.792  28.328  1.00  0.00    -0.205 F 
ATOM     82  C   UNL A   1      42.901  25.495  25.120  1.00  0.00     0.022 A 
BRANCH  80  83
ATOM     83  S   UNL A   1      42.319  22.986  26.053  1.00  0.00     0.127 S 
ATOM     84  O   UNL A   1      40.891  22.690  26.126  1.00  0.00    -0.237 OA
ATOM     85  O   UNL A   1      42.927  22.773  24.739  1.00  0.00    -0.237 OA
ATOM     86  O   UNL A   1      43.127  22.510  27.168  1.00  0.00    -0.744 OA
ENDBRANCH  80  83
ENDBRANCH  52  76
BRANCH  64  87
ATOM     87  C   UNL A   1      44.499  27.172  33.943  1.00  0.00     0.023 A 
ATOM     88  C   UNL A   1      45.787  27.732  33.847  1.00  0.00     0.012 A 
ATOM     89  C   UNL A   1      44.294  26.037  34.753  1.00  0.00     0.148 A 
ATOM     90  C   UNL A   1      46.861  27.158  34.525  1.00  0.00     0.002 A 
ATOM     91  C   UNL A   1      45.361  25.497  35.461  1.00  0.00     0.091 A 
ATOM     92  F   UNL A   1      43.064  25.506  34.814  1.00  0.00    -0.205 F 
ATOM     93  C   UNL A   1      46.645  26.049  35.341  1.00  0.00     0.022 A 
BRANCH  91  94
ATOM     94  S   UNL A   1      45.156  24.128  36.607  1.00  0.00     0.127 S 
ATOM     95  O   UNL A   1      46.516  23.957  37.114  1.00  0.00    -0.237 OA
ATOM     96  O   UNL A   1      44.206  24.673  37.579  1.00  0.00    -0.237 OA
ATOM     97  O   UNL A   1      44.637  23.020  35.815  1.00  0.00    -0.744 OA
ENDBRANCH  91  94
ENDBRANCH  64  87
ENDBRANCH  38  39
ENDBRANCH  30  33
ENDBRANCH  28  29
ENDBRANCH  27  28
ENDBRANCH   1  27
TORSDOF 20
ENDMDL
