MODEL 1
REMARK VINA RESULT:     -12.8      0.000      0.000
REMARK SMILES Cc1cc(C)cc(Oc2nc3ccccn3c(=O)c2/C=C2\SC(=S)N(CCC(=O)NCCCCNC(=O)c3ccc(-c4c5nc(c(-c6cccc(S(=O)(=O)[O-])c6F)c6ccc([nH]6)c(-c6cccc(S(=O)(=O)[O-])c6F)c6nc(c(-c7cccc(S(=O)(=O)[O-])c7F)c7ccc4[nH]7)C=C6)C=C5)cc3)C2=O)c1
REMARK SMILES IDX 31 1 30 2 28 3 29 4 27 6 26 7 25 8 20 9 21 10 22 11 101 12
REMARK SMILES IDX 23 13 102 14 24 15 19 16 9 17 10 18 11 19 17 20 12 21 16 22
REMARK SMILES IDX 18 23 13 24 15 25 14 26 8 27 7 28 1 29 2 30 3 31 103 32 4 33
REMARK SMILES IDX 5 34 6 35 32 36 33 37 34 38 35 39 36 40 37 42 38 43 39 44
REMARK SMILES IDX 100 45 40 46 99 47 41 48 42 49 43 50 93 51 44 52 98 53 92 54
REMARK SMILES IDX 94 55 45 56 97 57 91 58 90 59 46 61 78 62 58 63 77 64 59 65
REMARK SMILES IDX 62 66 76 67 95 68 60 69 61 70 75 72 96 73 63 74 47 75 48 76
REMARK SMILES IDX 56 77 49 78 51 79 57 80 50 81 52 82 53 83 54 84 55 85 79 86
REMARK SMILES IDX 80 87 88 88 81 89 83 90 89 91 82 92 84 93 85 94 86 95 87 96
REMARK SMILES IDX 64 97 65 98 73 99 66 100 68 101 74 102 67 103 69 104 70 105
REMARK SMILES IDX 71 106 72 107
REMARK H PARENT 30 5 35 41 94 60 62 71
REMARK Flexibility Score: inf
ROOT
ATOM      1  C   UNL A   1      42.721  20.090  26.821  1.00  0.00     0.116 C 
ENDROOT
BRANCH   1   2
ATOM      2  N   UNL A   1      42.135  21.261  27.462  1.00  0.00    -0.356 N 
ATOM      3  C   UNL A   1      40.887  21.791  27.350  1.00  0.00     0.221 C 
ATOM      4  O   UNL A   1      40.613  22.819  27.969  1.00  0.00    -0.275 OA
ATOM      5  H   UNL A   1      42.737  21.743  28.073  1.00  0.00     0.163 HD
BRANCH   3   6
ATOM      6  C   UNL A   1      39.840  21.105  26.496  1.00  0.00     0.122 C 
BRANCH   6   7
ATOM      7  C   UNL A   1      39.074  22.089  25.582  1.00  0.00     0.137 C 
BRANCH   7   8
ATOM      8  N   UNL A   1      37.599  22.089  25.705  1.00  0.00    -0.292 N 
ATOM      9  C   UNL A   1      34.786  24.231  25.406  1.00  0.00     0.041 C 
ATOM     10  C   UNL A   1      35.488  23.149  25.835  1.00  0.00     0.081 C 
ATOM     11  S   UNL A   1      35.100  21.460  25.759  1.00  0.00    -0.054 SA
ATOM     12  C   UNL A   1      36.952  23.244  26.178  1.00  0.00     0.266 C 
ATOM     13  C   UNL A   1      36.775  21.029  25.385  1.00  0.00     0.148 C 
ATOM     14  O   UNL A   1      37.463  24.199  26.679  1.00  0.00    -0.268 OA
ATOM     15  S   UNL A   1      37.189  19.576  24.670  1.00  0.00    -0.052 S 
BRANCH   9  16
ATOM     16  C   UNL A   1      33.405  24.252  24.885  1.00  0.00     0.104 A 
ATOM     17  C   UNL A   1      32.343  23.346  24.868  1.00  0.00     0.234 A 
ATOM     18  N   UNL A   1      31.184  23.793  24.190  1.00  0.00    -0.194 NA
ATOM     19  C   UNL A   1      30.919  25.065  24.033  1.00  0.00     0.143 A 
ATOM     20  C   UNL A   1      33.148  25.621  24.251  1.00  0.00     0.269 A 
ATOM     21  C   UNL A   1      29.552  25.609  23.663  1.00  0.00     0.048 A 
ATOM     22  N   UNL A   1      31.857  26.049  24.195  1.00  0.00    -0.267 N 
ATOM     23  O   UNL A   1      34.087  26.323  23.862  1.00  0.00    -0.268 OA
ATOM     24  C   UNL A   1      29.278  26.920  23.676  1.00  0.00     0.005 A 
ATOM     25  C   UNL A   1      31.568  27.411  24.101  1.00  0.00     0.096 A 
ATOM     26  C   UNL A   1      30.327  27.866  23.896  1.00  0.00     0.019 A 
BRANCH  17  27
ATOM     27  O   UNL A   1      32.333  21.833  25.401  1.00  0.00    -0.438 OA
BRANCH  27  28
ATOM     28  C   UNL A   1      32.291  20.417  24.802  1.00  0.00     0.130 A 
ATOM     29  C   UNL A   1      33.680  16.833  25.522  1.00  0.00     0.044 C 
ATOM     30  C   UNL A   1      32.988  17.923  24.731  1.00  0.00    -0.047 A 
ATOM     31  C   UNL A   1      32.931  17.913  23.372  1.00  0.00     0.007 A 
ATOM     32  C   UNL A   1      32.493  19.087  25.370  1.00  0.00     0.050 A 
ATOM     33  C   UNL A   1      32.398  19.041  22.716  1.00  0.00    -0.047 A 
ATOM     34  C   UNL A   1      32.153  18.832  21.249  1.00  0.00     0.044 C 
ATOM     35  C   UNL A   1      32.158  20.306  23.401  1.00  0.00     0.050 A 
ENDBRANCH  27  28
ENDBRANCH  17  27
ENDBRANCH   9  16
ENDBRANCH   7   8
ENDBRANCH   6   7
ENDBRANCH   3   6
ENDBRANCH   1   2
BRANCH   1  36
ATOM     36  C   UNL A   1      43.238  20.407  25.411  1.00  0.00     0.023 C 
BRANCH  36  37
ATOM     37  C   UNL A   1      44.680  20.029  25.122  1.00  0.00     0.023 C 
BRANCH  37  38
ATOM     38  C   UNL A   1      45.919  21.119  25.020  1.00  0.00     0.116 C 
BRANCH  38  39
ATOM     39  N   UNL A   1      46.000  22.785  24.594  1.00  0.00    -0.352 N 
ATOM     40  C   UNL A   1      45.713  24.256  24.869  1.00  0.00     0.251 C 
ATOM     41  H   UNL A   1      46.471  22.790  23.729  1.00  0.00     0.163 HD
ATOM     42  O   UNL A   1      46.498  24.998  24.250  1.00  0.00    -0.269 OA
BRANCH  40  43
ATOM     43  C   UNL A   1      44.532  25.077  25.683  1.00  0.00     0.039 A 
ATOM     44  C   UNL A   1      43.938  24.491  26.816  1.00  0.00     0.014 A 
ATOM     45  C   UNL A   1      43.926  26.306  25.437  1.00  0.00     0.014 A 
ATOM     46  C   UNL A   1      43.271  25.199  27.862  1.00  0.00     0.010 A 
ATOM     47  C   UNL A   1      43.320  27.080  26.485  1.00  0.00     0.010 A 
ATOM     48  C   UNL A   1      43.045  26.562  27.762  1.00  0.00    -0.014 A 
BRANCH  48  49
ATOM     49  C   UNL A   1      42.356  27.367  28.851  1.00  0.00     0.031 A 
ATOM     50  C   UNL A   1      42.969  27.391  30.236  1.00  0.00     0.074 A 
ATOM     51  C   UNL A   1      41.198  28.061  28.696  1.00  0.00     0.049 A 
ATOM     52  N   UNL A   1      42.494  27.871  31.361  1.00  0.00    -0.248 NA
ATOM     53  C   UNL A   1      44.286  26.754  30.372  1.00  0.00     0.031 C 
ATOM     54  C   UNL A   1      40.422  28.190  27.463  1.00  0.00     0.029 A 
ATOM     55  N   UNL A   1      40.451  28.788  29.615  1.00  0.00    -0.354 N 
ATOM     56  C   UNL A   1      43.410  27.511  32.343  1.00  0.00     0.074 A 
ATOM     57  C   UNL A   1      44.443  26.739  31.684  1.00  0.00     0.031 C 
ATOM     58  C   UNL A   1      39.327  28.942  27.697  1.00  0.00     0.029 A 
ATOM     59  C   UNL A   1      39.291  29.341  29.106  1.00  0.00     0.049 A 
ATOM     60  H   UNL A   1      40.726  28.900  30.554  1.00  0.00     0.167 HD
ATOM     61  C   UNL A   1      43.443  27.816  33.663  1.00  0.00     0.034 A 
ATOM     62  C   UNL A   1      38.313  30.079  29.690  1.00  0.00     0.034 A 
ATOM     63  C   UNL A   1      42.519  28.678  34.341  1.00  0.00     0.049 A 
ATOM     64  C   UNL A   1      38.379  30.436  31.165  1.00  0.00     0.074 A 
ATOM     65  C   UNL A   1      42.550  29.097  35.661  1.00  0.00     0.029 A 
ATOM     66  N   UNL A   1      41.416  29.275  33.759  1.00  0.00    -0.354 N 
ATOM     67  N   UNL A   1      39.317  30.175  32.041  1.00  0.00    -0.248 NA
ATOM     68  C   UNL A   1      37.259  31.221  31.724  1.00  0.00     0.031 C 
ATOM     69  C   UNL A   1      41.464  29.950  35.877  1.00  0.00     0.029 A 
ATOM     70  C   UNL A   1      40.765  30.068  34.689  1.00  0.00     0.049 A 
ATOM     71  H   UNL A   1      41.137  29.155  32.823  1.00  0.00     0.167 HD
ATOM     72  C   UNL A   1      38.932  30.809  33.223  1.00  0.00     0.074 A 
ATOM     73  C   UNL A   1      37.674  31.468  32.961  1.00  0.00     0.031 C 
ATOM     74  C   UNL A   1      39.570  30.825  34.419  1.00  0.00     0.034 A 
BRANCH  61  75
ATOM     75  C   UNL A   1      44.585  27.241  34.456  1.00  0.00     0.023 A 
ATOM     76  C   UNL A   1      45.845  27.872  34.418  1.00  0.00     0.012 A 
ATOM     77  C   UNL A   1      44.418  26.071  35.220  1.00  0.00     0.148 A 
ATOM     78  C   UNL A   1      46.939  27.308  35.068  1.00  0.00     0.002 A 
ATOM     79  C   UNL A   1      45.502  25.544  35.909  1.00  0.00     0.091 A 
ATOM     80  F   UNL A   1      43.217  25.473  35.230  1.00  0.00    -0.205 F 
ATOM     81  C   UNL A   1      46.767  26.149  35.819  1.00  0.00     0.022 A 
BRANCH  79  82
ATOM     82  S   UNL A   1      45.339  24.103  36.968  1.00  0.00     0.127 S 
ATOM     83  O   UNL A   1      44.942  23.073  36.010  1.00  0.00    -0.237 OA
ATOM     84  O   UNL A   1      46.693  23.947  37.500  1.00  0.00    -0.237 OA
ATOM     85  O   UNL A   1      44.343  24.465  37.966  1.00  0.00    -0.744 OA
ENDBRANCH  79  82
ENDBRANCH  61  75
BRANCH  62  86
ATOM     86  C   UNL A   1      37.179  30.639  28.882  1.00  0.00     0.023 A 
ATOM     87  C   UNL A   1      37.101  32.037  28.702  1.00  0.00     0.012 A 
ATOM     88  C   UNL A   1      36.151  29.829  28.360  1.00  0.00     0.148 A 
ATOM     89  C   UNL A   1      36.011  32.620  28.052  1.00  0.00     0.002 A 
ATOM     90  C   UNL A   1      35.087  30.413  27.676  1.00  0.00     0.091 A 
ATOM     91  F   UNL A   1      36.224  28.506  28.560  1.00  0.00    -0.205 F 
ATOM     92  C   UNL A   1      35.007  31.808  27.535  1.00  0.00     0.022 A 
BRANCH  90  93
ATOM     93  S   UNL A   1      33.773  29.458  26.904  1.00  0.00     0.127 S 
ATOM     94  O   UNL A   1      33.087  30.475  26.110  1.00  0.00    -0.237 OA
ATOM     95  O   UNL A   1      34.535  28.482  26.126  1.00  0.00    -0.237 OA
ATOM     96  O   UNL A   1      32.998  28.894  28.000  1.00  0.00    -0.744 OA
ENDBRANCH  90  93
ENDBRANCH  62  86
BRANCH  74  97
ATOM     97  C   UNL A   1      39.002  31.641  35.556  1.00  0.00     0.023 A 
ATOM     98  C   UNL A   1      38.152  31.037  36.501  1.00  0.00     0.012 A 
ATOM     99  C   UNL A   1      39.440  32.966  35.772  1.00  0.00     0.148 A 
ATOM    100  C   UNL A   1      37.743  31.736  37.639  1.00  0.00     0.002 A 
ATOM    101  C   UNL A   1      39.063  33.642  36.929  1.00  0.00     0.091 A 
ATOM    102  F   UNL A   1      40.236  33.533  34.854  1.00  0.00    -0.205 F 
ATOM    103  C   UNL A   1      38.210  33.031  37.861  1.00  0.00     0.022 A 
BRANCH 101 104
ATOM    104  S   UNL A   1      39.698  35.271  37.349  1.00  0.00     0.127 S 
ATOM    105  O   UNL A   1      39.279  36.063  36.192  1.00  0.00    -0.237 OA
ATOM    106  O   UNL A   1      38.979  35.576  38.587  1.00  0.00    -0.237 OA
ATOM    107  O   UNL A   1      41.137  35.115  37.509  1.00  0.00    -0.744 OA
ENDBRANCH 101 104
ENDBRANCH  74  97
ENDBRANCH  48  49
ENDBRANCH  40  43
ENDBRANCH  38  39
ENDBRANCH  37  38
ENDBRANCH  36  37
ENDBRANCH   1  36
TORSDOF 19
ENDMDL
MODEL 2
REMARK VINA RESULT:     -12.1      1.984      2.268
REMARK SMILES Cc1cc(C)cc(Oc2nc3ccccn3c(=O)c2/C=C2\SC(=S)N(CCC(=O)NCCCCNC(=O)c3ccc(-c4c5nc(c(-c6cccc(S(=O)(=O)[O-])c6F)c6ccc([nH]6)c(-c6cccc(S(=O)(=O)[O-])c6F)c6nc(c(-c7cccc(S(=O)(=O)[O-])c7F)c7ccc4[nH]7)C=C6)C=C5)cc3)C2=O)c1
REMARK SMILES IDX 31 1 30 2 28 3 29 4 27 6 26 7 25 8 20 9 21 10 22 11 101 12
REMARK SMILES IDX 23 13 102 14 24 15 19 16 9 17 10 18 11 19 17 20 12 21 16 22
REMARK SMILES IDX 18 23 13 24 15 25 14 26 8 27 7 28 1 29 2 30 3 31 103 32 4 33
REMARK SMILES IDX 5 34 6 35 32 36 33 37 34 38 35 39 36 40 37 42 38 43 39 44
REMARK SMILES IDX 100 45 40 46 99 47 41 48 42 49 43 50 93 51 44 52 98 53 92 54
REMARK SMILES IDX 94 55 45 56 97 57 91 58 90 59 46 61 78 62 58 63 77 64 59 65
REMARK SMILES IDX 62 66 76 67 95 68 60 69 61 70 75 72 96 73 63 74 47 75 48 76
REMARK SMILES IDX 56 77 49 78 51 79 57 80 50 81 52 82 53 83 54 84 55 85 79 86
REMARK SMILES IDX 80 87 88 88 81 89 83 90 89 91 82 92 84 93 85 94 86 95 87 96
REMARK SMILES IDX 64 97 65 98 73 99 66 100 68 101 74 102 67 103 69 104 70 105
REMARK SMILES IDX 71 106 72 107
REMARK H PARENT 30 5 35 41 94 60 62 71
REMARK Flexibility Score: inf
ROOT
ATOM      1  C   UNL A   1      42.913  21.270  26.787  1.00  0.00     0.116 C 
ENDROOT
BRANCH   1   2
ATOM      2  N   UNL A   1      42.246  22.480  27.253  1.00  0.00    -0.356 N 
ATOM      3  C   UNL A   1      40.921  22.785  27.314  1.00  0.00     0.221 C 
ATOM      4  O   UNL A   1      40.579  23.895  27.721  1.00  0.00    -0.275 OA
ATOM      5  H   UNL A   1      42.850  23.187  27.576  1.00  0.00     0.163 HD
BRANCH   3   6
ATOM      6  C   UNL A   1      39.883  21.757  26.914  1.00  0.00     0.122 C 
BRANCH   6   7
ATOM      7  C   UNL A   1      39.086  22.170  25.656  1.00  0.00     0.137 C 
BRANCH   7   8
ATOM      8  N   UNL A   1      37.612  22.189  25.786  1.00  0.00    -0.292 N 
ATOM      9  C   UNL A   1      34.812  24.328  25.368  1.00  0.00     0.041 C 
ATOM     10  C   UNL A   1      35.509  23.270  25.861  1.00  0.00     0.081 C 
ATOM     11  S   UNL A   1      35.109  21.582  25.893  1.00  0.00    -0.054 SA
ATOM     12  C   UNL A   1      36.976  23.375  26.189  1.00  0.00     0.266 C 
ATOM     13  C   UNL A   1      36.778  21.117  25.537  1.00  0.00     0.148 C 
ATOM     14  O   UNL A   1      37.496  24.357  26.626  1.00  0.00    -0.268 OA
ATOM     15  S   UNL A   1      37.179  19.619  24.913  1.00  0.00    -0.052 S 
BRANCH   9  16
ATOM     16  C   UNL A   1      33.428  24.326  24.855  1.00  0.00     0.104 A 
ATOM     17  C   UNL A   1      32.385  23.399  24.832  1.00  0.00     0.234 A 
ATOM     18  N   UNL A   1      31.214  23.829  24.166  1.00  0.00    -0.194 NA
ATOM     19  C   UNL A   1      30.921  25.097  24.025  1.00  0.00     0.143 A 
ATOM     20  C   UNL A   1      33.139  25.697  24.240  1.00  0.00     0.269 A 
ATOM     21  C   UNL A   1      29.541  25.617  23.669  1.00  0.00     0.048 A 
ATOM     22  N   UNL A   1      31.839  26.099  24.195  1.00  0.00    -0.267 N 
ATOM     23  O   UNL A   1      34.061  26.424  23.854  1.00  0.00    -0.268 OA
ATOM     24  C   UNL A   1      29.240  26.922  23.700  1.00  0.00     0.005 A 
ATOM     25  C   UNL A   1      31.521  27.455  24.119  1.00  0.00     0.096 A 
ATOM     26  C   UNL A   1      30.270  27.887  23.926  1.00  0.00     0.019 A 
BRANCH  17  27
ATOM     27  O   UNL A   1      32.410  21.879  25.347  1.00  0.00    -0.438 OA
BRANCH  27  28
ATOM     28  C   UNL A   1      32.327  20.471  24.735  1.00  0.00     0.130 A 
ATOM     29  C   UNL A   1      33.653  16.851  25.395  1.00  0.00     0.044 C 
ATOM     30  C   UNL A   1      32.970  17.963  24.627  1.00  0.00    -0.047 A 
ATOM     31  C   UNL A   1      32.889  17.968  23.269  1.00  0.00     0.007 A 
ATOM     32  C   UNL A   1      32.511  19.132  25.286  1.00  0.00     0.050 A 
ATOM     33  C   UNL A   1      32.368  19.114  22.634  1.00  0.00    -0.047 A 
ATOM     34  C   UNL A   1      32.093  18.925  21.169  1.00  0.00     0.044 C 
ATOM     35  C   UNL A   1      32.168  20.377  23.335  1.00  0.00     0.050 A 
ENDBRANCH  27  28
ENDBRANCH  17  27
ENDBRANCH   9  16
ENDBRANCH   7   8
ENDBRANCH   6   7
ENDBRANCH   3   6
ENDBRANCH   1   2
BRANCH   1  36
ATOM     36  C   UNL A   1      43.441  21.424  25.353  1.00  0.00     0.023 C 
BRANCH  36  37
ATOM     37  C   UNL A   1      44.807  20.822  25.071  1.00  0.00     0.023 C 
BRANCH  37  38
ATOM     38  C   UNL A   1      46.155  21.714  24.722  1.00  0.00     0.116 C 
BRANCH  38  39
ATOM     39  N   UNL A   1      46.416  23.378  24.365  1.00  0.00    -0.352 N 
ATOM     40  C   UNL A   1      46.249  24.859  24.679  1.00  0.00     0.251 C 
ATOM     41  H   UNL A   1      46.941  23.366  23.532  1.00  0.00     0.163 HD
ATOM     42  O   UNL A   1      47.137  25.543  24.138  1.00  0.00    -0.269 OA
BRANCH  40  43
ATOM     43  C   UNL A   1      45.098  25.761  25.449  1.00  0.00     0.039 A 
ATOM     44  C   UNL A   1      44.287  25.157  26.427  1.00  0.00     0.014 A 
ATOM     45  C   UNL A   1      44.707  27.088  25.291  1.00  0.00     0.014 A 
ATOM     46  C   UNL A   1      43.595  25.844  27.471  1.00  0.00     0.010 A 
ATOM     47  C   UNL A   1      44.084  27.831  26.352  1.00  0.00     0.010 A 
ATOM     48  C   UNL A   1      43.577  27.228  27.516  1.00  0.00    -0.014 A 
BRANCH  48  49
ATOM     49  C   UNL A   1      42.872  28.010  28.612  1.00  0.00     0.031 A 
ATOM     50  C   UNL A   1      43.553  28.153  29.958  1.00  0.00     0.074 A 
ATOM     51  C   UNL A   1      41.645  28.582  28.498  1.00  0.00     0.049 A 
ATOM     52  N   UNL A   1      43.095  28.633  31.089  1.00  0.00    -0.248 NA
ATOM     53  C   UNL A   1      44.931  27.651  30.041  1.00  0.00     0.031 C 
ATOM     54  C   UNL A   1      40.794  28.582  27.308  1.00  0.00     0.029 A 
ATOM     55  N   UNL A   1      40.881  29.273  29.430  1.00  0.00    -0.354 N 
ATOM     56  C   UNL A   1      44.093  28.404  32.030  1.00  0.00     0.074 A 
ATOM     57  C   UNL A   1      45.160  27.708  31.342  1.00  0.00     0.031 C 
ATOM     58  C   UNL A   1      39.645  29.236  27.577  1.00  0.00     0.029 A 
ATOM     59  C   UNL A   1      39.646  29.690  28.969  1.00  0.00     0.049 A 
ATOM     60  H   UNL A   1      41.193  29.452  30.347  1.00  0.00     0.167 HD
ATOM     61  C   UNL A   1      44.167  28.768  33.333  1.00  0.00     0.034 A 
ATOM     62  C   UNL A   1      38.633  30.356  29.581  1.00  0.00     0.034 A 
ATOM     63  C   UNL A   1      43.201  29.565  34.030  1.00  0.00     0.049 A 
ATOM     64  C   UNL A   1      38.743  30.780  31.035  1.00  0.00     0.074 A 
ATOM     65  C   UNL A   1      43.262  30.043  35.330  1.00  0.00     0.029 A 
ATOM     66  N   UNL A   1      42.015  30.029  33.490  1.00  0.00    -0.354 N 
ATOM     67  N   UNL A   1      39.748  30.648  31.864  1.00  0.00    -0.248 NA
ATOM     68  C   UNL A   1      37.583  31.477  31.627  1.00  0.00     0.031 C 
ATOM     69  C   UNL A   1      42.110  30.796  35.576  1.00  0.00     0.029 A 
ATOM     70  C   UNL A   1      41.339  30.794  34.426  1.00  0.00     0.049 A 
ATOM     71  H   UNL A   1      41.698  29.842  32.577  1.00  0.00     0.167 HD
ATOM     72  C   UNL A   1      39.367  31.293  33.042  1.00  0.00     0.074 A 
ATOM     73  C   UNL A   1      38.038  31.816  32.828  1.00  0.00     0.031 C 
ATOM     74  C   UNL A   1      40.063  31.422  34.197  1.00  0.00     0.034 A 
BRANCH  61  75
ATOM     75  C   UNL A   1      45.400  28.339  34.080  1.00  0.00     0.023 A 
ATOM     76  C   UNL A   1      45.413  27.095  34.744  1.00  0.00     0.012 A 
ATOM     77  C   UNL A   1      46.534  29.170  34.141  1.00  0.00     0.148 A 
ATOM     78  C   UNL A   1      46.507  26.717  35.517  1.00  0.00     0.002 A 
ATOM     79  C   UNL A   1      47.643  28.762  34.872  1.00  0.00     0.091 A 
ATOM     80  F   UNL A   1      46.498  30.358  33.520  1.00  0.00    -0.205 F 
ATOM     81  C   UNL A   1      47.624  27.545  35.576  1.00  0.00     0.022 A 
BRANCH  79  82
ATOM     82  S   UNL A   1      49.151  29.733  34.924  1.00  0.00     0.127 S 
ATOM     83  O   UNL A   1      48.823  30.739  35.932  1.00  0.00    -0.237 OA
ATOM     84  O   UNL A   1      50.147  28.748  35.350  1.00  0.00    -0.237 OA
ATOM     85  O   UNL A   1      49.342  30.227  33.567  1.00  0.00    -0.744 OA
ENDBRANCH  79  82
ENDBRANCH  61  75
BRANCH  62  86
ATOM     86  C   UNL A   1      37.408  30.768  28.819  1.00  0.00     0.023 A 
ATOM     87  C   UNL A   1      37.146  32.146  28.652  1.00  0.00     0.012 A 
ATOM     88  C   UNL A   1      36.472  29.835  28.329  1.00  0.00     0.148 A 
ATOM     89  C   UNL A   1      35.967  32.587  28.047  1.00  0.00     0.002 A 
ATOM     90  C   UNL A   1      35.317  30.282  27.688  1.00  0.00     0.091 A 
ATOM     91  F   UNL A   1      36.720  28.533  28.516  1.00  0.00    -0.205 F 
ATOM     92  C   UNL A   1      35.056  31.656  27.561  1.00  0.00     0.022 A 
BRANCH  90  93
ATOM     93  S   UNL A   1      34.108  29.169  26.959  1.00  0.00     0.127 S 
ATOM     94  O   UNL A   1      33.325  28.769  28.126  1.00  0.00    -0.237 OA
ATOM     95  O   UNL A   1      33.412  30.057  26.027  1.00  0.00    -0.237 OA
ATOM     96  O   UNL A   1      34.878  28.106  26.329  1.00  0.00    -0.744 OA
ENDBRANCH  90  93
ENDBRANCH  62  86
BRANCH  74  97
ATOM     97  C   UNL A   1      39.480  32.228  35.333  1.00  0.00     0.023 A 
ATOM     98  C   UNL A   1      39.474  33.634  35.270  1.00  0.00     0.012 A 
ATOM     99  C   UNL A   1      38.796  31.584  36.387  1.00  0.00     0.148 A 
ATOM    100  C   UNL A   1      38.804  34.387  36.236  1.00  0.00     0.002 A 
ATOM    101  C   UNL A   1      38.094  32.339  37.323  1.00  0.00     0.091 A 
ATOM    102  F   UNL A   1      38.824  30.245  36.443  1.00  0.00    -0.205 F 
ATOM    103  C   UNL A   1      38.102  33.741  37.253  1.00  0.00     0.022 A 
BRANCH 101 104
ATOM    104  S   UNL A   1      37.078  31.591  38.605  1.00  0.00     0.127 S 
ATOM    105  O   UNL A   1      37.923  31.749  39.788  1.00  0.00    -0.237 OA
ATOM    106  O   UNL A   1      35.885  32.440  38.591  1.00  0.00    -0.237 OA
ATOM    107  O   UNL A   1      36.846  30.216  38.185  1.00  0.00    -0.744 OA
ENDBRANCH 101 104
ENDBRANCH  74  97
ENDBRANCH  48  49
ENDBRANCH  40  43
ENDBRANCH  38  39
ENDBRANCH  37  38
ENDBRANCH  36  37
ENDBRANCH   1  36
TORSDOF 19
ENDMDL
MODEL 3
REMARK VINA RESULT:     -11.7      6.074     13.762
REMARK SMILES Cc1cc(C)cc(Oc2nc3ccccn3c(=O)c2/C=C2\SC(=S)N(CCC(=O)NCCCCNC(=O)c3ccc(-c4c5nc(c(-c6cccc(S(=O)(=O)[O-])c6F)c6ccc([nH]6)c(-c6cccc(S(=O)(=O)[O-])c6F)c6nc(c(-c7cccc(S(=O)(=O)[O-])c7F)c7ccc4[nH]7)C=C6)C=C5)cc3)C2=O)c1
REMARK SMILES IDX 31 1 30 2 28 3 29 4 27 6 26 7 25 8 20 9 21 10 22 11 101 12
REMARK SMILES IDX 23 13 102 14 24 15 19 16 9 17 10 18 11 19 17 20 12 21 16 22
REMARK SMILES IDX 18 23 13 24 15 25 14 26 8 27 7 28 1 29 2 30 3 31 103 32 4 33
REMARK SMILES IDX 5 34 6 35 32 36 33 37 34 38 35 39 36 40 37 42 38 43 39 44
REMARK SMILES IDX 100 45 40 46 99 47 41 48 42 49 43 50 93 51 44 52 98 53 92 54
REMARK SMILES IDX 94 55 45 56 97 57 91 58 90 59 46 61 78 62 58 63 77 64 59 65
REMARK SMILES IDX 62 66 76 67 95 68 60 69 61 70 75 72 96 73 63 74 47 75 48 76
REMARK SMILES IDX 56 77 49 78 51 79 57 80 50 81 52 82 53 83 54 84 55 85 79 86
REMARK SMILES IDX 80 87 88 88 81 89 83 90 89 91 82 92 84 93 85 94 86 95 87 96
REMARK SMILES IDX 64 97 65 98 73 99 66 100 68 101 74 102 67 103 69 104 70 105
REMARK SMILES IDX 71 106 72 107
REMARK H PARENT 30 5 35 41 94 60 62 71
REMARK Flexibility Score: inf
ROOT
ATOM      1  C   UNL A   1      37.810  33.500  35.838  1.00  0.00     0.116 C 
ENDROOT
BRANCH   1   2
ATOM      2  N   UNL A   1      38.516  34.696  36.283  1.00  0.00    -0.356 N 
ATOM      3  C   UNL A   1      39.458  35.447  35.649  1.00  0.00     0.221 C 
ATOM      4  O   UNL A   1      39.949  36.412  36.234  1.00  0.00    -0.275 OA
ATOM      5  H   UNL A   1      38.273  35.009  37.184  1.00  0.00     0.163 HD
BRANCH   3   6
ATOM      6  C   UNL A   1      39.870  35.115  34.230  1.00  0.00     0.122 C 
BRANCH   6   7
ATOM      7  C   UNL A   1      41.341  34.650  34.127  1.00  0.00     0.137 C 
BRANCH   7   8
ATOM      8  N   UNL A   1      41.618  33.250  34.515  1.00  0.00    -0.292 N 
ATOM      9  C   UNL A   1      41.573  29.946  33.222  1.00  0.00     0.041 C 
ATOM     10  C   UNL A   1      41.547  30.908  34.182  1.00  0.00     0.081 C 
ATOM     11  S   UNL A   1      42.516  31.095  35.608  1.00  0.00    -0.054 SA
ATOM     12  C   UNL A   1      40.837  32.219  33.965  1.00  0.00     0.266 C 
ATOM     13  C   UNL A   1      42.605  32.849  35.394  1.00  0.00     0.148 C 
ATOM     14  O   UNL A   1      39.828  32.339  33.336  1.00  0.00    -0.268 OA
ATOM     15  S   UNL A   1      43.790  33.782  36.112  1.00  0.00    -0.052 S 
BRANCH   9  16
ATOM     16  C   UNL A   1      42.357  28.694  33.232  1.00  0.00     0.104 A 
ATOM     17  C   UNL A   1      43.641  28.331  32.821  1.00  0.00     0.234 A 
ATOM     18  N   UNL A   1      43.957  26.961  32.984  1.00  0.00    -0.194 NA
ATOM     19  C   UNL A   1      43.349  26.208  33.866  1.00  0.00     0.143 A 
ATOM     20  C   UNL A   1      41.506  27.597  33.874  1.00  0.00     0.269 A 
ATOM     21  C   UNL A   1      43.876  24.870  34.349  1.00  0.00     0.048 A 
ATOM     22  N   UNL A   1      42.166  26.559  34.458  1.00  0.00    -0.267 N 
ATOM     23  O   UNL A   1      40.274  27.689  33.905  1.00  0.00    -0.268 OA
ATOM     24  C   UNL A   1      43.318  24.210  35.371  1.00  0.00     0.005 A 
ATOM     25  C   UNL A   1      41.547  25.798  35.451  1.00  0.00     0.096 A 
ATOM     26  C   UNL A   1      42.098  24.685  35.946  1.00  0.00     0.019 A 
BRANCH  17  27
ATOM     27  O   UNL A   1      44.729  29.242  32.074  1.00  0.00    -0.438 OA
BRANCH  27  28
ATOM     28  C   UNL A   1      46.170  29.721  32.318  1.00  0.00     0.130 A 
ATOM     29  C   UNL A   1      49.530  28.414  33.833  1.00  0.00     0.044 C 
ATOM     30  C   UNL A   1      48.569  29.429  33.251  1.00  0.00    -0.047 A 
ATOM     31  C   UNL A   1      48.657  30.757  33.529  1.00  0.00     0.007 A 
ATOM     32  C   UNL A   1      47.436  29.019  32.504  1.00  0.00     0.050 A 
ATOM     33  C   UNL A   1      47.633  31.608  33.064  1.00  0.00    -0.047 A 
ATOM     34  C   UNL A   1      47.946  33.070  33.206  1.00  0.00     0.044 C 
ATOM     35  C   UNL A   1      46.369  31.101  32.543  1.00  0.00     0.050 A 
ENDBRANCH  27  28
ENDBRANCH  17  27
ENDBRANCH   9  16
ENDBRANCH   7   8
ENDBRANCH   6   7
ENDBRANCH   3   6
ENDBRANCH   1   2
BRANCH   1  36
ATOM     36  C   UNL A   1      36.973  33.765  34.579  1.00  0.00     0.023 C 
BRANCH  36  37
ATOM     37  C   UNL A   1      35.499  34.058  34.799  1.00  0.00     0.023 C 
BRANCH  37  38
ATOM     38  C   UNL A   1      34.346  33.928  33.621  1.00  0.00     0.116 C 
BRANCH  38  39
ATOM     39  N   UNL A   1      34.382  33.419  31.977  1.00  0.00    -0.352 N 
ATOM     40  C   UNL A   1      34.857  32.483  30.872  1.00  0.00     0.251 C 
ATOM     41  H   UNL A   1      33.799  34.063  31.513  1.00  0.00     0.163 HD
ATOM     42  O   UNL A   1      34.076  32.489  29.903  1.00  0.00    -0.269 OA
BRANCH  40  43
ATOM     43  C   UNL A   1      36.218  31.582  30.619  1.00  0.00     0.039 A 
ATOM     44  C   UNL A   1      36.830  31.595  29.352  1.00  0.00     0.014 A 
ATOM     45  C   UNL A   1      36.917  30.711  31.452  1.00  0.00     0.014 A 
ATOM     46  C   UNL A   1      38.196  31.269  29.087  1.00  0.00     0.010 A 
ATOM     47  C   UNL A   1      38.313  30.429  31.260  1.00  0.00     0.010 A 
ATOM     48  C   UNL A   1      39.012  30.774  30.091  1.00  0.00    -0.014 A 
BRANCH  48  49
ATOM     49  C   UNL A   1      40.475  30.427  29.869  1.00  0.00     0.031 A 
ATOM     50  C   UNL A   1      41.500  31.543  29.897  1.00  0.00     0.074 A 
ATOM     51  C   UNL A   1      40.953  29.181  29.615  1.00  0.00     0.049 A 
ATOM     52  N   UNL A   1      42.774  31.526  29.586  1.00  0.00    -0.248 NA
ATOM     53  C   UNL A   1      41.005  32.865  30.302  1.00  0.00     0.031 C 
ATOM     54  C   UNL A   1      40.167  27.949  29.538  1.00  0.00     0.029 A 
ATOM     55  N   UNL A   1      42.246  28.746  29.350  1.00  0.00    -0.354 N 
ATOM     56  C   UNL A   1      43.202  32.847  29.668  1.00  0.00     0.074 A 
ATOM     57  C   UNL A   1      42.041  33.637  30.020  1.00  0.00     0.031 C 
ATOM     58  C   UNL A   1      40.983  26.913  29.255  1.00  0.00     0.029 A 
ATOM     59  C   UNL A   1      42.359  27.392  29.099  1.00  0.00     0.049 A 
ATOM     60  H   UNL A   1      43.020  29.354  29.341  1.00  0.00     0.167 HD
ATOM     61  C   UNL A   1      44.440  33.377  29.521  1.00  0.00     0.034 A 
ATOM     62  C   UNL A   1      43.430  26.620  28.783  1.00  0.00     0.034 A 
ATOM     63  C   UNL A   1      45.643  32.630  29.299  1.00  0.00     0.049 A 
ATOM     64  C   UNL A   1      44.816  27.225  28.648  1.00  0.00     0.074 A 
ATOM     65  C   UNL A   1      46.944  33.102  29.228  1.00  0.00     0.029 A 
ATOM     66  N   UNL A   1      45.708  31.258  29.138  1.00  0.00    -0.354 N 
ATOM     67  N   UNL A   1      45.205  28.460  28.845  1.00  0.00    -0.248 NA
ATOM     68  C   UNL A   1      45.920  26.315  28.276  1.00  0.00     0.031 C 
ATOM     69  C   UNL A   1      47.797  32.014  29.024  1.00  0.00     0.029 A 
ATOM     70  C   UNL A   1      47.026  30.865  28.978  1.00  0.00     0.049 A 
ATOM     71  H   UNL A   1      44.933  30.651  29.138  1.00  0.00     0.167 HD
ATOM     72  C   UNL A   1      46.592  28.461  28.682  1.00  0.00     0.074 A 
ATOM     73  C   UNL A   1      46.983  27.106  28.368  1.00  0.00     0.031 C 
ATOM     74  C   UNL A   1      47.452  29.503  28.776  1.00  0.00     0.034 A 
BRANCH  61  75
ATOM     75  C   UNL A   1      44.552  34.870  29.662  1.00  0.00     0.023 A 
ATOM     76  C   UNL A   1      44.907  35.426  30.908  1.00  0.00     0.012 A 
ATOM     77  C   UNL A   1      44.288  35.721  28.573  1.00  0.00     0.148 A 
ATOM     78  C   UNL A   1      44.927  36.806  31.088  1.00  0.00     0.002 A 
ATOM     79  C   UNL A   1      44.362  37.097  28.746  1.00  0.00     0.091 A 
ATOM     80  F   UNL A   1      43.933  35.177  27.400  1.00  0.00    -0.205 F 
ATOM     81  C   UNL A   1      44.662  37.642  30.007  1.00  0.00     0.022 A 
BRANCH  79  82
ATOM     82  S   UNL A   1      44.120  38.237  27.381  1.00  0.00     0.127 S 
ATOM     83  O   UNL A   1      43.944  39.507  28.082  1.00  0.00    -0.237 OA
ATOM     84  O   UNL A   1      45.379  38.120  26.644  1.00  0.00    -0.237 OA
ATOM     85  O   UNL A   1      42.957  37.738  26.661  1.00  0.00    -0.744 OA
ENDBRANCH  79  82
ENDBRANCH  61  75
BRANCH  62  86
ATOM     86  C   UNL A   1      43.296  25.131  28.641  1.00  0.00     0.023 A 
ATOM     87  C   UNL A   1      43.525  24.319  29.773  1.00  0.00     0.012 A 
ATOM     88  C   UNL A   1      43.023  24.512  27.405  1.00  0.00     0.148 A 
ATOM     89  C   UNL A   1      43.520  22.926  29.672  1.00  0.00     0.002 A 
ATOM     90  C   UNL A   1      42.978  23.121  27.320  1.00  0.00     0.091 A 
ATOM     91  F   UNL A   1      42.833  25.294  26.334  1.00  0.00    -0.205 F 
ATOM     92  C   UNL A   1      43.241  22.328  28.449  1.00  0.00     0.022 A 
BRANCH  90  93
ATOM     93  S   UNL A   1      42.558  22.244  25.809  1.00  0.00     0.127 S 
ATOM     94  O   UNL A   1      43.310  21.000  25.964  1.00  0.00    -0.237 OA
ATOM     95  O   UNL A   1      41.107  22.105  25.940  1.00  0.00    -0.237 OA
ATOM     96  O   UNL A   1      42.992  23.104  24.718  1.00  0.00    -0.744 OA
ENDBRANCH  90  93
ENDBRANCH  62  86
BRANCH  74  97
ATOM     97  C   UNL A   1      48.935  29.261  28.629  1.00  0.00     0.023 A 
ATOM     98  C   UNL A   1      49.708  28.917  29.754  1.00  0.00     0.012 A 
ATOM     99  C   UNL A   1      49.528  29.221  27.349  1.00  0.00     0.148 A 
ATOM    100  C   UNL A   1      51.046  28.541  29.610  1.00  0.00     0.002 A 
ATOM    101  C   UNL A   1      50.849  28.804  27.208  1.00  0.00     0.091 A 
ATOM    102  F   UNL A   1      48.784  29.567  26.289  1.00  0.00    -0.205 F 
ATOM    103  C   UNL A   1      51.612  28.470  28.338  1.00  0.00     0.022 A 
BRANCH 101 104
ATOM    104  S   UNL A   1      51.629  28.584  25.602  1.00  0.00     0.127 S 
ATOM    105  O   UNL A   1      52.445  27.391  25.826  1.00  0.00    -0.237 OA
ATOM    106  O   UNL A   1      50.478  28.378  24.723  1.00  0.00    -0.237 OA
ATOM    107  O   UNL A   1      52.375  29.809  25.344  1.00  0.00    -0.744 OA
ENDBRANCH 101 104
ENDBRANCH  74  97
ENDBRANCH  48  49
ENDBRANCH  40  43
ENDBRANCH  38  39
ENDBRANCH  37  38
ENDBRANCH  36  37
ENDBRANCH   1  36
TORSDOF 19
ENDMDL
