MODEL 1
REMARK VINA RESULT:     -13.6      0.000      0.000
REMARK SMILES CC1=C(C)C[C@@H](C(=O)NCCCCNC(=O)c2ccc(-c3c4nc(c(-c5cccc(S(=O)(=O)[O-])c5F)c5ccc([nH]5)c(-c5cccc(S(=O)(=O)[O-])c5F)c5nc(c(-c6cccc(S(=O)(=O)[O-])c6F)c6ccc3[nH]6)C=C5)C=C4)cc2)[C@@H](C(=O)N2CCN(c3cccc(C(F)(F)F)c3)CC2)C1
REMARK SMILES IDX 11 1 10 2 9 3 7 4 8 5 6 7 1 8 2 9 3 10 99 11 4 12 5 13 80 14
REMARK SMILES IDX 81 15 82 16 83 17 84 18 98 19 85 20 97 21 86 22 87 23 88 24
REMARK SMILES IDX 96 25 89 26 91 27 90 28 92 29 93 30 94 31 95 32 12 33 13 34
REMARK SMILES IDX 14 35 15 36 16 38 17 39 18 40 79 41 19 42 78 43 20 44 21 45
REMARK SMILES IDX 22 46 72 47 23 48 77 49 71 50 73 51 24 52 76 53 70 54 69 55
REMARK SMILES IDX 25 57 57 58 37 59 56 60 38 61 41 62 55 63 74 64 39 65 40 66
REMARK SMILES IDX 54 68 75 69 42 70 26 71 27 72 35 73 28 74 30 75 36 76 29 77
REMARK SMILES IDX 31 78 32 79 33 80 34 81 58 82 59 83 67 84 60 85 62 86 68 87
REMARK SMILES IDX 61 88 63 89 64 90 65 91 66 92 43 93 44 94 52 95 45 96 47 97
REMARK SMILES IDX 53 98 46 99 48 100 49 101 50 102 51 103
REMARK H PARENT 9 6 14 37 73 56 41 67
REMARK Flexibility Score: inf
ROOT
ATOM      1  C   UNL A   1      31.712  30.561  26.659  1.00  0.00     0.023 C 
ENDROOT
BRANCH   1   2
ATOM      2  C   UNL A   1      31.551  30.050  25.241  1.00  0.00     0.116 C 
BRANCH   2   3
ATOM      3  N   UNL A   1      32.787  29.523  24.710  1.00  0.00    -0.356 N 
ATOM      4  C   UNL A   1      33.042  28.657  23.697  1.00  0.00     0.224 C 
ATOM      5  O   UNL A   1      34.222  28.558  23.341  1.00  0.00    -0.275 OA
ATOM      6  H   UNL A   1      33.594  29.854  25.168  1.00  0.00     0.163 HD
BRANCH   4   7
ATOM      7  C   UNL A   1      31.951  27.891  22.927  1.00  0.00     0.095 C 
ATOM      8  C   UNL A   1      27.561  28.419  23.472  1.00  0.00     0.039 C 
ATOM      9  C   UNL A   1      29.019  28.258  23.114  1.00  0.00    -0.074 C 
ATOM     10  C   UNL A   1      29.726  29.128  22.375  1.00  0.00    -0.074 C 
ATOM     11  C   UNL A   1      29.627  27.021  23.699  1.00  0.00     0.045 C 
ATOM     12  C   UNL A   1      29.194  30.452  21.889  1.00  0.00     0.039 C 
ATOM     13  C   UNL A   1      31.168  28.859  22.021  1.00  0.00     0.045 C 
ATOM     14  C   UNL A   1      31.138  26.761  23.641  1.00  0.00     0.095 C 
BRANCH  14  15
ATOM     15  C   UNL A   1      31.771  26.289  24.978  1.00  0.00     0.226 C 
ATOM     16  O   UNL A   1      31.402  26.804  26.037  1.00  0.00    -0.275 OA
ATOM     17  N   UNL A   1      32.741  25.299  25.026  1.00  0.00    -0.339 N 
ATOM     18  C   UNL A   1      32.879  24.536  26.278  1.00  0.00     0.141 C 
ATOM     19  C   UNL A   1      33.811  24.997  24.055  1.00  0.00     0.141 C 
ATOM     20  C   UNL A   1      32.948  23.028  25.990  1.00  0.00     0.138 C 
ATOM     21  C   UNL A   1      33.906  23.476  23.744  1.00  0.00     0.138 C 
ATOM     22  N   UNL A   1      33.998  22.728  25.002  1.00  0.00    -0.368 N 
BRANCH  22  23
ATOM     23  C   UNL A   1      34.348  21.384  24.988  1.00  0.00     0.037 A 
ATOM     24  C   UNL A   1      35.642  20.917  25.243  1.00  0.00     0.026 A 
ATOM     25  C   UNL A   1      33.391  20.479  24.522  1.00  0.00     0.039 A 
ATOM     26  C   UNL A   1      35.977  19.581  25.001  1.00  0.00     0.003 A 
ATOM     27  C   UNL A   1      33.709  19.140  24.264  1.00  0.00     0.058 A 
ATOM     28  C   UNL A   1      35.018  18.697  24.505  1.00  0.00     0.013 A 
BRANCH  27  29
ATOM     29  C   UNL A   1      32.669  18.211  23.696  1.00  0.00     0.416 C 
ATOM     30  F   UNL A   1      33.206  17.090  23.145  1.00  0.00    -0.166 F 
ATOM     31  F   UNL A   1      31.792  17.778  24.646  1.00  0.00    -0.166 F 
ATOM     32  F   UNL A   1      31.901  18.779  22.723  1.00  0.00    -0.166 F 
ENDBRANCH  27  29
ENDBRANCH  22  23
ENDBRANCH  14  15
ENDBRANCH   4   7
ENDBRANCH   2   3
ENDBRANCH   1   2
BRANCH   1  33
ATOM     33  C   UNL A   1      31.411  32.051  26.767  1.00  0.00     0.023 C 
BRANCH  33  34
ATOM     34  C   UNL A   1      32.656  32.903  26.922  1.00  0.00     0.116 C 
BRANCH  34  35
ATOM     35  N   UNL A   1      32.436  34.152  27.653  1.00  0.00    -0.352 N 
ATOM     36  C   UNL A   1      33.136  34.712  28.700  1.00  0.00     0.251 C 
ATOM     37  H   UNL A   1      31.661  34.676  27.347  1.00  0.00     0.163 HD
ATOM     38  O   UNL A   1      32.735  35.748  29.211  1.00  0.00    -0.269 OA
BRANCH  36  39
ATOM     39  C   UNL A   1      34.338  34.030  29.227  1.00  0.00     0.039 A 
ATOM     40  C   UNL A   1      35.603  34.542  28.925  1.00  0.00     0.014 A 
ATOM     41  C   UNL A   1      34.217  32.925  30.067  1.00  0.00     0.014 A 
ATOM     42  C   UNL A   1      36.732  34.002  29.547  1.00  0.00     0.010 A 
ATOM     43  C   UNL A   1      35.312  32.497  30.796  1.00  0.00     0.010 A 
ATOM     44  C   UNL A   1      36.588  33.011  30.530  1.00  0.00    -0.014 A 
BRANCH  44  45
ATOM     45  C   UNL A   1      37.741  32.445  31.277  1.00  0.00     0.031 A 
ATOM     46  C   UNL A   1      38.497  31.283  30.680  1.00  0.00     0.074 A 
ATOM     47  C   UNL A   1      38.027  32.880  32.521  1.00  0.00     0.049 A 
ATOM     48  N   UNL A   1      39.389  30.504  31.232  1.00  0.00    -0.248 NA
ATOM     49  C   UNL A   1      38.158  30.910  29.293  1.00  0.00     0.031 C 
ATOM     50  C   UNL A   1      37.317  33.942  33.240  1.00  0.00     0.029 A 
ATOM     51  N   UNL A   1      38.978  32.458  33.415  1.00  0.00    -0.354 N 
ATOM     52  C   UNL A   1      39.666  29.521  30.288  1.00  0.00     0.074 A 
ATOM     53  C   UNL A   1      38.806  29.765  29.153  1.00  0.00     0.031 C 
ATOM     54  C   UNL A   1      37.869  34.100  34.454  1.00  0.00     0.029 A 
ATOM     55  C   UNL A   1      38.943  33.127  34.618  1.00  0.00     0.049 A 
ATOM     56  H   UNL A   1      39.626  31.744  33.216  1.00  0.00     0.167 HD
ATOM     57  C   UNL A   1      40.589  28.533  30.336  1.00  0.00     0.034 A 
ATOM     58  C   UNL A   1      39.692  32.966  35.726  1.00  0.00     0.034 A 
ATOM     59  C   UNL A   1      41.508  28.361  31.425  1.00  0.00     0.049 A 
ATOM     60  C   UNL A   1      40.768  31.911  35.720  1.00  0.00     0.074 A 
ATOM     61  C   UNL A   1      42.538  27.447  31.548  1.00  0.00     0.029 A 
ATOM     62  N   UNL A   1      41.525  29.145  32.568  1.00  0.00    -0.354 N 
ATOM     63  N   UNL A   1      41.091  31.065  34.771  1.00  0.00    -0.248 NA
ATOM     64  C   UNL A   1      41.606  31.810  36.924  1.00  0.00     0.031 C 
ATOM     65  C   UNL A   1      43.184  27.684  32.765  1.00  0.00     0.029 A 
ATOM     66  C   UNL A   1      42.561  28.751  33.394  1.00  0.00     0.049 A 
ATOM     67  H   UNL A   1      40.893  29.874  32.764  1.00  0.00     0.167 HD
ATOM     68  C   UNL A   1      42.194  30.366  35.243  1.00  0.00     0.074 A 
ATOM     69  C   UNL A   1      42.496  30.900  36.556  1.00  0.00     0.031 C 
ATOM     70  C   UNL A   1      42.885  29.356  34.659  1.00  0.00     0.034 A 
BRANCH  57  71
ATOM     71  C   UNL A   1      40.710  27.630  29.136  1.00  0.00     0.023 A 
ATOM     72  C   UNL A   1      39.918  26.465  29.067  1.00  0.00     0.012 A 
ATOM     73  C   UNL A   1      41.568  27.945  28.064  1.00  0.00     0.148 A 
ATOM     74  C   UNL A   1      40.006  25.606  27.974  1.00  0.00     0.002 A 
ATOM     75  C   UNL A   1      41.616  27.108  26.955  1.00  0.00     0.091 A 
ATOM     76  F   UNL A   1      42.328  29.046  28.153  1.00  0.00    -0.205 F 
ATOM     77  C   UNL A   1      40.847  25.933  26.914  1.00  0.00     0.022 A 
BRANCH  75  78
ATOM     78  S   UNL A   1      42.606  27.472  25.501  1.00  0.00     0.127 S 
ATOM     79  O   UNL A   1      43.959  27.474  26.058  1.00  0.00    -0.237 OA
ATOM     80  O   UNL A   1      42.306  26.332  24.633  1.00  0.00    -0.237 OA
ATOM     81  O   UNL A   1      42.135  28.757  25.003  1.00  0.00    -0.744 OA
ENDBRANCH  75  78
ENDBRANCH  57  71
BRANCH  58  82
ATOM     82  C   UNL A   1      39.520  33.872  36.898  1.00  0.00     0.023 A 
ATOM     83  C   UNL A   1      39.935  35.214  36.792  1.00  0.00     0.012 A 
ATOM     84  C   UNL A   1      38.954  33.427  38.108  1.00  0.00     0.148 A 
ATOM     85  C   UNL A   1      39.833  36.084  37.878  1.00  0.00     0.002 A 
ATOM     86  C   UNL A   1      38.805  34.313  39.171  1.00  0.00     0.091 A 
ATOM     87  F   UNL A   1      38.575  32.144  38.202  1.00  0.00    -0.205 F 
ATOM     88  C   UNL A   1      39.260  35.637  39.065  1.00  0.00     0.022 A 
BRANCH  86  89
ATOM     89  S   UNL A   1      37.963  33.848  40.688  1.00  0.00     0.127 S 
ATOM     90  O   UNL A   1      37.849  35.132  41.374  1.00  0.00    -0.237 OA
ATOM     91  O   UNL A   1      36.700  33.303  40.188  1.00  0.00    -0.237 OA
ATOM     92  O   UNL A   1      38.829  32.860  41.318  1.00  0.00    -0.744 OA
ENDBRANCH  86  89
ENDBRANCH  58  82
BRANCH  70  93
ATOM     93  C   UNL A   1      44.068  28.801  35.403  1.00  0.00     0.023 A 
ATOM     94  C   UNL A   1      45.329  29.411  35.267  1.00  0.00     0.012 A 
ATOM     95  C   UNL A   1      43.906  27.728  36.301  1.00  0.00     0.148 A 
ATOM     96  C   UNL A   1      46.422  28.942  35.994  1.00  0.00     0.002 A 
ATOM     97  C   UNL A   1      44.988  27.298  37.058  1.00  0.00     0.091 A 
ATOM     98  F   UNL A   1      42.700  27.151  36.400  1.00  0.00    -0.205 F 
ATOM     99  C   UNL A   1      46.249  27.896  36.897  1.00  0.00     0.022 A 
BRANCH  97 100
ATOM    100  S   UNL A   1      44.834  26.025  38.316  1.00  0.00     0.127 S 
ATOM    101  O   UNL A   1      43.770  26.568  39.159  1.00  0.00    -0.237 OA
ATOM    102  O   UNL A   1      44.449  24.854  37.527  1.00  0.00    -0.237 OA
ATOM    103  O   UNL A   1      46.143  25.924  38.945  1.00  0.00    -0.744 OA
ENDBRANCH  97 100
ENDBRANCH  70  93
ENDBRANCH  44  45
ENDBRANCH  36  39
ENDBRANCH  34  35
ENDBRANCH  33  34
ENDBRANCH   1  33
TORSDOF 17
ENDMDL
MODEL 2
REMARK VINA RESULT:     -13.4      0.453      7.406
REMARK SMILES CC1=C(C)C[C@@H](C(=O)NCCCCNC(=O)c2ccc(-c3c4nc(c(-c5cccc(S(=O)(=O)[O-])c5F)c5ccc([nH]5)c(-c5cccc(S(=O)(=O)[O-])c5F)c5nc(c(-c6cccc(S(=O)(=O)[O-])c6F)c6ccc3[nH]6)C=C5)C=C4)cc2)[C@@H](C(=O)N2CCN(c3cccc(C(F)(F)F)c3)CC2)C1
REMARK SMILES IDX 11 1 10 2 9 3 7 4 8 5 6 7 1 8 2 9 3 10 99 11 4 12 5 13 80 14
REMARK SMILES IDX 81 15 82 16 83 17 84 18 98 19 85 20 97 21 86 22 87 23 88 24
REMARK SMILES IDX 96 25 89 26 91 27 90 28 92 29 93 30 94 31 95 32 12 33 13 34
REMARK SMILES IDX 14 35 15 36 16 38 17 39 18 40 79 41 19 42 78 43 20 44 21 45
REMARK SMILES IDX 22 46 72 47 23 48 77 49 71 50 73 51 24 52 76 53 70 54 69 55
REMARK SMILES IDX 25 57 57 58 37 59 56 60 38 61 41 62 55 63 74 64 39 65 40 66
REMARK SMILES IDX 54 68 75 69 42 70 26 71 27 72 35 73 28 74 30 75 36 76 29 77
REMARK SMILES IDX 31 78 32 79 33 80 34 81 58 82 59 83 67 84 60 85 62 86 68 87
REMARK SMILES IDX 61 88 63 89 64 90 65 91 66 92 43 93 44 94 52 95 45 96 47 97
REMARK SMILES IDX 53 98 46 99 48 100 49 101 50 102 51 103
REMARK H PARENT 9 6 14 37 73 56 41 67
REMARK Flexibility Score: inf
ROOT
ATOM      1  C   UNL A   1      31.677  30.640  26.654  1.00  0.00     0.023 C 
ENDROOT
BRANCH   1   2
ATOM      2  C   UNL A   1      31.530  30.092  25.248  1.00  0.00     0.116 C 
BRANCH   2   3
ATOM      3  N   UNL A   1      32.780  29.588  24.728  1.00  0.00    -0.356 N 
ATOM      4  C   UNL A   1      33.061  28.741  23.706  1.00  0.00     0.224 C 
ATOM      5  O   UNL A   1      34.247  28.662  23.366  1.00  0.00    -0.275 OA
ATOM      6  H   UNL A   1      33.576  29.921  25.203  1.00  0.00     0.163 HD
BRANCH   4   7
ATOM      7  C   UNL A   1      31.991  27.974  22.907  1.00  0.00     0.095 C 
ATOM      8  C   UNL A   1      27.587  28.482  23.353  1.00  0.00     0.039 C 
ATOM      9  C   UNL A   1      29.054  28.329  23.028  1.00  0.00    -0.074 C 
ATOM     10  C   UNL A   1      29.775  29.206  22.310  1.00  0.00    -0.074 C 
ATOM     11  C   UNL A   1      29.654  27.091  23.620  1.00  0.00     0.045 C 
ATOM     12  C   UNL A   1      29.248  30.530  21.819  1.00  0.00     0.039 C 
ATOM     13  C   UNL A   1      31.225  28.945  21.988  1.00  0.00     0.045 C 
ATOM     14  C   UNL A   1      31.167  26.837  23.596  1.00  0.00     0.095 C 
BRANCH  14  15
ATOM     15  C   UNL A   1      31.771  26.361  24.945  1.00  0.00     0.226 C 
ATOM     16  O   UNL A   1      31.381  26.875  25.997  1.00  0.00    -0.275 OA
ATOM     17  N   UNL A   1      32.737  25.369  25.010  1.00  0.00    -0.339 N 
ATOM     18  C   UNL A   1      32.847  24.603  26.263  1.00  0.00     0.141 C 
ATOM     19  C   UNL A   1      33.826  25.067  24.061  1.00  0.00     0.141 C 
ATOM     20  C   UNL A   1      32.919  23.095  25.973  1.00  0.00     0.138 C 
ATOM     21  C   UNL A   1      33.924  23.546  23.749  1.00  0.00     0.138 C 
ATOM     22  N   UNL A   1      33.988  22.795  25.007  1.00  0.00    -0.368 N 
BRANCH  22  23
ATOM     23  C   UNL A   1      34.336  21.450  24.996  1.00  0.00     0.037 A 
ATOM     24  C   UNL A   1      35.634  20.983  25.226  1.00  0.00     0.026 A 
ATOM     25  C   UNL A   1      33.367  20.543  24.561  1.00  0.00     0.039 A 
ATOM     26  C   UNL A   1      35.961  19.644  24.989  1.00  0.00     0.003 A 
ATOM     27  C   UNL A   1      33.677  19.201  24.307  1.00  0.00     0.058 A 
ATOM     28  C   UNL A   1      34.989  18.758  24.523  1.00  0.00     0.013 A 
BRANCH  27  29
ATOM     29  C   UNL A   1      32.622  18.269  23.772  1.00  0.00     0.416 C 
ATOM     30  F   UNL A   1      31.640  18.920  23.090  1.00  0.00    -0.166 F 
ATOM     31  F   UNL A   1      33.135  17.353  22.903  1.00  0.00    -0.166 F 
ATOM     32  F   UNL A   1      31.991  17.543  24.737  1.00  0.00    -0.166 F 
ENDBRANCH  27  29
ENDBRANCH  22  23
ENDBRANCH  14  15
ENDBRANCH   4   7
ENDBRANCH   2   3
ENDBRANCH   1   2
BRANCH   1  33
ATOM     33  C   UNL A   1      31.559  32.158  26.690  1.00  0.00     0.023 C 
BRANCH  33  34
ATOM     34  C   UNL A   1      32.759  32.836  27.324  1.00  0.00     0.116 C 
BRANCH  34  35
ATOM     35  N   UNL A   1      32.508  34.213  27.751  1.00  0.00    -0.352 N 
ATOM     36  C   UNL A   1      33.117  34.973  28.728  1.00  0.00     0.251 C 
ATOM     37  H   UNL A   1      31.787  34.670  27.262  1.00  0.00     0.163 HD
ATOM     38  O   UNL A   1      32.702  36.098  28.966  1.00  0.00    -0.269 OA
BRANCH  36  39
ATOM     39  C   UNL A   1      34.235  34.403  29.510  1.00  0.00     0.039 A 
ATOM     40  C   UNL A   1      33.956  33.635  30.644  1.00  0.00     0.014 A 
ATOM     41  C   UNL A   1      35.554  34.574  29.093  1.00  0.00     0.014 A 
ATOM     42  C   UNL A   1      34.994  32.961  31.294  1.00  0.00     0.010 A 
ATOM     43  C   UNL A   1      36.551  33.787  29.641  1.00  0.00     0.010 A 
ATOM     44  C   UNL A   1      36.292  32.988  30.763  1.00  0.00    -0.014 A 
BRANCH  44  45
ATOM     45  C   UNL A   1      37.424  32.240  31.366  1.00  0.00     0.031 A 
ATOM     46  C   UNL A   1      37.975  32.696  32.695  1.00  0.00     0.074 A 
ATOM     47  C   UNL A   1      38.029  31.249  30.679  1.00  0.00     0.049 A 
ATOM     48  N   UNL A   1      39.073  32.334  33.304  1.00  0.00    -0.248 NA
ATOM     49  C   UNL A   1      37.219  33.746  33.404  1.00  0.00     0.031 C 
ATOM     50  C   UNL A   1      37.641  30.770  29.350  1.00  0.00     0.029 A 
ATOM     51  N   UNL A   1      39.123  30.483  30.997  1.00  0.00    -0.354 N 
ATOM     52  C   UNL A   1      39.167  33.152  34.426  1.00  0.00     0.074 A 
ATOM     53  C   UNL A   1      38.051  34.068  34.381  1.00  0.00     0.031 C 
ATOM     54  C   UNL A   1      38.470  29.782  28.975  1.00  0.00     0.029 A 
ATOM     55  C   UNL A   1      39.473  29.583  30.016  1.00  0.00     0.049 A 
ATOM     56  H   UNL A   1      39.612  30.570  31.847  1.00  0.00     0.167 HD
ATOM     57  C   UNL A   1      40.071  33.114  35.432  1.00  0.00     0.034 A 
ATOM     58  C   UNL A   1      40.491  28.702  29.966  1.00  0.00     0.034 A 
ATOM     59  C   UNL A   1      41.117  32.134  35.519  1.00  0.00     0.049 A 
ATOM     60  C   UNL A   1      41.434  28.626  31.138  1.00  0.00     0.074 A 
ATOM     61  C   UNL A   1      42.042  31.947  36.529  1.00  0.00     0.029 A 
ATOM     62  N   UNL A   1      41.356  31.155  34.567  1.00  0.00    -0.354 N 
ATOM     63  N   UNL A   1      41.438  29.332  32.243  1.00  0.00    -0.248 NA
ATOM     64  C   UNL A   1      42.493  27.608  31.073  1.00  0.00     0.031 C 
ATOM     65  C   UNL A   1      42.836  30.847  36.191  1.00  0.00     0.029 A 
ATOM     66  C   UNL A   1      42.399  30.346  34.975  1.00  0.00     0.049 A 
ATOM     67  H   UNL A   1      40.856  31.051  33.724  1.00  0.00     0.167 HD
ATOM     68  C   UNL A   1      42.466  28.815  33.022  1.00  0.00     0.074 A 
ATOM     69  C   UNL A   1      43.051  27.723  32.270  1.00  0.00     0.031 C 
ATOM     70  C   UNL A   1      42.906  29.217  34.240  1.00  0.00     0.034 A 
BRANCH  57  71
ATOM     71  C   UNL A   1      39.904  34.097  36.561  1.00  0.00     0.023 A 
ATOM     72  C   UNL A   1      40.209  35.457  36.342  1.00  0.00     0.012 A 
ATOM     73  C   UNL A   1      39.411  33.695  37.817  1.00  0.00     0.148 A 
ATOM     74  C   UNL A   1      40.069  36.393  37.364  1.00  0.00     0.002 A 
ATOM     75  C   UNL A   1      39.228  34.643  38.818  1.00  0.00     0.091 A 
ATOM     76  F   UNL A   1      39.143  32.396  38.015  1.00  0.00    -0.205 F 
ATOM     77  C   UNL A   1      39.569  35.988  38.597  1.00  0.00     0.022 A 
BRANCH  75  78
ATOM     78  S   UNL A   1      38.519  34.245  40.420  1.00  0.00     0.127 S 
ATOM     79  O   UNL A   1      37.293  33.547  40.035  1.00  0.00    -0.237 OA
ATOM     80  O   UNL A   1      39.551  33.388  41.007  1.00  0.00    -0.237 OA
ATOM     81  O   UNL A   1      38.325  35.517  41.103  1.00  0.00    -0.744 OA
ENDBRANCH  75  78
ENDBRANCH  57  71
BRANCH  58  82
ATOM     82  C   UNL A   1      40.627  27.763  28.815  1.00  0.00     0.023 A 
ATOM     83  C   UNL A   1      39.747  26.666  28.720  1.00  0.00     0.012 A 
ATOM     84  C   UNL A   1      41.607  27.940  27.821  1.00  0.00     0.148 A 
ATOM     85  C   UNL A   1      39.868  25.739  27.684  1.00  0.00     0.002 A 
ATOM     86  C   UNL A   1      41.689  27.041  26.761  1.00  0.00     0.091 A 
ATOM     87  F   UNL A   1      42.447  28.979  27.929  1.00  0.00    -0.205 F 
ATOM     88  C   UNL A   1      40.833  25.931  26.700  1.00  0.00     0.022 A 
BRANCH  86  89
ATOM     89  S   UNL A   1      42.821  27.288  25.387  1.00  0.00     0.127 S 
ATOM     90  O   UNL A   1      42.694  26.027  24.663  1.00  0.00    -0.237 OA
ATOM     91  O   UNL A   1      42.238  28.448  24.710  1.00  0.00    -0.237 OA
ATOM     92  O   UNL A   1      44.116  27.547  26.001  1.00  0.00    -0.744 OA
ENDBRANCH  86  89
ENDBRANCH  58  82
BRANCH  70  93
ATOM     93  C   UNL A   1      44.034  28.443  34.863  1.00  0.00     0.023 A 
ATOM     94  C   UNL A   1      45.364  28.734  34.504  1.00  0.00     0.012 A 
ATOM     95  C   UNL A   1      43.777  27.487  35.865  1.00  0.00     0.148 A 
ATOM     96  C   UNL A   1      46.423  28.064  35.115  1.00  0.00     0.002 A 
ATOM     97  C   UNL A   1      44.839  26.860  36.503  1.00  0.00     0.091 A 
ATOM     98  F   UNL A   1      42.502  27.213  36.177  1.00  0.00    -0.205 F 
ATOM     99  C   UNL A   1      46.161  27.138  36.121  1.00  0.00     0.022 A 
BRANCH  97 100
ATOM    100  S   UNL A   1      44.598  25.727  37.877  1.00  0.00     0.127 S 
ATOM    101  O   UNL A   1      43.872  26.566  38.830  1.00  0.00    -0.237 OA
ATOM    102  O   UNL A   1      43.798  24.664  37.267  1.00  0.00    -0.237 OA
ATOM    103  O   UNL A   1      45.931  25.315  38.293  1.00  0.00    -0.744 OA
ENDBRANCH  97 100
ENDBRANCH  70  93
ENDBRANCH  44  45
ENDBRANCH  36  39
ENDBRANCH  34  35
ENDBRANCH  33  34
ENDBRANCH   1  33
TORSDOF 17
ENDMDL
MODEL 3
REMARK VINA RESULT:     -12.9      3.155      5.391
REMARK SMILES CC1=C(C)C[C@@H](C(=O)NCCCCNC(=O)c2ccc(-c3c4nc(c(-c5cccc(S(=O)(=O)[O-])c5F)c5ccc([nH]5)c(-c5cccc(S(=O)(=O)[O-])c5F)c5nc(c(-c6cccc(S(=O)(=O)[O-])c6F)c6ccc3[nH]6)C=C5)C=C4)cc2)[C@@H](C(=O)N2CCN(c3cccc(C(F)(F)F)c3)CC2)C1
REMARK SMILES IDX 11 1 10 2 9 3 7 4 8 5 6 7 1 8 2 9 3 10 99 11 4 12 5 13 80 14
REMARK SMILES IDX 81 15 82 16 83 17 84 18 98 19 85 20 97 21 86 22 87 23 88 24
REMARK SMILES IDX 96 25 89 26 91 27 90 28 92 29 93 30 94 31 95 32 12 33 13 34
REMARK SMILES IDX 14 35 15 36 16 38 17 39 18 40 79 41 19 42 78 43 20 44 21 45
REMARK SMILES IDX 22 46 72 47 23 48 77 49 71 50 73 51 24 52 76 53 70 54 69 55
REMARK SMILES IDX 25 57 57 58 37 59 56 60 38 61 41 62 55 63 74 64 39 65 40 66
REMARK SMILES IDX 54 68 75 69 42 70 26 71 27 72 35 73 28 74 30 75 36 76 29 77
REMARK SMILES IDX 31 78 32 79 33 80 34 81 58 82 59 83 67 84 60 85 62 86 68 87
REMARK SMILES IDX 61 88 63 89 64 90 65 91 66 92 43 93 44 94 52 95 45 96 47 97
REMARK SMILES IDX 53 98 46 99 48 100 49 101 50 102 51 103
REMARK H PARENT 9 6 14 37 73 56 41 67
REMARK Flexibility Score: inf
ROOT
ATOM      1  C   UNL A   1      33.965  26.486  26.166  1.00  0.00     0.023 C 
ENDROOT
BRANCH   1   2
ATOM      2  C   UNL A   1      33.601  25.096  25.684  1.00  0.00     0.116 C 
BRANCH   2   3
ATOM      3  N   UNL A   1      32.946  24.318  26.710  1.00  0.00    -0.356 N 
ATOM      4  C   UNL A   1      33.120  23.039  27.127  1.00  0.00     0.224 C 
ATOM      5  O   UNL A   1      32.549  22.719  28.176  1.00  0.00    -0.275 OA
ATOM      6  H   UNL A   1      32.244  24.807  27.197  1.00  0.00     0.163 HD
BRANCH   4   7
ATOM      7  C   UNL A   1      34.050  22.027  26.432  1.00  0.00     0.095 C 
ATOM      8  C   UNL A   1      36.856  22.975  23.103  1.00  0.00     0.039 C 
ATOM      9  C   UNL A   1      36.042  22.575  24.310  1.00  0.00    -0.074 C 
ATOM     10  C   UNL A   1      36.368  22.860  25.582  1.00  0.00    -0.074 C 
ATOM     11  C   UNL A   1      34.790  21.837  23.948  1.00  0.00     0.045 C 
ATOM     12  C   UNL A   1      37.539  23.721  25.981  1.00  0.00     0.039 C 
ATOM     13  C   UNL A   1      35.522  22.373  26.731  1.00  0.00     0.045 C 
ATOM     14  C   UNL A   1      33.712  21.517  24.993  1.00  0.00     0.095 C 
BRANCH  14  15
ATOM     15  C   UNL A   1      32.258  21.830  24.547  1.00  0.00     0.226 C 
ATOM     16  O   UNL A   1      31.330  21.144  24.984  1.00  0.00    -0.275 OA
ATOM     17  N   UNL A   1      31.962  22.864  23.672  1.00  0.00    -0.339 N 
ATOM     18  C   UNL A   1      30.610  23.445  23.731  1.00  0.00     0.141 C 
ATOM     19  C   UNL A   1      32.750  23.373  22.533  1.00  0.00     0.141 C 
ATOM     20  C   UNL A   1      30.679  24.981  23.755  1.00  0.00     0.138 C 
ATOM     21  C   UNL A   1      32.837  24.926  22.529  1.00  0.00     0.138 C 
ATOM     22  N   UNL A   1      31.486  25.489  22.633  1.00  0.00    -0.368 N 
BRANCH  22  23
ATOM     23  C   UNL A   1      31.276  26.841  22.394  1.00  0.00     0.037 A 
ATOM     24  C   UNL A   1      32.309  27.763  22.195  1.00  0.00     0.026 A 
ATOM     25  C   UNL A   1      29.971  27.319  22.537  1.00  0.00     0.039 A 
ATOM     26  C   UNL A   1      32.044  29.136  22.175  1.00  0.00     0.003 A 
ATOM     27  C   UNL A   1      29.686  28.691  22.531  1.00  0.00     0.058 A 
ATOM     28  C   UNL A   1      30.739  29.599  22.352  1.00  0.00     0.013 A 
BRANCH  27  29
ATOM     29  C   UNL A   1      28.277  29.171  22.758  1.00  0.00     0.416 C 
ATOM     30  F   UNL A   1      27.459  28.197  23.238  1.00  0.00    -0.166 F 
ATOM     31  F   UNL A   1      28.219  30.188  23.663  1.00  0.00    -0.166 F 
ATOM     32  F   UNL A   1      27.674  29.648  21.633  1.00  0.00    -0.166 F 
ENDBRANCH  27  29
ENDBRANCH  22  23
ENDBRANCH  14  15
ENDBRANCH   4   7
ENDBRANCH   2   3
ENDBRANCH   1   2
BRANCH   1  33
ATOM     33  C   UNL A   1      32.908  27.516  25.790  1.00  0.00     0.023 C 
BRANCH  33  34
ATOM     34  C   UNL A   1      33.497  28.827  25.304  1.00  0.00     0.116 C 
BRANCH  34  35
ATOM     35  N   UNL A   1      32.884  30.014  25.902  1.00  0.00    -0.352 N 
ATOM     36  C   UNL A   1      33.347  30.860  26.888  1.00  0.00     0.251 C 
ATOM     37  H   UNL A   1      31.998  30.245  25.543  1.00  0.00     0.163 HD
ATOM     38  O   UNL A   1      32.635  31.768  27.290  1.00  0.00    -0.269 OA
BRANCH  36  39
ATOM     39  C   UNL A   1      34.682  30.631  27.484  1.00  0.00     0.039 A 
ATOM     40  C   UNL A   1      35.543  31.715  27.671  1.00  0.00     0.014 A 
ATOM     41  C   UNL A   1      35.059  29.360  27.913  1.00  0.00     0.014 A 
ATOM     42  C   UNL A   1      36.736  31.535  28.377  1.00  0.00     0.010 A 
ATOM     43  C   UNL A   1      36.159  29.217  28.741  1.00  0.00     0.010 A 
ATOM     44  C   UNL A   1      37.025  30.295  28.966  1.00  0.00    -0.014 A 
BRANCH  44  45
ATOM     45  C   UNL A   1      38.241  30.057  29.785  1.00  0.00     0.031 A 
ATOM     46  C   UNL A   1      39.299  29.117  29.264  1.00  0.00     0.074 A 
ATOM     47  C   UNL A   1      38.337  30.575  31.027  1.00  0.00     0.049 A 
ATOM     48  N   UNL A   1      40.328  28.603  29.884  1.00  0.00    -0.248 NA
ATOM     49  C   UNL A   1      39.144  28.643  27.876  1.00  0.00     0.031 C 
ATOM     50  C   UNL A   1      37.342  31.433  31.676  1.00  0.00     0.029 A 
ATOM     51  N   UNL A   1      39.314  30.428  31.980  1.00  0.00    -0.354 N 
ATOM     52  C   UNL A   1      40.899  27.706  28.987  1.00  0.00     0.074 A 
ATOM     53  C   UNL A   1      40.069  27.699  27.805  1.00  0.00     0.031 C 
ATOM     54  C   UNL A   1      37.767  31.751  32.910  1.00  0.00     0.029 A 
ATOM     55  C   UNL A   1      39.043  31.089  33.157  1.00  0.00     0.049 A 
ATOM     56  H   UNL A   1      40.132  29.900  31.836  1.00  0.00     0.167 HD
ATOM     57  C   UNL A   1      42.038  26.988  29.112  1.00  0.00     0.034 A 
ATOM     58  C   UNL A   1      39.747  31.146  34.305  1.00  0.00     0.034 A 
ATOM     59  C   UNL A   1      42.910  27.078  30.249  1.00  0.00     0.049 A 
ATOM     60  C   UNL A   1      41.054  30.402  34.385  1.00  0.00     0.074 A 
ATOM     61  C   UNL A   1      44.130  26.461  30.452  1.00  0.00     0.029 A 
ATOM     62  N   UNL A   1      42.663  27.862  31.366  1.00  0.00    -0.354 N 
ATOM     63  N   UNL A   1      41.634  29.649  33.481  1.00  0.00    -0.248 NA
ATOM     64  C   UNL A   1      41.823  30.543  35.630  1.00  0.00     0.031 C 
ATOM     65  C   UNL A   1      44.626  26.879  31.690  1.00  0.00     0.029 A 
ATOM     66  C   UNL A   1      43.719  27.762  32.253  1.00  0.00     0.049 A 
ATOM     67  H   UNL A   1      41.857  28.409  31.506  1.00  0.00     0.167 HD
ATOM     68  C   UNL A   1      42.851  29.265  34.029  1.00  0.00     0.074 A 
ATOM     69  C   UNL A   1      42.935  29.884  35.336  1.00  0.00     0.031 C 
ATOM     70  C   UNL A   1      43.808  28.455  33.511  1.00  0.00     0.034 A 
BRANCH  57  71
ATOM     71  C   UNL A   1      42.452  26.124  27.949  1.00  0.00     0.023 A 
ATOM     72  C   UNL A   1      43.338  26.646  26.983  1.00  0.00     0.012 A 
ATOM     73  C   UNL A   1      42.006  24.794  27.828  1.00  0.00     0.148 A 
ATOM     74  C   UNL A   1      43.740  25.876  25.894  1.00  0.00     0.002 A 
ATOM     75  C   UNL A   1      42.449  24.016  26.763  1.00  0.00     0.091 A 
ATOM     76  F   UNL A   1      41.151  24.319  28.744  1.00  0.00    -0.205 F 
ATOM     77  C   UNL A   1      43.304  24.559  25.790  1.00  0.00     0.022 A 
BRANCH  75  78
ATOM     78  S   UNL A   1      42.011  22.284  26.573  1.00  0.00     0.127 S 
ATOM     79  O   UNL A   1      42.697  21.941  25.328  1.00  0.00    -0.237 OA
ATOM     80  O   UNL A   1      42.594  21.687  27.775  1.00  0.00    -0.237 OA
ATOM     81  O   UNL A   1      40.556  22.239  26.516  1.00  0.00    -0.744 OA
ENDBRANCH  75  78
ENDBRANCH  57  71
BRANCH  58  82
ATOM     82  C   UNL A   1      39.285  32.001  35.437  1.00  0.00     0.023 A 
ATOM     83  C   UNL A   1      38.343  31.480  36.346  1.00  0.00     0.012 A 
ATOM     84  C   UNL A   1      39.764  33.311  35.625  1.00  0.00     0.148 A 
ATOM     85  C   UNL A   1      37.853  32.261  37.394  1.00  0.00     0.002 A 
ATOM     86  C   UNL A   1      39.311  34.066  36.703  1.00  0.00     0.091 A 
ATOM     87  F   UNL A   1      40.650  33.799  34.746  1.00  0.00    -0.205 F 
ATOM     88  C   UNL A   1      38.342  33.551  37.578  1.00  0.00     0.022 A 
BRANCH  86  89
ATOM     89  S   UNL A   1      39.986  35.688  37.081  1.00  0.00     0.127 S 
ATOM     90  O   UNL A   1      41.406  35.391  37.246  1.00  0.00    -0.237 OA
ATOM     91  O   UNL A   1      39.653  36.451  35.877  1.00  0.00    -0.237 OA
ATOM     92  O   UNL A   1      39.279  36.126  38.277  1.00  0.00    -0.744 OA
ENDBRANCH  86  89
ENDBRANCH  58  82
BRANCH  70  93
ATOM     93  C   UNL A   1      45.050  28.235  34.329  1.00  0.00     0.023 A 
ATOM     94  C   UNL A   1      46.141  29.114  34.194  1.00  0.00     0.012 A 
ATOM     95  C   UNL A   1      45.098  27.209  35.293  1.00  0.00     0.148 A 
ATOM     96  C   UNL A   1      47.277  28.957  34.986  1.00  0.00     0.002 A 
ATOM     97  C   UNL A   1      46.213  27.089  36.112  1.00  0.00     0.091 A 
ATOM     98  F   UNL A   1      44.054  26.373  35.392  1.00  0.00    -0.205 F 
ATOM     99  C   UNL A   1      47.308  27.954  35.952  1.00  0.00     0.022 A 
BRANCH  97 100
ATOM    100  S   UNL A   1      46.297  25.890  37.448  1.00  0.00     0.127 S 
ATOM    101  O   UNL A   1      47.604  26.186  38.031  1.00  0.00    -0.237 OA
ATOM    102  O   UNL A   1      45.156  26.273  38.281  1.00  0.00    -0.237 OA
ATOM    103  O   UNL A   1      46.172  24.583  36.819  1.00  0.00    -0.744 OA
ENDBRANCH  97 100
ENDBRANCH  70  93
ENDBRANCH  44  45
ENDBRANCH  36  39
ENDBRANCH  34  35
ENDBRANCH  33  34
ENDBRANCH   1  33
TORSDOF 17
ENDMDL
