MODEL 1
REMARK VINA RESULT:     -13.1      0.000      0.000
REMARK SMILES Cc1c(CC(=O)NCCCCNC(=O)c2ccc(-c3c4nc(c(-c5cccc(S(=O)(=O)[O-])c5F)c5ccc([nH]5)c(-c5cccc(S(=O)(=O)[O-])c5F)c5nc(c(-c6cccc(S(=O)(=O)[O-])c6F)c6ccc3[nH]6)C=C5)C=C4)cc2)c2cc(O)ccc2n1C(=O)c1ccc(Cl)cc1
REMARK SMILES IDX 9 1 8 2 7 3 5 4 6 5 4 7 3 8 1 9 2 10 85 11 78 12 84 13 79 14
REMARK SMILES IDX 83 15 80 16 82 17 86 18 87 19 88 20 89 21 94 22 90 23 93 24
REMARK SMILES IDX 91 25 92 26 81 27 10 29 11 30 12 31 13 32 14 34 15 35 16 36
REMARK SMILES IDX 77 37 17 38 76 39 18 40 19 41 20 42 70 43 21 44 75 45 69 46
REMARK SMILES IDX 71 47 22 48 74 49 68 50 67 51 23 53 55 54 35 55 54 56 36 57
REMARK SMILES IDX 39 58 53 59 72 60 37 61 38 62 52 64 73 65 40 66 24 67 25 68
REMARK SMILES IDX 33 69 26 70 28 71 34 72 27 73 29 74 30 75 31 76 32 77 56 78
REMARK SMILES IDX 57 79 65 80 58 81 60 82 66 83 59 84 61 85 62 86 63 87 64 88
REMARK SMILES IDX 41 89 42 90 50 91 43 92 45 93 51 94 44 95 46 96 47 97 48 98
REMARK SMILES IDX 49 99
REMARK H PARENT 7 6 81 28 12 33 71 52 39 63
REMARK Flexibility Score: inf
ROOT
ATOM      1  C   UNL A   1      32.114  28.867  27.361  1.00  0.00     0.023 C 
ENDROOT
BRANCH   1   2
ATOM      2  C   UNL A   1      31.410  27.946  26.366  1.00  0.00     0.116 C 
BRANCH   2   3
ATOM      3  N   UNL A   1      31.198  26.618  26.906  1.00  0.00    -0.356 N 
ATOM      4  C   UNL A   1      31.803  25.450  26.539  1.00  0.00     0.224 C 
ATOM      5  O   UNL A   1      31.517  24.422  27.158  1.00  0.00    -0.275 OA
ATOM      6  H   UNL A   1      30.535  26.550  27.630  1.00  0.00     0.163 HD
BRANCH   4   7
ATOM      7  C   UNL A   1      32.857  25.447  25.443  1.00  0.00     0.138 C 
BRANCH   7   8
ATOM      8  C   UNL A   1      33.214  24.070  24.955  1.00  0.00    -0.009 A 
ATOM      9  C   UNL A   1      31.036  23.421  23.685  1.00  0.00     0.065 C 
ATOM     10  C   UNL A   1      32.424  23.203  24.208  1.00  0.00     0.028 A 
ATOM     11  N   UNL A   1      33.115  21.992  24.038  1.00  0.00    -0.280 N 
ATOM     12  C   UNL A   1      34.461  23.422  25.173  1.00  0.00     0.008 A 
ATOM     13  C   UNL A   1      34.413  22.171  24.549  1.00  0.00     0.057 A 
ATOM     14  C   UNL A   1      35.641  23.819  25.844  1.00  0.00     0.056 A 
ATOM     15  C   UNL A   1      35.567  21.357  24.529  1.00  0.00     0.031 A 
ATOM     16  C   UNL A   1      36.740  22.967  25.878  1.00  0.00     0.116 A 
ATOM     17  C   UNL A   1      36.714  21.754  25.222  1.00  0.00     0.048 A 
BRANCH  11  18
ATOM     18  C   UNL A   1      32.584  20.812  23.435  1.00  0.00     0.262 C 
ATOM     19  O   UNL A   1      31.963  20.910  22.378  1.00  0.00    -0.268 OA
BRANCH  18  20
ATOM     20  C   UNL A   1      32.774  19.445  23.946  1.00  0.00     0.040 A 
ATOM     21  C   UNL A   1      32.980  18.364  23.082  1.00  0.00     0.015 A 
ATOM     22  C   UNL A   1      32.653  19.252  25.327  1.00  0.00     0.015 A 
ATOM     23  C   UNL A   1      32.953  17.066  23.602  1.00  0.00     0.021 A 
ATOM     24  C   UNL A   1      32.633  17.956  25.838  1.00  0.00     0.021 A 
ATOM     25  C   UNL A   1      32.755  16.869  24.971  1.00  0.00     0.041 A 
ATOM     26  Cl  UNL A   1      32.616  15.273  25.598  1.00  0.00    -0.084 Cl
ENDBRANCH  18  20
ENDBRANCH  11  18
BRANCH  16  27
ATOM     27  O   UNL A   1      37.845  23.378  26.562  1.00  0.00    -0.508 OA
ATOM     28  H   UNL A   1      38.542  23.811  26.109  1.00  0.00     0.293 HD
ENDBRANCH  16  27
ENDBRANCH   7   8
ENDBRANCH   4   7
ENDBRANCH   2   3
ENDBRANCH   1   2
BRANCH   1  29
ATOM     29  C   UNL A   1      33.644  28.857  27.249  1.00  0.00     0.023 C 
BRANCH  29  30
ATOM     30  C   UNL A   1      34.259  30.234  26.983  1.00  0.00     0.116 C 
BRANCH  30  31
ATOM     31  N   UNL A   1      34.113  31.152  28.094  1.00  0.00    -0.352 N 
ATOM     32  C   UNL A   1      34.948  31.621  29.069  1.00  0.00     0.251 C 
ATOM     33  H   UNL A   1      33.203  31.522  28.164  1.00  0.00     0.163 HD
ATOM     34  O   UNL A   1      34.501  32.537  29.764  1.00  0.00    -0.269 OA
BRANCH  32  35
ATOM     35  C   UNL A   1      36.284  31.054  29.386  1.00  0.00     0.039 A 
ATOM     36  C   UNL A   1      37.498  31.714  29.198  1.00  0.00     0.014 A 
ATOM     37  C   UNL A   1      36.302  29.709  29.804  1.00  0.00     0.014 A 
ATOM     38  C   UNL A   1      38.689  31.018  29.284  1.00  0.00     0.010 A 
ATOM     39  C   UNL A   1      37.496  29.011  29.916  1.00  0.00     0.010 A 
ATOM     40  C   UNL A   1      38.680  29.656  29.584  1.00  0.00    -0.014 A 
BRANCH  40  41
ATOM     41  C   UNL A   1      39.966  28.978  29.570  1.00  0.00     0.031 A 
ATOM     42  C   UNL A   1      40.538  28.740  30.922  1.00  0.00     0.074 A 
ATOM     43  C   UNL A   1      40.574  28.600  28.428  1.00  0.00     0.049 A 
ATOM     44  N   UNL A   1      41.583  29.291  31.450  1.00  0.00    -0.248 NA
ATOM     45  C   UNL A   1      39.758  27.914  31.855  1.00  0.00     0.031 C 
ATOM     46  C   UNL A   1      39.993  28.541  27.081  1.00  0.00     0.029 A 
ATOM     47  N   UNL A   1      41.815  28.068  28.250  1.00  0.00    -0.354 N 
ATOM     48  C   UNL A   1      41.717  28.702  32.707  1.00  0.00     0.074 A 
ATOM     49  C   UNL A   1      40.490  27.997  32.967  1.00  0.00     0.031 C 
ATOM     50  C   UNL A   1      40.772  27.763  26.297  1.00  0.00     0.029 A 
ATOM     51  C   UNL A   1      41.975  27.416  27.031  1.00  0.00     0.049 A 
ATOM     52  H   UNL A   1      42.532  28.137  28.922  1.00  0.00     0.167 HD
ATOM     53  C   UNL A   1      42.921  28.626  33.335  1.00  0.00     0.034 A 
ATOM     54  C   UNL A   1      42.997  26.591  26.704  1.00  0.00     0.034 A 
ATOM     55  C   UNL A   1      43.905  29.464  32.714  1.00  0.00     0.049 A 
ATOM     56  C   UNL A   1      44.140  26.959  27.569  1.00  0.00     0.074 A 
ATOM     57  C   UNL A   1      44.254  30.795  32.735  1.00  0.00     0.029 A 
ATOM     58  N   UNL A   1      44.483  28.898  31.609  1.00  0.00    -0.354 N 
ATOM     59  N   UNL A   1      44.735  28.118  27.520  1.00  0.00    -0.248 NA
ATOM     60  C   UNL A   1      44.463  26.133  28.727  1.00  0.00     0.031 C 
ATOM     61  C   UNL A   1      44.899  31.051  31.488  1.00  0.00     0.029 A 
ATOM     62  C   UNL A   1      44.951  29.863  30.761  1.00  0.00     0.049 A 
ATOM     63  H   UNL A   1      44.551  27.930  31.448  1.00  0.00     0.167 HD
ATOM     64  C   UNL A   1      45.148  28.333  28.820  1.00  0.00     0.074 A 
ATOM     65  C   UNL A   1      45.131  27.026  29.459  1.00  0.00     0.031 C 
ATOM     66  C   UNL A   1      45.149  29.583  29.357  1.00  0.00     0.034 A 
BRANCH  53  67
ATOM     67  C   UNL A   1      43.341  27.480  34.223  1.00  0.00     0.023 A 
ATOM     68  C   UNL A   1      43.626  27.748  35.578  1.00  0.00     0.012 A 
ATOM     69  C   UNL A   1      43.737  26.221  33.716  1.00  0.00     0.148 A 
ATOM     70  C   UNL A   1      44.265  26.803  36.391  1.00  0.00     0.002 A 
ATOM     71  C   UNL A   1      44.308  25.261  34.543  1.00  0.00     0.091 A 
ATOM     72  F   UNL A   1      43.689  25.997  32.398  1.00  0.00    -0.205 F 
ATOM     73  C   UNL A   1      44.592  25.553  35.878  1.00  0.00     0.022 A 
BRANCH  71  74
ATOM     74  S   UNL A   1      44.725  23.624  33.931  1.00  0.00     0.127 S 
ATOM     75  O   UNL A   1      46.189  23.668  33.953  1.00  0.00    -0.237 OA
ATOM     76  O   UNL A   1      44.121  22.763  34.953  1.00  0.00    -0.237 OA
ATOM     77  O   UNL A   1      44.104  23.526  32.625  1.00  0.00    -0.744 OA
ENDBRANCH  71  74
ENDBRANCH  53  67
BRANCH  54  78
ATOM     78  C   UNL A   1      42.991  25.315  25.945  1.00  0.00     0.023 A 
ATOM     79  C   UNL A   1      44.059  25.056  25.057  1.00  0.00     0.012 A 
ATOM     80  C   UNL A   1      42.174  24.231  26.335  1.00  0.00     0.148 A 
ATOM     81  C   UNL A   1      44.367  23.752  24.658  1.00  0.00     0.002 A 
ATOM     82  C   UNL A   1      42.481  22.937  25.926  1.00  0.00     0.091 A 
ATOM     83  F   UNL A   1      41.164  24.451  27.186  1.00  0.00    -0.205 F 
ATOM     84  C   UNL A   1      43.592  22.690  25.108  1.00  0.00     0.022 A 
BRANCH  82  85
ATOM     85  S   UNL A   1      41.534  21.513  26.480  1.00  0.00     0.127 S 
ATOM     86  O   UNL A   1      40.181  21.854  26.037  1.00  0.00    -0.237 OA
ATOM     87  O   UNL A   1      42.166  20.424  25.740  1.00  0.00    -0.237 OA
ATOM     88  O   UNL A   1      41.693  21.476  27.928  1.00  0.00    -0.744 OA
ENDBRANCH  82  85
ENDBRANCH  54  78
BRANCH  66  89
ATOM     89  C   UNL A   1      45.167  30.746  28.416  1.00  0.00     0.023 A 
ATOM     90  C   UNL A   1      44.005  31.451  28.048  1.00  0.00     0.012 A 
ATOM     91  C   UNL A   1      46.423  31.216  28.002  1.00  0.00     0.148 A 
ATOM     92  C   UNL A   1      44.100  32.614  27.277  1.00  0.00     0.002 A 
ATOM     93  C   UNL A   1      46.516  32.391  27.271  1.00  0.00     0.091 A 
ATOM     94  F   UNL A   1      47.509  30.521  28.371  1.00  0.00    -0.205 F 
ATOM     95  C   UNL A   1      45.357  33.091  26.902  1.00  0.00     0.022 A 
BRANCH  93  96
ATOM     96  S   UNL A   1      48.100  33.114  26.850  1.00  0.00     0.127 S 
ATOM     97  O   UNL A   1      48.492  33.746  28.108  1.00  0.00    -0.237 OA
ATOM     98  O   UNL A   1      48.886  31.936  26.485  1.00  0.00    -0.237 OA
ATOM     99  O   UNL A   1      47.849  34.034  25.747  1.00  0.00    -0.744 OA
ENDBRANCH  93  96
ENDBRANCH  66  89
ENDBRANCH  40  41
ENDBRANCH  32  35
ENDBRANCH  30  31
ENDBRANCH  29  30
ENDBRANCH   1  29
TORSDOF 18
ENDMDL
MODEL 2
REMARK VINA RESULT:     -12.9      1.495      2.493
REMARK SMILES Cc1c(CC(=O)NCCCCNC(=O)c2ccc(-c3c4nc(c(-c5cccc(S(=O)(=O)[O-])c5F)c5ccc([nH]5)c(-c5cccc(S(=O)(=O)[O-])c5F)c5nc(c(-c6cccc(S(=O)(=O)[O-])c6F)c6ccc3[nH]6)C=C5)C=C4)cc2)c2cc(O)ccc2n1C(=O)c1ccc(Cl)cc1
REMARK SMILES IDX 9 1 8 2 7 3 5 4 6 5 4 7 3 8 1 9 2 10 85 11 78 12 84 13 79 14
REMARK SMILES IDX 83 15 80 16 82 17 86 18 87 19 88 20 89 21 94 22 90 23 93 24
REMARK SMILES IDX 91 25 92 26 81 27 10 29 11 30 12 31 13 32 14 34 15 35 16 36
REMARK SMILES IDX 77 37 17 38 76 39 18 40 19 41 20 42 70 43 21 44 75 45 69 46
REMARK SMILES IDX 71 47 22 48 74 49 68 50 67 51 23 53 55 54 35 55 54 56 36 57
REMARK SMILES IDX 39 58 53 59 72 60 37 61 38 62 52 64 73 65 40 66 24 67 25 68
REMARK SMILES IDX 33 69 26 70 28 71 34 72 27 73 29 74 30 75 31 76 32 77 56 78
REMARK SMILES IDX 57 79 65 80 58 81 60 82 66 83 59 84 61 85 62 86 63 87 64 88
REMARK SMILES IDX 41 89 42 90 50 91 43 92 45 93 51 94 44 95 46 96 47 97 48 98
REMARK SMILES IDX 49 99
REMARK H PARENT 7 6 81 28 12 33 71 52 39 63
REMARK Flexibility Score: inf
ROOT
ATOM      1  C   UNL A   1      33.609  30.971  27.505  1.00  0.00     0.023 C 
ENDROOT
BRANCH   1   2
ATOM      2  C   UNL A   1      32.776  30.325  26.400  1.00  0.00     0.116 C 
BRANCH   2   3
ATOM      3  N   UNL A   1      32.050  29.164  26.871  1.00  0.00    -0.356 N 
ATOM      4  C   UNL A   1      32.422  27.851  26.808  1.00  0.00     0.224 C 
ATOM      5  O   UNL A   1      31.678  27.006  27.312  1.00  0.00    -0.275 OA
ATOM      6  H   UNL A   1      31.177  29.344  27.289  1.00  0.00     0.163 HD
BRANCH   4   7
ATOM      7  C   UNL A   1      33.761  27.465  26.197  1.00  0.00     0.138 C 
BRANCH   7   8
ATOM      8  C   UNL A   1      33.655  26.400  25.142  1.00  0.00    -0.009 A 
ATOM      9  C   UNL A   1      35.082  24.504  26.212  1.00  0.00     0.065 C 
ATOM     10  C   UNL A   1      34.231  25.134  25.152  1.00  0.00     0.028 A 
ATOM     11  N   UNL A   1      33.942  24.495  23.935  1.00  0.00    -0.280 N 
ATOM     12  C   UNL A   1      32.910  26.515  23.935  1.00  0.00     0.008 A 
ATOM     13  C   UNL A   1      33.041  25.313  23.231  1.00  0.00     0.057 A 
ATOM     14  C   UNL A   1      32.115  27.552  23.397  1.00  0.00     0.056 A 
ATOM     15  C   UNL A   1      32.315  25.124  22.034  1.00  0.00     0.031 A 
ATOM     16  C   UNL A   1      31.471  27.372  22.178  1.00  0.00     0.116 A 
ATOM     17  C   UNL A   1      31.558  26.171  21.504  1.00  0.00     0.048 A 
BRANCH  11  18
ATOM     18  C   UNL A   1      34.464  23.233  23.518  1.00  0.00     0.262 C 
ATOM     19  O   UNL A   1      35.394  23.209  22.713  1.00  0.00    -0.268 OA
BRANCH  18  20
ATOM     20  C   UNL A   1      34.019  21.926  24.027  1.00  0.00     0.040 A 
ATOM     21  C   UNL A   1      34.924  21.008  24.573  1.00  0.00     0.015 A 
ATOM     22  C   UNL A   1      32.669  21.598  23.865  1.00  0.00     0.015 A 
ATOM     23  C   UNL A   1      34.485  19.711  24.854  1.00  0.00     0.021 A 
ATOM     24  C   UNL A   1      32.238  20.305  24.154  1.00  0.00     0.021 A 
ATOM     25  C   UNL A   1      33.153  19.360  24.621  1.00  0.00     0.041 A 
ATOM     26  Cl  UNL A   1      32.636  17.738  24.866  1.00  0.00    -0.084 Cl
ENDBRANCH  18  20
ENDBRANCH  11  18
BRANCH  16  27
ATOM     27  O   UNL A   1      30.740  28.410  21.682  1.00  0.00    -0.508 OA
ATOM     28  H   UNL A   1      29.806  28.346  21.634  1.00  0.00     0.293 HD
ENDBRANCH  16  27
ENDBRANCH   7   8
ENDBRANCH   4   7
ENDBRANCH   2   3
ENDBRANCH   1   2
BRANCH   1  29
ATOM     29  C   UNL A   1      33.342  32.470  27.696  1.00  0.00     0.023 C 
BRANCH  29  30
ATOM     30  C   UNL A   1      34.418  33.197  28.507  1.00  0.00     0.116 C 
BRANCH  30  31
ATOM     31  N   UNL A   1      34.392  32.868  29.918  1.00  0.00    -0.352 N 
ATOM     32  C   UNL A   1      35.241  32.216  30.768  1.00  0.00     0.251 C 
ATOM     33  H   UNL A   1      33.575  33.185  30.367  1.00  0.00     0.163 HD
ATOM     34  O   UNL A   1      34.949  32.270  31.966  1.00  0.00    -0.269 OA
BRANCH  32  35
ATOM     35  C   UNL A   1      36.408  31.402  30.342  1.00  0.00     0.039 A 
ATOM     36  C   UNL A   1      36.410  30.015  30.206  1.00  0.00     0.014 A 
ATOM     37  C   UNL A   1      37.621  32.101  30.174  1.00  0.00     0.014 A 
ATOM     38  C   UNL A   1      37.602  29.332  30.050  1.00  0.00     0.010 A 
ATOM     39  C   UNL A   1      38.818  31.422  29.993  1.00  0.00     0.010 A 
ATOM     40  C   UNL A   1      38.806  30.034  30.004  1.00  0.00    -0.014 A 
BRANCH  40  41
ATOM     41  C   UNL A   1      40.021  29.239  29.926  1.00  0.00     0.031 A 
ATOM     42  C   UNL A   1      40.653  28.971  31.245  1.00  0.00     0.074 A 
ATOM     43  C   UNL A   1      40.518  28.787  28.758  1.00  0.00     0.049 A 
ATOM     44  N   UNL A   1      41.775  29.432  31.696  1.00  0.00    -0.248 NA
ATOM     45  C   UNL A   1      39.861  28.237  32.243  1.00  0.00     0.031 C 
ATOM     46  C   UNL A   1      39.851  28.760  27.451  1.00  0.00     0.029 A 
ATOM     47  N   UNL A   1      41.692  28.139  28.517  1.00  0.00    -0.354 N 
ATOM     48  C   UNL A   1      41.933  28.854  32.956  1.00  0.00     0.074 A 
ATOM     49  C   UNL A   1      40.666  28.270  33.306  1.00  0.00     0.031 C 
ATOM     50  C   UNL A   1      40.504  27.900  26.638  1.00  0.00     0.029 A 
ATOM     51  C   UNL A   1      41.714  27.455  27.305  1.00  0.00     0.049 A 
ATOM     52  H   UNL A   1      42.453  28.152  29.141  1.00  0.00     0.167 HD
ATOM     53  C   UNL A   1      43.163  28.676  33.510  1.00  0.00     0.034 A 
ATOM     54  C   UNL A   1      42.633  26.533  26.934  1.00  0.00     0.034 A 
ATOM     55  C   UNL A   1      44.179  29.409  32.812  1.00  0.00     0.049 A 
ATOM     56  C   UNL A   1      43.858  26.808  27.719  1.00  0.00     0.074 A 
ATOM     57  C   UNL A   1      44.649  30.702  32.781  1.00  0.00     0.029 A 
ATOM     58  N   UNL A   1      44.631  28.773  31.686  1.00  0.00    -0.354 N 
ATOM     59  N   UNL A   1      44.552  27.905  27.608  1.00  0.00    -0.248 NA
ATOM     60  C   UNL A   1      44.176  25.974  28.873  1.00  0.00     0.031 C 
ATOM     61  C   UNL A   1      45.235  30.876  31.492  1.00  0.00     0.029 A 
ATOM     62  C   UNL A   1      45.131  29.677  30.790  1.00  0.00     0.049 A 
ATOM     63  H   UNL A   1      44.600  27.800  31.543  1.00  0.00     0.167 HD
ATOM     64  C   UNL A   1      45.065  28.102  28.875  1.00  0.00     0.074 A 
ATOM     65  C   UNL A   1      44.968  26.814  29.543  1.00  0.00     0.031 C 
ATOM     66  C   UNL A   1      45.214  29.356  29.384  1.00  0.00     0.034 A 
BRANCH  53  67
ATOM     67  C   UNL A   1      43.531  27.511  34.396  1.00  0.00     0.023 A 
ATOM     68  C   UNL A   1      43.918  27.773  35.727  1.00  0.00     0.012 A 
ATOM     69  C   UNL A   1      43.782  26.214  33.894  1.00  0.00     0.148 A 
ATOM     70  C   UNL A   1      44.518  26.788  36.521  1.00  0.00     0.002 A 
ATOM     71  C   UNL A   1      44.314  25.219  34.707  1.00  0.00     0.091 A 
ATOM     72  F   UNL A   1      43.637  25.974  32.586  1.00  0.00    -0.205 F 
ATOM     73  C   UNL A   1      44.701  25.505  36.017  1.00  0.00     0.022 A 
BRANCH  71  74
ATOM     74  S   UNL A   1      44.546  23.541  34.105  1.00  0.00     0.127 S 
ATOM     75  O   UNL A   1      45.539  23.745  33.049  1.00  0.00    -0.237 OA
ATOM     76  O   UNL A   1      45.054  22.866  35.304  1.00  0.00    -0.237 OA
ATOM     77  O   UNL A   1      43.235  23.095  33.680  1.00  0.00    -0.744 OA
ENDBRANCH  71  74
ENDBRANCH  53  67
BRANCH  54  78
ATOM     78  C   UNL A   1      42.463  25.251  26.206  1.00  0.00     0.023 A 
ATOM     79  C   UNL A   1      43.463  24.861  25.288  1.00  0.00     0.012 A 
ATOM     80  C   UNL A   1      41.549  24.270  26.649  1.00  0.00     0.148 A 
ATOM     81  C   UNL A   1      43.614  23.524  24.908  1.00  0.00     0.002 A 
ATOM     82  C   UNL A   1      41.700  22.942  26.260  1.00  0.00     0.091 A 
ATOM     83  F   UNL A   1      40.601  24.613  27.530  1.00  0.00    -0.205 F 
ATOM     84  C   UNL A   1      42.747  22.561  25.410  1.00  0.00     0.022 A 
BRANCH  82  85
ATOM     85  S   UNL A   1      40.626  21.640  26.880  1.00  0.00     0.127 S 
ATOM     86  O   UNL A   1      39.305  22.101  26.450  1.00  0.00    -0.237 OA
ATOM     87  O   UNL A   1      41.129  20.469  26.165  1.00  0.00    -0.237 OA
ATOM     88  O   UNL A   1      40.814  21.633  28.325  1.00  0.00    -0.744 OA
ENDBRANCH  82  85
ENDBRANCH  54  78
BRANCH  66  89
ATOM     89  C   UNL A   1      45.280  30.496  28.417  1.00  0.00     0.023 A 
ATOM     90  C   UNL A   1      44.138  31.200  27.985  1.00  0.00     0.012 A 
ATOM     91  C   UNL A   1      46.555  30.948  28.044  1.00  0.00     0.148 A 
ATOM     92  C   UNL A   1      44.274  32.344  27.193  1.00  0.00     0.002 A 
ATOM     93  C   UNL A   1      46.686  32.105  27.291  1.00  0.00     0.091 A 
ATOM     94  F   UNL A   1      47.619  30.255  28.473  1.00  0.00    -0.205 F 
ATOM     95  C   UNL A   1      45.548  32.804  26.858  1.00  0.00     0.022 A 
BRANCH  93  96
ATOM     96  S   UNL A   1      48.292  32.807  26.918  1.00  0.00     0.127 S 
ATOM     97  O   UNL A   1      49.024  31.647  26.414  1.00  0.00    -0.237 OA
ATOM     98  O   UNL A   1      47.959  33.809  25.905  1.00  0.00    -0.237 OA
ATOM     99  O   UNL A   1      48.795  33.363  28.168  1.00  0.00    -0.744 OA
ENDBRANCH  93  96
ENDBRANCH  66  89
ENDBRANCH  40  41
ENDBRANCH  32  35
ENDBRANCH  30  31
ENDBRANCH  29  30
ENDBRANCH   1  29
TORSDOF 18
ENDMDL
MODEL 3
REMARK VINA RESULT:     -12.7      3.868      9.492
REMARK SMILES Cc1c(CC(=O)NCCCCNC(=O)c2ccc(-c3c4nc(c(-c5cccc(S(=O)(=O)[O-])c5F)c5ccc([nH]5)c(-c5cccc(S(=O)(=O)[O-])c5F)c5nc(c(-c6cccc(S(=O)(=O)[O-])c6F)c6ccc3[nH]6)C=C5)C=C4)cc2)c2cc(O)ccc2n1C(=O)c1ccc(Cl)cc1
REMARK SMILES IDX 9 1 8 2 7 3 5 4 6 5 4 7 3 8 1 9 2 10 85 11 78 12 84 13 79 14
REMARK SMILES IDX 83 15 80 16 82 17 86 18 87 19 88 20 89 21 94 22 90 23 93 24
REMARK SMILES IDX 91 25 92 26 81 27 10 29 11 30 12 31 13 32 14 34 15 35 16 36
REMARK SMILES IDX 77 37 17 38 76 39 18 40 19 41 20 42 70 43 21 44 75 45 69 46
REMARK SMILES IDX 71 47 22 48 74 49 68 50 67 51 23 53 55 54 35 55 54 56 36 57
REMARK SMILES IDX 39 58 53 59 72 60 37 61 38 62 52 64 73 65 40 66 24 67 25 68
REMARK SMILES IDX 33 69 26 70 28 71 34 72 27 73 29 74 30 75 31 76 32 77 56 78
REMARK SMILES IDX 57 79 65 80 58 81 60 82 66 83 59 84 61 85 62 86 63 87 64 88
REMARK SMILES IDX 41 89 42 90 50 91 43 92 45 93 51 94 44 95 46 96 47 97 48 98
REMARK SMILES IDX 49 99
REMARK H PARENT 7 6 81 28 12 33 71 52 39 63
REMARK Flexibility Score: inf
ROOT
ATOM      1  C   UNL A   1      38.099  23.689  26.184  1.00  0.00     0.023 C 
ENDROOT
BRANCH   1   2
ATOM      2  C   UNL A   1      36.949  23.650  25.179  1.00  0.00     0.116 C 
BRANCH   2   3
ATOM      3  N   UNL A   1      35.675  23.389  25.817  1.00  0.00    -0.356 N 
ATOM      4  C   UNL A   1      34.486  24.033  25.625  1.00  0.00     0.224 C 
ATOM      5  O   UNL A   1      33.494  23.626  26.234  1.00  0.00    -0.275 OA
ATOM      6  H   UNL A   1      35.665  22.654  26.471  1.00  0.00     0.163 HD
BRANCH   4   7
ATOM      7  C   UNL A   1      34.387  25.172  24.622  1.00  0.00     0.138 C 
BRANCH   7   8
ATOM      8  C   UNL A   1      33.141  26.000  24.774  1.00  0.00    -0.009 A 
ATOM      9  C   UNL A   1      31.506  24.718  23.206  1.00  0.00     0.065 C 
ATOM     10  C   UNL A   1      31.911  25.804  24.156  1.00  0.00     0.028 A 
ATOM     11  N   UNL A   1      31.050  26.853  24.517  1.00  0.00    -0.280 N 
ATOM     12  C   UNL A   1      33.014  27.142  25.613  1.00  0.00     0.008 A 
ATOM     13  C   UNL A   1      31.705  27.619  25.497  1.00  0.00     0.057 A 
ATOM     14  C   UNL A   1      33.919  27.795  26.482  1.00  0.00     0.056 A 
ATOM     15  C   UNL A   1      31.282  28.697  26.307  1.00  0.00     0.031 A 
ATOM     16  C   UNL A   1      33.501  28.903  27.212  1.00  0.00     0.116 A 
ATOM     17  C   UNL A   1      32.198  29.348  27.138  1.00  0.00     0.048 A 
BRANCH  11  18
ATOM     18  C   UNL A   1      29.742  27.071  23.988  1.00  0.00     0.262 C 
ATOM     19  O   UNL A   1      28.832  26.310  24.311  1.00  0.00    -0.268 OA
BRANCH  18  20
ATOM     20  C   UNL A   1      29.362  28.196  23.118  1.00  0.00     0.040 A 
ATOM     21  C   UNL A   1      30.316  28.903  22.377  1.00  0.00     0.015 A 
ATOM     22  C   UNL A   1      28.019  28.590  23.126  1.00  0.00     0.015 A 
ATOM     23  C   UNL A   1      29.934  30.081  21.730  1.00  0.00     0.021 A 
ATOM     24  C   UNL A   1      27.645  29.762  22.472  1.00  0.00     0.021 A 
ATOM     25  C   UNL A   1      28.608  30.516  21.801  1.00  0.00     0.041 A 
ATOM     26  Cl  UNL A   1      28.159  32.019  21.094  1.00  0.00    -0.084 Cl
ENDBRANCH  18  20
ENDBRANCH  11  18
BRANCH  16  27
ATOM     27  O   UNL A   1      34.415  29.521  28.013  1.00  0.00    -0.508 OA
ATOM     28  H   UNL A   1      34.890  30.264  27.697  1.00  0.00     0.293 HD
ENDBRANCH  16  27
ENDBRANCH   7   8
ENDBRANCH   4   7
ENDBRANCH   2   3
ENDBRANCH   1   2
BRANCH   1  29
ATOM     29  C   UNL A   1      38.952  22.414  26.208  1.00  0.00     0.023 C 
BRANCH  29  30
ATOM     30  C   UNL A   1      40.164  22.492  27.139  1.00  0.00     0.116 C 
BRANCH  30  31
ATOM     31  N   UNL A   1      41.381  22.899  26.465  1.00  0.00    -0.352 N 
ATOM     32  C   UNL A   1      42.164  24.020  26.489  1.00  0.00     0.251 C 
ATOM     33  H   UNL A   1      41.720  22.212  25.847  1.00  0.00     0.163 HD
ATOM     34  O   UNL A   1      43.236  23.939  25.884  1.00  0.00    -0.269 OA
BRANCH  32  35
ATOM     35  C   UNL A   1      41.775  25.312  27.109  1.00  0.00     0.039 A 
ATOM     36  C   UNL A   1      40.917  26.249  26.535  1.00  0.00     0.014 A 
ATOM     37  C   UNL A   1      42.422  25.638  28.318  1.00  0.00     0.014 A 
ATOM     38  C   UNL A   1      40.816  27.521  27.068  1.00  0.00     0.010 A 
ATOM     39  C   UNL A   1      42.306  26.905  28.872  1.00  0.00     0.010 A 
ATOM     40  C   UNL A   1      41.556  27.861  28.199  1.00  0.00    -0.014 A 
BRANCH  40  41
ATOM     41  C   UNL A   1      41.463  29.242  28.647  1.00  0.00     0.031 A 
ATOM     42  C   UNL A   1      42.650  30.069  28.306  1.00  0.00     0.074 A 
ATOM     43  C   UNL A   1      40.389  29.718  29.308  1.00  0.00     0.049 A 
ATOM     44  N   UNL A   1      43.532  30.564  29.113  1.00  0.00    -0.248 NA
ATOM     45  C   UNL A   1      42.986  30.223  26.882  1.00  0.00     0.031 C 
ATOM     46  C   UNL A   1      39.076  29.082  29.460  1.00  0.00     0.029 A 
ATOM     47  N   UNL A   1      40.208  30.939  29.886  1.00  0.00    -0.354 N 
ATOM     48  C   UNL A   1      44.410  31.287  28.306  1.00  0.00     0.074 A 
ATOM     49  C   UNL A   1      44.128  30.910  26.946  1.00  0.00     0.031 C 
ATOM     50  C   UNL A   1      38.173  30.014  29.838  1.00  0.00     0.029 A 
ATOM     51  C   UNL A   1      38.872  31.256  30.114  1.00  0.00     0.049 A 
ATOM     52  H   UNL A   1      40.951  31.541  30.119  1.00  0.00     0.167 HD
ATOM     53  C   UNL A   1      45.133  32.331  28.793  1.00  0.00     0.034 A 
ATOM     54  C   UNL A   1      38.393  32.482  30.429  1.00  0.00     0.034 A 
ATOM     55  C   UNL A   1      45.113  32.376  30.226  1.00  0.00     0.049 A 
ATOM     56  C   UNL A   1      39.510  33.233  31.047  1.00  0.00     0.074 A 
ATOM     57  C   UNL A   1      45.769  31.755  31.264  1.00  0.00     0.029 A 
ATOM     58  N   UNL A   1      43.985  32.962  30.736  1.00  0.00    -0.354 N 
ATOM     59  N   UNL A   1      40.070  32.891  32.173  1.00  0.00    -0.248 NA
ATOM     60  C   UNL A   1      40.228  34.231  30.263  1.00  0.00     0.031 C 
ATOM     61  C   UNL A   1      44.886  31.820  32.383  1.00  0.00     0.029 A 
ATOM     62  C   UNL A   1      43.734  32.505  32.001  1.00  0.00     0.049 A 
ATOM     63  H   UNL A   1      43.432  33.621  30.259  1.00  0.00     0.167 HD
ATOM     64  C   UNL A   1      41.383  33.294  32.025  1.00  0.00     0.074 A 
ATOM     65  C   UNL A   1      41.376  34.265  30.941  1.00  0.00     0.031 C 
ATOM     66  C   UNL A   1      42.403  32.570  32.560  1.00  0.00     0.034 A 
BRANCH  53  67
ATOM     67  C   UNL A   1      45.489  33.560  27.993  1.00  0.00     0.023 A 
ATOM     68  C   UNL A   1      44.444  34.356  27.480  1.00  0.00     0.012 A 
ATOM     69  C   UNL A   1      46.790  33.801  27.494  1.00  0.00     0.148 A 
ATOM     70  C   UNL A   1      44.685  35.350  26.522  1.00  0.00     0.002 A 
ATOM     71  C   UNL A   1      47.035  34.834  26.596  1.00  0.00     0.091 A 
ATOM     72  F   UNL A   1      47.774  32.942  27.780  1.00  0.00    -0.205 F 
ATOM     73  C   UNL A   1      45.983  35.600  26.092  1.00  0.00     0.022 A 
BRANCH  71  74
ATOM     74  S   UNL A   1      48.699  35.209  26.031  1.00  0.00     0.127 S 
ATOM     75  O   UNL A   1      48.958  34.089  25.124  1.00  0.00    -0.237 OA
ATOM     76  O   UNL A   1      48.501  36.503  25.368  1.00  0.00    -0.237 OA
ATOM     77  O   UNL A   1      49.513  35.270  27.228  1.00  0.00    -0.744 OA
ENDBRANCH  71  74
ENDBRANCH  53  67
BRANCH  54  78
ATOM     78  C   UNL A   1      37.165  33.177  29.969  1.00  0.00     0.023 A 
ATOM     79  C   UNL A   1      36.684  32.902  28.670  1.00  0.00     0.012 A 
ATOM     80  C   UNL A   1      36.291  33.806  30.883  1.00  0.00     0.148 A 
ATOM     81  C   UNL A   1      35.350  33.146  28.327  1.00  0.00     0.002 A 
ATOM     82  C   UNL A   1      34.967  34.054  30.531  1.00  0.00     0.091 A 
ATOM     83  F   UNL A   1      36.721  34.064  32.124  1.00  0.00    -0.205 F 
ATOM     84  C   UNL A   1      34.486  33.702  29.263  1.00  0.00     0.022 A 
BRANCH  82  85
ATOM     85  S   UNL A   1      33.789  34.757  31.694  1.00  0.00     0.127 S 
ATOM     86  O   UNL A   1      34.469  35.982  32.116  1.00  0.00    -0.237 OA
ATOM     87  O   UNL A   1      32.618  34.966  30.846  1.00  0.00    -0.237 OA
ATOM     88  O   UNL A   1      33.642  33.763  32.750  1.00  0.00    -0.744 OA
ENDBRANCH  82  85
ENDBRANCH  54  78
BRANCH  66  89
ATOM     89  C   UNL A   1      42.080  31.638  33.686  1.00  0.00     0.023 A 
ATOM     90  C   UNL A   1      41.756  32.086  34.981  1.00  0.00     0.012 A 
ATOM     91  C   UNL A   1      41.970  30.274  33.377  1.00  0.00     0.148 A 
ATOM     92  C   UNL A   1      41.326  31.179  35.954  1.00  0.00     0.002 A 
ATOM     93  C   UNL A   1      41.506  29.383  34.333  1.00  0.00     0.091 A 
ATOM     94  F   UNL A   1      42.285  29.882  32.134  1.00  0.00    -0.205 F 
ATOM     95  C   UNL A   1      41.187  29.830  35.625  1.00  0.00     0.022 A 
BRANCH  93  96
ATOM     96  S   UNL A   1      41.204  27.660  33.946  1.00  0.00     0.127 S 
ATOM     97  O   UNL A   1      41.153  27.052  35.274  1.00  0.00    -0.237 OA
ATOM     98  O   UNL A   1      39.917  27.724  33.253  1.00  0.00    -0.237 OA
ATOM     99  O   UNL A   1      42.316  27.229  33.108  1.00  0.00    -0.744 OA
ENDBRANCH  93  96
ENDBRANCH  66  89
ENDBRANCH  40  41
ENDBRANCH  32  35
ENDBRANCH  30  31
ENDBRANCH  29  30
ENDBRANCH   1  29
TORSDOF 18
ENDMDL
